MODEL 1
REMARK VINA RESULT:      -9.0      0.000      0.000
REMARK SMILES CC[C@H]1SC[C@H](C(=O)NCCCCCCNC(=O)c2ccc(-c3c4nc(c(-c5ccccc5)c5ccc([nH]5)c(-c5ccccc5)c5nc(c(-c6ccccc6)c6ccc3[nH]6)C=C5)C=C4)cc2)N1C(=O)Cc1ccc(F)c(F)c1
REMARK SMILES IDX 12 1 11 2 10 3 9 4 7 5 8 6 6 8 3 9 4 10 67 11 5 12 2 13 1 14
REMARK SMILES IDX 68 15 69 16 70 17 71 18 72 19 78 20 73 21 76 22 74 23 77 24
REMARK SMILES IDX 75 25 13 26 14 27 15 28 16 29 17 30 18 32 19 33 20 34 66 35
REMARK SMILES IDX 21 36 65 37 22 38 23 39 24 40 59 41 25 42 64 43 58 44 60 45
REMARK SMILES IDX 26 46 63 47 57 48 56 49 27 51 49 52 34 53 48 54 35 55 38 56
REMARK SMILES IDX 47 57 61 58 36 59 37 60 46 62 62 63 39 64 28 65 29 66 33 67
REMARK SMILES IDX 30 68 32 69 31 70 50 71 51 72 55 73 52 74 54 75 53 76 40 77
REMARK SMILES IDX 41 78 45 79 42 80 44 81 43 82
REMARK H PARENT 9 7 16 31 60 50 38 61
REMARK Flexibility Score: inf
ROOT
ATOM      1  C   UNL A   1      45.603  21.724  25.581  1.00  0.00     0.002 C 
ENDROOT
BRANCH   1   2
ATOM      2  C   UNL A   1      45.602  23.070  24.859  1.00  0.00     0.021 C 
BRANCH   2   3
ATOM      3  C   UNL A   1      46.678  24.032  25.339  1.00  0.00     0.116 C 
BRANCH   3   4
ATOM      4  N   UNL A   1      47.305  24.743  24.247  1.00  0.00    -0.354 N 
ATOM      5  C   UNL A   1      48.227  25.744  24.244  1.00  0.00     0.243 C 
ATOM      6  O   UNL A   1      48.531  26.210  23.138  1.00  0.00    -0.273 OA
ATOM      7  H   UNL A   1      47.016  24.452  23.353  1.00  0.00     0.163 HD
BRANCH   5   8
ATOM      8  C   UNL A   1      48.726  26.445  25.530  1.00  0.00     0.185 C 
ATOM      9  C   UNL A   1      49.595  28.726  25.955  1.00  0.00     0.143 C 
ATOM     10  S   UNL A   1      50.994  27.807  25.238  1.00  0.00    -0.134 SA
ATOM     11  N   UNL A   1      48.429  27.881  25.664  1.00  0.00    -0.318 N 
ATOM     12  C   UNL A   1      50.237  26.210  25.621  1.00  0.00     0.107 C 
BRANCH   9  13
ATOM     13  C   UNL A   1      49.728  29.006  27.472  1.00  0.00     0.033 C 
ATOM     14  C   UNL A   1      48.957  30.179  28.065  1.00  0.00     0.007 C 
ENDBRANCH   9  13
BRANCH  11  15
ATOM     15  C   UNL A   1      47.101  28.269  25.625  1.00  0.00     0.228 C 
ATOM     16  O   UNL A   1      46.729  29.210  24.921  1.00  0.00    -0.274 OA
BRANCH  15  17
ATOM     17  C   UNL A   1      46.111  27.595  26.562  1.00  0.00     0.135 C 
BRANCH  17  18
ATOM     18  C   UNL A   1      44.673  28.009  26.393  1.00  0.00    -0.036 A 
ATOM     19  C   UNL A   1      44.184  29.216  26.917  1.00  0.00     0.007 A 
ATOM     20  C   UNL A   1      43.788  27.149  25.725  1.00  0.00     0.046 A 
ATOM     21  C   UNL A   1      42.862  29.601  26.691  1.00  0.00     0.043 A 
ATOM     22  C   UNL A   1      42.466  27.532  25.521  1.00  0.00     0.159 A 
ATOM     23  C   UNL A   1      42.012  28.759  25.985  1.00  0.00     0.158 A 
ATOM     24  F   UNL A   1      41.641  26.708  24.862  1.00  0.00    -0.204 F 
ATOM     25  F   UNL A   1      40.749  29.142  25.755  1.00  0.00    -0.204 F 
ENDBRANCH  17  18
ENDBRANCH  15  17
ENDBRANCH  11  15
ENDBRANCH   5   8
ENDBRANCH   3   4
ENDBRANCH   2   3
ENDBRANCH   1   2
BRANCH   1  26
ATOM     26  C   UNL A   1      45.953  20.519  24.702  1.00  0.00     0.002 C 
BRANCH  26  27
ATOM     27  C   UNL A   1      44.821  19.508  24.496  1.00  0.00     0.021 C 
BRANCH  27  28
ATOM     28  C   UNL A   1      44.083  19.112  25.769  1.00  0.00     0.116 C 
BRANCH  28  29
ATOM     29  N   UNL A   1      42.674  18.857  25.527  1.00  0.00    -0.352 N 
ATOM     30  C   UNL A   1      41.582  19.590  25.907  1.00  0.00     0.251 C 
ATOM     31  H   UNL A   1      42.475  18.039  25.017  1.00  0.00     0.163 HD
ATOM     32  O   UNL A   1      40.451  19.127  25.785  1.00  0.00    -0.269 OA
BRANCH  30  33
ATOM     33  C   UNL A   1      41.769  20.934  26.485  1.00  0.00     0.039 A 
ATOM     34  C   UNL A   1      41.708  21.086  27.873  1.00  0.00     0.014 A 
ATOM     35  C   UNL A   1      42.002  22.041  25.663  1.00  0.00     0.014 A 
ATOM     36  C   UNL A   1      41.928  22.340  28.439  1.00  0.00     0.010 A 
ATOM     37  C   UNL A   1      42.302  23.273  26.232  1.00  0.00     0.010 A 
ATOM     38  C   UNL A   1      42.256  23.437  27.625  1.00  0.00    -0.014 A 
BRANCH  38  39
ATOM     39  C   UNL A   1      42.557  24.763  28.216  1.00  0.00     0.031 A 
ATOM     40  C   UNL A   1      43.934  25.068  28.736  1.00  0.00     0.074 A 
ATOM     41  C   UNL A   1      41.570  25.669  28.348  1.00  0.00     0.049 A 
ATOM     42  N   UNL A   1      44.373  26.153  29.320  1.00  0.00    -0.248 NA
ATOM     43  C   UNL A   1      44.938  24.002  28.610  1.00  0.00     0.031 C 
ATOM     44  C   UNL A   1      40.180  25.473  27.932  1.00  0.00     0.029 A 
ATOM     45  N   UNL A   1      41.586  26.934  28.878  1.00  0.00    -0.354 N 
ATOM     46  C   UNL A   1      45.698  25.893  29.647  1.00  0.00     0.074 A 
ATOM     47  C   UNL A   1      45.971  24.529  29.250  1.00  0.00     0.031 C 
ATOM     48  C   UNL A   1      39.481  26.585  28.204  1.00  0.00     0.029 A 
ATOM     49  C   UNL A   1      40.361  27.555  28.848  1.00  0.00     0.049 A 
ATOM     50  H   UNL A   1      42.396  27.356  29.245  1.00  0.00     0.167 HD
ATOM     51  C   UNL A   1      46.611  26.720  30.211  1.00  0.00     0.031 A 
ATOM     52  C   UNL A   1      39.984  28.767  29.297  1.00  0.00     0.031 A 
ATOM     53  C   UNL A   1      46.333  28.075  30.610  1.00  0.00     0.049 A 
ATOM     54  C   UNL A   1      41.008  29.669  29.924  1.00  0.00     0.074 A 
ATOM     55  C   UNL A   1      47.204  29.017  31.127  1.00  0.00     0.029 A 
ATOM     56  N   UNL A   1      45.083  28.674  30.548  1.00  0.00    -0.354 N 
ATOM     57  N   UNL A   1      42.281  29.442  30.146  1.00  0.00    -0.248 NA
ATOM     58  C   UNL A   1      40.548  30.997  30.348  1.00  0.00     0.031 C 
ATOM     59  C   UNL A   1      46.467  30.165  31.442  1.00  0.00     0.029 A 
ATOM     60  C   UNL A   1      45.151  29.963  31.054  1.00  0.00     0.049 A 
ATOM     61  H   UNL A   1      44.269  28.247  30.198  1.00  0.00     0.167 HD
ATOM     62  C   UNL A   1      42.779  30.607  30.717  1.00  0.00     0.074 A 
ATOM     63  C   UNL A   1      41.674  31.541  30.789  1.00  0.00     0.031 C 
ATOM     64  C   UNL A   1      44.039  30.877  31.139  1.00  0.00     0.031 A 
BRANCH  51  65
ATOM     65  C   UNL A   1      47.986  26.158  30.455  1.00  0.00    -0.014 A 
ATOM     66  C   UNL A   1      48.387  25.719  31.728  1.00  0.00     0.009 A 
ATOM     67  C   UNL A   1      48.902  26.073  29.394  1.00  0.00     0.009 A 
ATOM     68  C   UNL A   1      49.690  25.267  31.946  1.00  0.00     0.001 A 
ATOM     69  C   UNL A   1      50.192  25.586  29.607  1.00  0.00     0.001 A 
ATOM     70  C   UNL A   1      50.591  25.197  30.885  1.00  0.00     0.000 A 
ENDBRANCH  51  65
BRANCH  52  71
ATOM     71  C   UNL A   1      38.567  29.188  29.152  1.00  0.00    -0.014 A 
ATOM     72  C   UNL A   1      37.678  29.099  30.234  1.00  0.00     0.009 A 
ATOM     73  C   UNL A   1      38.108  29.727  27.939  1.00  0.00     0.009 A 
ATOM     74  C   UNL A   1      36.356  29.530  30.100  1.00  0.00     0.001 A 
ATOM     75  C   UNL A   1      36.795  30.184  27.818  1.00  0.00     0.001 A 
ATOM     76  C   UNL A   1      35.919  30.080  28.895  1.00  0.00     0.000 A 
ENDBRANCH  52  71
BRANCH  64  77
ATOM     77  C   UNL A   1      44.297  32.248  31.700  1.00  0.00    -0.014 A 
ATOM     78  C   UNL A   1      44.692  33.314  30.877  1.00  0.00     0.009 A 
ATOM     79  C   UNL A   1      44.098  32.486  33.070  1.00  0.00     0.009 A 
ATOM     80  C   UNL A   1      44.916  34.581  31.420  1.00  0.00     0.001 A 
ATOM     81  C   UNL A   1      44.292  33.761  33.604  1.00  0.00     0.001 A 
ATOM     82  C   UNL A   1      44.709  34.804  32.781  1.00  0.00     0.000 A 
ENDBRANCH  64  77
ENDBRANCH  38  39
ENDBRANCH  30  33
ENDBRANCH  28  29
ENDBRANCH  27  28
ENDBRANCH  26  27
ENDBRANCH   1  26
TORSDOF 17
ENDMDL
MODEL 2
REMARK VINA RESULT:      -8.6      0.437      5.868
REMARK SMILES CC[C@H]1SC[C@H](C(=O)NCCCCCCNC(=O)c2ccc(-c3c4nc(c(-c5ccccc5)c5ccc([nH]5)c(-c5ccccc5)c5nc(c(-c6ccccc6)c6ccc3[nH]6)C=C5)C=C4)cc2)N1C(=O)Cc1ccc(F)c(F)c1
REMARK SMILES IDX 12 1 11 2 10 3 9 4 7 5 8 6 6 8 3 9 4 10 67 11 5 12 2 13 1 14
REMARK SMILES IDX 68 15 69 16 70 17 71 18 72 19 78 20 73 21 76 22 74 23 77 24
REMARK SMILES IDX 75 25 13 26 14 27 15 28 16 29 17 30 18 32 19 33 20 34 66 35
REMARK SMILES IDX 21 36 65 37 22 38 23 39 24 40 59 41 25 42 64 43 58 44 60 45
REMARK SMILES IDX 26 46 63 47 57 48 56 49 27 51 49 52 34 53 48 54 35 55 38 56
REMARK SMILES IDX 47 57 61 58 36 59 37 60 46 62 62 63 39 64 28 65 29 66 33 67
REMARK SMILES IDX 30 68 32 69 31 70 50 71 51 72 55 73 52 74 54 75 53 76 40 77
REMARK SMILES IDX 41 78 45 79 42 80 44 81 43 82
REMARK H PARENT 9 7 16 31 60 50 38 61
REMARK Flexibility Score: inf
ROOT
ATOM      1  C   UNL A   1      45.629  21.680  25.510  1.00  0.00     0.002 C 
ENDROOT
BRANCH   1   2
ATOM      2  C   UNL A   1      45.643  22.970  24.692  1.00  0.00     0.021 C 
BRANCH   2   3
ATOM      3  C   UNL A   1      46.633  24.011  25.192  1.00  0.00     0.116 C 
BRANCH   3   4
ATOM      4  N   UNL A   1      47.292  24.706  24.109  1.00  0.00    -0.354 N 
ATOM      5  C   UNL A   1      48.244  25.680  24.118  1.00  0.00     0.243 C 
ATOM      6  O   UNL A   1      48.572  26.140  23.017  1.00  0.00    -0.273 OA
ATOM      7  H   UNL A   1      47.002  24.427  23.211  1.00  0.00     0.163 HD
BRANCH   5   8
ATOM      8  C   UNL A   1      48.751  26.361  25.411  1.00  0.00     0.185 C 
ATOM      9  C   UNL A   1      49.620  28.636  25.867  1.00  0.00     0.143 C 
ATOM     10  S   UNL A   1      51.015  27.729  25.126  1.00  0.00    -0.134 SA
ATOM     11  N   UNL A   1      48.453  27.794  25.571  1.00  0.00    -0.318 N 
ATOM     12  C   UNL A   1      50.262  26.125  25.488  1.00  0.00     0.107 C 
BRANCH   9  13
ATOM     13  C   UNL A   1      49.764  28.892  27.387  1.00  0.00     0.033 C 
ATOM     14  C   UNL A   1      50.149  30.290  27.855  1.00  0.00     0.007 C 
ENDBRANCH   9  13
BRANCH  11  15
ATOM     15  C   UNL A   1      47.124  28.181  25.547  1.00  0.00     0.228 C 
ATOM     16  O   UNL A   1      46.738  29.101  24.823  1.00  0.00    -0.274 OA
BRANCH  15  17
ATOM     17  C   UNL A   1      46.153  27.534  26.523  1.00  0.00     0.135 C 
BRANCH  17  18
ATOM     18  C   UNL A   1      44.697  27.837  26.285  1.00  0.00    -0.036 A 
ATOM     19  C   UNL A   1      43.891  27.012  25.485  1.00  0.00     0.007 A 
ATOM     20  C   UNL A   1      44.139  28.994  26.850  1.00  0.00     0.046 A 
ATOM     21  C   UNL A   1      42.530  27.284  25.334  1.00  0.00     0.043 A 
ATOM     22  C   UNL A   1      42.786  29.269  26.678  1.00  0.00     0.159 A 
ATOM     23  C   UNL A   1      41.983  28.408  25.940  1.00  0.00     0.158 A 
ATOM     24  F   UNL A   1      42.264  30.366  27.241  1.00  0.00    -0.204 F 
ATOM     25  F   UNL A   1      40.674  28.655  25.807  1.00  0.00    -0.204 F 
ENDBRANCH  17  18
ENDBRANCH  15  17
ENDBRANCH  11  15
ENDBRANCH   5   8
ENDBRANCH   3   4
ENDBRANCH   2   3
ENDBRANCH   1   2
BRANCH   1  26
ATOM     26  C   UNL A   1      45.843  20.397  24.699  1.00  0.00     0.002 C 
BRANCH  26  27
ATOM     27  C   UNL A   1      44.576  19.587  24.410  1.00  0.00     0.021 C 
BRANCH  27  28
ATOM     28  C   UNL A   1      43.836  19.100  25.649  1.00  0.00     0.116 C 
BRANCH  28  29
ATOM     29  N   UNL A   1      42.416  18.920  25.403  1.00  0.00    -0.352 N 
ATOM     30  C   UNL A   1      41.359  19.682  25.825  1.00  0.00     0.251 C 
ATOM     31  H   UNL A   1      42.179  18.138  24.855  1.00  0.00     0.163 HD
ATOM     32  O   UNL A   1      40.208  19.276  25.686  1.00  0.00    -0.269 OA
BRANCH  30  33
ATOM     33  C   UNL A   1      41.609  20.985  26.467  1.00  0.00     0.039 A 
ATOM     34  C   UNL A   1      41.458  21.095  27.851  1.00  0.00     0.014 A 
ATOM     35  C   UNL A   1      41.986  22.097  25.707  1.00  0.00     0.014 A 
ATOM     36  C   UNL A   1      41.734  22.308  28.480  1.00  0.00     0.010 A 
ATOM     37  C   UNL A   1      42.339  23.281  26.344  1.00  0.00     0.010 A 
ATOM     38  C   UNL A   1      42.205  23.402  27.735  1.00  0.00    -0.014 A 
BRANCH  38  39
ATOM     39  C   UNL A   1      42.564  24.678  28.398  1.00  0.00     0.031 A 
ATOM     40  C   UNL A   1      41.535  25.759  28.570  1.00  0.00     0.074 A 
ATOM     41  C   UNL A   1      43.837  24.891  28.783  1.00  0.00     0.049 A 
ATOM     42  N   UNL A   1      41.672  26.954  29.089  1.00  0.00    -0.248 NA
ATOM     43  C   UNL A   1      40.184  25.472  28.068  1.00  0.00     0.031 C 
ATOM     44  C   UNL A   1      44.940  23.941  28.620  1.00  0.00     0.029 A 
ATOM     45  N   UNL A   1      44.418  25.979  29.381  1.00  0.00    -0.354 N 
ATOM     46  C   UNL A   1      40.431  27.564  28.956  1.00  0.00     0.074 A 
ATOM     47  C   UNL A   1      39.574  26.632  28.258  1.00  0.00     0.031 C 
ATOM     48  C   UNL A   1      46.059  24.480  29.126  1.00  0.00     0.029 A 
ATOM     49  C   UNL A   1      45.763  25.825  29.610  1.00  0.00     0.049 A 
ATOM     50  H   UNL A   1      43.919  26.793  29.622  1.00  0.00     0.167 HD
ATOM     51  C   UNL A   1      40.036  28.784  29.392  1.00  0.00     0.031 A 
ATOM     52  C   UNL A   1      46.663  26.673  30.141  1.00  0.00     0.031 A 
ATOM     53  C   UNL A   1      40.894  29.711  30.081  1.00  0.00     0.049 A 
ATOM     54  C   UNL A   1      46.207  28.024  30.615  1.00  0.00     0.074 A 
ATOM     55  C   UNL A   1      40.574  30.943  30.625  1.00  0.00     0.029 A 
ATOM     56  N   UNL A   1      42.248  29.512  30.310  1.00  0.00    -0.354 N 
ATOM     57  N   UNL A   1      45.009  28.554  30.565  1.00  0.00    -0.248 NA
ATOM     58  C   UNL A   1      47.225  28.885  31.232  1.00  0.00     0.031 C 
ATOM     59  C   UNL A   1      41.749  31.519  31.122  1.00  0.00     0.029 A 
ATOM     60  C   UNL A   1      42.787  30.615  30.952  1.00  0.00     0.049 A 
ATOM     61  H   UNL A   1      42.751  28.706  30.053  1.00  0.00     0.167 HD
ATOM     62  C   UNL A   1      45.122  29.804  31.161  1.00  0.00     0.074 A 
ATOM     63  C   UNL A   1      46.503  29.941  31.581  1.00  0.00     0.031 C 
ATOM     64  C   UNL A   1      44.167  30.749  31.347  1.00  0.00     0.031 A 
BRANCH  51  65
ATOM     65  C   UNL A   1      38.615  29.189  29.101  1.00  0.00    -0.014 A 
ATOM     66  C   UNL A   1      38.238  29.704  27.848  1.00  0.00     0.009 A 
ATOM     67  C   UNL A   1      37.636  29.060  30.098  1.00  0.00     0.009 A 
ATOM     68  C   UNL A   1      36.930  30.137  27.623  1.00  0.00     0.001 A 
ATOM     69  C   UNL A   1      36.320  29.460  29.859  1.00  0.00     0.001 A 
ATOM     70  C   UNL A   1      35.971  30.012  28.627  1.00  0.00     0.000 A 
ENDBRANCH  51  65
BRANCH  52  71
ATOM     71  C   UNL A   1      48.082  26.251  30.257  1.00  0.00    -0.014 A 
ATOM     72  C   UNL A   1      48.613  25.850  31.492  1.00  0.00     0.009 A 
ATOM     73  C   UNL A   1      48.902  26.202  29.118  1.00  0.00     0.009 A 
ATOM     74  C   UNL A   1      49.939  25.421  31.586  1.00  0.00     0.001 A 
ATOM     75  C   UNL A   1      50.217  25.745  29.210  1.00  0.00     0.001 A 
ATOM     76  C   UNL A   1      50.737  25.360  30.443  1.00  0.00     0.000 A 
ENDBRANCH  52  71
BRANCH  64  77
ATOM     77  C   UNL A   1      44.578  32.011  32.053  1.00  0.00    -0.014 A 
ATOM     78  C   UNL A   1      44.442  32.149  33.444  1.00  0.00     0.009 A 
ATOM     79  C   UNL A   1      45.151  33.063  31.320  1.00  0.00     0.009 A 
ATOM     80  C   UNL A   1      44.839  33.328  34.079  1.00  0.00     0.001 A 
ATOM     81  C   UNL A   1      45.577  34.226  31.962  1.00  0.00     0.001 A 
ATOM     82  C   UNL A   1      45.412  34.362  33.339  1.00  0.00     0.000 A 
ENDBRANCH  64  77
ENDBRANCH  38  39
ENDBRANCH  30  33
ENDBRANCH  28  29
ENDBRANCH  27  28
ENDBRANCH  26  27
ENDBRANCH   1  26
TORSDOF 17
ENDMDL
MODEL 3
REMARK VINA RESULT:      -8.2      6.309     12.008
REMARK SMILES CC[C@H]1SC[C@H](C(=O)NCCCCCCNC(=O)c2ccc(-c3c4nc(c(-c5ccccc5)c5ccc([nH]5)c(-c5ccccc5)c5nc(c(-c6ccccc6)c6ccc3[nH]6)C=C5)C=C4)cc2)N1C(=O)Cc1ccc(F)c(F)c1
REMARK SMILES IDX 12 1 11 2 10 3 9 4 7 5 8 6 6 8 3 9 4 10 67 11 5 12 2 13 1 14
REMARK SMILES IDX 68 15 69 16 70 17 71 18 72 19 78 20 73 21 76 22 74 23 77 24
REMARK SMILES IDX 75 25 13 26 14 27 15 28 16 29 17 30 18 32 19 33 20 34 66 35
REMARK SMILES IDX 21 36 65 37 22 38 23 39 24 40 59 41 25 42 64 43 58 44 60 45
REMARK SMILES IDX 26 46 63 47 57 48 56 49 27 51 49 52 34 53 48 54 35 55 38 56
REMARK SMILES IDX 47 57 61 58 36 59 37 60 46 62 62 63 39 64 28 65 29 66 33 67
REMARK SMILES IDX 30 68 32 69 31 70 50 71 51 72 55 73 52 74 54 75 53 76 40 77
REMARK SMILES IDX 41 78 45 79 42 80 44 81 43 82
REMARK H PARENT 9 7 16 31 60 50 38 61
REMARK Flexibility Score: inf
ROOT
ATOM      1  C   UNL A   1      32.580  29.671  27.126  1.00  0.00     0.002 C 
ENDROOT
BRANCH   1   2
ATOM      2  C   UNL A   1      32.360  28.189  27.424  1.00  0.00     0.021 C 
BRANCH   2   3
ATOM      3  C   UNL A   1      31.590  27.447  26.342  1.00  0.00     0.116 C 
BRANCH   3   4
ATOM      4  N   UNL A   1      31.174  26.130  26.771  1.00  0.00    -0.354 N 
ATOM      5  C   UNL A   1      31.697  24.899  26.519  1.00  0.00     0.243 C 
ATOM      6  O   UNL A   1      31.073  23.931  26.972  1.00  0.00    -0.273 OA
ATOM      7  H   UNL A   1      30.373  26.123  27.343  1.00  0.00     0.163 HD
BRANCH   5   8
ATOM      8  C   UNL A   1      32.873  24.659  25.542  1.00  0.00     0.185 C 
ATOM      9  C   UNL A   1      33.521  22.706  24.161  1.00  0.00     0.143 C 
ATOM     10  S   UNL A   1      34.102  22.318  25.843  1.00  0.00    -0.134 SA
ATOM     11  N   UNL A   1      32.596  23.830  24.357  1.00  0.00    -0.318 N 
ATOM     12  C   UNL A   1      34.022  24.052  26.351  1.00  0.00     0.107 C 
BRANCH   9  13
ATOM     13  C   UNL A   1      34.651  23.068  23.166  1.00  0.00     0.033 C 
ATOM     14  C   UNL A   1      36.096  22.827  23.589  1.00  0.00     0.007 C 
ENDBRANCH   9  13
BRANCH  11  15
ATOM     15  C   UNL A   1      31.593  24.250  23.499  1.00  0.00     0.228 C 
ATOM     16  O   UNL A   1      30.492  23.698  23.483  1.00  0.00    -0.274 OA
BRANCH  15  17
ATOM     17  C   UNL A   1      31.906  25.333  22.478  1.00  0.00     0.135 C 
BRANCH  17  18
ATOM     18  C   UNL A   1      31.278  26.676  22.745  1.00  0.00    -0.036 A 
ATOM     19  C   UNL A   1      32.030  27.862  22.721  1.00  0.00     0.007 A 
ATOM     20  C   UNL A   1      29.913  26.742  23.061  1.00  0.00     0.046 A 
ATOM     21  C   UNL A   1      31.408  29.097  22.912  1.00  0.00     0.043 A 
ATOM     22  C   UNL A   1      29.305  27.975  23.269  1.00  0.00     0.159 A 
ATOM     23  C   UNL A   1      30.045  29.147  23.176  1.00  0.00     0.158 A 
ATOM     24  F   UNL A   1      27.996  28.021  23.549  1.00  0.00    -0.204 F 
ATOM     25  F   UNL A   1      29.451  30.336  23.339  1.00  0.00    -0.204 F 
ENDBRANCH  17  18
ENDBRANCH  15  17
ENDBRANCH  11  15
ENDBRANCH   5   8
ENDBRANCH   3   4
ENDBRANCH   2   3
ENDBRANCH   1   2
BRANCH   1  26
ATOM     26  C   UNL A   1      31.426  30.362  26.391  1.00  0.00     0.002 C 
BRANCH  26  27
ATOM     27  C   UNL A   1      31.403  31.889  26.500  1.00  0.00     0.021 C 
BRANCH  27  28
ATOM     28  C   UNL A   1      32.606  32.495  27.212  1.00  0.00     0.116 C 
BRANCH  28  29
ATOM     29  N   UNL A   1      32.392  33.889  27.558  1.00  0.00    -0.352 N 
ATOM     30  C   UNL A   1      33.050  34.667  28.472  1.00  0.00     0.251 C 
ATOM     31  H   UNL A   1      31.670  34.340  27.063  1.00  0.00     0.163 HD
ATOM     32  O   UNL A   1      32.612  35.775  28.774  1.00  0.00    -0.269 OA
BRANCH  30  33
ATOM     33  C   UNL A   1      34.279  34.162  29.111  1.00  0.00     0.039 A 
ATOM     34  C   UNL A   1      34.169  33.401  30.278  1.00  0.00     0.014 A 
ATOM     35  C   UNL A   1      35.536  34.441  28.566  1.00  0.00     0.014 A 
ATOM     36  C   UNL A   1      35.317  32.878  30.869  1.00  0.00     0.010 A 
ATOM     37  C   UNL A   1      36.671  33.851  29.110  1.00  0.00     0.010 A 
ATOM     38  C   UNL A   1      36.574  33.074  30.273  1.00  0.00    -0.014 A 
BRANCH  38  39
ATOM     39  C   UNL A   1      37.797  32.469  30.855  1.00  0.00     0.031 A 
ATOM     40  C   UNL A   1      38.395  31.232  30.246  1.00  0.00     0.074 A 
ATOM     41  C   UNL A   1      38.329  32.996  31.973  1.00  0.00     0.049 A 
ATOM     42  N   UNL A   1      39.435  30.541  30.637  1.00  0.00    -0.248 NA
ATOM     43  C   UNL A   1      37.717  30.684  29.063  1.00  0.00     0.031 C 
ATOM     44  C   UNL A   1      37.810  34.163  32.689  1.00  0.00     0.029 A 
ATOM     45  N   UNL A   1      39.422  32.611  32.708  1.00  0.00    -0.354 N 
ATOM     46  C   UNL A   1      39.523  29.467  29.760  1.00  0.00     0.074 A 
ATOM     47  C   UNL A   1      38.399  29.568  28.856  1.00  0.00     0.031 C 
ATOM     48  C   UNL A   1      38.595  34.411  33.748  1.00  0.00     0.029 A 
ATOM     49  C   UNL A   1      39.646  33.401  33.809  1.00  0.00     0.049 A 
ATOM     50  H   UNL A   1      39.989  31.843  32.470  1.00  0.00     0.167 HD
ATOM     51  C   UNL A   1      40.464  28.495  29.701  1.00  0.00     0.031 A 
ATOM     52  C   UNL A   1      40.587  33.317  34.768  1.00  0.00     0.031 A 
ATOM     53  C   UNL A   1      41.578  28.396  30.607  1.00  0.00     0.049 A 
ATOM     54  C   UNL A   1      41.620  32.230  34.689  1.00  0.00     0.074 A 
ATOM     55  C   UNL A   1      42.625  27.491  30.592  1.00  0.00     0.029 A 
ATOM     56  N   UNL A   1      41.781  29.225  31.701  1.00  0.00    -0.354 N 
ATOM     57  N   UNL A   1      41.744  31.273  33.801  1.00  0.00    -0.248 NA
ATOM     58  C   UNL A   1      42.651  32.221  35.735  1.00  0.00     0.031 C 
ATOM     59  C   UNL A   1      43.424  27.729  31.716  1.00  0.00     0.029 A 
ATOM     60  C   UNL A   1      42.916  28.829  32.391  1.00  0.00     0.049 A 
ATOM     61  H   UNL A   1      41.204  29.982  31.950  1.00  0.00     0.167 HD
ATOM     62  C   UNL A   1      42.878  30.559  34.168  1.00  0.00     0.074 A 
ATOM     63  C   UNL A   1      43.413  31.207  35.350  1.00  0.00     0.031 C 
ATOM     64  C   UNL A   1      43.427  29.469  33.578  1.00  0.00     0.031 A 
BRANCH  51  65
ATOM     65  C   UNL A   1      40.301  27.446  28.633  1.00  0.00    -0.014 A 
ATOM     66  C   UNL A   1      39.579  26.264  28.867  1.00  0.00     0.009 A 
ATOM     67  C   UNL A   1      40.886  27.640  27.372  1.00  0.00     0.009 A 
ATOM     68  C   UNL A   1      39.499  25.274  27.885  1.00  0.00     0.001 A 
ATOM     69  C   UNL A   1      40.773  26.665  26.379  1.00  0.00     0.001 A 
ATOM     70  C   UNL A   1      40.093  25.477  26.641  1.00  0.00     0.000 A 
ENDBRANCH  51  65
BRANCH  52  71
ATOM     71  C   UNL A   1      40.588  34.307  35.875  1.00  0.00    -0.014 A 
ATOM     72  C   UNL A   1      41.292  35.515  35.756  1.00  0.00     0.009 A 
ATOM     73  C   UNL A   1      39.844  34.067  37.042  1.00  0.00     0.009 A 
ATOM     74  C   UNL A   1      41.259  36.456  36.788  1.00  0.00     0.001 A 
ATOM     75  C   UNL A   1      39.790  35.022  38.058  1.00  0.00     0.001 A 
ATOM     76  C   UNL A   1      40.502  36.213  37.933  1.00  0.00     0.000 A 
ENDBRANCH  52  71
BRANCH  64  77
ATOM     77  C   UNL A   1      44.685  28.916  34.189  1.00  0.00    -0.014 A 
ATOM     78  C   UNL A   1      45.951  29.393  33.816  1.00  0.00     0.009 A 
ATOM     79  C   UNL A   1      44.598  27.932  35.187  1.00  0.00     0.009 A 
ATOM     80  C   UNL A   1      47.105  28.871  34.404  1.00  0.00     0.001 A 
ATOM     81  C   UNL A   1      45.750  27.435  35.796  1.00  0.00     0.001 A 
ATOM     82  C   UNL A   1      47.003  27.898  35.399  1.00  0.00     0.000 A 
ENDBRANCH  64  77
ENDBRANCH  38  39
ENDBRANCH  30  33
ENDBRANCH  28  29
ENDBRANCH  27  28
ENDBRANCH  26  27
ENDBRANCH   1  26
TORSDOF 17
ENDMDL
