MODEL 1
REMARK VINA RESULT:     -11.9      0.000      0.000
REMARK SMILES Cc1cc(OC(F)(F)F)cc2c1O[C@H](C(F)(F)F)C(C(=O)NCCCCCCNC(=O)c1ccc(-c3c4nc(c(-c5ccccc5)c5ccc([nH]5)c(-c5ccccc5)c5nc(c(-c6ccccc6)c6ccc3[nH]6)C=C5)C=C4)cc1)=C2
REMARK SMILES IDX 25 1 24 2 23 3 22 4 20 5 21 6 19 8 1 9 2 10 3 11 12 12 4 13
REMARK SMILES IDX 11 14 13 15 10 16 80 17 14 18 5 19 6 20 7 21 8 22 9 23 15 24
REMARK SMILES IDX 16 25 17 26 18 27 26 28 27 29 28 30 29 31 30 32 31 34 32 35
REMARK SMILES IDX 33 36 79 37 34 38 78 39 35 40 36 41 37 42 72 43 38 44 77 45
REMARK SMILES IDX 71 46 73 47 39 48 76 49 70 50 69 51 40 53 62 54 47 55 61 56
REMARK SMILES IDX 48 57 51 58 60 59 74 60 49 61 50 62 59 64 75 65 52 66 41 67
REMARK SMILES IDX 42 68 46 69 43 70 45 71 44 72 63 73 64 74 68 75 65 76 67 77
REMARK SMILES IDX 66 78 53 79 54 80 58 81 55 82 57 83 56 84
REMARK H PARENT 22 7 29 33 73 52 51 63
REMARK Flexibility Score: inf
ROOT
ATOM      1  C   UNL A   1      30.926  28.665  24.450  1.00  0.00     0.002 C 
ENDROOT
BRANCH   1   2
ATOM      2  C   UNL A   1      31.138  28.320  22.975  1.00  0.00     0.021 C 
BRANCH   2   3
ATOM      3  C   UNL A   1      30.952  26.836  22.671  1.00  0.00     0.116 C 
BRANCH   3   4
ATOM      4  N   UNL A   1      31.761  26.411  21.543  1.00  0.00    -0.352 N 
ATOM      5  C   UNL A   1      32.705  25.472  21.294  1.00  0.00     0.251 C 
ATOM      6  O   UNL A   1      33.120  25.435  20.132  1.00  0.00    -0.270 OA
ATOM      7  H   UNL A   1      31.573  26.952  20.742  1.00  0.00     0.163 HD
BRANCH   5   8
ATOM      8  C   UNL A   1      33.254  24.520  22.304  1.00  0.00     0.067 C 
ATOM      9  C   UNL A   1      36.202  21.923  25.583  1.00  0.00     0.048 C 
ATOM     10  C   UNL A   1      34.887  21.655  24.906  1.00  0.00    -0.005 A 
ATOM     11  C   UNL A   1      34.195  20.460  25.137  1.00  0.00     0.054 A 
ATOM     12  C   UNL A   1      34.349  22.587  24.013  1.00  0.00     0.131 A 
ATOM     13  C   UNL A   1      32.984  20.202  24.488  1.00  0.00     0.130 A 
ATOM     14  C   UNL A   1      33.144  22.345  23.351  1.00  0.00     0.021 A 
ATOM     15  O   UNL A   1      35.089  23.709  23.788  1.00  0.00    -0.475 OA
ATOM     16  C   UNL A   1      32.464  21.149  23.596  1.00  0.00     0.058 A 
ATOM     17  C   UNL A   1      32.650  23.320  22.383  1.00  0.00     0.025 C 
ATOM     18  C   UNL A   1      34.396  24.845  23.220  1.00  0.00     0.314 C 
BRANCH  13  19
ATOM     19  O   UNL A   1      32.223  19.075  24.625  1.00  0.00    -0.406 OA
BRANCH  19  20
ATOM     20  C   UNL A   1      32.583  17.942  23.852  1.00  0.00     0.573 C 
ATOM     21  F   UNL A   1      33.889  17.979  23.509  1.00  0.00    -0.132 F 
ATOM     22  F   UNL A   1      32.324  16.796  24.517  1.00  0.00    -0.132 F 
ATOM     23  F   UNL A   1      31.852  17.943  22.715  1.00  0.00    -0.132 F 
ENDBRANCH  19  20
ENDBRANCH  13  19
BRANCH  18  24
ATOM     24  C   UNL A   1      33.996  25.813  24.349  1.00  0.00     0.429 C 
ATOM     25  F   UNL A   1      34.827  25.669  25.412  1.00  0.00    -0.167 F 
ATOM     26  F   UNL A   1      34.079  27.112  23.978  1.00  0.00    -0.167 F 
ATOM     27  F   UNL A   1      32.735  25.608  24.789  1.00  0.00    -0.167 F 
ENDBRANCH  18  24
ENDBRANCH   5   8
ENDBRANCH   3   4
ENDBRANCH   2   3
ENDBRANCH   1   2
BRANCH   1  28
ATOM     28  C   UNL A   1      32.187  29.127  25.193  1.00  0.00     0.002 C 
BRANCH  28  29
ATOM     29  C   UNL A   1      32.432  28.444  26.544  1.00  0.00     0.021 C 
BRANCH  29  30
ATOM     30  C   UNL A   1      33.748  28.837  27.206  1.00  0.00     0.116 C 
BRANCH  30  31
ATOM     31  N   UNL A   1      33.723  30.224  27.641  1.00  0.00    -0.352 N 
ATOM     32  C   UNL A   1      34.640  30.899  28.397  1.00  0.00     0.251 C 
ATOM     33  H   UNL A   1      32.942  30.748  27.350  1.00  0.00     0.163 HD
ATOM     34  O   UNL A   1      34.360  31.985  28.905  1.00  0.00    -0.269 OA
BRANCH  32  35
ATOM     35  C   UNL A   1      35.980  30.320  28.593  1.00  0.00     0.039 A 
ATOM     36  C   UNL A   1      36.300  29.733  29.820  1.00  0.00     0.014 A 
ATOM     37  C   UNL A   1      36.927  30.393  27.565  1.00  0.00     0.014 A 
ATOM     38  C   UNL A   1      37.571  29.192  30.009  1.00  0.00     0.010 A 
ATOM     39  C   UNL A   1      38.175  29.810  27.739  1.00  0.00     0.010 A 
ATOM     40  C   UNL A   1      38.511  29.225  28.969  1.00  0.00    -0.014 A 
BRANCH  40  41
ATOM     41  C   UNL A   1      39.889  28.726  29.161  1.00  0.00     0.031 A 
ATOM     42  C   UNL A   1      40.927  29.648  29.733  1.00  0.00     0.074 A 
ATOM     43  C   UNL A   1      40.218  27.479  28.782  1.00  0.00     0.049 A 
ATOM     44  N   UNL A   1      42.211  29.449  29.885  1.00  0.00    -0.248 NA
ATOM     45  C   UNL A   1      40.463  30.973  30.180  1.00  0.00     0.031 C 
ATOM     46  C   UNL A   1      39.294  26.491  28.223  1.00  0.00     0.029 A 
ATOM     47  N   UNL A   1      41.428  26.834  28.802  1.00  0.00    -0.354 N 
ATOM     48  C   UNL A   1      42.706  30.623  30.437  1.00  0.00     0.074 A 
ATOM     49  C   UNL A   1      41.598  31.543  30.557  1.00  0.00     0.031 C 
ATOM     50  C   UNL A   1      39.969  25.359  27.967  1.00  0.00     0.029 A 
ATOM     51  C   UNL A   1      41.376  25.556  28.306  1.00  0.00     0.049 A 
ATOM     52  H   UNL A   1      42.253  27.249  29.141  1.00  0.00     0.167 HD
ATOM     53  C   UNL A   1      43.971  30.900  30.825  1.00  0.00     0.031 A 
ATOM     54  C   UNL A   1      42.356  24.649  28.134  1.00  0.00     0.031 A 
ATOM     55  C   UNL A   1      45.069  29.981  30.714  1.00  0.00     0.049 A 
ATOM     56  C   UNL A   1      43.764  25.002  28.519  1.00  0.00     0.074 A 
ATOM     57  C   UNL A   1      46.383  30.165  31.107  1.00  0.00     0.029 A 
ATOM     58  N   UNL A   1      44.983  28.709  30.174  1.00  0.00    -0.354 N 
ATOM     59  N   UNL A   1      44.219  26.111  29.049  1.00  0.00    -0.248 NA
ATOM     60  C   UNL A   1      44.794  23.980  28.281  1.00  0.00     0.031 C 
ATOM     61  C   UNL A   1      47.103  29.018  30.762  1.00  0.00     0.029 A 
ATOM     62  C   UNL A   1      46.227  28.103  30.201  1.00  0.00     0.049 A 
ATOM     63  H   UNL A   1      44.160  28.297  29.824  1.00  0.00     0.167 HD
ATOM     64  C   UNL A   1      45.584  25.919  29.219  1.00  0.00     0.074 A 
ATOM     65  C   UNL A   1      45.880  24.580  28.751  1.00  0.00     0.031 C 
ATOM     66  C   UNL A   1      46.508  26.777  29.716  1.00  0.00     0.031 A 
BRANCH  53  67
ATOM     67  C   UNL A   1      44.240  32.251  31.416  1.00  0.00    -0.014 A 
ATOM     68  C   UNL A   1      44.154  32.460  32.801  1.00  0.00     0.009 A 
ATOM     69  C   UNL A   1      44.664  33.304  30.591  1.00  0.00     0.009 A 
ATOM     70  C   UNL A   1      44.483  33.701  33.349  1.00  0.00     0.001 A 
ATOM     71  C   UNL A   1      45.012  34.537  31.143  1.00  0.00     0.001 A 
ATOM     72  C   UNL A   1      44.920  34.735  32.520  1.00  0.00     0.000 A 
ENDBRANCH  53  67
BRANCH  54  73
ATOM     73  C   UNL A   1      42.026  23.314  27.578  1.00  0.00    -0.014 A 
ATOM     74  C   UNL A   1      41.545  22.299  28.419  1.00  0.00     0.009 A 
ATOM     75  C   UNL A   1      42.143  23.061  26.203  1.00  0.00     0.009 A 
ATOM     76  C   UNL A   1      41.191  21.055  27.893  1.00  0.00     0.001 A 
ATOM     77  C   UNL A   1      41.769  21.822  25.676  1.00  0.00     0.001 A 
ATOM     78  C   UNL A   1      41.295  20.820  26.522  1.00  0.00     0.000 A 
ENDBRANCH  54  73
BRANCH  66  79
ATOM     79  C   UNL A   1      47.931  26.307  29.780  1.00  0.00    -0.014 A 
ATOM     80  C   UNL A   1      48.801  26.502  28.696  1.00  0.00     0.009 A 
ATOM     81  C   UNL A   1      48.431  25.747  30.966  1.00  0.00     0.009 A 
ATOM     82  C   UNL A   1      50.143  26.128  28.795  1.00  0.00     0.001 A 
ATOM     83  C   UNL A   1      49.779  25.399  31.070  1.00  0.00     0.001 A 
ATOM     84  C   UNL A   1      50.631  25.586  29.984  1.00  0.00     0.000 A 
ENDBRANCH  66  79
ENDBRANCH  40  41
ENDBRANCH  32  35
ENDBRANCH  30  31
ENDBRANCH  29  30
ENDBRANCH  28  29
ENDBRANCH   1  28
TORSDOF 16
ENDMDL
MODEL 2
REMARK VINA RESULT:     -11.2      2.563      7.911
REMARK SMILES Cc1cc(OC(F)(F)F)cc2c1O[C@H](C(F)(F)F)C(C(=O)NCCCCCCNC(=O)c1ccc(-c3c4nc(c(-c5ccccc5)c5ccc([nH]5)c(-c5ccccc5)c5nc(c(-c6ccccc6)c6ccc3[nH]6)C=C5)C=C4)cc1)=C2
REMARK SMILES IDX 25 1 24 2 23 3 22 4 20 5 21 6 19 8 1 9 2 10 3 11 12 12 4 13
REMARK SMILES IDX 11 14 13 15 10 16 80 17 14 18 5 19 6 20 7 21 8 22 9 23 15 24
REMARK SMILES IDX 16 25 17 26 18 27 26 28 27 29 28 30 29 31 30 32 31 34 32 35
REMARK SMILES IDX 33 36 79 37 34 38 78 39 35 40 36 41 37 42 72 43 38 44 77 45
REMARK SMILES IDX 71 46 73 47 39 48 76 49 70 50 69 51 40 53 62 54 47 55 61 56
REMARK SMILES IDX 48 57 51 58 60 59 74 60 49 61 50 62 59 64 75 65 52 66 41 67
REMARK SMILES IDX 42 68 46 69 43 70 45 71 44 72 63 73 64 74 68 75 65 76 67 77
REMARK SMILES IDX 66 78 53 79 54 80 58 81 55 82 57 83 56 84
REMARK H PARENT 22 7 29 33 73 52 51 63
REMARK Flexibility Score: inf
ROOT
ATOM      1  C   UNL A   1      35.815  21.766  25.920  1.00  0.00     0.002 C 
ENDROOT
BRANCH   1   2
ATOM      2  C   UNL A   1      34.490  21.261  26.494  1.00  0.00     0.021 C 
BRANCH   2   3
ATOM      3  C   UNL A   1      33.738  22.321  27.293  1.00  0.00     0.116 C 
BRANCH   3   4
ATOM      4  N   UNL A   1      32.301  22.210  27.115  1.00  0.00    -0.352 N 
ATOM      5  C   UNL A   1      31.350  22.771  26.329  1.00  0.00     0.251 C 
ATOM      6  O   UNL A   1      30.205  22.338  26.495  1.00  0.00    -0.270 OA
ATOM      7  H   UNL A   1      31.912  21.550  27.733  1.00  0.00     0.163 HD
BRANCH   5   8
ATOM      8  C   UNL A   1      31.596  23.842  25.319  1.00  0.00     0.067 C 
ATOM      9  C   UNL A   1      33.654  27.244  22.097  1.00  0.00     0.048 C 
ATOM     10  C   UNL A   1      32.297  27.065  22.717  1.00  0.00    -0.005 A 
ATOM     11  C   UNL A   1      31.257  27.958  22.432  1.00  0.00     0.054 A 
ATOM     12  C   UNL A   1      32.060  26.014  23.610  1.00  0.00     0.131 A 
ATOM     13  C   UNL A   1      30.003  27.805  23.029  1.00  0.00     0.130 A 
ATOM     14  C   UNL A   1      30.815  25.847  24.219  1.00  0.00     0.021 A 
ATOM     15  O   UNL A   1      33.120  25.204  23.888  1.00  0.00    -0.475 OA
ATOM     16  C   UNL A   1      29.788  26.746  23.921  1.00  0.00     0.058 A 
ATOM     17  C   UNL A   1      30.631  24.772  25.190  1.00  0.00     0.025 C 
ATOM     18  C   UNL A   1      32.820  23.908  24.455  1.00  0.00     0.314 C 
BRANCH  13  19
ATOM     19  O   UNL A   1      28.917  28.613  22.836  1.00  0.00    -0.406 OA
BRANCH  19  20
ATOM     20  C   UNL A   1      29.043  29.978  23.199  1.00  0.00     0.573 C 
ATOM     21  F   UNL A   1      27.848  30.505  23.542  1.00  0.00    -0.132 F 
ATOM     22  F   UNL A   1      29.913  30.132  24.219  1.00  0.00    -0.132 F 
ATOM     23  F   UNL A   1      29.514  30.668  22.137  1.00  0.00    -0.132 F 
ENDBRANCH  19  20
ENDBRANCH  13  19
BRANCH  18  24
ATOM     24  C   UNL A   1      32.814  22.852  23.335  1.00  0.00     0.429 C 
ATOM     25  F   UNL A   1      33.848  23.062  22.481  1.00  0.00    -0.167 F 
ATOM     26  F   UNL A   1      32.961  21.591  23.803  1.00  0.00    -0.167 F 
ATOM     27  F   UNL A   1      31.676  22.871  22.606  1.00  0.00    -0.167 F 
ENDBRANCH  18  24
ENDBRANCH   5   8
ENDBRANCH   3   4
ENDBRANCH   2   3
ENDBRANCH   1   2
BRANCH   1  28
ATOM     28  C   UNL A   1      36.318  21.000  24.689  1.00  0.00     0.002 C 
BRANCH  28  29
ATOM     29  C   UNL A   1      37.391  19.944  24.974  1.00  0.00     0.021 C 
BRANCH  29  30
ATOM     30  C   UNL A   1      38.676  20.510  25.569  1.00  0.00     0.116 C 
BRANCH  30  31
ATOM     31  N   UNL A   1      39.673  19.468  25.752  1.00  0.00    -0.352 N 
ATOM     32  C   UNL A   1      40.996  19.598  26.070  1.00  0.00     0.251 C 
ATOM     33  H   UNL A   1      39.353  18.545  25.632  1.00  0.00     0.163 HD
ATOM     34  O   UNL A   1      41.772  18.653  25.932  1.00  0.00    -0.269 OA
BRANCH  32  35
ATOM     35  C   UNL A   1      41.488  20.883  26.595  1.00  0.00     0.039 A 
ATOM     36  C   UNL A   1      41.460  21.117  27.972  1.00  0.00     0.014 A 
ATOM     37  C   UNL A   1      41.948  21.866  25.711  1.00  0.00     0.014 A 
ATOM     38  C   UNL A   1      41.919  22.337  28.469  1.00  0.00     0.010 A 
ATOM     39  C   UNL A   1      42.450  23.060  26.211  1.00  0.00     0.010 A 
ATOM     40  C   UNL A   1      42.419  23.310  27.591  1.00  0.00    -0.014 A 
BRANCH  40  41
ATOM     41  C   UNL A   1      42.845  24.639  28.078  1.00  0.00     0.031 A 
ATOM     42  C   UNL A   1      41.804  25.686  28.350  1.00  0.00     0.074 A 
ATOM     43  C   UNL A   1      44.152  24.919  28.228  1.00  0.00     0.049 A 
ATOM     44  N   UNL A   1      41.966  26.942  28.677  1.00  0.00    -0.248 NA
ATOM     45  C   UNL A   1      40.397  25.270  28.221  1.00  0.00     0.031 C 
ATOM     46  C   UNL A   1      45.252  23.980  28.004  1.00  0.00     0.029 A 
ATOM     47  N   UNL A   1      44.773  26.084  28.597  1.00  0.00    -0.354 N 
ATOM     48  C   UNL A   1      40.684  27.465  28.788  1.00  0.00     0.074 A 
ATOM     49  C   UNL A   1      39.758  26.408  28.454  1.00  0.00     0.031 C 
ATOM     50  C   UNL A   1      46.414  24.604  28.255  1.00  0.00     0.029 A 
ATOM     51  C   UNL A   1      46.142  25.992  28.618  1.00  0.00     0.049 A 
ATOM     52  H   UNL A   1      44.283  26.907  28.826  1.00  0.00     0.167 HD
ATOM     53  C   UNL A   1      40.316  28.714  29.153  1.00  0.00     0.031 A 
ATOM     54  C   UNL A   1      47.073  26.927  28.888  1.00  0.00     0.031 A 
ATOM     55  C   UNL A   1      41.238  29.761  29.494  1.00  0.00     0.049 A 
ATOM     56  C   UNL A   1      46.639  28.323  29.234  1.00  0.00     0.074 A 
ATOM     57  C   UNL A   1      40.954  31.052  29.903  1.00  0.00     0.029 A 
ATOM     58  N   UNL A   1      42.617  29.638  29.468  1.00  0.00    -0.354 N 
ATOM     59  N   UNL A   1      45.425  28.803  29.344  1.00  0.00    -0.248 NA
ATOM     60  C   UNL A   1      47.703  29.304  29.490  1.00  0.00     0.031 C 
ATOM     61  C   UNL A   1      42.166  31.725  30.081  1.00  0.00     0.029 A 
ATOM     62  C   UNL A   1      43.201  30.839  29.831  1.00  0.00     0.049 A 
ATOM     63  H   UNL A   1      43.108  28.819  29.229  1.00  0.00     0.167 HD
ATOM     64  C   UNL A   1      45.576  30.139  29.694  1.00  0.00     0.074 A 
ATOM     65  C   UNL A   1      46.999  30.388  29.793  1.00  0.00     0.031 C 
ATOM     66  C   UNL A   1      44.619  31.074  29.910  1.00  0.00     0.031 A 
BRANCH  53  67
ATOM     67  C   UNL A   1      38.850  29.020  29.212  1.00  0.00    -0.014 A 
ATOM     68  C   UNL A   1      38.143  28.924  30.421  1.00  0.00     0.009 A 
ATOM     69  C   UNL A   1      38.186  29.487  28.067  1.00  0.00     0.009 A 
ATOM     70  C   UNL A   1      36.797  29.287  30.481  1.00  0.00     0.001 A 
ATOM     71  C   UNL A   1      36.845  29.868  28.135  1.00  0.00     0.001 A 
ATOM     72  C   UNL A   1      36.152  29.767  29.340  1.00  0.00     0.000 A 
ENDBRANCH  53  67
BRANCH  54  73
ATOM     73  C   UNL A   1      48.510  26.558  28.850  1.00  0.00    -0.014 A 
ATOM     74  C   UNL A   1      49.247  26.716  27.667  1.00  0.00     0.009 A 
ATOM     75  C   UNL A   1      49.162  26.093  30.002  1.00  0.00     0.009 A 
ATOM     76  C   UNL A   1      50.610  26.412  27.639  1.00  0.00     0.001 A 
ATOM     77  C   UNL A   1      50.529  25.810  29.977  1.00  0.00     0.001 A 
ATOM     78  C   UNL A   1      51.251  25.968  28.795  1.00  0.00     0.000 A 
ENDBRANCH  54  73
BRANCH  66  79
ATOM     79  C   UNL A   1      45.069  32.459  30.271  1.00  0.00    -0.014 A 
ATOM     80  C   UNL A   1      45.323  32.805  31.607  1.00  0.00     0.009 A 
ATOM     81  C   UNL A   1      45.329  33.397  29.261  1.00  0.00     0.009 A 
ATOM     82  C   UNL A   1      45.814  34.073  31.924  1.00  0.00     0.001 A 
ATOM     83  C   UNL A   1      45.844  34.655  29.579  1.00  0.00     0.001 A 
ATOM     84  C   UNL A   1      46.081  34.993  30.910  1.00  0.00     0.000 A 
ENDBRANCH  66  79
ENDBRANCH  40  41
ENDBRANCH  32  35
ENDBRANCH  30  31
ENDBRANCH  29  30
ENDBRANCH  28  29
ENDBRANCH   1  28
TORSDOF 16
ENDMDL
MODEL 3
REMARK VINA RESULT:     -11.2      2.994      8.321
REMARK SMILES Cc1cc(OC(F)(F)F)cc2c1O[C@H](C(F)(F)F)C(C(=O)NCCCCCCNC(=O)c1ccc(-c3c4nc(c(-c5ccccc5)c5ccc([nH]5)c(-c5ccccc5)c5nc(c(-c6ccccc6)c6ccc3[nH]6)C=C5)C=C4)cc1)=C2
REMARK SMILES IDX 25 1 24 2 23 3 22 4 20 5 21 6 19 8 1 9 2 10 3 11 12 12 4 13
REMARK SMILES IDX 11 14 13 15 10 16 80 17 14 18 5 19 6 20 7 21 8 22 9 23 15 24
REMARK SMILES IDX 16 25 17 26 18 27 26 28 27 29 28 30 29 31 30 32 31 34 32 35
REMARK SMILES IDX 33 36 79 37 34 38 78 39 35 40 36 41 37 42 72 43 38 44 77 45
REMARK SMILES IDX 71 46 73 47 39 48 76 49 70 50 69 51 40 53 62 54 47 55 61 56
REMARK SMILES IDX 48 57 51 58 60 59 74 60 49 61 50 62 59 64 75 65 52 66 41 67
REMARK SMILES IDX 42 68 46 69 43 70 45 71 44 72 63 73 64 74 68 75 65 76 67 77
REMARK SMILES IDX 66 78 53 79 54 80 58 81 55 82 57 83 56 84
REMARK H PARENT 22 7 29 33 73 52 51 63
REMARK Flexibility Score: inf
ROOT
ATOM      1  C   UNL A   1      33.416  22.374  26.933  1.00  0.00     0.002 C 
ENDROOT
BRANCH   1   2
ATOM      2  C   UNL A   1      32.295  23.376  27.215  1.00  0.00     0.021 C 
BRANCH   2   3
ATOM      3  C   UNL A   1      30.970  22.994  26.563  1.00  0.00     0.116 C 
BRANCH   3   4
ATOM      4  N   UNL A   1      31.086  22.906  25.118  1.00  0.00    -0.352 N 
ATOM      5  C   UNL A   1      31.217  23.763  24.077  1.00  0.00     0.251 C 
ATOM      6  O   UNL A   1      31.321  23.233  22.966  1.00  0.00    -0.270 OA
ATOM      7  H   UNL A   1      31.062  21.971  24.812  1.00  0.00     0.163 HD
BRANCH   5   8
ATOM      8  C   UNL A   1      31.238  25.252  24.189  1.00  0.00     0.067 C 
ATOM      9  C   UNL A   1      32.023  30.109  25.595  1.00  0.00     0.048 C 
ATOM     10  C   UNL A   1      31.039  29.417  24.693  1.00  0.00    -0.005 A 
ATOM     11  C   UNL A   1      30.059  30.147  24.011  1.00  0.00     0.054 A 
ATOM     12  C   UNL A   1      31.075  28.027  24.542  1.00  0.00     0.131 A 
ATOM     13  C   UNL A   1      29.129  29.499  23.192  1.00  0.00     0.130 A 
ATOM     14  C   UNL A   1      30.153  27.361  23.732  1.00  0.00     0.021 A 
ATOM     15  O   UNL A   1      32.019  27.362  25.267  1.00  0.00    -0.475 OA
ATOM     16  C   UNL A   1      29.183  28.106  23.057  1.00  0.00     0.058 A 
ATOM     17  C   UNL A   1      30.191  25.904  23.652  1.00  0.00     0.025 C 
ATOM     18  C   UNL A   1      32.351  26.023  24.833  1.00  0.00     0.314 C 
BRANCH  13  19
ATOM     19  O   UNL A   1      28.125  30.100  22.485  1.00  0.00    -0.406 OA
BRANCH  19  20
ATOM     20  C   UNL A   1      28.495  30.928  21.395  1.00  0.00     0.573 C 
ATOM     21  F   UNL A   1      27.598  30.840  20.389  1.00  0.00    -0.132 F 
ATOM     22  F   UNL A   1      28.616  32.216  21.780  1.00  0.00    -0.132 F 
ATOM     23  F   UNL A   1      29.693  30.516  20.924  1.00  0.00    -0.132 F 
ENDBRANCH  19  20
ENDBRANCH  13  19
BRANCH  18  24
ATOM     24  C   UNL A   1      33.621  26.071  23.963  1.00  0.00     0.429 C 
ATOM     25  F   UNL A   1      34.299  27.226  24.179  1.00  0.00    -0.167 F 
ATOM     26  F   UNL A   1      34.485  25.067  24.243  1.00  0.00    -0.167 F 
ATOM     27  F   UNL A   1      33.351  26.001  22.641  1.00  0.00    -0.167 F 
ENDBRANCH  18  24
ENDBRANCH   5   8
ENDBRANCH   3   4
ENDBRANCH   2   3
ENDBRANCH   1   2
BRANCH   1  28
ATOM     28  C   UNL A   1      34.834  22.960  26.991  1.00  0.00     0.002 C 
BRANCH  28  29
ATOM     29  C   UNL A   1      35.721  22.637  25.784  1.00  0.00     0.021 C 
BRANCH  29  30
ATOM     30  C   UNL A   1      37.021  23.433  25.740  1.00  0.00     0.116 C 
BRANCH  30  31
ATOM     31  N   UNL A   1      38.174  22.564  25.911  1.00  0.00    -0.352 N 
ATOM     32  C   UNL A   1      39.445  22.895  26.287  1.00  0.00     0.251 C 
ATOM     33  H   UNL A   1      38.018  21.608  25.734  1.00  0.00     0.163 HD
ATOM     34  O   UNL A   1      40.374  22.102  26.133  1.00  0.00    -0.269 OA
BRANCH  32  35
ATOM     35  C   UNL A   1      39.698  24.214  26.892  1.00  0.00     0.039 A 
ATOM     36  C   UNL A   1      40.335  25.203  26.139  1.00  0.00     0.014 A 
ATOM     37  C   UNL A   1      39.329  24.452  28.221  1.00  0.00     0.014 A 
ATOM     38  C   UNL A   1      40.581  26.449  26.714  1.00  0.00     0.010 A 
ATOM     39  C   UNL A   1      39.532  25.709  28.776  1.00  0.00     0.010 A 
ATOM     40  C   UNL A   1      40.177  26.708  28.032  1.00  0.00    -0.014 A 
BRANCH  40  41
ATOM     41  C   UNL A   1      40.489  27.992  28.694  1.00  0.00     0.031 A 
ATOM     42  C   UNL A   1      41.843  28.185  29.315  1.00  0.00     0.074 A 
ATOM     43  C   UNL A   1      39.554  28.954  28.782  1.00  0.00     0.049 A 
ATOM     44  N   UNL A   1      42.283  29.185  30.033  1.00  0.00    -0.248 NA
ATOM     45  C   UNL A   1      42.823  27.104  29.114  1.00  0.00     0.031 C 
ATOM     46  C   UNL A   1      38.208  28.883  28.210  1.00  0.00     0.029 A 
ATOM     47  N   UNL A   1      39.594  30.179  29.396  1.00  0.00    -0.354 N 
ATOM     48  C   UNL A   1      43.588  28.852  30.372  1.00  0.00     0.074 A 
ATOM     49  C   UNL A   1      43.855  27.543  29.821  1.00  0.00     0.031 C 
ATOM     50  C   UNL A   1      37.556  30.023  28.489  1.00  0.00     0.029 A 
ATOM     51  C   UNL A   1      38.422  30.884  29.290  1.00  0.00     0.049 A 
ATOM     52  H   UNL A   1      40.389  30.518  29.868  1.00  0.00     0.167 HD
ATOM     53  C   UNL A   1      44.487  29.583  31.070  1.00  0.00     0.031 A 
ATOM     54  C   UNL A   1      38.082  32.085  29.793  1.00  0.00     0.031 A 
ATOM     55  C   UNL A   1      44.222  30.887  31.610  1.00  0.00     0.049 A 
ATOM     56  C   UNL A   1      39.079  32.852  30.614  1.00  0.00     0.074 A 
ATOM     57  C   UNL A   1      45.083  31.715  32.308  1.00  0.00     0.029 A 
ATOM     58  N   UNL A   1      43.012  31.552  31.511  1.00  0.00    -0.354 N 
ATOM     59  N   UNL A   1      40.312  32.532  30.921  1.00  0.00    -0.248 NA
ATOM     60  C   UNL A   1      38.638  34.144  31.159  1.00  0.00     0.031 C 
ATOM     61  C   UNL A   1      44.377  32.865  32.672  1.00  0.00     0.029 A 
ATOM     62  C   UNL A   1      43.094  32.773  32.157  1.00  0.00     0.049 A 
ATOM     63  H   UNL A   1      42.213  31.208  31.050  1.00  0.00     0.167 HD
ATOM     64  C   UNL A   1      40.799  33.584  31.685  1.00  0.00     0.074 A 
ATOM     65  C   UNL A   1      39.734  34.562  31.780  1.00  0.00     0.031 C 
ATOM     66  C   UNL A   1      42.019  33.726  32.257  1.00  0.00     0.031 A 
BRANCH  53  67
ATOM     67  C   UNL A   1      45.848  28.994  31.285  1.00  0.00    -0.014 A 
ATOM     68  C   UNL A   1      46.110  28.173  32.392  1.00  0.00     0.009 A 
ATOM     69  C   UNL A   1      46.856  29.194  30.329  1.00  0.00     0.009 A 
ATOM     70  C   UNL A   1      47.359  27.567  32.541  1.00  0.00     0.001 A 
ATOM     71  C   UNL A   1      48.096  28.570  30.469  1.00  0.00     0.001 A 
ATOM     72  C   UNL A   1      48.347  27.758  31.575  1.00  0.00     0.000 A 
ENDBRANCH  53  67
BRANCH  54  73
ATOM     73  C   UNL A   1      36.731  32.636  29.518  1.00  0.00    -0.014 A 
ATOM     74  C   UNL A   1      35.712  32.515  30.475  1.00  0.00     0.009 A 
ATOM     75  C   UNL A   1      36.466  33.323  28.323  1.00  0.00     0.009 A 
ATOM     76  C   UNL A   1      34.453  33.070  30.238  1.00  0.00     0.001 A 
ATOM     77  C   UNL A   1      35.212  33.895  28.099  1.00  0.00     0.001 A 
ATOM     78  C   UNL A   1      34.206  33.766  29.055  1.00  0.00     0.000 A 
ENDBRANCH  54  73
BRANCH  66  79
ATOM     79  C   UNL A   1      42.278  34.977  33.044  1.00  0.00    -0.014 A 
ATOM     80  C   UNL A   1      41.850  35.089  34.375  1.00  0.00     0.009 A 
ATOM     81  C   UNL A   1      43.036  36.015  32.479  1.00  0.00     0.009 A 
ATOM     82  C   UNL A   1      42.162  36.227  35.121  1.00  0.00     0.001 A 
ATOM     83  C   UNL A   1      43.369  37.139  33.236  1.00  0.00     0.001 A 
ATOM     84  C   UNL A   1      42.928  37.246  34.554  1.00  0.00     0.000 A 
ENDBRANCH  66  79
ENDBRANCH  40  41
ENDBRANCH  32  35
ENDBRANCH  30  31
ENDBRANCH  29  30
ENDBRANCH  28  29
ENDBRANCH   1  28
TORSDOF 16
ENDMDL
