MODEL 1
REMARK VINA RESULT:     -11.4      0.000      0.000
REMARK SMILES O=C(NCCCCCCNC(=O)[C@H]1CC[C@H]2CCCC[C@@H]2[N@H+]1[C@@H]1C[N@H+]2CC[C@@H]1CC2)c1ccc(-c2c3nc(c(-c4ccccc4)c4ccc([nH]4)c(-c4ccccc4)c4nc(c(-c5ccccc5)c5ccc2[nH]5)C=C4)C=C3)cc1
REMARK SMILES IDX 6 1 5 2 4 3 3 4 1 5 2 6 31 8 32 9 78 10 33 11 77 12 34 13
REMARK SMILES IDX 35 14 36 15 71 16 37 17 76 18 70 19 72 20 38 21 75 22 69 23
REMARK SMILES IDX 68 24 39 26 61 27 46 28 60 29 47 30 50 31 59 32 73 33 48 34
REMARK SMILES IDX 49 35 58 37 74 38 51 39 40 40 41 41 45 42 42 43 44 44 43 45
REMARK SMILES IDX 62 46 63 47 67 48 64 49 66 50 65 51 52 52 53 53 57 54 54 55
REMARK SMILES IDX 56 56 55 57 7 58 8 59 9 60 10 61 11 62 12 64 13 65 14 66
REMARK SMILES IDX 22 67 15 68 21 69 16 71 20 72 17 73 19 74 18 75 23 76 24 77
REMARK SMILES IDX 28 78 25 79 29 80 27 81 30 82 26 83
REMARK H PARENT 3 7 72 25 50 36 10 63 22 70 25 84
REMARK Flexibility Score: inf
ROOT
ATOM      1  C   UNL A   1      31.710  28.747  26.114  1.00  0.00     0.002 C 
ENDROOT
BRANCH   1   2
ATOM      2  C   UNL A   1      32.715  28.550  27.249  1.00  0.00     0.021 C 
BRANCH   2   3
ATOM      3  C   UNL A   1      33.979  29.392  27.124  1.00  0.00     0.116 C 
BRANCH   3   4
ATOM      4  N   UNL A   1      33.917  30.596  27.936  1.00  0.00    -0.352 N 
ATOM      5  O   UNL A   1      34.519  31.979  29.619  1.00  0.00    -0.269 OA
ATOM      6  C   UNL A   1      34.824  31.076  28.851  1.00  0.00     0.251 C 
ATOM      7  H   UNL A   1      33.110  31.147  27.814  1.00  0.00     0.163 HD
BRANCH   6   8
ATOM      8  C   UNL A   1      36.177  30.482  28.904  1.00  0.00     0.039 A 
ATOM      9  C   UNL A   1      36.989  30.505  27.771  1.00  0.00     0.014 A 
ATOM     10  C   UNL A   1      36.638  29.908  30.092  1.00  0.00     0.014 A 
ATOM     11  C   UNL A   1      38.191  29.814  27.774  1.00  0.00     0.010 A 
ATOM     12  C   UNL A   1      37.905  29.315  30.127  1.00  0.00     0.010 A 
ATOM     13  C   UNL A   1      38.682  29.244  28.960  1.00  0.00    -0.014 A 
BRANCH  13  14
ATOM     14  C   UNL A   1      40.059  28.688  28.953  1.00  0.00     0.031 A 
ATOM     15  C   UNL A   1      40.340  27.262  28.575  1.00  0.00     0.074 A 
ATOM     16  C   UNL A   1      41.076  29.529  29.235  1.00  0.00     0.049 A 
ATOM     17  N   UNL A   1      41.498  26.664  28.446  1.00  0.00    -0.248 NA
ATOM     18  C   UNL A   1      39.182  26.392  28.315  1.00  0.00     0.031 C 
ATOM     19  C   UNL A   1      40.922  30.935  29.631  1.00  0.00     0.029 A 
ATOM     20  N   UNL A   1      42.433  29.347  29.195  1.00  0.00    -0.354 N 
ATOM     21  C   UNL A   1      41.213  25.350  28.096  1.00  0.00     0.074 A 
ATOM     22  C   UNL A   1      39.769  25.228  28.066  1.00  0.00     0.031 C 
ATOM     23  C   UNL A   1      42.131  31.501  29.724  1.00  0.00     0.029 A 
ATOM     24  C   UNL A   1      43.146  30.486  29.480  1.00  0.00     0.049 A 
ATOM     25  H   UNL A   1      42.856  28.484  28.982  1.00  0.00     0.167 HD
ATOM     26  C   UNL A   1      42.075  24.343  27.818  1.00  0.00     0.031 A 
ATOM     27  C   UNL A   1      44.472  30.693  29.559  1.00  0.00     0.031 A 
ATOM     28  C   UNL A   1      43.511  24.467  27.866  1.00  0.00     0.049 A 
ATOM     29  C   UNL A   1      45.398  29.545  29.286  1.00  0.00     0.074 A 
ATOM     30  C   UNL A   1      44.470  23.505  27.594  1.00  0.00     0.029 A 
ATOM     31  N   UNL A   1      44.195  25.623  28.210  1.00  0.00    -0.354 N 
ATOM     32  N   UNL A   1      45.108  28.319  28.924  1.00  0.00    -0.248 NA
ATOM     33  C   UNL A   1      46.833  29.812  29.430  1.00  0.00     0.031 C 
ATOM     34  C   UNL A   1      45.731  24.062  27.828  1.00  0.00     0.029 A 
ATOM     35  C   UNL A   1      45.562  25.391  28.180  1.00  0.00     0.049 A 
ATOM     36  H   UNL A   1      43.773  26.482  28.443  1.00  0.00     0.167 HD
ATOM     37  C   UNL A   1      46.326  27.671  28.786  1.00  0.00     0.074 A 
ATOM     38  C   UNL A   1      47.355  28.652  29.062  1.00  0.00     0.031 C 
ATOM     39  C   UNL A   1      46.572  26.376  28.471  1.00  0.00     0.031 A 
BRANCH  26  40
ATOM     40  C   UNL A   1      41.496  23.003  27.451  1.00  0.00    -0.014 A 
ATOM     41  C   UNL A   1      40.930  22.777  26.185  1.00  0.00     0.009 A 
ATOM     42  C   UNL A   1      41.584  21.931  28.353  1.00  0.00     0.009 A 
ATOM     43  C   UNL A   1      40.447  21.513  25.840  1.00  0.00     0.001 A 
ATOM     44  C   UNL A   1      41.124  20.661  27.996  1.00  0.00     0.001 A 
ATOM     45  C   UNL A   1      40.551  20.455  26.742  1.00  0.00     0.000 A 
ENDBRANCH  26  40
BRANCH  27  46
ATOM     46  C   UNL A   1      44.997  32.026  29.955  1.00  0.00    -0.014 A 
ATOM     47  C   UNL A   1      45.294  33.003  28.992  1.00  0.00     0.009 A 
ATOM     48  C   UNL A   1      45.225  32.320  31.309  1.00  0.00     0.009 A 
ATOM     49  C   UNL A   1      45.840  34.229  29.376  1.00  0.00     0.001 A 
ATOM     50  C   UNL A   1      45.733  33.562  31.693  1.00  0.00     0.001 A 
ATOM     51  C   UNL A   1      46.055  34.509  30.725  1.00  0.00     0.000 A 
ENDBRANCH  27  46
BRANCH  39  52
ATOM     52  C   UNL A   1      48.016  25.967  28.385  1.00  0.00    -0.014 A 
ATOM     53  C   UNL A   1      48.695  25.941  27.156  1.00  0.00     0.009 A 
ATOM     54  C   UNL A   1      48.704  25.594  29.549  1.00  0.00     0.009 A 
ATOM     55  C   UNL A   1      50.018  25.499  27.089  1.00  0.00     0.001 A 
ATOM     56  C   UNL A   1      50.038  25.187  29.485  1.00  0.00     0.001 A 
ATOM     57  C   UNL A   1      50.688  25.126  28.253  1.00  0.00     0.000 A 
ENDBRANCH  39  52
ENDBRANCH  13  14
ENDBRANCH   6   8
ENDBRANCH   3   4
ENDBRANCH   2   3
ENDBRANCH   1   2
BRANCH   1  58
ATOM     58  C   UNL A   1      31.104  27.459  25.554  1.00  0.00     0.002 C 
BRANCH  58  59
ATOM     59  C   UNL A   1      31.922  26.798  24.444  1.00  0.00     0.021 C 
BRANCH  59  60
ATOM     60  C   UNL A   1      32.940  25.751  24.910  1.00  0.00     0.116 C 
BRANCH  60  61
ATOM     61  N   UNL A   1      32.421  25.075  26.077  1.00  0.00    -0.351 N 
ATOM     62  C   UNL A   1      31.820  23.864  26.215  1.00  0.00     0.278 C 
ATOM     63  H   UNL A   1      32.518  25.580  26.917  1.00  0.00     0.163 HD
ATOM     64  O   UNL A   1      31.185  23.722  27.270  1.00  0.00    -0.268 OA
BRANCH  62  65
ATOM     65  C   UNL A   1      32.041  22.653  25.264  1.00  0.00     0.274 C 
ATOM     66  C   UNL A   1      31.640  23.052  23.824  1.00  0.00     0.076 C 
ATOM     67  N   UNL A   1      33.338  21.922  25.316  1.00  0.00    -0.315 N 
ATOM     68  C   UNL A   1      31.822  21.942  22.787  1.00  0.00     0.016 C 
ATOM     69  C   UNL A   1      33.281  20.715  24.465  1.00  0.00     0.188 C 
ATOM     70  H   UNL A   1      33.440  21.637  26.290  1.00  0.00     0.349 HD
ATOM     71  C   UNL A   1      32.110  20.609  23.459  1.00  0.00     0.048 C 
ATOM     72  C   UNL A   1      33.244  19.433  25.316  1.00  0.00     0.065 C 
ATOM     73  C   UNL A   1      32.463  19.501  22.456  1.00  0.00     0.010 C 
ATOM     74  C   UNL A   1      33.503  18.211  24.426  1.00  0.00     0.006 C 
ATOM     75  C   UNL A   1      32.622  18.156  23.172  1.00  0.00     0.001 C 
BRANCH  67  76
ATOM     76  C   UNL A   1      34.578  22.728  25.132  1.00  0.00     0.244 C 
ATOM     77  C   UNL A   1      35.260  22.824  23.730  1.00  0.00     0.328 C 
ATOM     78  C   UNL A   1      35.713  22.385  26.165  1.00  0.00     0.064 C 
ATOM     79  N   UNL A   1      36.733  22.633  23.785  1.00  0.00    -0.330 N 
ATOM     80  C   UNL A   1      36.736  23.545  26.109  1.00  0.00     0.071 C 
ATOM     81  C   UNL A   1      36.534  21.142  25.771  1.00  0.00     0.071 C 
ATOM     82  C   UNL A   1      37.331  23.630  24.696  1.00  0.00     0.262 C 
ATOM     83  C   UNL A   1      37.005  21.279  24.315  1.00  0.00     0.262 C 
ATOM     84  H   UNL A   1      37.133  22.745  22.854  1.00  0.00     0.348 HD
ENDBRANCH  67  76
ENDBRANCH  62  65
ENDBRANCH  60  61
ENDBRANCH  59  60
ENDBRANCH  58  59
ENDBRANCH   1  58
TORSDOF 14
ENDMDL
MODEL 2
REMARK VINA RESULT:     -11.0      3.208      7.440
REMARK SMILES O=C(NCCCCCCNC(=O)[C@H]1CC[C@H]2CCCC[C@@H]2[N@H+]1[C@@H]1C[N@H+]2CC[C@@H]1CC2)c1ccc(-c2c3nc(c(-c4ccccc4)c4ccc([nH]4)c(-c4ccccc4)c4nc(c(-c5ccccc5)c5ccc2[nH]5)C=C4)C=C3)cc1
REMARK SMILES IDX 6 1 5 2 4 3 3 4 1 5 2 6 31 8 32 9 78 10 33 11 77 12 34 13
REMARK SMILES IDX 35 14 36 15 71 16 37 17 76 18 70 19 72 20 38 21 75 22 69 23
REMARK SMILES IDX 68 24 39 26 61 27 46 28 60 29 47 30 50 31 59 32 73 33 48 34
REMARK SMILES IDX 49 35 58 37 74 38 51 39 40 40 41 41 45 42 42 43 44 44 43 45
REMARK SMILES IDX 62 46 63 47 67 48 64 49 66 50 65 51 52 52 53 53 57 54 54 55
REMARK SMILES IDX 56 56 55 57 7 58 8 59 9 60 10 61 11 62 12 64 13 65 14 66
REMARK SMILES IDX 22 67 15 68 21 69 16 71 20 72 17 73 19 74 18 75 23 76 24 77
REMARK SMILES IDX 28 78 25 79 29 80 27 81 30 82 26 83
REMARK H PARENT 3 7 72 25 50 36 10 63 22 70 25 84
REMARK Flexibility Score: inf
ROOT
ATOM      1  C   UNL A   1      31.310  31.046  25.745  1.00  0.00     0.002 C 
ENDROOT
BRANCH   1   2
ATOM      2  C   UNL A   1      31.160  32.305  26.600  1.00  0.00     0.021 C 
BRANCH   2   3
ATOM      3  C   UNL A   1      32.438  32.744  27.304  1.00  0.00     0.116 C 
BRANCH   3   4
ATOM      4  N   UNL A   1      32.358  34.117  27.777  1.00  0.00    -0.352 N 
ATOM      5  O   UNL A   1      32.798  35.847  29.162  1.00  0.00    -0.269 OA
ATOM      6  C   UNL A   1      33.139  34.764  28.705  1.00  0.00     0.251 C 
ATOM      7  H   UNL A   1      31.641  34.660  27.377  1.00  0.00     0.163 HD
BRANCH   6   8
ATOM      8  C   UNL A   1      34.398  34.132  29.152  1.00  0.00     0.039 A 
ATOM      9  C   UNL A   1      35.579  34.364  28.447  1.00  0.00     0.014 A 
ATOM     10  C   UNL A   1      34.402  33.312  30.283  1.00  0.00     0.014 A 
ATOM     11  C   UNL A   1      36.724  33.652  28.772  1.00  0.00     0.010 A 
ATOM     12  C   UNL A   1      35.589  32.688  30.682  1.00  0.00     0.010 A 
ATOM     13  C   UNL A   1      36.755  32.837  29.915  1.00  0.00    -0.014 A 
BRANCH  13  14
ATOM     14  C   UNL A   1      38.058  32.254  30.325  1.00  0.00     0.031 A 
ATOM     15  C   UNL A   1      38.916  32.888  31.381  1.00  0.00     0.074 A 
ATOM     16  C   UNL A   1      38.426  31.085  29.762  1.00  0.00     0.049 A 
ATOM     17  N   UNL A   1      40.036  32.447  31.897  1.00  0.00    -0.248 NA
ATOM     18  C   UNL A   1      38.473  34.180  31.927  1.00  0.00     0.031 C 
ATOM     19  C   UNL A   1      37.677  30.383  28.712  1.00  0.00     0.029 A 
ATOM     20  N   UNL A   1      39.489  30.259  30.013  1.00  0.00    -0.354 N 
ATOM     21  C   UNL A   1      40.436  33.404  32.821  1.00  0.00     0.074 A 
ATOM     22  C   UNL A   1      39.455  34.469  32.772  1.00  0.00     0.031 C 
ATOM     23  C   UNL A   1      38.263  29.204  28.465  1.00  0.00     0.029 A 
ATOM     24  C   UNL A   1      39.471  29.102  29.271  1.00  0.00     0.049 A 
ATOM     25  H   UNL A   1      40.198  30.473  30.662  1.00  0.00     0.167 HD
ATOM     26  C   UNL A   1      41.516  33.392  33.638  1.00  0.00     0.031 A 
ATOM     27  C   UNL A   1      40.339  28.077  29.226  1.00  0.00     0.031 A 
ATOM     28  C   UNL A   1      42.498  32.336  33.670  1.00  0.00     0.049 A 
ATOM     29  C   UNL A   1      41.546  28.115  30.115  1.00  0.00     0.074 A 
ATOM     30  C   UNL A   1      43.624  32.229  34.470  1.00  0.00     0.029 A 
ATOM     31  N   UNL A   1      42.473  31.206  32.867  1.00  0.00    -0.354 N 
ATOM     32  N   UNL A   1      41.888  29.014  31.005  1.00  0.00    -0.248 NA
ATOM     33  C   UNL A   1      42.486  26.995  29.993  1.00  0.00     0.031 C 
ATOM     34  C   UNL A   1      44.309  31.064  34.111  1.00  0.00     0.029 A 
ATOM     35  C   UNL A   1      43.576  30.410  33.135  1.00  0.00     0.049 A 
ATOM     36  H   UNL A   1      41.776  31.000  32.203  1.00  0.00     0.167 HD
ATOM     37  C   UNL A   1      43.076  28.562  31.559  1.00  0.00     0.074 A 
ATOM     38  C   UNL A   1      43.371  27.290  30.933  1.00  0.00     0.031 C 
ATOM     39  C   UNL A   1      43.861  29.152  32.493  1.00  0.00     0.031 A 
BRANCH  26  40
ATOM     40  C   UNL A   1      41.711  34.564  34.563  1.00  0.00    -0.014 A 
ATOM     41  C   UNL A   1      41.168  34.567  35.857  1.00  0.00     0.009 A 
ATOM     42  C   UNL A   1      42.512  35.645  34.162  1.00  0.00     0.009 A 
ATOM     43  C   UNL A   1      41.404  35.639  36.722  1.00  0.00     0.001 A 
ATOM     44  C   UNL A   1      42.769  36.702  35.038  1.00  0.00     0.001 A 
ATOM     45  C   UNL A   1      42.211  36.701  36.315  1.00  0.00     0.000 A 
ENDBRANCH  26  40
BRANCH  27  46
ATOM     46  C   UNL A   1      40.120  26.955  28.275  1.00  0.00    -0.014 A 
ATOM     47  C   UNL A   1      39.391  25.818  28.653  1.00  0.00     0.009 A 
ATOM     48  C   UNL A   1      40.663  27.012  26.981  1.00  0.00     0.009 A 
ATOM     49  C   UNL A   1      39.243  24.748  27.768  1.00  0.00     0.001 A 
ATOM     50  C   UNL A   1      40.478  25.959  26.084  1.00  0.00     0.001 A 
ATOM     51  C   UNL A   1      39.782  24.821  26.484  1.00  0.00     0.000 A 
ENDBRANCH  27  46
BRANCH  39  52
ATOM     52  C   UNL A   1      45.097  28.402  32.904  1.00  0.00    -0.014 A 
ATOM     53  C   UNL A   1      45.071  27.474  33.958  1.00  0.00     0.009 A 
ATOM     54  C   UNL A   1      46.307  28.635  32.233  1.00  0.00     0.009 A 
ATOM     55  C   UNL A   1      46.243  26.835  34.365  1.00  0.00     0.001 A 
ATOM     56  C   UNL A   1      47.470  27.966  32.618  1.00  0.00     0.001 A 
ATOM     57  C   UNL A   1      47.440  27.078  33.693  1.00  0.00     0.000 A 
ENDBRANCH  39  52
ENDBRANCH  13  14
ENDBRANCH   6   8
ENDBRANCH   3   4
ENDBRANCH   2   3
ENDBRANCH   1   2
BRANCH   1  58
ATOM     58  C   UNL A   1      32.118  29.918  26.390  1.00  0.00     0.002 C 
BRANCH  58  59
ATOM     59  C   UNL A   1      31.672  28.509  25.999  1.00  0.00     0.021 C 
BRANCH  59  60
ATOM     60  C   UNL A   1      32.136  27.388  26.935  1.00  0.00     0.116 C 
BRANCH  60  61
ATOM     61  N   UNL A   1      31.075  26.417  27.071  1.00  0.00    -0.351 N 
ATOM     62  C   UNL A   1      30.934  25.168  26.552  1.00  0.00     0.278 C 
ATOM     63  H   UNL A   1      30.324  26.711  27.636  1.00  0.00     0.163 HD
ATOM     64  O   UNL A   1      29.774  24.733  26.568  1.00  0.00    -0.268 OA
BRANCH  62  65
ATOM     65  C   UNL A   1      32.115  24.240  26.147  1.00  0.00     0.274 C 
ATOM     66  C   UNL A   1      31.603  22.787  26.013  1.00  0.00     0.076 C 
ATOM     67  N   UNL A   1      32.994  24.644  25.014  1.00  0.00    -0.315 N 
ATOM     68  C   UNL A   1      32.675  21.774  25.607  1.00  0.00     0.016 C 
ATOM     69  C   UNL A   1      34.144  23.723  24.903  1.00  0.00     0.188 C 
ATOM     70  H   UNL A   1      33.336  25.572  25.265  1.00  0.00     0.349 HD
ATOM     71  C   UNL A   1      34.064  22.389  25.684  1.00  0.00     0.048 C 
ATOM     72  C   UNL A   1      35.452  24.406  25.339  1.00  0.00     0.065 C 
ATOM     73  C   UNL A   1      35.155  21.463  25.128  1.00  0.00     0.010 C 
ATOM     74  C   UNL A   1      36.652  23.547  24.919  1.00  0.00     0.006 C 
ATOM     75  C   UNL A   1      36.543  22.076  25.341  1.00  0.00     0.001 C 
BRANCH  67  76
ATOM     76  C   UNL A   1      32.331  24.936  23.712  1.00  0.00     0.244 C 
ATOM     77  C   UNL A   1      32.972  24.457  22.371  1.00  0.00     0.328 C 
ATOM     78  C   UNL A   1      31.958  26.451  23.519  1.00  0.00     0.064 C 
ATOM     79  N   UNL A   1      32.986  25.511  21.323  1.00  0.00    -0.330 N 
ATOM     80  C   UNL A   1      30.946  26.519  22.350  1.00  0.00     0.071 C 
ATOM     81  C   UNL A   1      33.144  27.311  23.039  1.00  0.00     0.071 C 
ATOM     82  C   UNL A   1      31.610  25.983  21.072  1.00  0.00     0.262 C 
ATOM     83  C   UNL A   1      33.797  26.645  21.818  1.00  0.00     0.262 C 
ATOM     84  H   UNL A   1      33.377  25.137  20.458  1.00  0.00     0.348 HD
ENDBRANCH  67  76
ENDBRANCH  62  65
ENDBRANCH  60  61
ENDBRANCH  59  60
ENDBRANCH  58  59
ENDBRANCH   1  58
TORSDOF 14
ENDMDL
MODEL 3
REMARK VINA RESULT:     -10.9      2.987      4.792
REMARK SMILES O=C(NCCCCCCNC(=O)[C@H]1CC[C@H]2CCCC[C@@H]2[N@H+]1[C@@H]1C[N@H+]2CC[C@@H]1CC2)c1ccc(-c2c3nc(c(-c4ccccc4)c4ccc([nH]4)c(-c4ccccc4)c4nc(c(-c5ccccc5)c5ccc2[nH]5)C=C4)C=C3)cc1
REMARK SMILES IDX 6 1 5 2 4 3 3 4 1 5 2 6 31 8 32 9 78 10 33 11 77 12 34 13
REMARK SMILES IDX 35 14 36 15 71 16 37 17 76 18 70 19 72 20 38 21 75 22 69 23
REMARK SMILES IDX 68 24 39 26 61 27 46 28 60 29 47 30 50 31 59 32 73 33 48 34
REMARK SMILES IDX 49 35 58 37 74 38 51 39 40 40 41 41 45 42 42 43 44 44 43 45
REMARK SMILES IDX 62 46 63 47 67 48 64 49 66 50 65 51 52 52 53 53 57 54 54 55
REMARK SMILES IDX 56 56 55 57 7 58 8 59 9 60 10 61 11 62 12 64 13 65 14 66
REMARK SMILES IDX 22 67 15 68 21 69 16 71 20 72 17 73 19 74 18 75 23 76 24 77
REMARK SMILES IDX 28 78 25 79 29 80 27 81 30 82 26 83
REMARK H PARENT 3 7 72 25 50 36 10 63 22 70 25 84
REMARK Flexibility Score: inf
ROOT
ATOM      1  C   UNL A   1      31.414  30.829  25.753  1.00  0.00     0.002 C 
ENDROOT
BRANCH   1   2
ATOM      2  C   UNL A   1      31.319  32.135  26.542  1.00  0.00     0.021 C 
BRANCH   2   3
ATOM      3  C   UNL A   1      32.616  32.554  27.225  1.00  0.00     0.116 C 
BRANCH   3   4
ATOM      4  N   UNL A   1      32.574  33.934  27.680  1.00  0.00    -0.352 N 
ATOM      5  O   UNL A   1      33.048  35.666  29.051  1.00  0.00    -0.269 OA
ATOM      6  C   UNL A   1      33.360  34.567  28.613  1.00  0.00     0.251 C 
ATOM      7  H   UNL A   1      31.882  34.496  27.261  1.00  0.00     0.163 HD
BRANCH   6   8
ATOM      8  C   UNL A   1      34.590  33.899  29.089  1.00  0.00     0.039 A 
ATOM      9  C   UNL A   1      35.801  34.126  28.436  1.00  0.00     0.014 A 
ATOM     10  C   UNL A   1      34.536  33.050  30.198  1.00  0.00     0.014 A 
ATOM     11  C   UNL A   1      36.919  33.384  28.783  1.00  0.00     0.010 A 
ATOM     12  C   UNL A   1      35.695  32.393  30.623  1.00  0.00     0.010 A 
ATOM     13  C   UNL A   1      36.892  32.539  29.905  1.00  0.00    -0.014 A 
BRANCH  13  14
ATOM     14  C   UNL A   1      38.167  31.920  30.347  1.00  0.00     0.031 A 
ATOM     15  C   UNL A   1      38.654  30.613  29.789  1.00  0.00     0.074 A 
ATOM     16  C   UNL A   1      38.923  32.605  31.229  1.00  0.00     0.049 A 
ATOM     17  N   UNL A   1      39.785  29.997  30.022  1.00  0.00    -0.248 NA
ATOM     18  C   UNL A   1      37.763  29.902  28.859  1.00  0.00     0.031 C 
ATOM     19  C   UNL A   1      38.544  33.880  31.852  1.00  0.00     0.029 A 
ATOM     20  N   UNL A   1      40.175  32.358  31.726  1.00  0.00    -0.354 N 
ATOM     21  C   UNL A   1      39.744  28.826  29.275  1.00  0.00     0.074 A 
ATOM     22  C   UNL A   1      38.458  28.800  28.607  1.00  0.00     0.031 C 
ATOM     23  C   UNL A   1      39.568  34.335  32.584  1.00  0.00     0.029 A 
ATOM     24  C   UNL A   1      40.641  33.351  32.555  1.00  0.00     0.049 A 
ATOM     25  H   UNL A   1      40.692  31.548  31.510  1.00  0.00     0.167 HD
ATOM     26  C   UNL A   1      40.692  27.866  29.154  1.00  0.00     0.031 A 
ATOM     27  C   UNL A   1      41.794  33.452  33.237  1.00  0.00     0.031 A 
ATOM     28  C   UNL A   1      41.963  27.890  29.835  1.00  0.00     0.049 A 
ATOM     29  C   UNL A   1      42.806  32.352  33.112  1.00  0.00     0.074 A 
ATOM     30  C   UNL A   1      42.994  26.967  29.770  1.00  0.00     0.029 A 
ATOM     31  N   UNL A   1      42.376  28.885  30.707  1.00  0.00    -0.354 N 
ATOM     32  N   UNL A   1      42.760  31.269  32.374  1.00  0.00    -0.248 NA
ATOM     33  C   UNL A   1      44.028  32.490  33.912  1.00  0.00     0.031 C 
ATOM     34  C   UNL A   1      44.005  27.375  30.645  1.00  0.00     0.029 A 
ATOM     35  C   UNL A   1      43.635  28.587  31.205  1.00  0.00     0.049 A 
ATOM     36  H   UNL A   1      41.852  29.686  30.940  1.00  0.00     0.167 HD
ATOM     37  C   UNL A   1      43.952  30.602  32.613  1.00  0.00     0.074 A 
ATOM     38  C   UNL A   1      44.715  31.425  33.529  1.00  0.00     0.031 C 
ATOM     39  C   UNL A   1      44.374  29.410  32.126  1.00  0.00     0.031 A 
BRANCH  26  40
ATOM     40  C   UNL A   1      40.393  26.691  28.260  1.00  0.00    -0.014 A 
ATOM     41  C   UNL A   1      39.618  25.612  28.713  1.00  0.00     0.009 A 
ATOM     42  C   UNL A   1      40.828  26.699  26.926  1.00  0.00     0.009 A 
ATOM     43  C   UNL A   1      39.303  24.556  27.854  1.00  0.00     0.001 A 
ATOM     44  C   UNL A   1      40.490  25.655  26.062  1.00  0.00     0.001 A 
ATOM     45  C   UNL A   1      39.733  24.582  26.528  1.00  0.00     0.000 A 
ENDBRANCH  26  40
BRANCH  27  46
ATOM     46  C   UNL A   1      42.033  34.617  34.130  1.00  0.00    -0.014 A 
ATOM     47  C   UNL A   1      41.651  34.586  35.479  1.00  0.00     0.009 A 
ATOM     48  C   UNL A   1      42.632  35.782  33.623  1.00  0.00     0.009 A 
ATOM     49  C   UNL A   1      41.830  35.709  36.290  1.00  0.00     0.001 A 
ATOM     50  C   UNL A   1      42.847  36.888  34.445  1.00  0.00     0.001 A 
ATOM     51  C   UNL A   1      42.431  36.857  35.774  1.00  0.00     0.000 A 
ENDBRANCH  27  46
BRANCH  39  52
ATOM     52  C   UNL A   1      45.737  28.949  32.565  1.00  0.00    -0.014 A 
ATOM     53  C   UNL A   1      45.909  28.185  33.730  1.00  0.00     0.009 A 
ATOM     54  C   UNL A   1      46.865  29.293  31.805  1.00  0.00     0.009 A 
ATOM     55  C   UNL A   1      47.188  27.820  34.153  1.00  0.00     0.001 A 
ATOM     56  C   UNL A   1      48.140  28.896  32.211  1.00  0.00     0.001 A 
ATOM     57  C   UNL A   1      48.301  28.173  33.391  1.00  0.00     0.000 A 
ENDBRANCH  39  52
ENDBRANCH  13  14
ENDBRANCH   6   8
ENDBRANCH   3   4
ENDBRANCH   2   3
ENDBRANCH   1   2
BRANCH   1  58
ATOM     58  C   UNL A   1      32.022  29.653  26.519  1.00  0.00     0.002 C 
BRANCH  58  59
ATOM     59  C   UNL A   1      31.358  28.302  26.250  1.00  0.00     0.021 C 
BRANCH  59  60
ATOM     60  C   UNL A   1      32.088  27.083  26.823  1.00  0.00     0.116 C 
BRANCH  60  61
ATOM     61  N   UNL A   1      31.134  26.017  27.031  1.00  0.00    -0.351 N 
ATOM     62  C   UNL A   1      31.075  24.758  26.522  1.00  0.00     0.278 C 
ATOM     63  H   UNL A   1      30.400  26.242  27.648  1.00  0.00     0.163 HD
ATOM     64  O   UNL A   1      29.965  24.216  26.619  1.00  0.00    -0.268 OA
BRANCH  62  65
ATOM     65  C   UNL A   1      32.307  23.943  26.034  1.00  0.00     0.274 C 
ATOM     66  C   UNL A   1      31.889  22.473  25.799  1.00  0.00     0.076 C 
ATOM     67  N   UNL A   1      33.138  24.486  24.924  1.00  0.00    -0.315 N 
ATOM     68  C   UNL A   1      33.017  21.565  25.306  1.00  0.00     0.016 C 
ATOM     69  C   UNL A   1      34.344  23.654  24.730  1.00  0.00     0.188 C 
ATOM     70  H   UNL A   1      33.423  25.414  25.239  1.00  0.00     0.349 HD
ATOM     71  C   UNL A   1      34.365  22.264  25.410  1.00  0.00     0.048 C 
ATOM     72  C   UNL A   1      35.612  24.389  25.199  1.00  0.00     0.065 C 
ATOM     73  C   UNL A   1      35.504  21.456  24.774  1.00  0.00     0.010 C 
ATOM     74  C   UNL A   1      36.858  23.645  24.702  1.00  0.00     0.006 C 
ATOM     75  C   UNL A   1      36.852  22.143  25.014  1.00  0.00     0.001 C 
BRANCH  67  76
ATOM     76  C   UNL A   1      32.434  24.828  23.655  1.00  0.00     0.244 C 
ATOM     77  C   UNL A   1      33.089  24.508  22.274  1.00  0.00     0.328 C 
ATOM     78  C   UNL A   1      31.944  26.321  23.587  1.00  0.00     0.064 C 
ATOM     79  N   UNL A   1      33.007  25.639  21.314  1.00  0.00    -0.330 N 
ATOM     80  C   UNL A   1      30.912  26.402  22.437  1.00  0.00     0.071 C 
ATOM     81  C   UNL A   1      33.053  27.304  23.167  1.00  0.00     0.071 C 
ATOM     82  C   UNL A   1      31.595  26.022  21.115  1.00  0.00     0.262 C 
ATOM     83  C   UNL A   1      33.736  26.790  21.891  1.00  0.00     0.262 C 
ATOM     84  H   UNL A   1      33.412  25.366  20.419  1.00  0.00     0.348 HD
ENDBRANCH  67  76
ENDBRANCH  62  65
ENDBRANCH  60  61
ENDBRANCH  59  60
ENDBRANCH  58  59
ENDBRANCH   1  58
TORSDOF 14
ENDMDL
