MODEL 1
REMARK VINA RESULT:     -11.3      0.000      0.000
REMARK SMILES O=C(NCCCCCCNC(=O)c1cc(-c2cncnc2)cc(S(=O)(=O)N2CCCC2)c1)c1ccc(-c2c3nc(c(-c4ccccc4)c4ccc([nH]4)c(-c4ccccc4)c4nc(c(-c5ccccc5)c5ccc2[nH]5)C=C4)C=C3)cc1
REMARK SMILES IDX 6 1 5 2 4 3 3 4 1 5 2 6 33 8 34 9 80 10 35 11 79 12 36 13
REMARK SMILES IDX 37 14 38 15 73 16 39 17 78 18 72 19 74 20 40 21 77 22 71 23
REMARK SMILES IDX 70 24 41 26 63 27 48 28 62 29 49 30 52 31 61 32 75 33 50 34
REMARK SMILES IDX 51 35 60 37 76 38 53 39 42 40 43 41 47 42 44 43 46 44 45 45
REMARK SMILES IDX 64 46 65 47 69 48 66 49 68 50 67 51 54 52 55 53 59 54 56 55
REMARK SMILES IDX 58 56 57 57 7 58 8 59 9 60 10 61 11 62 12 64 13 65 14 66
REMARK SMILES IDX 32 67 15 68 23 69 22 70 16 71 17 72 21 73 18 74 20 75 19 76
REMARK SMILES IDX 24 77 25 78 26 79 27 80 28 81 31 82 29 83 30 84
REMARK H PARENT 3 7 74 25 52 36 10 63
REMARK Flexibility Score: inf
ROOT
ATOM      1  C   UNL A   1      38.898  21.224  25.832  1.00  0.00     0.002 C 
ENDROOT
BRANCH   1   2
ATOM      2  C   UNL A   1      39.730  19.940  25.838  1.00  0.00     0.021 C 
BRANCH   2   3
ATOM      3  C   UNL A   1      41.051  20.006  26.594  1.00  0.00     0.116 C 
BRANCH   3   4
ATOM      4  N   UNL A   1      42.210  19.785  25.751  1.00  0.00    -0.352 N 
ATOM      5  O   UNL A   1      44.070  20.318  24.595  1.00  0.00    -0.269 OA
ATOM      6  C   UNL A   1      43.214  20.659  25.405  1.00  0.00     0.251 C 
ATOM      7  H   UNL A   1      42.290  18.880  25.373  1.00  0.00     0.163 HD
BRANCH   6   8
ATOM      8  C   UNL A   1      43.245  22.024  25.976  1.00  0.00     0.039 A 
ATOM      9  C   UNL A   1      43.100  23.156  25.169  1.00  0.00     0.014 A 
ATOM     10  C   UNL A   1      43.404  22.170  27.358  1.00  0.00     0.014 A 
ATOM     11  C   UNL A   1      43.243  24.426  25.721  1.00  0.00     0.010 A 
ATOM     12  C   UNL A   1      43.474  23.446  27.923  1.00  0.00     0.010 A 
ATOM     13  C   UNL A   1      43.424  24.585  27.106  1.00  0.00    -0.014 A 
BRANCH  13  14
ATOM     14  C   UNL A   1      43.502  25.949  27.682  1.00  0.00     0.031 A 
ATOM     15  C   UNL A   1      44.825  26.620  27.922  1.00  0.00     0.074 A 
ATOM     16  C   UNL A   1      42.357  26.597  27.975  1.00  0.00     0.049 A 
ATOM     17  N   UNL A   1      45.066  27.822  28.387  1.00  0.00    -0.248 NA
ATOM     18  C   UNL A   1      46.034  25.845  27.606  1.00  0.00     0.031 C 
ATOM     19  C   UNL A   1      41.010  26.050  27.794  1.00  0.00     0.029 A 
ATOM     20  N   UNL A   1      42.142  27.857  28.467  1.00  0.00    -0.354 N 
ATOM     21  C   UNL A   1      46.449  27.940  28.438  1.00  0.00     0.074 A 
ATOM     22  C   UNL A   1      46.994  26.680  27.977  1.00  0.00     0.031 C 
ATOM     23  C   UNL A   1      40.109  26.988  28.123  1.00  0.00     0.029 A 
ATOM     24  C   UNL A   1      40.813  28.179  28.586  1.00  0.00     0.049 A 
ATOM     25  H   UNL A   1      42.870  28.474  28.711  1.00  0.00     0.167 HD
ATOM     26  C   UNL A   1      47.195  28.999  28.831  1.00  0.00     0.031 A 
ATOM     27  C   UNL A   1      40.220  29.303  29.025  1.00  0.00     0.031 A 
ATOM     28  C   UNL A   1      46.654  30.251  29.292  1.00  0.00     0.049 A 
ATOM     29  C   UNL A   1      41.069  30.452  29.480  1.00  0.00     0.074 A 
ATOM     30  C   UNL A   1      47.332  31.397  29.674  1.00  0.00     0.029 A 
ATOM     31  N   UNL A   1      45.302  30.520  29.438  1.00  0.00    -0.354 N 
ATOM     32  N   UNL A   1      42.375  30.557  29.487  1.00  0.00    -0.248 NA
ATOM     33  C   UNL A   1      40.361  31.634  29.988  1.00  0.00     0.031 C 
ATOM     34  C   UNL A   1      46.390  32.342  30.097  1.00  0.00     0.029 A 
ATOM     35  C   UNL A   1      45.126  31.803  29.931  1.00  0.00     0.049 A 
ATOM     36  H   UNL A   1      44.575  29.893  29.224  1.00  0.00     0.167 HD
ATOM     37  C   UNL A   1      42.647  31.823  29.988  1.00  0.00     0.074 A 
ATOM     38  C   UNL A   1      41.370  32.452  30.256  1.00  0.00     0.031 C 
ATOM     39  C   UNL A   1      43.849  32.410  30.207  1.00  0.00     0.031 A 
BRANCH  26  40
ATOM     40  C   UNL A   1      48.690  28.837  28.806  1.00  0.00    -0.014 A 
ATOM     41  C   UNL A   1      49.443  29.171  27.670  1.00  0.00     0.009 A 
ATOM     42  C   UNL A   1      49.357  28.370  29.950  1.00  0.00     0.009 A 
ATOM     43  C   UNL A   1      50.830  29.008  27.668  1.00  0.00     0.001 A 
ATOM     44  C   UNL A   1      50.747  28.230  29.952  1.00  0.00     0.001 A 
ATOM     45  C   UNL A   1      51.481  28.540  28.809  1.00  0.00     0.000 A 
ENDBRANCH  26  40
BRANCH  27  46
ATOM     46  C   UNL A   1      38.738  29.389  29.046  1.00  0.00    -0.014 A 
ATOM     47  C   UNL A   1      38.034  29.216  30.246  1.00  0.00     0.009 A 
ATOM     48  C   UNL A   1      38.026  29.683  27.873  1.00  0.00     0.009 A 
ATOM     49  C   UNL A   1      36.643  29.325  30.269  1.00  0.00     0.001 A 
ATOM     50  C   UNL A   1      36.636  29.816  27.904  1.00  0.00     0.001 A 
ATOM     51  C   UNL A   1      35.946  29.632  29.100  1.00  0.00     0.000 A 
ENDBRANCH  27  46
BRANCH  39  52
ATOM     52  C   UNL A   1      43.831  33.810  30.745  1.00  0.00    -0.014 A 
ATOM     53  C   UNL A   1      43.803  34.918  29.883  1.00  0.00     0.009 A 
ATOM     54  C   UNL A   1      43.822  34.024  32.132  1.00  0.00     0.009 A 
ATOM     55  C   UNL A   1      43.797  36.214  30.402  1.00  0.00     0.001 A 
ATOM     56  C   UNL A   1      43.792  35.321  32.648  1.00  0.00     0.001 A 
ATOM     57  C   UNL A   1      43.788  36.414  31.782  1.00  0.00     0.000 A 
ENDBRANCH  39  52
ENDBRANCH  13  14
ENDBRANCH   6   8
ENDBRANCH   3   4
ENDBRANCH   2   3
ENDBRANCH   1   2
BRANCH   1  58
ATOM     58  C   UNL A   1      39.507  22.429  26.551  1.00  0.00     0.002 C 
BRANCH  58  59
ATOM     59  C   UNL A   1      38.729  23.748  26.458  1.00  0.00     0.021 C 
BRANCH  59  60
ATOM     60  C   UNL A   1      37.250  23.625  26.101  1.00  0.00     0.116 C 
BRANCH  60  61
ATOM     61  N   UNL A   1      37.023  23.636  24.670  1.00  0.00    -0.352 N 
ATOM     62  C   UNL A   1      36.041  23.034  23.927  1.00  0.00     0.251 C 
ATOM     63  H   UNL A   1      37.677  24.157  24.149  1.00  0.00     0.163 HD
ATOM     64  O   UNL A   1      36.125  23.041  22.701  1.00  0.00    -0.269 OA
BRANCH  62  65
ATOM     65  C   UNL A   1      34.869  22.385  24.560  1.00  0.00     0.041 A 
ATOM     66  C   UNL A   1      34.802  20.986  24.560  1.00  0.00     0.022 A 
ATOM     67  C   UNL A   1      33.786  23.128  25.028  1.00  0.00     0.035 A 
ATOM     68  C   UNL A   1      33.666  20.311  25.040  1.00  0.00    -0.013 A 
ATOM     69  C   UNL A   1      32.654  22.481  25.514  1.00  0.00     0.084 A 
ATOM     70  C   UNL A   1      32.591  21.079  25.520  1.00  0.00     0.030 A 
BRANCH  68  71
ATOM     71  C   UNL A   1      33.607  18.848  24.999  1.00  0.00     0.018 A 
ATOM     72  C   UNL A   1      32.643  18.111  25.666  1.00  0.00     0.123 A 
ATOM     73  C   UNL A   1      34.484  18.076  24.254  1.00  0.00     0.123 A 
ATOM     74  N   UNL A   1      32.534  16.764  25.609  1.00  0.00    -0.244 NA
ATOM     75  N   UNL A   1      34.429  16.731  24.156  1.00  0.00    -0.244 NA
ATOM     76  C   UNL A   1      33.441  16.141  24.844  1.00  0.00     0.221 A 
ENDBRANCH  68  71
BRANCH  69  77
ATOM     77  S   UNL A   1      31.223  23.381  26.089  1.00  0.00     0.243 S 
ATOM     78  O   UNL A   1      30.138  22.420  26.118  1.00  0.00    -0.207 OA
ATOM     79  O   UNL A   1      31.649  24.092  27.271  1.00  0.00    -0.207 OA
BRANCH  77  80
ATOM     80  N   UNL A   1      30.849  24.513  24.911  1.00  0.00    -0.198 NA
ATOM     81  C   UNL A   1      30.655  24.130  23.506  1.00  0.00     0.102 C 
ATOM     82  C   UNL A   1      31.284  25.911  25.029  1.00  0.00     0.102 C 
ATOM     83  C   UNL A   1      31.393  25.204  22.720  1.00  0.00     0.018 C 
ATOM     84  C   UNL A   1      31.291  26.441  23.598  1.00  0.00     0.018 C 
ENDBRANCH  77  80
ENDBRANCH  69  77
ENDBRANCH  62  65
ENDBRANCH  60  61
ENDBRANCH  59  60
ENDBRANCH  58  59
ENDBRANCH   1  58
TORSDOF 16
ENDMDL
MODEL 2
REMARK VINA RESULT:     -11.1      2.747      7.848
REMARK SMILES O=C(NCCCCCCNC(=O)c1cc(-c2cncnc2)cc(S(=O)(=O)N2CCCC2)c1)c1ccc(-c2c3nc(c(-c4ccccc4)c4ccc([nH]4)c(-c4ccccc4)c4nc(c(-c5ccccc5)c5ccc2[nH]5)C=C4)C=C3)cc1
REMARK SMILES IDX 6 1 5 2 4 3 3 4 1 5 2 6 33 8 34 9 80 10 35 11 79 12 36 13
REMARK SMILES IDX 37 14 38 15 73 16 39 17 78 18 72 19 74 20 40 21 77 22 71 23
REMARK SMILES IDX 70 24 41 26 63 27 48 28 62 29 49 30 52 31 61 32 75 33 50 34
REMARK SMILES IDX 51 35 60 37 76 38 53 39 42 40 43 41 47 42 44 43 46 44 45 45
REMARK SMILES IDX 64 46 65 47 69 48 66 49 68 50 67 51 54 52 55 53 59 54 56 55
REMARK SMILES IDX 58 56 57 57 7 58 8 59 9 60 10 61 11 62 12 64 13 65 14 66
REMARK SMILES IDX 32 67 15 68 23 69 22 70 16 71 17 72 21 73 18 74 20 75 19 76
REMARK SMILES IDX 24 77 25 78 26 79 27 80 28 81 31 82 29 83 30 84
REMARK H PARENT 3 7 74 25 52 36 10 63
REMARK Flexibility Score: inf
ROOT
ATOM      1  C   UNL A   1      32.678  26.931  24.731  1.00  0.00     0.002 C 
ENDROOT
BRANCH   1   2
ATOM      2  C   UNL A   1      33.737  27.985  25.059  1.00  0.00     0.021 C 
BRANCH   2   3
ATOM      3  C   UNL A   1      33.940  28.288  26.539  1.00  0.00     0.116 C 
BRANCH   3   4
ATOM      4  N   UNL A   1      33.670  29.669  26.888  1.00  0.00    -0.352 N 
ATOM      5  O   UNL A   1      33.990  31.657  27.901  1.00  0.00    -0.269 OA
ATOM      6  C   UNL A   1      34.430  30.545  27.627  1.00  0.00     0.251 C 
ATOM      7  H   UNL A   1      32.822  30.032  26.545  1.00  0.00     0.163 HD
BRANCH   6   8
ATOM      8  C   UNL A   1      35.762  30.139  28.128  1.00  0.00     0.039 A 
ATOM      9  C   UNL A   1      36.896  30.198  27.313  1.00  0.00     0.014 A 
ATOM     10  C   UNL A   1      35.878  29.705  29.453  1.00  0.00     0.014 A 
ATOM     11  C   UNL A   1      38.112  29.707  27.780  1.00  0.00     0.010 A 
ATOM     12  C   UNL A   1      37.115  29.281  29.944  1.00  0.00     0.010 A 
ATOM     13  C   UNL A   1      38.237  29.249  29.102  1.00  0.00    -0.014 A 
BRANCH  13  14
ATOM     14  C   UNL A   1      39.559  28.797  29.600  1.00  0.00     0.031 A 
ATOM     15  C   UNL A   1      40.257  29.514  30.721  1.00  0.00     0.074 A 
ATOM     16  C   UNL A   1      40.126  27.710  29.041  1.00  0.00     0.049 A 
ATOM     17  N   UNL A   1      41.399  29.227  31.296  1.00  0.00    -0.248 NA
ATOM     18  C   UNL A   1      39.594  30.708  31.265  1.00  0.00     0.031 C 
ATOM     19  C   UNL A   1      39.551  26.931  27.941  1.00  0.00     0.029 A 
ATOM     20  N   UNL A   1      41.298  27.062  29.332  1.00  0.00    -0.354 N 
ATOM     21  C   UNL A   1      41.602  30.213  32.253  1.00  0.00     0.074 A 
ATOM     22  C   UNL A   1      40.475  31.119  32.167  1.00  0.00     0.031 C 
ATOM     23  C   UNL A   1      40.347  25.883  27.685  1.00  0.00     0.029 A 
ATOM     24  C   UNL A   1      41.510  25.945  28.562  1.00  0.00     0.049 A 
ATOM     25  H   UNL A   1      41.926  27.367  30.026  1.00  0.00     0.167 HD
ATOM     26  C   UNL A   1      42.630  30.351  33.124  1.00  0.00     0.031 A 
ATOM     27  C   UNL A   1      42.530  25.069  28.554  1.00  0.00     0.031 A 
ATOM     28  C   UNL A   1      43.752  29.453  33.209  1.00  0.00     0.049 A 
ATOM     29  C   UNL A   1      43.670  25.260  29.510  1.00  0.00     0.074 A 
ATOM     30  C   UNL A   1      44.823  29.489  34.085  1.00  0.00     0.029 A 
ATOM     31  N   UNL A   1      43.951  28.359  32.381  1.00  0.00    -0.354 N 
ATOM     32  N   UNL A   1      43.826  26.179  30.432  1.00  0.00    -0.248 NA
ATOM     33  C   UNL A   1      44.773  24.294  29.422  1.00  0.00     0.031 C 
ATOM     34  C   UNL A   1      45.693  28.444  33.757  1.00  0.00     0.029 A 
ATOM     35  C   UNL A   1      45.140  27.728  32.709  1.00  0.00     0.049 A 
ATOM     36  H   UNL A   1      43.338  28.072  31.667  1.00  0.00     0.167 HD
ATOM     37  C   UNL A   1      45.039  25.894  31.044  1.00  0.00     0.074 A 
ATOM     38  C   UNL A   1      45.567  24.708  30.400  1.00  0.00     0.031 C 
ATOM     39  C   UNL A   1      45.659  26.558  32.050  1.00  0.00     0.031 A 
BRANCH  26  40
ATOM     40  C   UNL A   1      42.601  31.542  34.041  1.00  0.00    -0.014 A 
ATOM     41  C   UNL A   1      41.968  31.486  35.293  1.00  0.00     0.009 A 
ATOM     42  C   UNL A   1      43.245  32.730  33.658  1.00  0.00     0.009 A 
ATOM     43  C   UNL A   1      41.950  32.606  36.127  1.00  0.00     0.001 A 
ATOM     44  C   UNL A   1      43.245  33.841  34.505  1.00  0.00     0.001 A 
ATOM     45  C   UNL A   1      42.590  33.781  35.734  1.00  0.00     0.000 A 
ENDBRANCH  26  40
BRANCH  27  46
ATOM     46  C   UNL A   1      42.508  23.927  27.606  1.00  0.00    -0.014 A 
ATOM     47  C   UNL A   1      42.886  24.108  26.268  1.00  0.00     0.009 A 
ATOM     48  C   UNL A   1      42.146  22.645  28.045  1.00  0.00     0.009 A 
ATOM     49  C   UNL A   1      42.891  23.028  25.385  1.00  0.00     0.001 A 
ATOM     50  C   UNL A   1      42.175  21.562  27.165  1.00  0.00     0.001 A 
ATOM     51  C   UNL A   1      42.542  21.755  25.835  1.00  0.00     0.000 A 
ENDBRANCH  27  46
BRANCH  39  52
ATOM     52  C   UNL A   1      46.969  26.000  32.523  1.00  0.00    -0.014 A 
ATOM     53  C   UNL A   1      47.023  25.063  33.567  1.00  0.00     0.009 A 
ATOM     54  C   UNL A   1      48.163  26.400  31.904  1.00  0.00     0.009 A 
ATOM     55  C   UNL A   1      48.252  24.562  34.002  1.00  0.00     0.001 A 
ATOM     56  C   UNL A   1      49.388  25.881  32.325  1.00  0.00     0.001 A 
ATOM     57  C   UNL A   1      49.431  24.969  33.378  1.00  0.00     0.000 A 
ENDBRANCH  39  52
ENDBRANCH  13  14
ENDBRANCH   6   8
ENDBRANCH   3   4
ENDBRANCH   2   3
ENDBRANCH   1   2
BRANCH   1  58
ATOM     58  C   UNL A   1      31.261  27.215  25.235  1.00  0.00     0.002 C 
BRANCH  58  59
ATOM     59  C   UNL A   1      30.119  26.488  24.515  1.00  0.00     0.021 C 
BRANCH  59  60
ATOM     60  C   UNL A   1      30.244  24.969  24.433  1.00  0.00     0.116 C 
BRANCH  60  61
ATOM     61  N   UNL A   1      30.069  24.328  25.720  1.00  0.00    -0.352 N 
ATOM     62  C   UNL A   1      30.672  23.213  26.241  1.00  0.00     0.251 C 
ATOM     63  H   UNL A   1      29.412  24.761  26.313  1.00  0.00     0.163 HD
ATOM     64  O   UNL A   1      30.258  22.745  27.300  1.00  0.00    -0.269 OA
BRANCH  62  65
ATOM     65  C   UNL A   1      31.823  22.562  25.572  1.00  0.00     0.041 A 
ATOM     66  C   UNL A   1      31.781  21.177  25.374  1.00  0.00     0.022 A 
ATOM     67  C   UNL A   1      32.984  23.269  25.262  1.00  0.00     0.035 A 
ATOM     68  C   UNL A   1      32.885  20.481  24.851  1.00  0.00    -0.013 A 
ATOM     69  C   UNL A   1      34.087  22.603  24.737  1.00  0.00     0.084 A 
ATOM     70  C   UNL A   1      34.041  21.216  24.533  1.00  0.00     0.030 A 
BRANCH  68  71
ATOM     71  C   UNL A   1      32.829  19.028  24.685  1.00  0.00     0.018 A 
ATOM     72  C   UNL A   1      32.909  18.403  23.451  1.00  0.00     0.123 A 
ATOM     73  C   UNL A   1      32.732  18.148  25.751  1.00  0.00     0.123 A 
ATOM     74  N   UNL A   1      32.907  17.063  23.270  1.00  0.00    -0.244 NA
ATOM     75  N   UNL A   1      32.725  16.802  25.637  1.00  0.00    -0.244 NA
ATOM     76  C   UNL A   1      32.819  16.327  24.387  1.00  0.00     0.221 A 
ENDBRANCH  68  71
BRANCH  69  77
ATOM     77  S   UNL A   1      35.612  23.450  24.358  1.00  0.00     0.243 S 
ATOM     78  O   UNL A   1      35.949  23.068  23.001  1.00  0.00    -0.207 OA
ATOM     79  O   UNL A   1      35.406  24.828  24.737  1.00  0.00    -0.207 OA
BRANCH  77  80
ATOM     80  N   UNL A   1      36.792  22.809  25.360  1.00  0.00    -0.198 NA
ATOM     81  C   UNL A   1      37.575  23.656  26.271  1.00  0.00     0.102 C 
ATOM     82  C   UNL A   1      37.532  21.595  24.991  1.00  0.00     0.102 C 
ATOM     83  C   UNL A   1      39.000  23.144  26.125  1.00  0.00     0.018 C 
ATOM     84  C   UNL A   1      38.832  21.672  25.787  1.00  0.00     0.018 C 
ENDBRANCH  77  80
ENDBRANCH  69  77
ENDBRANCH  62  65
ENDBRANCH  60  61
ENDBRANCH  59  60
ENDBRANCH  58  59
ENDBRANCH   1  58
TORSDOF 16
ENDMDL
MODEL 3
REMARK VINA RESULT:     -11.1      2.808      7.861
REMARK SMILES O=C(NCCCCCCNC(=O)c1cc(-c2cncnc2)cc(S(=O)(=O)N2CCCC2)c1)c1ccc(-c2c3nc(c(-c4ccccc4)c4ccc([nH]4)c(-c4ccccc4)c4nc(c(-c5ccccc5)c5ccc2[nH]5)C=C4)C=C3)cc1
REMARK SMILES IDX 6 1 5 2 4 3 3 4 1 5 2 6 33 8 34 9 80 10 35 11 79 12 36 13
REMARK SMILES IDX 37 14 38 15 73 16 39 17 78 18 72 19 74 20 40 21 77 22 71 23
REMARK SMILES IDX 70 24 41 26 63 27 48 28 62 29 49 30 52 31 61 32 75 33 50 34
REMARK SMILES IDX 51 35 60 37 76 38 53 39 42 40 43 41 47 42 44 43 46 44 45 45
REMARK SMILES IDX 64 46 65 47 69 48 66 49 68 50 67 51 54 52 55 53 59 54 56 55
REMARK SMILES IDX 58 56 57 57 7 58 8 59 9 60 10 61 11 62 12 64 13 65 14 66
REMARK SMILES IDX 32 67 15 68 23 69 22 70 16 71 17 72 21 73 18 74 20 75 19 76
REMARK SMILES IDX 24 77 25 78 26 79 27 80 28 81 31 82 29 83 30 84
REMARK H PARENT 3 7 74 25 52 36 10 63
REMARK Flexibility Score: inf
ROOT
ATOM      1  C   UNL A   1      35.982  22.803  23.993  1.00  0.00     0.002 C 
ENDROOT
BRANCH   1   2
ATOM      2  C   UNL A   1      35.958  23.939  25.018  1.00  0.00     0.021 C 
BRANCH   2   3
ATOM      3  C   UNL A   1      36.625  23.644  26.356  1.00  0.00     0.116 C 
BRANCH   3   4
ATOM      4  N   UNL A   1      37.712  22.689  26.262  1.00  0.00    -0.352 N 
ATOM      5  O   UNL A   1      39.845  21.961  26.271  1.00  0.00    -0.269 OA
ATOM      6  C   UNL A   1      39.054  22.871  26.497  1.00  0.00     0.251 C 
ATOM      7  H   UNL A   1      37.451  21.779  25.991  1.00  0.00     0.163 HD
BRANCH   6   8
ATOM      8  C   UNL A   1      39.556  24.175  26.986  1.00  0.00     0.039 A 
ATOM      9  C   UNL A   1      39.584  24.480  28.349  1.00  0.00     0.014 A 
ATOM     10  C   UNL A   1      40.026  25.106  26.054  1.00  0.00     0.014 A 
ATOM     11  C   UNL A   1      39.959  25.754  28.769  1.00  0.00     0.010 A 
ATOM     12  C   UNL A   1      40.472  26.360  26.482  1.00  0.00     0.010 A 
ATOM     13  C   UNL A   1      40.413  26.705  27.840  1.00  0.00    -0.014 A 
BRANCH  13  14
ATOM     14  C   UNL A   1      40.876  28.032  28.316  1.00  0.00     0.031 A 
ATOM     15  C   UNL A   1      39.899  29.090  28.743  1.00  0.00     0.074 A 
ATOM     16  C   UNL A   1      42.200  28.273  28.382  1.00  0.00     0.049 A 
ATOM     17  N   UNL A   1      40.139  30.289  29.215  1.00  0.00    -0.248 NA
ATOM     18  C   UNL A   1      38.469  28.769  28.618  1.00  0.00     0.031 C 
ATOM     19  C   UNL A   1      43.248  27.327  27.990  1.00  0.00     0.029 A 
ATOM     20  N   UNL A   1      42.888  29.374  28.817  1.00  0.00    -0.354 N 
ATOM     21  C   UNL A   1      38.896  30.872  29.426  1.00  0.00     0.074 A 
ATOM     22  C   UNL A   1      37.903  29.903  29.010  1.00  0.00     0.031 C 
ATOM     23  C   UNL A   1      44.447  27.871  28.251  1.00  0.00     0.029 A 
ATOM     24  C   UNL A   1      44.252  29.218  28.775  1.00  0.00     0.049 A 
ATOM     25  H   UNL A   1      42.449  30.198  29.131  1.00  0.00     0.167 HD
ATOM     26  C   UNL A   1      38.607  32.098  29.922  1.00  0.00     0.031 A 
ATOM     27  C   UNL A   1      45.240  30.065  29.113  1.00  0.00     0.031 A 
ATOM     28  C   UNL A   1      39.593  33.063  30.334  1.00  0.00     0.049 A 
ATOM     29  C   UNL A   1      44.895  31.428  29.634  1.00  0.00     0.074 A 
ATOM     30  C   UNL A   1      39.396  34.318  30.886  1.00  0.00     0.029 A 
ATOM     31  N   UNL A   1      40.964  32.882  30.234  1.00  0.00    -0.354 N 
ATOM     32  N   UNL A   1      43.712  31.947  29.860  1.00  0.00    -0.248 NA
ATOM     33  C   UNL A   1      46.019  32.319  29.944  1.00  0.00     0.031 C 
ATOM     34  C   UNL A   1      40.648  34.915  31.075  1.00  0.00     0.029 A 
ATOM     35  C   UNL A   1      41.625  34.013  30.688  1.00  0.00     0.049 A 
ATOM     36  H   UNL A   1      41.403  32.071  29.892  1.00  0.00     0.167 HD
ATOM     37  C   UNL A   1      43.950  33.223  30.352  1.00  0.00     0.074 A 
ATOM     38  C   UNL A   1      45.389  33.391  30.408  1.00  0.00     0.031 C 
ATOM     39  C   UNL A   1      43.055  34.170  30.724  1.00  0.00     0.031 A 
BRANCH  26  40
ATOM     40  C   UNL A   1      37.156  32.479  30.019  1.00  0.00    -0.014 A 
ATOM     41  C   UNL A   1      36.535  33.249  29.023  1.00  0.00     0.009 A 
ATOM     42  C   UNL A   1      36.392  32.034  31.109  1.00  0.00     0.009 A 
ATOM     43  C   UNL A   1      35.186  33.595  29.136  1.00  0.00     0.001 A 
ATOM     44  C   UNL A   1      35.038  32.362  31.207  1.00  0.00     0.001 A 
ATOM     45  C   UNL A   1      34.439  33.150  30.226  1.00  0.00     0.000 A 
ENDBRANCH  26  40
BRANCH  27  46
ATOM     46  C   UNL A   1      46.654  29.635  28.971  1.00  0.00    -0.014 A 
ATOM     47  C   UNL A   1      47.310  28.991  30.030  1.00  0.00     0.009 A 
ATOM     48  C   UNL A   1      47.340  29.833  27.763  1.00  0.00     0.009 A 
ATOM     49  C   UNL A   1      48.630  28.562  29.885  1.00  0.00     0.001 A 
ATOM     50  C   UNL A   1      48.652  29.381  27.613  1.00  0.00     0.001 A 
ATOM     51  C   UNL A   1      49.298  28.752  28.674  1.00  0.00     0.000 A 
ENDBRANCH  27  46
BRANCH  39  52
ATOM     52  C   UNL A   1      43.613  35.464  31.240  1.00  0.00    -0.014 A 
ATOM     53  C   UNL A   1      43.873  36.538  30.375  1.00  0.00     0.009 A 
ATOM     54  C   UNL A   1      43.862  35.618  32.612  1.00  0.00     0.009 A 
ATOM     55  C   UNL A   1      44.402  37.731  30.872  1.00  0.00     0.001 A 
ATOM     56  C   UNL A   1      44.368  36.819  33.110  1.00  0.00     0.001 A 
ATOM     57  C   UNL A   1      44.645  37.871  32.237  1.00  0.00     0.000 A 
ENDBRANCH  39  52
ENDBRANCH  13  14
ENDBRANCH   6   8
ENDBRANCH   3   4
ENDBRANCH   2   3
ENDBRANCH   1   2
BRANCH   1  58
ATOM     58  C   UNL A   1      34.836  22.781  22.979  1.00  0.00     0.002 C 
BRANCH  58  59
ATOM     59  C   UNL A   1      33.428  22.554  23.542  1.00  0.00     0.021 C 
BRANCH  59  60
ATOM     60  C   UNL A   1      32.278  23.097  22.699  1.00  0.00     0.116 C 
BRANCH  60  61
ATOM     61  N   UNL A   1      32.736  23.943  21.616  1.00  0.00    -0.352 N 
ATOM     62  C   UNL A   1      32.562  25.287  21.409  1.00  0.00     0.251 C 
ATOM     63  H   UNL A   1      33.255  23.480  20.918  1.00  0.00     0.163 HD
ATOM     64  O   UNL A   1      32.902  25.780  20.336  1.00  0.00    -0.269 OA
BRANCH  62  65
ATOM     65  C   UNL A   1      31.987  26.169  22.452  1.00  0.00     0.041 A 
ATOM     66  C   UNL A   1      31.002  27.090  22.076  1.00  0.00     0.022 A 
ATOM     67  C   UNL A   1      32.493  26.193  23.751  1.00  0.00     0.035 A 
ATOM     68  C   UNL A   1      30.497  28.033  22.989  1.00  0.00    -0.013 A 
ATOM     69  C   UNL A   1      32.004  27.113  24.674  1.00  0.00     0.084 A 
ATOM     70  C   UNL A   1      31.013  28.031  24.296  1.00  0.00     0.030 A 
BRANCH  68  71
ATOM     71  C   UNL A   1      29.492  29.008  22.561  1.00  0.00     0.018 A 
ATOM     72  C   UNL A   1      28.206  29.044  23.075  1.00  0.00     0.123 A 
ATOM     73  C   UNL A   1      29.752  30.006  21.636  1.00  0.00     0.123 A 
ATOM     74  N   UNL A   1      27.271  29.960  22.734  1.00  0.00    -0.244 NA
ATOM     75  N   UNL A   1      28.863  30.948  21.254  1.00  0.00    -0.244 NA
ATOM     76  C   UNL A   1      27.657  30.876  21.835  1.00  0.00     0.221 A 
ENDBRANCH  68  71
BRANCH  69  77
ATOM     77  S   UNL A   1      32.643  27.214  26.338  1.00  0.00     0.243 S 
ATOM     78  O   UNL A   1      31.489  27.121  27.210  1.00  0.00    -0.207 OA
ATOM     79  O   UNL A   1      33.732  26.268  26.404  1.00  0.00    -0.207 OA
BRANCH  77  80
ATOM     80  N   UNL A   1      33.281  28.752  26.526  1.00  0.00    -0.198 NA
ATOM     81  C   UNL A   1      34.710  28.967  26.796  1.00  0.00     0.102 C 
ATOM     82  C   UNL A   1      32.467  29.860  27.042  1.00  0.00     0.102 C 
ATOM     83  C   UNL A   1      34.729  30.040  27.875  1.00  0.00     0.018 C 
ATOM     84  C   UNL A   1      33.476  30.856  27.608  1.00  0.00     0.018 C 
ENDBRANCH  77  80
ENDBRANCH  69  77
ENDBRANCH  62  65
ENDBRANCH  60  61
ENDBRANCH  59  60
ENDBRANCH  58  59
ENDBRANCH   1  58
TORSDOF 16
ENDMDL
