MODEL 1
REMARK VINA RESULT:     -10.2      0.000      0.000
REMARK SMILES COCCC(=O)N1Cc2ccccc2C[C@H]1C(=O)NCCCCCCNC(=O)c1ccc(-c2c3nc(c(-c4ccccc4)c4ccc([nH]4)c(-c4ccccc4)c4nc(c(-c5ccccc5)c5ccc2[nH]5)C=C4)C=C3)cc1
REMARK SMILES IDX 21 1 20 2 19 3 17 4 18 5 16 7 7 8 8 9 9 10 15 11 10 12 14 13
REMARK SMILES IDX 11 14 13 15 12 16 5 17 6 18 4 19 3 20 2 21 1 22 22 23 23 24
REMARK SMILES IDX 24 25 25 26 26 27 27 28 28 30 29 31 30 32 76 33 31 34 75 35
REMARK SMILES IDX 32 36 33 37 34 38 69 39 35 40 74 41 68 42 70 43 36 44 73 45
REMARK SMILES IDX 67 46 66 47 37 49 59 50 44 51 58 52 45 53 48 54 57 55 71 56
REMARK SMILES IDX 46 57 47 58 56 60 72 61 49 62 38 63 39 64 43 65 40 66 42 67
REMARK SMILES IDX 41 68 60 69 61 70 65 71 62 72 64 73 63 74 50 75 51 76 55 77
REMARK SMILES IDX 52 78 54 79 53 80
REMARK H PARENT 19 6 26 29 70 48 48 59
REMARK Flexibility Score: inf
ROOT
ATOM      1  C   UNL A   1      31.814  25.659  26.440  1.00  0.00     0.021 C 
ENDROOT
BRANCH   1   2
ATOM      2  C   UNL A   1      31.152  24.402  25.889  1.00  0.00     0.116 C 
BRANCH   2   3
ATOM      3  N   UNL A   1      31.389  24.210  24.478  1.00  0.00    -0.354 N 
ATOM      4  C   UNL A   1      32.336  23.457  23.856  1.00  0.00     0.243 C 
ATOM      5  O   UNL A   1      32.150  23.196  22.665  1.00  0.00    -0.273 OA
ATOM      6  H   UNL A   1      30.775  24.694  23.879  1.00  0.00     0.163 HD
BRANCH   4   7
ATOM      7  C   UNL A   1      33.444  22.763  24.662  1.00  0.00     0.179 C 
ATOM      8  N   UNL A   1      33.706  21.307  24.440  1.00  0.00    -0.326 N 
ATOM      9  C   UNL A   1      35.106  20.859  24.337  1.00  0.00     0.156 C 
ATOM     10  C   UNL A   1      36.132  21.756  24.979  1.00  0.00    -0.025 A 
ATOM     11  C   UNL A   1      34.666  23.684  24.430  1.00  0.00     0.071 C 
ATOM     12  C   UNL A   1      37.349  21.237  25.439  1.00  0.00     0.006 A 
ATOM     13  C   UNL A   1      35.925  23.138  25.021  1.00  0.00    -0.040 A 
ATOM     14  C   UNL A   1      38.335  22.084  25.946  1.00  0.00     0.000 A 
ATOM     15  C   UNL A   1      36.919  23.989  25.518  1.00  0.00     0.004 A 
ATOM     16  C   UNL A   1      38.120  23.460  25.987  1.00  0.00     0.000 A 
BRANCH   8  17
ATOM     17  C   UNL A   1      32.767  20.305  24.707  1.00  0.00     0.225 C 
ATOM     18  O   UNL A   1      31.761  20.520  25.391  1.00  0.00    -0.275 OA
BRANCH  17  19
ATOM     19  C   UNL A   1      33.043  18.870  24.297  1.00  0.00     0.128 C 
BRANCH  19  20
ATOM     20  C   UNL A   1      32.396  18.453  22.995  1.00  0.00     0.169 C 
BRANCH  20  21
ATOM     21  O   UNL A   1      33.020  17.270  22.512  1.00  0.00    -0.384 OA
ATOM     22  C   UNL A   1      33.913  16.697  23.454  1.00  0.00     0.194 C 
ENDBRANCH  20  21
ENDBRANCH  19  20
ENDBRANCH  17  19
ENDBRANCH   8  17
ENDBRANCH   4   7
ENDBRANCH   2   3
ENDBRANCH   1   2
BRANCH   1  23
ATOM     23  C   UNL A   1      31.014  26.945  26.217  1.00  0.00     0.002 C 
BRANCH  23  24
ATOM     24  C   UNL A   1      31.654  28.213  26.793  1.00  0.00     0.002 C 
BRANCH  24  25
ATOM     25  C   UNL A   1      33.134  28.082  27.149  1.00  0.00     0.021 C 
BRANCH  25  26
ATOM     26  C   UNL A   1      34.034  29.061  26.418  1.00  0.00     0.116 C 
BRANCH  26  27
ATOM     27  N   UNL A   1      33.838  30.419  26.888  1.00  0.00    -0.352 N 
ATOM     28  C   UNL A   1      34.575  31.100  27.817  1.00  0.00     0.251 C 
ATOM     29  H   UNL A   1      33.083  30.910  26.490  1.00  0.00     0.163 HD
ATOM     30  O   UNL A   1      34.165  32.159  28.291  1.00  0.00    -0.269 OA
BRANCH  28  31
ATOM     31  C   UNL A   1      35.867  30.540  28.257  1.00  0.00     0.039 A 
ATOM     32  C   UNL A   1      35.917  29.792  29.434  1.00  0.00     0.014 A 
ATOM     33  C   UNL A   1      37.025  30.751  27.499  1.00  0.00     0.014 A 
ATOM     34  C   UNL A   1      37.130  29.242  29.845  1.00  0.00     0.010 A 
ATOM     35  C   UNL A   1      38.209  30.124  27.860  1.00  0.00     0.010 A 
ATOM     36  C   UNL A   1      38.282  29.396  29.056  1.00  0.00    -0.014 A 
BRANCH  36  37
ATOM     37  C   UNL A   1      39.590  28.865  29.505  1.00  0.00     0.031 A 
ATOM     38  C   UNL A   1      40.427  29.663  30.468  1.00  0.00     0.074 A 
ATOM     39  C   UNL A   1      40.042  27.693  29.025  1.00  0.00     0.049 A 
ATOM     40  N   UNL A   1      41.604  29.384  30.969  1.00  0.00    -0.248 NA
ATOM     41  C   UNL A   1      39.885  30.962  30.900  1.00  0.00     0.031 C 
ATOM     42  C   UNL A   1      39.344  26.849  28.053  1.00  0.00     0.029 A 
ATOM     43  N   UNL A   1      41.201  27.010  29.291  1.00  0.00    -0.354 N 
ATOM     44  C   UNL A   1      41.946  30.478  31.754  1.00  0.00     0.074 A 
ATOM     45  C   UNL A   1      40.888  31.452  31.608  1.00  0.00     0.031 C 
ATOM     46  C   UNL A   1      40.073  25.744  27.830  1.00  0.00     0.029 A 
ATOM     47  C   UNL A   1      41.303  25.821  28.613  1.00  0.00     0.049 A 
ATOM     48  H   UNL A   1      41.892  27.341  29.908  1.00  0.00     0.167 HD
ATOM     49  C   UNL A   1      43.029  30.650  32.548  1.00  0.00     0.031 A 
ATOM     50  C   UNL A   1      42.279  24.894  28.625  1.00  0.00     0.031 A 
ATOM     51  C   UNL A   1      44.077  29.676  32.695  1.00  0.00     0.049 A 
ATOM     52  C   UNL A   1      43.473  25.098  29.514  1.00  0.00     0.074 A 
ATOM     53  C   UNL A   1      45.194  29.725  33.510  1.00  0.00     0.029 A 
ATOM     54  N   UNL A   1      44.137  28.476  32.002  1.00  0.00    -0.354 N 
ATOM     55  N   UNL A   1      43.752  26.106  30.306  1.00  0.00    -0.248 NA
ATOM     56  C   UNL A   1      44.476  24.025  29.528  1.00  0.00     0.031 C 
ATOM     57  C   UNL A   1      45.958  28.577  33.269  1.00  0.00     0.029 A 
ATOM     58  C   UNL A   1      45.284  27.783  32.356  1.00  0.00     0.049 A 
ATOM     59  H   UNL A   1      43.465  28.162  31.355  1.00  0.00     0.167 HD
ATOM     60  C   UNL A   1      44.944  25.775  30.937  1.00  0.00     0.074 A 
ATOM     61  C   UNL A   1      45.328  24.467  30.443  1.00  0.00     0.031 C 
ATOM     62  C   UNL A   1      45.653  26.485  31.850  1.00  0.00     0.031 A 
BRANCH  49  63
ATOM     63  C   UNL A   1      43.130  31.951  33.298  1.00  0.00    -0.014 A 
ATOM     64  C   UNL A   1      43.801  33.060  32.753  1.00  0.00     0.009 A 
ATOM     65  C   UNL A   1      42.560  32.068  34.574  1.00  0.00     0.009 A 
ATOM     66  C   UNL A   1      43.949  34.235  33.494  1.00  0.00     0.001 A 
ATOM     67  C   UNL A   1      42.678  33.256  35.298  1.00  0.00     0.001 A 
ATOM     68  C   UNL A   1      43.385  34.333  34.765  1.00  0.00     0.000 A 
ENDBRANCH  49  63
BRANCH  50  69
ATOM     69  C   UNL A   1      42.142  23.672  27.790  1.00  0.00    -0.014 A 
ATOM     70  C   UNL A   1      41.586  22.500  28.324  1.00  0.00     0.009 A 
ATOM     71  C   UNL A   1      42.542  23.682  26.444  1.00  0.00     0.009 A 
ATOM     72  C   UNL A   1      41.452  21.357  27.534  1.00  0.00     0.001 A 
ATOM     73  C   UNL A   1      42.379  22.546  25.648  1.00  0.00     0.001 A 
ATOM     74  C   UNL A   1      41.843  21.382  26.196  1.00  0.00     0.000 A 
ENDBRANCH  50  69
BRANCH  62  75
ATOM     75  C   UNL A   1      46.892  25.842  32.408  1.00  0.00    -0.014 A 
ATOM     76  C   UNL A   1      46.845  25.002  33.531  1.00  0.00     0.009 A 
ATOM     77  C   UNL A   1      48.126  26.058  31.772  1.00  0.00     0.009 A 
ATOM     78  C   UNL A   1      48.016  24.426  34.030  1.00  0.00     0.001 A 
ATOM     79  C   UNL A   1      49.287  25.454  32.253  1.00  0.00     0.001 A 
ATOM     80  C   UNL A   1      49.234  24.647  33.389  1.00  0.00     0.000 A 
ENDBRANCH  62  75
ENDBRANCH  36  37
ENDBRANCH  28  31
ENDBRANCH  26  27
ENDBRANCH  25  26
ENDBRANCH  24  25
ENDBRANCH  23  24
ENDBRANCH   1  23
TORSDOF 17
ENDMDL
MODEL 2
REMARK VINA RESULT:     -10.1      2.182      7.766
REMARK SMILES COCCC(=O)N1Cc2ccccc2C[C@H]1C(=O)NCCCCCCNC(=O)c1ccc(-c2c3nc(c(-c4ccccc4)c4ccc([nH]4)c(-c4ccccc4)c4nc(c(-c5ccccc5)c5ccc2[nH]5)C=C4)C=C3)cc1
REMARK SMILES IDX 21 1 20 2 19 3 17 4 18 5 16 7 7 8 8 9 9 10 15 11 10 12 14 13
REMARK SMILES IDX 11 14 13 15 12 16 5 17 6 18 4 19 3 20 2 21 1 22 22 23 23 24
REMARK SMILES IDX 24 25 25 26 26 27 27 28 28 30 29 31 30 32 76 33 31 34 75 35
REMARK SMILES IDX 32 36 33 37 34 38 69 39 35 40 74 41 68 42 70 43 36 44 73 45
REMARK SMILES IDX 67 46 66 47 37 49 59 50 44 51 58 52 45 53 48 54 57 55 71 56
REMARK SMILES IDX 46 57 47 58 56 60 72 61 49 62 38 63 39 64 43 65 40 66 42 67
REMARK SMILES IDX 41 68 60 69 61 70 65 71 62 72 64 73 63 74 50 75 51 76 55 77
REMARK SMILES IDX 52 78 54 79 53 80
REMARK H PARENT 19 6 26 29 70 48 48 59
REMARK Flexibility Score: inf
ROOT
ATOM      1  C   UNL A   1      36.947  23.761  25.491  1.00  0.00     0.021 C 
ENDROOT
BRANCH   1   2
ATOM      2  C   UNL A   1      35.523  23.591  24.977  1.00  0.00     0.116 C 
BRANCH   2   3
ATOM      3  N   UNL A   1      34.551  23.456  26.037  1.00  0.00    -0.354 N 
ATOM      4  C   UNL A   1      33.379  24.120  26.222  1.00  0.00     0.243 C 
ATOM      5  O   UNL A   1      32.573  23.623  27.013  1.00  0.00    -0.273 OA
ATOM      6  H   UNL A   1      34.770  22.786  26.725  1.00  0.00     0.163 HD
BRANCH   4   7
ATOM      7  C   UNL A   1      32.982  25.288  25.306  1.00  0.00     0.179 C 
ATOM      8  N   UNL A   1      31.990  25.053  24.211  1.00  0.00    -0.326 N 
ATOM      9  C   UNL A   1      30.930  26.055  24.006  1.00  0.00     0.156 C 
ATOM     10  C   UNL A   1      31.228  27.441  24.517  1.00  0.00    -0.025 A 
ATOM     11  C   UNL A   1      32.587  26.396  26.313  1.00  0.00     0.071 C 
ATOM     12  C   UNL A   1      30.618  28.563  23.940  1.00  0.00     0.006 A 
ATOM     13  C   UNL A   1      32.030  27.612  25.648  1.00  0.00    -0.040 A 
ATOM     14  C   UNL A   1      30.822  29.835  24.476  1.00  0.00     0.000 A 
ATOM     15  C   UNL A   1      32.225  28.887  26.193  1.00  0.00     0.004 A 
ATOM     16  C   UNL A   1      31.627  29.997  25.601  1.00  0.00     0.000 A 
BRANCH   8  17
ATOM     17  C   UNL A   1      32.213  24.179  23.142  1.00  0.00     0.225 C 
ATOM     18  O   UNL A   1      32.738  24.558  22.090  1.00  0.00    -0.275 OA
BRANCH  17  19
ATOM     19  C   UNL A   1      31.664  22.765  23.183  1.00  0.00     0.128 C 
BRANCH  19  20
ATOM     20  C   UNL A   1      32.700  21.682  22.982  1.00  0.00     0.169 C 
BRANCH  20  21
ATOM     21  O   UNL A   1      33.185  21.247  24.245  1.00  0.00    -0.384 OA
ATOM     22  C   UNL A   1      32.162  20.714  25.072  1.00  0.00     0.194 C 
ENDBRANCH  20  21
ENDBRANCH  19  20
ENDBRANCH  17  19
ENDBRANCH   8  17
ENDBRANCH   4   7
ENDBRANCH   2   3
ENDBRANCH   1   2
BRANCH   1  23
ATOM     23  C   UNL A   1      37.732  22.453  25.623  1.00  0.00     0.002 C 
BRANCH  23  24
ATOM     24  C   UNL A   1      37.429  21.405  24.547  1.00  0.00     0.002 C 
BRANCH  24  25
ATOM     25  C   UNL A   1      38.161  20.075  24.719  1.00  0.00     0.021 C 
BRANCH  25  26
ATOM     26  C   UNL A   1      38.915  19.950  26.030  1.00  0.00     0.116 C 
BRANCH  26  27
ATOM     27  N   UNL A   1      40.124  19.164  25.877  1.00  0.00    -0.352 N 
ATOM     28  C   UNL A   1      41.420  19.592  25.972  1.00  0.00     0.251 C 
ATOM     29  H   UNL A   1      39.997  18.208  25.681  1.00  0.00     0.163 HD
ATOM     30  O   UNL A   1      42.347  18.876  25.595  1.00  0.00    -0.269 OA
BRANCH  28  31
ATOM     31  C   UNL A   1      41.693  20.932  26.523  1.00  0.00     0.039 A 
ATOM     32  C   UNL A   1      42.063  21.960  25.656  1.00  0.00     0.014 A 
ATOM     33  C   UNL A   1      41.575  21.171  27.898  1.00  0.00     0.014 A 
ATOM     34  C   UNL A   1      42.302  23.235  26.166  1.00  0.00     0.010 A 
ATOM     35  C   UNL A   1      41.721  22.460  28.390  1.00  0.00     0.010 A 
ATOM     36  C   UNL A   1      42.124  23.496  27.535  1.00  0.00    -0.014 A 
BRANCH  36  37
ATOM     37  C   UNL A   1      42.426  24.831  28.103  1.00  0.00     0.031 A 
ATOM     38  C   UNL A   1      43.830  25.153  28.539  1.00  0.00     0.074 A 
ATOM     39  C   UNL A   1      41.443  25.734  28.260  1.00  0.00     0.049 A 
ATOM     40  N   UNL A   1      44.297  26.253  29.074  1.00  0.00    -0.248 NA
ATOM     41  C   UNL A   1      44.834  24.088  28.385  1.00  0.00     0.031 C 
ATOM     42  C   UNL A   1      40.035  25.524  27.917  1.00  0.00     0.029 A 
ATOM     43  N   UNL A   1      41.480  27.013  28.752  1.00  0.00    -0.354 N 
ATOM     44  C   UNL A   1      45.639  26.002  29.335  1.00  0.00     0.074 A 
ATOM     45  C   UNL A   1      45.892  24.627  28.967  1.00  0.00     0.031 C 
ATOM     46  C   UNL A   1      39.349  26.648  28.178  1.00  0.00     0.029 A 
ATOM     47  C   UNL A   1      40.260  27.641  28.739  1.00  0.00     0.049 A 
ATOM     48  H   UNL A   1      42.304  27.439  29.083  1.00  0.00     0.167 HD
ATOM     49  C   UNL A   1      46.585  26.844  29.814  1.00  0.00     0.031 A 
ATOM     50  C   UNL A   1      39.916  28.882  29.133  1.00  0.00     0.031 A 
ATOM     51  C   UNL A   1      46.330  28.213  30.175  1.00  0.00     0.049 A 
ATOM     52  C   UNL A   1      40.978  29.805  29.659  1.00  0.00     0.074 A 
ATOM     53  C   UNL A   1      47.224  29.169  30.622  1.00  0.00     0.029 A 
ATOM     54  N   UNL A   1      45.082  28.817  30.133  1.00  0.00    -0.354 N 
ATOM     55  N   UNL A   1      42.258  29.578  29.836  1.00  0.00    -0.248 NA
ATOM     56  C   UNL A   1      40.551  31.164  30.018  1.00  0.00     0.031 C 
ATOM     57  C   UNL A   1      46.505  30.337  30.903  1.00  0.00     0.029 A 
ATOM     58  C   UNL A   1      45.178  30.130  30.566  1.00  0.00     0.049 A 
ATOM     59  H   UNL A   1      44.251  28.378  29.839  1.00  0.00     0.167 HD
ATOM     60  C   UNL A   1      42.795  30.773  30.295  1.00  0.00     0.074 A 
ATOM     61  C   UNL A   1      41.704  31.725  30.357  1.00  0.00     0.031 C 
ATOM     62  C   UNL A   1      44.079  31.061  30.627  1.00  0.00     0.031 A 
BRANCH  49  63
ATOM     63  C   UNL A   1      47.973  26.289  29.987  1.00  0.00    -0.014 A 
ATOM     64  C   UNL A   1      48.394  25.738  31.210  1.00  0.00     0.009 A 
ATOM     65  C   UNL A   1      48.879  26.329  28.918  1.00  0.00     0.009 A 
ATOM     66  C   UNL A   1      49.709  25.297  31.374  1.00  0.00     0.001 A 
ATOM     67  C   UNL A   1      50.183  25.853  29.074  1.00  0.00     0.001 A 
ATOM     68  C   UNL A   1      50.601  25.352  30.305  1.00  0.00     0.000 A 
ENDBRANCH  49  63
BRANCH  50  69
ATOM     69  C   UNL A   1      38.503  29.326  29.007  1.00  0.00    -0.014 A 
ATOM     70  C   UNL A   1      38.013  29.810  27.784  1.00  0.00     0.009 A 
ATOM     71  C   UNL A   1      37.630  29.242  30.103  1.00  0.00     0.009 A 
ATOM     72  C   UNL A   1      36.683  30.220  27.668  1.00  0.00     0.001 A 
ATOM     73  C   UNL A   1      36.294  29.626  29.975  1.00  0.00     0.001 A 
ATOM     74  C   UNL A   1      35.823  30.121  28.761  1.00  0.00     0.000 A 
ENDBRANCH  50  69
BRANCH  62  75
ATOM     75  C   UNL A   1      44.381  32.473  31.043  1.00  0.00    -0.014 A 
ATOM     76  C   UNL A   1      44.289  32.884  32.382  1.00  0.00     0.009 A 
ATOM     77  C   UNL A   1      44.797  33.402  30.074  1.00  0.00     0.009 A 
ATOM     78  C   UNL A   1      44.568  34.207  32.735  1.00  0.00     0.001 A 
ATOM     79  C   UNL A   1      45.108  34.713  30.436  1.00  0.00     0.001 A 
ATOM     80  C   UNL A   1      44.982  35.118  31.764  1.00  0.00     0.000 A 
ENDBRANCH  62  75
ENDBRANCH  36  37
ENDBRANCH  28  31
ENDBRANCH  26  27
ENDBRANCH  25  26
ENDBRANCH  24  25
ENDBRANCH  23  24
ENDBRANCH   1  23
TORSDOF 17
ENDMDL
MODEL 3
REMARK VINA RESULT:     -10.0      2.961      7.855
REMARK SMILES COCCC(=O)N1Cc2ccccc2C[C@H]1C(=O)NCCCCCCNC(=O)c1ccc(-c2c3nc(c(-c4ccccc4)c4ccc([nH]4)c(-c4ccccc4)c4nc(c(-c5ccccc5)c5ccc2[nH]5)C=C4)C=C3)cc1
REMARK SMILES IDX 21 1 20 2 19 3 17 4 18 5 16 7 7 8 8 9 9 10 15 11 10 12 14 13
REMARK SMILES IDX 11 14 13 15 12 16 5 17 6 18 4 19 3 20 2 21 1 22 22 23 23 24
REMARK SMILES IDX 24 25 25 26 26 27 27 28 28 30 29 31 30 32 76 33 31 34 75 35
REMARK SMILES IDX 32 36 33 37 34 38 69 39 35 40 74 41 68 42 70 43 36 44 73 45
REMARK SMILES IDX 67 46 66 47 37 49 59 50 44 51 58 52 45 53 48 54 57 55 71 56
REMARK SMILES IDX 46 57 47 58 56 60 72 61 49 62 38 63 39 64 43 65 40 66 42 67
REMARK SMILES IDX 41 68 60 69 61 70 65 71 62 72 64 73 63 74 50 75 51 76 55 77
REMARK SMILES IDX 52 78 54 79 53 80
REMARK H PARENT 19 6 26 29 70 48 48 59
REMARK Flexibility Score: inf
ROOT
ATOM      1  C   UNL A   1      31.686  24.081  26.385  1.00  0.00     0.021 C 
ENDROOT
BRANCH   1   2
ATOM      2  C   UNL A   1      31.198  24.569  25.027  1.00  0.00     0.116 C 
BRANCH   2   3
ATOM      3  N   UNL A   1      32.193  24.440  23.989  1.00  0.00    -0.354 N 
ATOM      4  C   UNL A   1      33.013  25.385  23.456  1.00  0.00     0.243 C 
ATOM      5  O   UNL A   1      33.987  24.985  22.815  1.00  0.00    -0.273 OA
ATOM      6  H   UNL A   1      32.292  23.535  23.611  1.00  0.00     0.163 HD
BRANCH   4   7
ATOM      7  C   UNL A   1      32.868  26.864  23.849  1.00  0.00     0.179 C 
ATOM      8  N   UNL A   1      31.513  27.497  23.819  1.00  0.00    -0.326 N 
ATOM      9  C   UNL A   1      31.125  28.364  24.945  1.00  0.00     0.156 C 
ATOM     10  C   UNL A   1      32.259  28.964  25.734  1.00  0.00    -0.025 A 
ATOM     11  C   UNL A   1      33.584  26.927  25.220  1.00  0.00     0.071 C 
ATOM     12  C   UNL A   1      32.091  30.172  26.424  1.00  0.00     0.006 A 
ATOM     13  C   UNL A   1      33.460  28.263  25.878  1.00  0.00    -0.040 A 
ATOM     14  C   UNL A   1      33.112  30.676  27.230  1.00  0.00     0.000 A 
ATOM     15  C   UNL A   1      34.480  28.763  26.696  1.00  0.00     0.004 A 
ATOM     16  C   UNL A   1      34.307  29.973  27.365  1.00  0.00     0.000 A 
BRANCH   8  17
ATOM     17  C   UNL A   1      30.756  27.645  22.652  1.00  0.00     0.225 C 
ATOM     18  O   UNL A   1      30.949  26.938  21.656  1.00  0.00    -0.275 OA
BRANCH  17  19
ATOM     19  C   UNL A   1      29.778  28.797  22.515  1.00  0.00     0.128 C 
BRANCH  19  20
ATOM     20  C   UNL A   1      28.355  28.462  22.899  1.00  0.00     0.169 C 
BRANCH  20  21
ATOM     21  O   UNL A   1      27.521  29.591  22.668  1.00  0.00    -0.384 OA
ATOM     22  C   UNL A   1      28.047  30.468  21.684  1.00  0.00     0.194 C 
ENDBRANCH  20  21
ENDBRANCH  19  20
ENDBRANCH  17  19
ENDBRANCH   8  17
ENDBRANCH   4   7
ENDBRANCH   2   3
ENDBRANCH   1   2
BRANCH   1  23
ATOM     23  C   UNL A   1      32.799  23.032  26.319  1.00  0.00     0.002 C 
BRANCH  23  24
ATOM     24  C   UNL A   1      34.200  23.552  26.662  1.00  0.00     0.002 C 
BRANCH  24  25
ATOM     25  C   UNL A   1      35.335  22.924  25.857  1.00  0.00     0.021 C 
BRANCH  25  26
ATOM     26  C   UNL A   1      36.686  23.581  26.077  1.00  0.00     0.116 C 
BRANCH  26  27
ATOM     27  N   UNL A   1      37.760  22.607  26.071  1.00  0.00    -0.352 N 
ATOM     28  C   UNL A   1      39.087  22.819  26.327  1.00  0.00     0.251 C 
ATOM     29  H   UNL A   1      37.504  21.681  25.857  1.00  0.00     0.163 HD
ATOM     30  O   UNL A   1      39.924  21.957  26.063  1.00  0.00    -0.269 OA
BRANCH  28  31
ATOM     31  C   UNL A   1      39.506  24.107  26.912  1.00  0.00     0.039 A 
ATOM     32  C   UNL A   1      40.123  25.055  26.096  1.00  0.00     0.014 A 
ATOM     33  C   UNL A   1      39.280  24.376  28.268  1.00  0.00     0.014 A 
ATOM     34  C   UNL A   1      40.503  26.282  26.637  1.00  0.00     0.010 A 
ATOM     35  C   UNL A   1      39.573  25.631  28.780  1.00  0.00     0.010 A 
ATOM     36  C   UNL A   1      40.222  26.582  27.980  1.00  0.00    -0.014 A 
BRANCH  36  37
ATOM     37  C   UNL A   1      40.667  27.860  28.585  1.00  0.00     0.031 A 
ATOM     38  C   UNL A   1      39.677  28.976  28.779  1.00  0.00     0.074 A 
ATOM     39  C   UNL A   1      41.957  28.031  28.924  1.00  0.00     0.049 A 
ATOM     40  N   UNL A   1      39.867  30.173  29.272  1.00  0.00    -0.248 NA
ATOM     41  C   UNL A   1      38.298  28.726  28.327  1.00  0.00     0.031 C 
ATOM     42  C   UNL A   1      43.020  27.040  28.745  1.00  0.00     0.029 A 
ATOM     43  N   UNL A   1      42.593  29.105  29.492  1.00  0.00    -0.354 N 
ATOM     44  C   UNL A   1      38.642  30.820  29.172  1.00  0.00     0.074 A 
ATOM     45  C   UNL A   1      37.736  29.909  28.508  1.00  0.00     0.031 C 
ATOM     46  C   UNL A   1      44.169  27.541  29.224  1.00  0.00     0.029 A 
ATOM     47  C   UNL A   1      43.932  28.897  29.709  1.00  0.00     0.049 A 
ATOM     48  H   UNL A   1      42.132  29.944  29.720  1.00  0.00     0.167 HD
ATOM     49  C   UNL A   1      38.289  32.050  29.614  1.00  0.00     0.031 A 
ATOM     50  C   UNL A   1      44.863  29.709  30.244  1.00  0.00     0.031 A 
ATOM     51  C   UNL A   1      39.192  32.951  30.279  1.00  0.00     0.049 A 
ATOM     52  C   UNL A   1      44.454  31.070  30.733  1.00  0.00     0.074 A 
ATOM     53  C   UNL A   1      38.928  34.200  30.812  1.00  0.00     0.029 A 
ATOM     54  N   UNL A   1      40.538  32.697  30.494  1.00  0.00    -0.354 N 
ATOM     55  N   UNL A   1      43.275  31.643  30.695  1.00  0.00    -0.248 NA
ATOM     56  C   UNL A   1      45.502  31.887  31.359  1.00  0.00     0.031 C 
ATOM     57  C   UNL A   1      40.130  34.725  31.303  1.00  0.00     0.029 A 
ATOM     58  C   UNL A   1      41.126  33.775  31.136  1.00  0.00     0.049 A 
ATOM     59  H   UNL A   1      41.008  31.873  30.230  1.00  0.00     0.167 HD
ATOM     60  C   UNL A   1      43.431  32.873  31.321  1.00  0.00     0.074 A 
ATOM     61  C   UNL A   1      44.816  32.956  31.740  1.00  0.00     0.031 C 
ATOM     62  C   UNL A   1      42.507  33.843  31.539  1.00  0.00     0.031 A 
BRANCH  49  63
ATOM     63  C   UNL A   1      36.870  32.486  29.369  1.00  0.00    -0.014 A 
ATOM     64  C   UNL A   1      36.500  33.145  28.183  1.00  0.00     0.009 A 
ATOM     65  C   UNL A   1      35.888  32.248  30.343  1.00  0.00     0.009 A 
ATOM     66  C   UNL A   1      35.194  33.609  28.006  1.00  0.00     0.001 A 
ATOM     67  C   UNL A   1      34.575  32.681  30.147  1.00  0.00     0.001 A 
ATOM     68  C   UNL A   1      34.232  33.374  28.987  1.00  0.00     0.000 A 
ENDBRANCH  49  63
BRANCH  50  69
ATOM     69  C   UNL A   1      46.264  29.233  30.374  1.00  0.00    -0.014 A 
ATOM     70  C   UNL A   1      47.197  29.468  29.353  1.00  0.00     0.009 A 
ATOM     71  C   UNL A   1      46.683  28.563  31.535  1.00  0.00     0.009 A 
ATOM     72  C   UNL A   1      48.514  29.026  29.482  1.00  0.00     0.001 A 
ATOM     73  C   UNL A   1      48.009  28.147  31.673  1.00  0.00     0.001 A 
ATOM     74  C   UNL A   1      48.921  28.372  30.644  1.00  0.00     0.000 A 
ENDBRANCH  50  69
BRANCH  62  75
ATOM     75  C   UNL A   1      42.956  35.058  32.302  1.00  0.00    -0.014 A 
ATOM     76  C   UNL A   1      43.608  36.128  31.670  1.00  0.00     0.009 A 
ATOM     77  C   UNL A   1      42.688  35.144  33.679  1.00  0.00     0.009 A 
ATOM     78  C   UNL A   1      44.020  37.240  32.409  1.00  0.00     0.001 A 
ATOM     79  C   UNL A   1      43.070  36.271  34.407  1.00  0.00     0.001 A 
ATOM     80  C   UNL A   1      43.746  37.313  33.774  1.00  0.00     0.000 A 
ENDBRANCH  62  75
ENDBRANCH  36  37
ENDBRANCH  28  31
ENDBRANCH  26  27
ENDBRANCH  25  26
ENDBRANCH  24  25
ENDBRANCH  23  24
ENDBRANCH   1  23
TORSDOF 17
ENDMDL
