MODEL 1
REMARK VINA RESULT:     -12.7      0.000      0.000
REMARK SMILES C[C@H]1CCc2sc3ncn4nc(/C=C\C(=O)NCCCCCCNC(=O)c5ccc(-c6c7nc(c(-c8ccccc8)c8ccc([nH]8)c(-c8ccccc8)c8nc(c(-c9ccccc9)c9ccc6[nH]9)C=C8)C=C7)cc5)nc4c3c2C1
REMARK SMILES IDX 21 1 20 2 19 3 18 4 17 5 15 6 16 7 14 9 13 10 12 11 1 12
REMARK SMILES IDX 2 13 3 14 79 15 4 16 78 17 5 18 77 19 6 20 7 21 76 22 8 23
REMARK SMILES IDX 10 24 75 25 9 26 11 27 22 28 23 29 24 30 25 31 26 33 27 34
REMARK SMILES IDX 28 35 74 36 29 37 73 38 30 39 31 40 32 41 67 42 33 43 72 44
REMARK SMILES IDX 66 45 68 46 34 47 71 48 65 49 64 50 35 52 57 53 42 54 56 55
REMARK SMILES IDX 43 56 46 57 55 58 69 59 44 60 45 61 54 63 70 64 47 65 36 66
REMARK SMILES IDX 37 67 41 68 38 69 40 70 39 71 58 72 59 73 63 74 60 75 62 76
REMARK SMILES IDX 61 77 48 78 49 79 53 80 50 81 52 82 51 83
REMARK H PARENT 17 8 24 32 68 51 46 62
REMARK Flexibility Score: inf
ROOT
ATOM      1  C   UNL A   1      40.338  21.247  26.919  1.00  0.00     0.002 C 
ENDROOT
BRANCH   1   2
ATOM      2  C   UNL A   1      39.240  21.971  26.132  1.00  0.00     0.002 C 
BRANCH   2   3
ATOM      3  C   UNL A   1      38.192  21.118  25.403  1.00  0.00     0.021 C 
BRANCH   3   4
ATOM      4  C   UNL A   1      36.856  21.779  25.094  1.00  0.00     0.116 C 
BRANCH   4   5
ATOM      5  N   UNL A   1      36.123  22.326  26.214  1.00  0.00    -0.353 N 
ATOM      6  C   UNL A   1      34.849  22.025  26.613  1.00  0.00     0.244 C 
ATOM      7  O   UNL A   1      34.410  22.489  27.663  1.00  0.00    -0.270 OA
ATOM      8  H   UNL A   1      36.598  22.998  26.755  1.00  0.00     0.163 HD
BRANCH   6   9
ATOM      9  C   UNL A   1      33.919  21.295  25.714  1.00  0.00     0.075 C 
ATOM     10  C   UNL A   1      33.372  21.667  24.545  1.00  0.00     0.057 C 
BRANCH  10  11
ATOM     11  C   UNL A   1      33.519  22.893  23.835  1.00  0.00     0.175 A 
ATOM     12  C   UNL A   1      34.364  28.982  27.351  1.00  0.00     0.008 C 
ATOM     13  C   UNL A   1      33.097  28.151  27.151  1.00  0.00    -0.009 C 
ATOM     14  C   UNL A   1      31.944  29.036  26.629  1.00  0.00     0.009 C 
ATOM     15  C   UNL A   1      33.360  26.938  26.225  1.00  0.00     0.041 C 
ATOM     16  C   UNL A   1      32.182  29.570  25.204  1.00  0.00     0.047 C 
ATOM     17  C   UNL A   1      33.306  27.302  24.768  1.00  0.00    -0.020 A 
ATOM     18  C   UNL A   1      32.798  28.516  24.331  1.00  0.00     0.011 A 
ATOM     19  C   UNL A   1      33.481  26.440  23.649  1.00  0.00     0.060 A 
ATOM     20  S   UNL A   1      32.875  28.696  22.630  1.00  0.00    -0.120 S 
ATOM     21  C   UNL A   1      33.200  27.026  22.419  1.00  0.00     0.129 A 
ATOM     22  C   UNL A   1      33.634  24.973  23.582  1.00  0.00     0.168 A 
ATOM     23  N   UNL A   1      33.001  26.397  21.210  1.00  0.00    -0.225 NA
ATOM     24  N   UNL A   1      33.358  24.376  22.388  1.00  0.00    -0.201 N 
ATOM     25  N   UNL A   1      33.780  24.065  24.515  1.00  0.00    -0.207 NA
ATOM     26  C   UNL A   1      33.031  25.088  21.233  1.00  0.00     0.227 A 
ATOM     27  N   UNL A   1      33.279  23.038  22.518  1.00  0.00    -0.145 NA
ENDBRANCH  10  11
ENDBRANCH   6   9
ENDBRANCH   4   5
ENDBRANCH   3   4
ENDBRANCH   2   3
ENDBRANCH   1   2
BRANCH   1  28
ATOM     28  C   UNL A   1      41.241  20.282  26.153  1.00  0.00     0.021 C 
BRANCH  28  29
ATOM     29  C   UNL A   1      42.607  20.111  26.780  1.00  0.00     0.116 C 
BRANCH  29  30
ATOM     30  N   UNL A   1      43.584  19.312  26.016  1.00  0.00    -0.352 N 
ATOM     31  C   UNL A   1      44.485  19.759  25.032  1.00  0.00     0.251 C 
ATOM     32  H   UNL A   1      43.609  18.349  26.219  1.00  0.00     0.163 HD
ATOM     33  O   UNL A   1      45.085  19.010  24.302  1.00  0.00    -0.269 OA
BRANCH  31  34
ATOM     34  C   UNL A   1      44.687  21.226  24.951  1.00  0.00     0.039 A 
ATOM     35  C   UNL A   1      43.874  22.086  24.208  1.00  0.00     0.014 A 
ATOM     36  C   UNL A   1      45.520  21.713  25.930  1.00  0.00     0.014 A 
ATOM     37  C   UNL A   1      43.787  23.419  24.621  1.00  0.00     0.010 A 
ATOM     38  C   UNL A   1      45.072  22.831  26.558  1.00  0.00     0.010 A 
ATOM     39  C   UNL A   1      44.332  23.767  25.868  1.00  0.00    -0.014 A 
BRANCH  39  40
ATOM     40  C   UNL A   1      44.087  25.023  26.570  1.00  0.00     0.031 A 
ATOM     41  C   UNL A   1      45.098  26.071  26.319  1.00  0.00     0.074 A 
ATOM     42  C   UNL A   1      42.954  25.293  27.267  1.00  0.00     0.049 A 
ATOM     43  N   UNL A   1      46.131  26.315  27.052  1.00  0.00    -0.248 NA
ATOM     44  C   UNL A   1      45.083  26.808  25.046  1.00  0.00     0.031 C 
ATOM     45  C   UNL A   1      41.717  24.495  27.396  1.00  0.00     0.029 A 
ATOM     46  N   UNL A   1      42.640  26.409  27.978  1.00  0.00    -0.354 N 
ATOM     47  C   UNL A   1      46.754  27.410  26.476  1.00  0.00     0.074 A 
ATOM     48  C   UNL A   1      46.206  27.528  25.148  1.00  0.00     0.031 C 
ATOM     49  C   UNL A   1      40.725  25.243  27.925  1.00  0.00     0.029 A 
ATOM     50  C   UNL A   1      41.317  26.472  28.399  1.00  0.00     0.049 A 
ATOM     51  H   UNL A   1      43.296  27.115  28.177  1.00  0.00     0.167 HD
ATOM     52  C   UNL A   1      47.429  28.300  27.254  1.00  0.00     0.031 A 
ATOM     53  C   UNL A   1      40.755  27.410  29.194  1.00  0.00     0.031 A 
ATOM     54  C   UNL A   1      47.532  27.817  28.612  1.00  0.00     0.049 A 
ATOM     55  C   UNL A   1      41.859  27.992  29.982  1.00  0.00     0.074 A 
ATOM     56  C   UNL A   1      48.223  26.819  29.263  1.00  0.00     0.029 A 
ATOM     57  N   UNL A   1      46.450  28.143  29.394  1.00  0.00    -0.354 N 
ATOM     58  N   UNL A   1      42.540  27.312  30.859  1.00  0.00    -0.248 NA
ATOM     59  C   UNL A   1      42.474  29.230  29.529  1.00  0.00     0.031 C 
ATOM     60  C   UNL A   1      47.366  26.381  30.319  1.00  0.00     0.029 A 
ATOM     61  C   UNL A   1      46.213  27.167  30.327  1.00  0.00     0.049 A 
ATOM     62  H   UNL A   1      45.916  28.965  29.297  1.00  0.00     0.167 HD
ATOM     63  C   UNL A   1      43.832  27.790  30.733  1.00  0.00     0.074 A 
ATOM     64  C   UNL A   1      43.696  29.069  30.044  1.00  0.00     0.031 C 
ATOM     65  C   UNL A   1      44.906  26.970  30.927  1.00  0.00     0.031 A 
BRANCH  52  66
ATOM     66  C   UNL A   1      47.543  29.774  26.956  1.00  0.00    -0.014 A 
ATOM     67  C   UNL A   1      48.738  30.438  27.283  1.00  0.00     0.009 A 
ATOM     68  C   UNL A   1      46.438  30.582  26.625  1.00  0.00     0.009 A 
ATOM     69  C   UNL A   1      48.810  31.837  27.310  1.00  0.00     0.001 A 
ATOM     70  C   UNL A   1      46.517  31.977  26.617  1.00  0.00     0.001 A 
ATOM     71  C   UNL A   1      47.699  32.605  26.979  1.00  0.00     0.000 A 
ENDBRANCH  52  66
BRANCH  53  72
ATOM     72  C   UNL A   1      39.444  28.073  29.044  1.00  0.00    -0.014 A 
ATOM     73  C   UNL A   1      38.613  28.236  30.164  1.00  0.00     0.009 A 
ATOM     74  C   UNL A   1      39.159  28.832  27.895  1.00  0.00     0.009 A 
ATOM     75  C   UNL A   1      37.592  29.193  30.168  1.00  0.00     0.001 A 
ATOM     76  C   UNL A   1      38.135  29.786  27.899  1.00  0.00     0.001 A 
ATOM     77  C   UNL A   1      37.370  29.985  29.044  1.00  0.00     0.000 A 
ENDBRANCH  53  72
BRANCH  65  78
ATOM     78  C   UNL A   1      44.677  25.688  31.685  1.00  0.00    -0.014 A 
ATOM     79  C   UNL A   1      44.329  24.467  31.082  1.00  0.00     0.009 A 
ATOM     80  C   UNL A   1      44.918  25.701  33.067  1.00  0.00     0.009 A 
ATOM     81  C   UNL A   1      44.217  23.299  31.848  1.00  0.00     0.001 A 
ATOM     82  C   UNL A   1      44.826  24.535  33.827  1.00  0.00     0.001 A 
ATOM     83  C   UNL A   1      44.472  23.334  33.218  1.00  0.00     0.000 A 
ENDBRANCH  65  78
ENDBRANCH  39  40
ENDBRANCH  31  34
ENDBRANCH  29  30
ENDBRANCH  28  29
ENDBRANCH   1  28
TORSDOF 14
ENDMDL
MODEL 2
REMARK VINA RESULT:     -12.5      4.589      9.922
REMARK SMILES C[C@H]1CCc2sc3ncn4nc(/C=C\C(=O)NCCCCCCNC(=O)c5ccc(-c6c7nc(c(-c8ccccc8)c8ccc([nH]8)c(-c8ccccc8)c8nc(c(-c9ccccc9)c9ccc6[nH]9)C=C8)C=C7)cc5)nc4c3c2C1
REMARK SMILES IDX 21 1 20 2 19 3 18 4 17 5 15 6 16 7 14 9 13 10 12 11 1 12
REMARK SMILES IDX 2 13 3 14 79 15 4 16 78 17 5 18 77 19 6 20 7 21 76 22 8 23
REMARK SMILES IDX 10 24 75 25 9 26 11 27 22 28 23 29 24 30 25 31 26 33 27 34
REMARK SMILES IDX 28 35 74 36 29 37 73 38 30 39 31 40 32 41 67 42 33 43 72 44
REMARK SMILES IDX 66 45 68 46 34 47 71 48 65 49 64 50 35 52 57 53 42 54 56 55
REMARK SMILES IDX 43 56 46 57 55 58 69 59 44 60 45 61 54 63 70 64 47 65 36 66
REMARK SMILES IDX 37 67 41 68 38 69 40 70 39 71 58 72 59 73 63 74 60 75 62 76
REMARK SMILES IDX 61 77 48 78 49 79 53 80 50 81 52 82 51 83
REMARK H PARENT 17 8 24 32 68 51 46 62
REMARK Flexibility Score: inf
ROOT
ATOM      1  C   UNL A   1      34.604  32.290  27.864  1.00  0.00     0.002 C 
ENDROOT
BRANCH   1   2
ATOM      2  C   UNL A   1      33.890  30.984  27.497  1.00  0.00     0.002 C 
BRANCH   2   3
ATOM      3  C   UNL A   1      32.488  31.077  26.877  1.00  0.00     0.021 C 
BRANCH   3   4
ATOM      4  C   UNL A   1      32.165  30.104  25.752  1.00  0.00     0.116 C 
BRANCH   4   5
ATOM      5  N   UNL A   1      33.276  29.639  24.951  1.00  0.00    -0.353 N 
ATOM      6  C   UNL A   1      33.240  29.109  23.690  1.00  0.00     0.244 C 
ATOM      7  O   UNL A   1      34.289  28.872  23.094  1.00  0.00    -0.270 OA
ATOM      8  H   UNL A   1      34.167  29.712  25.363  1.00  0.00     0.163 HD
BRANCH   6   9
ATOM      9  C   UNL A   1      31.962  28.641  23.094  1.00  0.00     0.075 C 
ATOM     10  C   UNL A   1      31.157  27.626  23.452  1.00  0.00     0.057 C 
BRANCH  10  11
ATOM     11  C   UNL A   1      31.315  26.688  24.512  1.00  0.00     0.175 A 
ATOM     12  C   UNL A   1      37.618  23.700  25.736  1.00  0.00     0.008 C 
ATOM     13  C   UNL A   1      36.611  23.407  24.623  1.00  0.00    -0.009 C 
ATOM     14  C   UNL A   1      36.319  21.894  24.539  1.00  0.00     0.009 C 
ATOM     15  C   UNL A   1      35.316  24.238  24.804  1.00  0.00     0.041 C 
ATOM     16  C   UNL A   1      35.573  21.347  25.771  1.00  0.00     0.047 C 
ATOM     17  C   UNL A   1      34.361  23.612  25.781  1.00  0.00    -0.020 A 
ATOM     18  C   UNL A   1      34.517  22.309  26.231  1.00  0.00     0.011 A 
ATOM     19  C   UNL A   1      33.078  24.089  26.170  1.00  0.00     0.060 A 
ATOM     20  S   UNL A   1      33.314  21.846  27.357  1.00  0.00    -0.120 S 
ATOM     21  C   UNL A   1      32.348  23.206  26.959  1.00  0.00     0.129 A 
ATOM     22  C   UNL A   1      32.280  25.222  25.662  1.00  0.00     0.168 A 
ATOM     23  N   UNL A   1      31.003  23.248  27.251  1.00  0.00    -0.225 NA
ATOM     24  N   UNL A   1      30.940  25.194  25.907  1.00  0.00    -0.201 N 
ATOM     25  N   UNL A   1      32.561  26.179  24.812  1.00  0.00    -0.207 NA
ATOM     26  C   UNL A   1      30.322  24.208  26.677  1.00  0.00     0.227 A 
ATOM     27  N   UNL A   1      30.291  26.126  25.184  1.00  0.00    -0.145 NA
ENDBRANCH  10  11
ENDBRANCH   6   9
ENDBRANCH   4   5
ENDBRANCH   3   4
ENDBRANCH   2   3
ENDBRANCH   1   2
BRANCH   1  28
ATOM     28  C   UNL A   1      33.770  33.398  28.506  1.00  0.00     0.021 C 
BRANCH  28  29
ATOM     29  C   UNL A   1      34.604  34.533  29.059  1.00  0.00     0.116 C 
BRANCH  29  30
ATOM     30  N   UNL A   1      33.918  35.465  29.974  1.00  0.00    -0.352 N 
ATOM     31  C   UNL A   1      33.794  35.370  31.372  1.00  0.00     0.251 C 
ATOM     32  H   UNL A   1      33.497  36.250  29.555  1.00  0.00     0.163 HD
ATOM     33  O   UNL A   1      33.030  36.050  32.011  1.00  0.00    -0.269 OA
BRANCH  31  34
ATOM     34  C   UNL A   1      34.685  34.392  32.040  1.00  0.00     0.039 A 
ATOM     35  C   UNL A   1      34.402  33.027  32.151  1.00  0.00     0.014 A 
ATOM     36  C   UNL A   1      35.959  34.867  32.239  1.00  0.00     0.014 A 
ATOM     37  C   UNL A   1      35.482  32.146  32.272  1.00  0.00     0.010 A 
ATOM     38  C   UNL A   1      36.951  34.004  31.896  1.00  0.00     0.010 A 
ATOM     39  C   UNL A   1      36.777  32.646  32.053  1.00  0.00    -0.014 A 
BRANCH  39  40
ATOM     40  C   UNL A   1      37.970  31.828  31.862  1.00  0.00     0.031 A 
ATOM     41  C   UNL A   1      38.688  31.492  33.110  1.00  0.00     0.074 A 
ATOM     42  C   UNL A   1      38.324  31.270  30.676  1.00  0.00     0.049 A 
ATOM     43  N   UNL A   1      39.688  32.141  33.603  1.00  0.00    -0.248 NA
ATOM     44  C   UNL A   1      38.151  30.455  34.003  1.00  0.00     0.031 C 
ATOM     45  C   UNL A   1      37.594  31.249  29.392  1.00  0.00     0.029 A 
ATOM     46  N   UNL A   1      39.423  30.523  30.383  1.00  0.00    -0.354 N 
ATOM     47  C   UNL A   1      40.073  31.439  34.733  1.00  0.00     0.074 A 
ATOM     48  C   UNL A   1      38.977  30.558  35.050  1.00  0.00     0.031 C 
ATOM     49  C   UNL A   1      38.142  30.346  28.551  1.00  0.00     0.029 A 
ATOM     50  C   UNL A   1      39.391  29.916  29.134  1.00  0.00     0.049 A 
ATOM     51  H   UNL A   1      40.177  30.421  31.006  1.00  0.00     0.167 HD
ATOM     52  C   UNL A   1      41.380  31.423  35.116  1.00  0.00     0.031 A 
ATOM     53  C   UNL A   1      40.377  29.201  28.547  1.00  0.00     0.031 A 
ATOM     54  C   UNL A   1      42.156  32.348  34.322  1.00  0.00     0.049 A 
ATOM     55  C   UNL A   1      41.636  29.653  29.169  1.00  0.00     0.074 A 
ATOM     56  C   UNL A   1      42.268  33.717  34.217  1.00  0.00     0.029 A 
ATOM     57  N   UNL A   1      42.622  31.808  33.148  1.00  0.00    -0.354 N 
ATOM     58  N   UNL A   1      42.102  30.862  29.031  1.00  0.00    -0.248 NA
ATOM     59  C   UNL A   1      42.197  28.885  30.270  1.00  0.00     0.031 C 
ATOM     60  C   UNL A   1      42.561  33.976  32.843  1.00  0.00     0.029 A 
ATOM     61  C   UNL A   1      42.689  32.762  32.166  1.00  0.00     0.049 A 
ATOM     62  H   UNL A   1      42.873  30.863  33.027  1.00  0.00     0.167 HD
ATOM     63  C   UNL A   1      42.664  31.154  30.260  1.00  0.00     0.074 A 
ATOM     64  C   UNL A   1      42.850  29.860  30.908  1.00  0.00     0.031 C 
ATOM     65  C   UNL A   1      42.646  32.426  30.755  1.00  0.00     0.031 A 
BRANCH  52  66
ATOM     66  C   UNL A   1      42.048  30.263  35.810  1.00  0.00    -0.014 A 
ATOM     67  C   UNL A   1      43.199  30.509  36.579  1.00  0.00     0.009 A 
ATOM     68  C   UNL A   1      41.757  28.917  35.517  1.00  0.00     0.009 A 
ATOM     69  C   UNL A   1      44.030  29.464  37.002  1.00  0.00     0.001 A 
ATOM     70  C   UNL A   1      42.565  27.869  35.967  1.00  0.00     0.001 A 
ATOM     71  C   UNL A   1      43.713  28.145  36.693  1.00  0.00     0.000 A 
ENDBRANCH  52  66
BRANCH  53  72
ATOM     72  C   UNL A   1      40.268  27.935  27.794  1.00  0.00    -0.014 A 
ATOM     73  C   UNL A   1      41.018  27.755  26.621  1.00  0.00     0.009 A 
ATOM     74  C   UNL A   1      39.699  26.798  28.394  1.00  0.00     0.009 A 
ATOM     75  C   UNL A   1      41.269  26.472  26.119  1.00  0.00     0.001 A 
ATOM     76  C   UNL A   1      39.948  25.517  27.889  1.00  0.00     0.001 A 
ATOM     77  C   UNL A   1      40.756  25.353  26.768  1.00  0.00     0.000 A 
ENDBRANCH  53  72
BRANCH  65  78
ATOM     78  C   UNL A   1      42.404  33.550  29.781  1.00  0.00    -0.014 A 
ATOM     79  C   UNL A   1      41.183  34.235  29.655  1.00  0.00     0.009 A 
ATOM     80  C   UNL A   1      43.497  33.997  29.024  1.00  0.00     0.009 A 
ATOM     81  C   UNL A   1      41.063  35.327  28.785  1.00  0.00     0.001 A 
ATOM     82  C   UNL A   1      43.383  35.096  28.172  1.00  0.00     0.001 A 
ATOM     83  C   UNL A   1      42.166  35.759  28.050  1.00  0.00     0.000 A 
ENDBRANCH  65  78
ENDBRANCH  39  40
ENDBRANCH  31  34
ENDBRANCH  29  30
ENDBRANCH  28  29
ENDBRANCH   1  28
TORSDOF 14
ENDMDL
MODEL 3
REMARK VINA RESULT:     -11.9      3.119      8.511
REMARK SMILES C[C@H]1CCc2sc3ncn4nc(/C=C\C(=O)NCCCCCCNC(=O)c5ccc(-c6c7nc(c(-c8ccccc8)c8ccc([nH]8)c(-c8ccccc8)c8nc(c(-c9ccccc9)c9ccc6[nH]9)C=C8)C=C7)cc5)nc4c3c2C1
REMARK SMILES IDX 21 1 20 2 19 3 18 4 17 5 15 6 16 7 14 9 13 10 12 11 1 12
REMARK SMILES IDX 2 13 3 14 79 15 4 16 78 17 5 18 77 19 6 20 7 21 76 22 8 23
REMARK SMILES IDX 10 24 75 25 9 26 11 27 22 28 23 29 24 30 25 31 26 33 27 34
REMARK SMILES IDX 28 35 74 36 29 37 73 38 30 39 31 40 32 41 67 42 33 43 72 44
REMARK SMILES IDX 66 45 68 46 34 47 71 48 65 49 64 50 35 52 57 53 42 54 56 55
REMARK SMILES IDX 43 56 46 57 55 58 69 59 44 60 45 61 54 63 70 64 47 65 36 66
REMARK SMILES IDX 37 67 41 68 38 69 40 70 39 71 58 72 59 73 63 74 60 75 62 76
REMARK SMILES IDX 61 77 48 78 49 79 53 80 50 81 52 82 51 83
REMARK H PARENT 17 8 24 32 68 51 46 62
REMARK Flexibility Score: inf
ROOT
ATOM      1  C   UNL A   1      34.089  32.556  28.064  1.00  0.00     0.002 C 
ENDROOT
BRANCH   1   2
ATOM      2  C   UNL A   1      34.295  31.160  27.466  1.00  0.00     0.002 C 
BRANCH   2   3
ATOM      3  C   UNL A   1      33.060  30.267  27.275  1.00  0.00     0.021 C 
BRANCH   3   4
ATOM      4  C   UNL A   1      32.595  30.027  25.846  1.00  0.00     0.116 C 
BRANCH   4   5
ATOM      5  N   UNL A   1      33.555  29.440  24.936  1.00  0.00    -0.353 N 
ATOM      6  C   UNL A   1      33.324  28.919  23.692  1.00  0.00     0.244 C 
ATOM      7  O   UNL A   1      34.270  28.566  22.990  1.00  0.00    -0.270 OA
ATOM      8  H   UNL A   1      34.488  29.413  25.251  1.00  0.00     0.163 HD
BRANCH   6   9
ATOM      9  C   UNL A   1      31.945  28.599  23.241  1.00  0.00     0.075 C 
ATOM     10  C   UNL A   1      31.082  27.668  23.682  1.00  0.00     0.057 C 
BRANCH  10  11
ATOM     11  C   UNL A   1      31.256  26.700  24.712  1.00  0.00     0.175 A 
ATOM     12  C   UNL A   1      37.663  23.982  26.024  1.00  0.00     0.008 C 
ATOM     13  C   UNL A   1      36.705  23.682  24.871  1.00  0.00    -0.009 C 
ATOM     14  C   UNL A   1      36.492  22.160  24.724  1.00  0.00     0.009 C 
ATOM     15  C   UNL A   1      35.365  24.441  25.041  1.00  0.00     0.041 C 
ATOM     16  C   UNL A   1      35.739  21.532  25.912  1.00  0.00     0.047 C 
ATOM     17  C   UNL A   1      34.414  23.732  25.965  1.00  0.00    -0.020 A 
ATOM     18  C   UNL A   1      34.623  22.423  26.373  1.00  0.00     0.011 A 
ATOM     19  C   UNL A   1      33.099  24.131  26.331  1.00  0.00     0.060 A 
ATOM     20  S   UNL A   1      33.412  21.860  27.443  1.00  0.00    -0.120 S 
ATOM     21  C   UNL A   1      32.391  23.184  27.064  1.00  0.00     0.129 A 
ATOM     22  C   UNL A   1      32.260  25.241  25.839  1.00  0.00     0.168 A 
ATOM     23  N   UNL A   1      31.037  23.149  27.316  1.00  0.00    -0.225 NA
ATOM     24  N   UNL A   1      30.916  25.139  26.041  1.00  0.00    -0.201 N 
ATOM     25  N   UNL A   1      32.517  26.242  25.033  1.00  0.00    -0.207 NA
ATOM     26  C   UNL A   1      30.326  24.095  26.755  1.00  0.00     0.227 A 
ATOM     27  N   UNL A   1      30.243  26.064  25.331  1.00  0.00    -0.145 NA
ENDBRANCH  10  11
ENDBRANCH   6   9
ENDBRANCH   4   5
ENDBRANCH   3   4
ENDBRANCH   2   3
ENDBRANCH   1   2
BRANCH   1  28
ATOM     28  C   UNL A   1      35.178  33.601  27.818  1.00  0.00     0.021 C 
BRANCH  28  29
ATOM     29  C   UNL A   1      35.811  34.119  29.091  1.00  0.00     0.116 C 
BRANCH  29  30
ATOM     30  N   UNL A   1      35.406  33.453  30.343  1.00  0.00    -0.352 N 
ATOM     31  C   UNL A   1      35.889  32.244  30.875  1.00  0.00     0.251 C 
ATOM     32  H   UNL A   1      34.713  33.911  30.872  1.00  0.00     0.163 HD
ATOM     33  O   UNL A   1      35.346  31.661  31.781  1.00  0.00    -0.269 OA
BRANCH  31  34
ATOM     34  C   UNL A   1      37.139  31.721  30.273  1.00  0.00     0.039 A 
ATOM     35  C   UNL A   1      38.417  32.180  30.606  1.00  0.00     0.014 A 
ATOM     36  C   UNL A   1      36.968  30.524  29.621  1.00  0.00     0.014 A 
ATOM     37  C   UNL A   1      39.490  31.300  30.436  1.00  0.00     0.010 A 
ATOM     38  C   UNL A   1      37.906  29.582  29.900  1.00  0.00     0.010 A 
ATOM     39  C   UNL A   1      39.208  29.952  30.159  1.00  0.00    -0.014 A 
BRANCH  39  40
ATOM     40  C   UNL A   1      40.175  28.861  30.230  1.00  0.00     0.031 A 
ATOM     41  C   UNL A   1      40.692  28.588  31.587  1.00  0.00     0.074 A 
ATOM     42  C   UNL A   1      40.469  28.041  29.188  1.00  0.00     0.049 A 
ATOM     43  N   UNL A   1      41.780  29.063  32.089  1.00  0.00    -0.248 NA
ATOM     44  C   UNL A   1      39.850  27.872  32.557  1.00  0.00     0.031 C 
ATOM     45  C   UNL A   1      39.855  27.969  27.846  1.00  0.00     0.029 A 
ATOM     46  N   UNL A   1      41.368  27.022  29.137  1.00  0.00    -0.354 N 
ATOM     47  C   UNL A   1      41.895  28.496  33.348  1.00  0.00     0.074 A 
ATOM     48  C   UNL A   1      40.595  27.960  33.665  1.00  0.00     0.031 C 
ATOM     49  C   UNL A   1      40.225  26.833  27.217  1.00  0.00     0.029 A 
ATOM     50  C   UNL A   1      41.283  26.233  27.996  1.00  0.00     0.049 A 
ATOM     51  H   UNL A   1      42.025  26.857  29.850  1.00  0.00     0.167 HD
ATOM     52  C   UNL A   1      43.125  28.245  33.875  1.00  0.00     0.031 A 
ATOM     53  C   UNL A   1      42.103  25.220  27.639  1.00  0.00     0.031 A 
ATOM     54  C   UNL A   1      44.163  28.817  33.047  1.00  0.00     0.049 A 
ATOM     55  C   UNL A   1      43.385  25.470  28.327  1.00  0.00     0.074 A 
ATOM     56  C   UNL A   1      44.615  30.083  32.753  1.00  0.00     0.029 A 
ATOM     57  N   UNL A   1      44.568  27.990  32.028  1.00  0.00    -0.354 N 
ATOM     58  N   UNL A   1      44.143  26.496  28.064  1.00  0.00    -0.248 NA
ATOM     59  C   UNL A   1      43.654  24.794  29.586  1.00  0.00     0.031 C 
ATOM     60  C   UNL A   1      45.066  30.028  31.399  1.00  0.00     0.029 A 
ATOM     61  C   UNL A   1      44.941  28.720  30.929  1.00  0.00     0.049 A 
ATOM     62  H   UNL A   1      44.587  27.006  32.078  1.00  0.00     0.167 HD
ATOM     63  C   UNL A   1      44.665  26.858  29.292  1.00  0.00     0.074 A 
ATOM     64  C   UNL A   1      44.477  25.687  30.143  1.00  0.00     0.031 C 
ATOM     65  C   UNL A   1      44.923  28.165  29.588  1.00  0.00     0.031 A 
BRANCH  52  66
ATOM     66  C   UNL A   1      43.433  27.100  34.806  1.00  0.00    -0.014 A 
ATOM     67  C   UNL A   1      43.365  25.787  34.306  1.00  0.00     0.009 A 
ATOM     68  C   UNL A   1      43.515  27.242  36.204  1.00  0.00     0.009 A 
ATOM     69  C   UNL A   1      43.347  24.681  35.164  1.00  0.00     0.001 A 
ATOM     70  C   UNL A   1      43.531  26.138  37.061  1.00  0.00     0.001 A 
ATOM     71  C   UNL A   1      43.428  24.857  36.541  1.00  0.00     0.000 A 
ENDBRANCH  52  66
BRANCH  53  72
ATOM     72  C   UNL A   1      41.743  23.904  27.075  1.00  0.00    -0.014 A 
ATOM     73  C   UNL A   1      42.573  23.306  26.112  1.00  0.00     0.009 A 
ATOM     74  C   UNL A   1      40.785  23.095  27.713  1.00  0.00     0.009 A 
ATOM     75  C   UNL A   1      42.511  21.930  25.866  1.00  0.00     0.001 A 
ATOM     76  C   UNL A   1      40.722  21.720  27.462  1.00  0.00     0.001 A 
ATOM     77  C   UNL A   1      41.604  21.134  26.559  1.00  0.00     0.000 A 
ENDBRANCH  53  72
BRANCH  65  78
ATOM     78  C   UNL A   1      45.039  29.131  28.436  1.00  0.00    -0.014 A 
ATOM     79  C   UNL A   1      43.966  29.877  27.922  1.00  0.00     0.009 A 
ATOM     80  C   UNL A   1      46.320  29.362  27.913  1.00  0.00     0.009 A 
ATOM     81  C   UNL A   1      44.173  30.818  26.904  1.00  0.00     0.001 A 
ATOM     82  C   UNL A   1      46.530  30.312  26.913  1.00  0.00     0.001 A 
ATOM     83  C   UNL A   1      45.456  31.038  26.406  1.00  0.00     0.000 A 
ENDBRANCH  65  78
ENDBRANCH  39  40
ENDBRANCH  31  34
ENDBRANCH  29  30
ENDBRANCH  28  29
ENDBRANCH   1  28
TORSDOF 14
ENDMDL
