MODEL 1
REMARK VINA RESULT:     -10.5      0.000      0.000
REMARK SMILES O=C(NCCCCCCNC(=O)[C@@H]1C=C[C@H](NC(=O)c2ccc(Br)cc2)C1)c1ccc(-c2c3nc(c(-c4ccccc4)c4ccc([nH]4)c(-c4ccccc4)c4nc(c(-c5ccccc5)c5ccc2[nH]5)C=C4)C=C3)cc1
REMARK SMILES IDX 6 1 5 2 4 3 3 4 1 5 2 6 28 8 29 9 75 10 30 11 74 12 31 13
REMARK SMILES IDX 32 14 33 15 68 16 34 17 73 18 67 19 69 20 35 21 72 22 66 23
REMARK SMILES IDX 65 24 36 26 58 27 43 28 57 29 44 30 47 31 56 32 70 33 45 34
REMARK SMILES IDX 46 35 55 37 71 38 48 39 37 40 38 41 42 42 39 43 41 44 40 45
REMARK SMILES IDX 59 46 60 47 64 48 61 49 63 50 62 51 49 52 50 53 54 54 51 55
REMARK SMILES IDX 53 56 52 57 7 58 8 59 9 60 10 61 11 62 12 64 13 65 14 66
REMARK SMILES IDX 27 67 15 68 16 69 17 70 18 71 19 73 20 74 21 75 26 76 22 77
REMARK SMILES IDX 25 78 23 79 24 80
REMARK H PARENT 3 7 69 25 47 36 10 63 17 72
REMARK Flexibility Score: inf
ROOT
ATOM      1  C   UNL A   1      38.645  22.239  25.960  1.00  0.00     0.002 C 
ENDROOT
BRANCH   1   2
ATOM      2  C   UNL A   1      38.946  20.863  25.376  1.00  0.00     0.021 C 
BRANCH   2   3
ATOM      3  C   UNL A   1      39.473  19.847  26.374  1.00  0.00     0.116 C 
BRANCH   3   4
ATOM      4  N   UNL A   1      40.675  19.176  25.914  1.00  0.00    -0.352 N 
ATOM      5  O   UNL A   1      42.846  19.036  25.297  1.00  0.00    -0.269 OA
ATOM      6  C   UNL A   1      41.955  19.677  25.836  1.00  0.00     0.251 C 
ATOM      7  H   UNL A   1      40.561  18.244  25.619  1.00  0.00     0.163 HD
BRANCH   6   8
ATOM      8  C   UNL A   1      42.236  21.020  26.390  1.00  0.00     0.039 A 
ATOM      9  C   UNL A   1      42.226  21.236  27.771  1.00  0.00     0.014 A 
ATOM     10  C   UNL A   1      42.510  22.072  25.513  1.00  0.00     0.014 A 
ATOM     11  C   UNL A   1      42.374  22.525  28.270  1.00  0.00     0.010 A 
ATOM     12  C   UNL A   1      42.735  23.354  26.020  1.00  0.00     0.010 A 
ATOM     13  C   UNL A   1      42.651  23.593  27.401  1.00  0.00    -0.014 A 
BRANCH  13  14
ATOM     14  C   UNL A   1      42.953  24.930  27.963  1.00  0.00     0.031 A 
ATOM     15  C   UNL A   1      44.350  25.319  28.356  1.00  0.00     0.074 A 
ATOM     16  C   UNL A   1      41.936  25.799  28.124  1.00  0.00     0.049 A 
ATOM     17  N   UNL A   1      44.771  26.443  28.879  1.00  0.00    -0.248 NA
ATOM     18  C   UNL A   1      45.409  24.322  28.140  1.00  0.00     0.031 C 
ATOM     19  C   UNL A   1      40.536  25.528  27.787  1.00  0.00     0.029 A 
ATOM     20  N   UNL A   1      41.919  27.082  28.604  1.00  0.00    -0.354 N 
ATOM     21  C   UNL A   1      46.136  26.283  29.078  1.00  0.00     0.074 A 
ATOM     22  C   UNL A   1      46.472  24.947  28.629  1.00  0.00     0.031 C 
ATOM     23  C   UNL A   1      39.802  26.620  28.042  1.00  0.00     0.029 A 
ATOM     24  C   UNL A   1      40.666  27.643  28.619  1.00  0.00     0.049 A 
ATOM     25  H   UNL A   1      42.726  27.556  28.908  1.00  0.00     0.167 HD
ATOM     26  C   UNL A   1      47.024  27.168  29.590  1.00  0.00     0.031 A 
ATOM     27  C   UNL A   1      40.247  28.838  29.072  1.00  0.00     0.031 A 
ATOM     28  C   UNL A   1      46.683  28.496  30.030  1.00  0.00     0.049 A 
ATOM     29  C   UNL A   1      41.247  29.781  29.669  1.00  0.00     0.074 A 
ATOM     30  C   UNL A   1      47.524  29.487  30.508  1.00  0.00     0.029 A 
ATOM     31  N   UNL A   1      45.398  29.015  30.059  1.00  0.00    -0.354 N 
ATOM     32  N   UNL A   1      42.542  29.633  29.798  1.00  0.00    -0.248 NA
ATOM     33  C   UNL A   1      40.726  31.053  30.189  1.00  0.00     0.031 C 
ATOM     34  C   UNL A   1      46.740  30.586  30.877  1.00  0.00     0.029 A 
ATOM     35  C   UNL A   1      45.417  30.297  30.583  1.00  0.00     0.049 A 
ATOM     36  H   UNL A   1      44.590  28.541  29.753  1.00  0.00     0.167 HD
ATOM     37  C   UNL A   1      42.995  30.795  30.406  1.00  0.00     0.074 A 
ATOM     38  C   UNL A   1      41.838  31.647  30.598  1.00  0.00     0.031 C 
ATOM     39  C   UNL A   1      44.255  31.124  30.777  1.00  0.00     0.031 A 
BRANCH  26  40
ATOM     40  C   UNL A   1      48.452  26.726  29.734  1.00  0.00    -0.014 A 
ATOM     41  C   UNL A   1      49.376  26.886  28.690  1.00  0.00     0.009 A 
ATOM     42  C   UNL A   1      48.895  26.204  30.960  1.00  0.00     0.009 A 
ATOM     43  C   UNL A   1      50.711  26.510  28.865  1.00  0.00     0.001 A 
ATOM     44  C   UNL A   1      50.234  25.850  31.139  1.00  0.00     0.001 A 
ATOM     45  C   UNL A   1      51.139  25.998  30.090  1.00  0.00     0.000 A 
ENDBRANCH  26  40
BRANCH  27  46
ATOM     46  C   UNL A   1      38.805  29.184  29.010  1.00  0.00    -0.014 A 
ATOM     47  C   UNL A   1      37.973  28.989  30.122  1.00  0.00     0.009 A 
ATOM     48  C   UNL A   1      38.258  29.733  27.838  1.00  0.00     0.009 A 
ATOM     49  C   UNL A   1      36.618  29.321  30.055  1.00  0.00     0.001 A 
ATOM     50  C   UNL A   1      36.911  30.090  27.784  1.00  0.00     0.001 A 
ATOM     51  C   UNL A   1      36.090  29.877  28.889  1.00  0.00     0.000 A 
ENDBRANCH  27  46
BRANCH  39  52
ATOM     52  C   UNL A   1      44.445  32.468  31.417  1.00  0.00    -0.014 A 
ATOM     53  C   UNL A   1      44.330  32.628  32.806  1.00  0.00     0.009 A 
ATOM     54  C   UNL A   1      44.771  33.579  30.625  1.00  0.00     0.009 A 
ATOM     55  C   UNL A   1      44.512  33.884  33.388  1.00  0.00     0.001 A 
ATOM     56  C   UNL A   1      44.976  34.828  31.212  1.00  0.00     0.001 A 
ATOM     57  C   UNL A   1      44.838  34.981  32.591  1.00  0.00     0.000 A 
ENDBRANCH  39  52
ENDBRANCH  13  14
ENDBRANCH   6   8
ENDBRANCH   3   4
ENDBRANCH   2   3
ENDBRANCH   1   2
BRANCH   1  58
ATOM     58  C   UNL A   1      37.426  22.964  25.382  1.00  0.00     0.002 C 
BRANCH  58  59
ATOM     59  C   UNL A   1      36.772  22.370  24.127  1.00  0.00     0.021 C 
BRANCH  59  60
ATOM     60  C   UNL A   1      35.960  23.321  23.252  1.00  0.00     0.116 C 
BRANCH  60  61
ATOM     61  N   UNL A   1      34.559  22.973  23.165  1.00  0.00    -0.356 N 
ATOM     62  C   UNL A   1      33.476  23.797  23.147  1.00  0.00     0.227 C 
ATOM     63  H   UNL A   1      34.362  22.009  23.113  1.00  0.00     0.163 HD
ATOM     64  O   UNL A   1      32.474  23.386  22.562  1.00  0.00    -0.274 OA
BRANCH  62  65
ATOM     65  C   UNL A   1      33.561  25.191  23.771  1.00  0.00     0.103 C 
ATOM     66  C   UNL A   1      34.407  25.233  25.016  1.00  0.00    -0.016 C 
ATOM     67  C   UNL A   1      32.182  25.677  24.269  1.00  0.00     0.047 C 
ATOM     68  C   UNL A   1      33.711  25.576  26.103  1.00  0.00    -0.006 C 
ATOM     69  C   UNL A   1      32.287  25.833  25.789  1.00  0.00     0.106 C 
BRANCH  69  70
ATOM     70  N   UNL A   1      31.385  25.034  26.595  1.00  0.00    -0.346 N 
ATOM     71  C   UNL A   1      31.147  23.697  26.764  1.00  0.00     0.251 C 
ATOM     72  H   UNL A   1      30.801  25.589  27.160  1.00  0.00     0.164 HD
ATOM     73  O   UNL A   1      30.148  23.357  27.398  1.00  0.00    -0.269 OA
BRANCH  71  74
ATOM     74  C   UNL A   1      32.018  22.635  26.231  1.00  0.00     0.039 A 
ATOM     75  C   UNL A   1      33.268  22.360  26.791  1.00  0.00     0.015 A 
ATOM     76  C   UNL A   1      31.483  21.769  25.268  1.00  0.00     0.015 A 
ATOM     77  C   UNL A   1      34.019  21.273  26.330  1.00  0.00     0.016 A 
ATOM     78  C   UNL A   1      32.228  20.675  24.815  1.00  0.00     0.016 A 
ATOM     79  C   UNL A   1      33.495  20.439  25.342  1.00  0.00     0.018 A 
ATOM     80  Br  UNL A   1      34.492  18.950  24.736  1.00  0.00    -0.051 Br
ENDBRANCH  71  74
ENDBRANCH  69  70
ENDBRANCH  62  65
ENDBRANCH  60  61
ENDBRANCH  59  60
ENDBRANCH  58  59
ENDBRANCH   1  58
TORSDOF 15
ENDMDL
MODEL 2
REMARK VINA RESULT:     -10.5      0.263      5.932
REMARK SMILES O=C(NCCCCCCNC(=O)[C@@H]1C=C[C@H](NC(=O)c2ccc(Br)cc2)C1)c1ccc(-c2c3nc(c(-c4ccccc4)c4ccc([nH]4)c(-c4ccccc4)c4nc(c(-c5ccccc5)c5ccc2[nH]5)C=C4)C=C3)cc1
REMARK SMILES IDX 6 1 5 2 4 3 3 4 1 5 2 6 28 8 29 9 75 10 30 11 74 12 31 13
REMARK SMILES IDX 32 14 33 15 68 16 34 17 73 18 67 19 69 20 35 21 72 22 66 23
REMARK SMILES IDX 65 24 36 26 58 27 43 28 57 29 44 30 47 31 56 32 70 33 45 34
REMARK SMILES IDX 46 35 55 37 71 38 48 39 37 40 38 41 42 42 39 43 41 44 40 45
REMARK SMILES IDX 59 46 60 47 64 48 61 49 63 50 62 51 49 52 50 53 54 54 51 55
REMARK SMILES IDX 53 56 52 57 7 58 8 59 9 60 10 61 11 62 12 64 13 65 14 66
REMARK SMILES IDX 27 67 15 68 16 69 17 70 18 71 19 73 20 74 21 75 26 76 22 77
REMARK SMILES IDX 25 78 23 79 24 80
REMARK H PARENT 3 7 69 25 47 36 10 63 17 72
REMARK Flexibility Score: inf
ROOT
ATOM      1  C   UNL A   1      38.723  22.237  26.059  1.00  0.00     0.002 C 
ENDROOT
BRANCH   1   2
ATOM      2  C   UNL A   1      38.997  20.881  25.417  1.00  0.00     0.021 C 
BRANCH   2   3
ATOM      3  C   UNL A   1      39.517  19.817  26.368  1.00  0.00     0.116 C 
BRANCH   3   4
ATOM      4  N   UNL A   1      40.725  19.171  25.886  1.00  0.00    -0.352 N 
ATOM      5  O   UNL A   1      42.893  19.072  25.253  1.00  0.00    -0.269 OA
ATOM      6  C   UNL A   1      41.997  19.690  25.811  1.00  0.00     0.251 C 
ATOM      7  H   UNL A   1      40.619  18.245  25.570  1.00  0.00     0.163 HD
BRANCH   6   8
ATOM      8  C   UNL A   1      42.266  21.024  26.393  1.00  0.00     0.039 A 
ATOM      9  C   UNL A   1      42.236  21.214  27.778  1.00  0.00     0.014 A 
ATOM     10  C   UNL A   1      42.547  22.093  25.540  1.00  0.00     0.014 A 
ATOM     11  C   UNL A   1      42.373  22.495  28.302  1.00  0.00     0.010 A 
ATOM     12  C   UNL A   1      42.761  23.366  26.073  1.00  0.00     0.010 A 
ATOM     13  C   UNL A   1      42.657  23.579  27.457  1.00  0.00    -0.014 A 
BRANCH  13  14
ATOM     14  C   UNL A   1      42.946  24.907  28.048  1.00  0.00     0.031 A 
ATOM     15  C   UNL A   1      41.854  25.908  28.300  1.00  0.00     0.074 A 
ATOM     16  C   UNL A   1      44.224  25.206  28.352  1.00  0.00     0.049 A 
ATOM     17  N   UNL A   1      41.949  27.118  28.791  1.00  0.00    -0.248 NA
ATOM     18  C   UNL A   1      40.483  25.506  27.951  1.00  0.00     0.031 C 
ATOM     19  C   UNL A   1      45.369  24.315  28.143  1.00  0.00     0.029 A 
ATOM     20  N   UNL A   1      44.775  26.331  28.905  1.00  0.00    -0.354 N 
ATOM     21  C   UNL A   1      40.659  27.631  28.791  1.00  0.00     0.074 A 
ATOM     22  C   UNL A   1      39.799  26.606  28.239  1.00  0.00     0.031 C 
ATOM     23  C   UNL A   1      46.481  24.916  28.589  1.00  0.00     0.029 A 
ATOM     24  C   UNL A   1      46.138  26.254  29.055  1.00  0.00     0.049 A 
ATOM     25  H   UNL A   1      44.246  27.118  29.169  1.00  0.00     0.167 HD
ATOM     26  C   UNL A   1      40.235  28.848  29.211  1.00  0.00     0.031 A 
ATOM     27  C   UNL A   1      47.024  27.168  29.491  1.00  0.00     0.031 A 
ATOM     28  C   UNL A   1      41.097  29.861  29.763  1.00  0.00     0.049 A 
ATOM     29  C   UNL A   1      46.528  28.519  29.912  1.00  0.00     0.074 A 
ATOM     30  C   UNL A   1      40.750  31.102  30.271  1.00  0.00     0.029 A 
ATOM     31  N   UNL A   1      42.475  29.757  29.867  1.00  0.00    -0.354 N 
ATOM     32  N   UNL A   1      45.298  28.967  29.956  1.00  0.00    -0.248 NA
ATOM     33  C   UNL A   1      47.544  29.491  30.337  1.00  0.00     0.031 C 
ATOM     34  C   UNL A   1      41.926  31.770  30.632  1.00  0.00     0.029 A 
ATOM     35  C   UNL A   1      42.998  30.926  30.395  1.00  0.00     0.049 A 
ATOM     36  H   UNL A   1      43.004  28.968  29.604  1.00  0.00     0.167 HD
ATOM     37  C   UNL A   1      45.389  30.270  30.422  1.00  0.00     0.074 A 
ATOM     38  C   UNL A   1      46.793  30.532  30.667  1.00  0.00     0.031 C 
ATOM     39  C   UNL A   1      44.398  31.171  30.621  1.00  0.00     0.031 A 
BRANCH  26  40
ATOM     40  C   UNL A   1      38.775  29.171  29.064  1.00  0.00    -0.014 A 
ATOM     41  C   UNL A   1      37.881  29.017  30.135  1.00  0.00     0.009 A 
ATOM     42  C   UNL A   1      38.302  29.703  27.855  1.00  0.00     0.009 A 
ATOM     43  C   UNL A   1      36.537  29.369  29.988  1.00  0.00     0.001 A 
ATOM     44  C   UNL A   1      36.963  30.074  27.718  1.00  0.00     0.001 A 
ATOM     45  C   UNL A   1      36.081  29.902  28.783  1.00  0.00     0.000 A 
ENDBRANCH  26  40
BRANCH  27  46
ATOM     46  C   UNL A   1      48.470  26.839  29.511  1.00  0.00    -0.014 A 
ATOM     47  C   UNL A   1      49.295  27.167  28.425  1.00  0.00     0.009 A 
ATOM     48  C   UNL A   1      49.039  26.210  30.632  1.00  0.00     0.009 A 
ATOM     49  C   UNL A   1      50.656  26.856  28.454  1.00  0.00     0.001 A 
ATOM     50  C   UNL A   1      50.404  25.927  30.670  1.00  0.00     0.001 A 
ATOM     51  C   UNL A   1      51.210  26.243  29.578  1.00  0.00     0.000 A 
ENDBRANCH  27  46
BRANCH  39  52
ATOM     52  C   UNL A   1      44.802  32.520  31.142  1.00  0.00    -0.014 A 
ATOM     53  C   UNL A   1      44.908  32.759  32.520  1.00  0.00     0.009 A 
ATOM     54  C   UNL A   1      45.108  33.553  30.243  1.00  0.00     0.009 A 
ATOM     55  C   UNL A   1      45.288  34.017  32.990  1.00  0.00     0.001 A 
ATOM     56  C   UNL A   1      45.511  34.803  30.715  1.00  0.00     0.001 A 
ATOM     57  C   UNL A   1      45.592  35.035  32.087  1.00  0.00     0.000 A 
ENDBRANCH  39  52
ENDBRANCH  13  14
ENDBRANCH   6   8
ENDBRANCH   3   4
ENDBRANCH   2   3
ENDBRANCH   1   2
BRANCH   1  58
ATOM     58  C   UNL A   1      37.520  23.010  25.511  1.00  0.00     0.002 C 
BRANCH  58  59
ATOM     59  C   UNL A   1      36.689  22.346  24.405  1.00  0.00     0.021 C 
BRANCH  59  60
ATOM     60  C   UNL A   1      35.979  23.271  23.420  1.00  0.00     0.116 C 
BRANCH  60  61
ATOM     61  N   UNL A   1      34.577  22.968  23.249  1.00  0.00    -0.356 N 
ATOM     62  C   UNL A   1      33.523  23.826  23.167  1.00  0.00     0.227 C 
ATOM     63  H   UNL A   1      34.353  22.011  23.184  1.00  0.00     0.163 HD
ATOM     64  O   UNL A   1      32.545  23.446  22.523  1.00  0.00    -0.274 OA
BRANCH  62  65
ATOM     65  C   UNL A   1      33.614  25.216  23.798  1.00  0.00     0.103 C 
ATOM     66  C   UNL A   1      34.429  25.242  25.063  1.00  0.00    -0.016 C 
ATOM     67  C   UNL A   1      32.231  25.723  24.262  1.00  0.00     0.047 C 
ATOM     68  C   UNL A   1      33.712  25.594  26.133  1.00  0.00    -0.006 C 
ATOM     69  C   UNL A   1      32.300  25.874  25.784  1.00  0.00     0.106 C 
BRANCH  69  70
ATOM     70  N   UNL A   1      31.366  25.087  26.565  1.00  0.00    -0.346 N 
ATOM     71  C   UNL A   1      31.104  23.754  26.726  1.00  0.00     0.251 C 
ATOM     72  H   UNL A   1      30.776  25.650  27.116  1.00  0.00     0.164 HD
ATOM     73  O   UNL A   1      30.084  23.428  27.333  1.00  0.00    -0.269 OA
BRANCH  71  74
ATOM     74  C   UNL A   1      31.972  22.680  26.213  1.00  0.00     0.039 A 
ATOM     75  C   UNL A   1      33.190  22.367  26.822  1.00  0.00     0.015 A 
ATOM     76  C   UNL A   1      31.460  21.841  25.215  1.00  0.00     0.015 A 
ATOM     77  C   UNL A   1      33.935  21.269  26.377  1.00  0.00     0.016 A 
ATOM     78  C   UNL A   1      32.198  20.737  24.776  1.00  0.00     0.016 A 
ATOM     79  C   UNL A   1      33.435  20.462  25.354  1.00  0.00     0.018 A 
ATOM     80  Br  UNL A   1      34.423  18.960  24.767  1.00  0.00    -0.051 Br
ENDBRANCH  71  74
ENDBRANCH  69  70
ENDBRANCH  62  65
ENDBRANCH  60  61
ENDBRANCH  59  60
ENDBRANCH  58  59
ENDBRANCH   1  58
TORSDOF 15
ENDMDL
MODEL 3
REMARK VINA RESULT:     -10.5      1.599      6.394
REMARK SMILES O=C(NCCCCCCNC(=O)[C@@H]1C=C[C@H](NC(=O)c2ccc(Br)cc2)C1)c1ccc(-c2c3nc(c(-c4ccccc4)c4ccc([nH]4)c(-c4ccccc4)c4nc(c(-c5ccccc5)c5ccc2[nH]5)C=C4)C=C3)cc1
REMARK SMILES IDX 6 1 5 2 4 3 3 4 1 5 2 6 28 8 29 9 75 10 30 11 74 12 31 13
REMARK SMILES IDX 32 14 33 15 68 16 34 17 73 18 67 19 69 20 35 21 72 22 66 23
REMARK SMILES IDX 65 24 36 26 58 27 43 28 57 29 44 30 47 31 56 32 70 33 45 34
REMARK SMILES IDX 46 35 55 37 71 38 48 39 37 40 38 41 42 42 39 43 41 44 40 45
REMARK SMILES IDX 59 46 60 47 64 48 61 49 63 50 62 51 49 52 50 53 54 54 51 55
REMARK SMILES IDX 53 56 52 57 7 58 8 59 9 60 10 61 11 62 12 64 13 65 14 66
REMARK SMILES IDX 27 67 15 68 16 69 17 70 18 71 19 73 20 74 21 75 26 76 22 77
REMARK SMILES IDX 25 78 23 79 24 80
REMARK H PARENT 3 7 69 25 47 36 10 63 17 72
REMARK Flexibility Score: inf
ROOT
ATOM      1  C   UNL A   1      36.117  20.793  24.887  1.00  0.00     0.002 C 
ENDROOT
BRANCH   1   2
ATOM      2  C   UNL A   1      37.317  19.851  24.906  1.00  0.00     0.021 C 
BRANCH   2   3
ATOM      3  C   UNL A   1      38.558  20.412  25.578  1.00  0.00     0.116 C 
BRANCH   3   4
ATOM      4  N   UNL A   1      39.640  19.446  25.658  1.00  0.00    -0.352 N 
ATOM      5  O   UNL A   1      41.781  18.773  25.935  1.00  0.00    -0.269 OA
ATOM      6  C   UNL A   1      40.943  19.657  26.048  1.00  0.00     0.251 C 
ATOM      7  H   UNL A   1      39.413  18.524  25.399  1.00  0.00     0.163 HD
BRANCH   6   8
ATOM      8  C   UNL A   1      41.329  20.981  26.584  1.00  0.00     0.039 A 
ATOM      9  C   UNL A   1      41.813  21.979  25.734  1.00  0.00     0.014 A 
ATOM     10  C   UNL A   1      41.206  21.220  27.955  1.00  0.00     0.014 A 
ATOM     11  C   UNL A   1      42.282  23.174  26.268  1.00  0.00     0.010 A 
ATOM     12  C   UNL A   1      41.607  22.451  28.481  1.00  0.00     0.010 A 
ATOM     13  C   UNL A   1      42.164  23.429  27.643  1.00  0.00    -0.014 A 
BRANCH  13  14
ATOM     14  C   UNL A   1      42.533  24.765  28.170  1.00  0.00     0.031 A 
ATOM     15  C   UNL A   1      41.502  25.838  28.377  1.00  0.00     0.074 A 
ATOM     16  C   UNL A   1      43.827  25.002  28.458  1.00  0.00     0.049 A 
ATOM     17  N   UNL A   1      41.670  27.062  28.811  1.00  0.00    -0.248 NA
ATOM     18  C   UNL A   1      40.108  25.501  28.050  1.00  0.00     0.031 C 
ATOM     19  C   UNL A   1      44.918  24.038  28.289  1.00  0.00     0.029 A 
ATOM     20  N   UNL A   1      44.446  26.118  28.956  1.00  0.00    -0.354 N 
ATOM     21  C   UNL A   1      40.412  27.649  28.789  1.00  0.00     0.074 A 
ATOM     22  C   UNL A   1      39.490  26.650  28.287  1.00  0.00     0.031 C 
ATOM     23  C   UNL A   1      46.065  24.593  28.704  1.00  0.00     0.029 A 
ATOM     24  C   UNL A   1      45.802  25.969  29.107  1.00  0.00     0.049 A 
ATOM     25  H   UNL A   1      43.965  26.946  29.184  1.00  0.00     0.167 HD
ATOM     26  C   UNL A   1      40.061  28.906  29.152  1.00  0.00     0.031 A 
ATOM     27  C   UNL A   1      46.742  26.849  29.498  1.00  0.00     0.031 A 
ATOM     28  C   UNL A   1      40.982  29.892  29.654  1.00  0.00     0.049 A 
ATOM     29  C   UNL A   1      46.328  28.244  29.856  1.00  0.00     0.074 A 
ATOM     30  C   UNL A   1      40.711  31.174  30.104  1.00  0.00     0.029 A 
ATOM     31  N   UNL A   1      42.353  29.713  29.761  1.00  0.00    -0.354 N 
ATOM     32  N   UNL A   1      45.126  28.765  29.881  1.00  0.00    -0.248 NA
ATOM     33  C   UNL A   1      47.400  29.175  30.233  1.00  0.00     0.031 C 
ATOM     34  C   UNL A   1      41.925  31.788  30.432  1.00  0.00     0.029 A 
ATOM     35  C   UNL A   1      42.945  30.873  30.232  1.00  0.00     0.049 A 
ATOM     36  H   UNL A   1      42.834  28.884  29.534  1.00  0.00     0.167 HD
ATOM     37  C   UNL A   1      45.295  30.081  30.285  1.00  0.00     0.074 A 
ATOM     38  C   UNL A   1      46.712  30.272  30.515  1.00  0.00     0.031 C 
ATOM     39  C   UNL A   1      44.359  31.047  30.444  1.00  0.00     0.031 A 
BRANCH  26  40
ATOM     40  C   UNL A   1      38.622  29.307  28.993  1.00  0.00    -0.014 A 
ATOM     41  C   UNL A   1      38.103  29.694  27.748  1.00  0.00     0.009 A 
ATOM     42  C   UNL A   1      37.756  29.227  30.095  1.00  0.00     0.009 A 
ATOM     43  C   UNL A   1      36.750  30.016  27.617  1.00  0.00     0.001 A 
ATOM     44  C   UNL A   1      36.399  29.529  29.956  1.00  0.00     0.001 A 
ATOM     45  C   UNL A   1      35.899  29.928  28.718  1.00  0.00     0.000 A 
ENDBRANCH  26  40
BRANCH  27  46
ATOM     46  C   UNL A   1      48.167  26.438  29.530  1.00  0.00    -0.014 A 
ATOM     47  C   UNL A   1      48.999  26.648  28.422  1.00  0.00     0.009 A 
ATOM     48  C   UNL A   1      48.708  25.847  30.685  1.00  0.00     0.009 A 
ATOM     49  C   UNL A   1      50.340  26.261  28.463  1.00  0.00     0.001 A 
ATOM     50  C   UNL A   1      50.055  25.488  30.733  1.00  0.00     0.001 A 
ATOM     51  C   UNL A   1      50.868  25.687  29.620  1.00  0.00     0.000 A 
ENDBRANCH  27  46
BRANCH  39  52
ATOM     52  C   UNL A   1      44.843  32.393  30.900  1.00  0.00    -0.014 A 
ATOM     53  C   UNL A   1      44.953  32.695  32.265  1.00  0.00     0.009 A 
ATOM     54  C   UNL A   1      45.221  33.357  29.953  1.00  0.00     0.009 A 
ATOM     55  C   UNL A   1      45.407  33.950  32.674  1.00  0.00     0.001 A 
ATOM     56  C   UNL A   1      45.698  34.601  30.365  1.00  0.00     0.001 A 
ATOM     57  C   UNL A   1      45.782  34.899  31.724  1.00  0.00     0.000 A 
ENDBRANCH  39  52
ENDBRANCH  13  14
ENDBRANCH   6   8
ENDBRANCH   3   4
ENDBRANCH   2   3
ENDBRANCH   1   2
BRANCH   1  58
ATOM     58  C   UNL A   1      36.433  22.288  24.982  1.00  0.00     0.002 C 
BRANCH  58  59
ATOM     59  C   UNL A   1      35.572  23.141  25.924  1.00  0.00     0.021 C 
BRANCH  59  60
ATOM     60  C   UNL A   1      34.796  24.296  25.299  1.00  0.00     0.116 C 
BRANCH  60  61
ATOM     61  N   UNL A   1      33.685  24.751  26.105  1.00  0.00    -0.356 N 
ATOM     62  C   UNL A   1      33.102  25.981  26.137  1.00  0.00     0.227 C 
ATOM     63  H   UNL A   1      33.300  24.081  26.715  1.00  0.00     0.163 HD
ATOM     64  O   UNL A   1      31.915  26.025  26.457  1.00  0.00    -0.274 OA
BRANCH  62  65
ATOM     65  C   UNL A   1      33.896  27.218  25.717  1.00  0.00     0.103 C 
ATOM     66  C   UNL A   1      33.378  28.492  26.328  1.00  0.00    -0.016 C 
ATOM     67  C   UNL A   1      33.775  27.484  24.200  1.00  0.00     0.047 C 
ATOM     68  C   UNL A   1      32.928  29.358  25.417  1.00  0.00    -0.006 C 
ATOM     69  C   UNL A   1      33.069  28.833  24.039  1.00  0.00     0.106 C 
BRANCH  69  70
ATOM     70  N   UNL A   1      31.815  28.835  23.311  1.00  0.00    -0.346 N 
ATOM     71  C   UNL A   1      31.092  27.913  22.605  1.00  0.00     0.251 C 
ATOM     72  H   UNL A   1      31.376  29.715  23.330  1.00  0.00     0.164 HD
ATOM     73  O   UNL A   1      30.141  28.309  21.930  1.00  0.00    -0.269 OA
BRANCH  71  74
ATOM     74  C   UNL A   1      31.382  26.468  22.603  1.00  0.00     0.039 A 
ATOM     75  C   UNL A   1      32.489  25.942  21.933  1.00  0.00     0.015 A 
ATOM     76  C   UNL A   1      30.633  25.647  23.456  1.00  0.00     0.015 A 
ATOM     77  C   UNL A   1      32.796  24.582  22.045  1.00  0.00     0.016 A 
ATOM     78  C   UNL A   1      30.945  24.290  23.578  1.00  0.00     0.016 A 
ATOM     79  C   UNL A   1      32.020  23.763  22.865  1.00  0.00     0.018 A 
ATOM     80  Br  UNL A   1      32.447  21.929  23.045  1.00  0.00    -0.051 Br
ENDBRANCH  71  74
ENDBRANCH  69  70
ENDBRANCH  62  65
ENDBRANCH  60  61
ENDBRANCH  59  60
ENDBRANCH  58  59
ENDBRANCH   1  58
TORSDOF 15
ENDMDL
