MODEL 1
REMARK VINA RESULT:     -10.7      0.000      0.000
REMARK SMILES [NH3+][C@H]1C=C[C@@H](C(=O)NC2(CC(=O)NCCCCCCNC(=O)c3ccc(-c4c5nc(c(-c6ccccc6)c6ccc([nH]6)c(-c6ccccc6)c6nc(c(-c7ccccc7)c7ccc4[nH]7)C=C6)C=C5)cc3)CCC2)C1
REMARK SMILES IDX 15 1 14 2 13 3 11 4 12 5 10 7 9 8 71 9 73 10 72 11 8 12 6 13
REMARK SMILES IDX 7 14 5 16 2 17 3 18 74 19 4 20 1 21 16 25 17 26 18 27 19 28
REMARK SMILES IDX 20 29 21 30 22 32 23 33 24 34 70 35 25 36 69 37 26 38 27 39
REMARK SMILES IDX 28 40 63 41 29 42 68 43 62 44 64 45 30 46 67 47 61 48 60 49
REMARK SMILES IDX 31 51 53 52 38 53 52 54 39 55 42 56 51 57 65 58 40 59 41 60
REMARK SMILES IDX 50 62 66 63 43 64 32 65 33 66 37 67 34 68 36 69 35 70 54 71
REMARK SMILES IDX 55 72 59 73 56 74 58 75 57 76 44 77 45 78 49 79 46 80 48 81
REMARK SMILES IDX 47 82
REMARK H PARENT 13 6 8 15 1 22 1 23 1 24 20 31 64 50 42 61
REMARK Flexibility Score: inf
ROOT
ATOM      1  C   UNL A   1      33.600  28.469  27.083  1.00  0.00     0.021 C 
ENDROOT
BRANCH   1   2
ATOM      2  C   UNL A   1      33.569  27.311  26.084  1.00  0.00     0.116 C 
BRANCH   2   3
ATOM      3  N   UNL A   1      32.395  26.493  26.311  1.00  0.00    -0.356 N 
ATOM      4  C   UNL A   1      31.122  26.685  25.878  1.00  0.00     0.222 C 
ATOM      5  O   UNL A   1      30.217  26.024  26.393  1.00  0.00    -0.275 OA
ATOM      6  H   UNL A   1      32.541  25.685  26.855  1.00  0.00     0.163 HD
BRANCH   4   7
ATOM      7  C   UNL A   1      30.810  27.665  24.768  1.00  0.00     0.128 C 
BRANCH   7   8
ATOM      8  C   UNL A   1      30.093  27.108  23.511  1.00  0.00     0.049 C 
ATOM      9  C   UNL A   1      30.125  25.540  23.478  1.00  0.00     0.029 C 
ATOM     10  C   UNL A   1      31.010  27.050  22.270  1.00  0.00     0.029 C 
ATOM     11  C   UNL A   1      31.440  25.633  22.690  1.00  0.00     0.005 C 
BRANCH   8  12
ATOM     12  N   UNL A   1      28.704  27.614  23.445  1.00  0.00    -0.350 N 
ATOM     13  C   UNL A   1      28.038  28.758  23.144  1.00  0.00     0.227 C 
ATOM     14  O   UNL A   1      26.801  28.642  23.122  1.00  0.00    -0.274 OA
ATOM     15  H   UNL A   1      28.069  26.906  23.697  1.00  0.00     0.164 HD
BRANCH  13  16
ATOM     16  C   UNL A   1      28.617  30.148  22.870  1.00  0.00     0.107 C 
ATOM     17  C   UNL A   1      28.518  32.086  21.383  1.00  0.00     0.205 C 
ATOM     18  C   UNL A   1      27.989  32.399  22.750  1.00  0.00     0.033 C 
ATOM     19  C   UNL A   1      28.643  30.556  21.398  1.00  0.00     0.087 C 
ATOM     20  C   UNL A   1      28.021  31.333  23.561  1.00  0.00    -0.012 C 
BRANCH  17  21
ATOM     21  N   UNL A   1      27.632  32.521  20.311  1.00  0.00    -0.352 N 
ATOM     22  H   UNL A   1      27.561  31.784  19.609  1.00  0.00     0.345 HD
ATOM     23  H   UNL A   1      28.007  33.366  19.881  1.00  0.00     0.345 HD
ATOM     24  H   UNL A   1      26.707  32.716  20.693  1.00  0.00     0.345 HD
ENDBRANCH  17  21
ENDBRANCH  13  16
ENDBRANCH   8  12
ENDBRANCH   7   8
ENDBRANCH   4   7
ENDBRANCH   2   3
ENDBRANCH   1   2
BRANCH   1  25
ATOM     25  C   UNL A   1      33.186  29.818  26.489  1.00  0.00     0.002 C 
BRANCH  25  26
ATOM     26  C   UNL A   1      31.807  30.320  26.935  1.00  0.00     0.002 C 
BRANCH  26  27
ATOM     27  C   UNL A   1      31.593  31.834  26.841  1.00  0.00     0.021 C 
BRANCH  27  28
ATOM     28  C   UNL A   1      32.857  32.677  27.012  1.00  0.00     0.116 C 
BRANCH  28  29
ATOM     29  N   UNL A   1      32.585  33.930  27.701  1.00  0.00    -0.352 N 
ATOM     30  C   UNL A   1      33.205  34.498  28.786  1.00  0.00     0.251 C 
ATOM     31  H   UNL A   1      31.836  34.452  27.331  1.00  0.00     0.163 HD
ATOM     32  O   UNL A   1      32.684  35.446  29.364  1.00  0.00    -0.269 OA
BRANCH  30  33
ATOM     33  C   UNL A   1      34.499  33.971  29.273  1.00  0.00     0.039 A 
ATOM     34  C   UNL A   1      34.511  33.144  30.400  1.00  0.00     0.014 A 
ATOM     35  C   UNL A   1      35.701  34.331  28.658  1.00  0.00     0.014 A 
ATOM     36  C   UNL A   1      35.721  32.631  30.875  1.00  0.00     0.010 A 
ATOM     37  C   UNL A   1      36.900  33.771  29.094  1.00  0.00     0.010 A 
ATOM     38  C   UNL A   1      36.923  32.918  30.209  1.00  0.00    -0.014 A 
BRANCH  38  39
ATOM     39  C   UNL A   1      38.213  32.338  30.662  1.00  0.00     0.031 A 
ATOM     40  C   UNL A   1      38.723  31.056  30.064  1.00  0.00     0.074 A 
ATOM     41  C   UNL A   1      38.896  32.931  31.661  1.00  0.00     0.049 A 
ATOM     42  N   UNL A   1      39.785  30.361  30.382  1.00  0.00    -0.248 NA
ATOM     43  C   UNL A   1      37.919  30.466  28.980  1.00  0.00     0.031 C 
ATOM     44  C   UNL A   1      38.497  34.160  32.350  1.00  0.00     0.029 A 
ATOM     45  N   UNL A   1      40.069  32.570  32.277  1.00  0.00    -0.354 N 
ATOM     46  C   UNL A   1      39.767  29.245  29.555  1.00  0.00     0.074 A 
ATOM     47  C   UNL A   1      38.568  29.333  28.750  1.00  0.00     0.031 C 
ATOM     48  C   UNL A   1      39.419  34.462  33.278  1.00  0.00     0.029 A 
ATOM     49  C   UNL A   1      40.452  33.430  33.277  1.00  0.00     0.049 A 
ATOM     50  H   UNL A   1      40.586  31.771  32.026  1.00  0.00     0.167 HD
ATOM     51  C   UNL A   1      40.675  28.243  29.462  1.00  0.00     0.031 A 
ATOM     52  C   UNL A   1      41.511  33.390  34.106  1.00  0.00     0.031 A 
ATOM     53  C   UNL A   1      41.875  28.159  30.249  1.00  0.00     0.049 A 
ATOM     54  C   UNL A   1      42.499  32.264  33.989  1.00  0.00     0.074 A 
ATOM     55  C   UNL A   1      42.884  27.212  30.187  1.00  0.00     0.029 A 
ATOM     56  N   UNL A   1      42.232  29.056  31.243  1.00  0.00    -0.354 N 
ATOM     57  N   UNL A   1      42.497  31.246  33.162  1.00  0.00    -0.248 NA
ATOM     58  C   UNL A   1      43.641  32.288  34.914  1.00  0.00     0.031 C 
ATOM     59  C   UNL A   1      43.828  27.512  31.174  1.00  0.00     0.029 A 
ATOM     60  C   UNL A   1      43.433  28.673  31.817  1.00  0.00     0.049 A 
ATOM     61  H   UNL A   1      41.707  29.848  31.503  1.00  0.00     0.167 HD
ATOM     62  C   UNL A   1      43.647  30.524  33.450  1.00  0.00     0.074 A 
ATOM     63  C   UNL A   1      44.329  31.226  34.516  1.00  0.00     0.031 C 
ATOM     64  C   UNL A   1      44.098  29.381  32.879  1.00  0.00     0.031 A 
BRANCH  51  65
ATOM     65  C   UNL A   1      40.394  27.147  28.471  1.00  0.00    -0.014 A 
ATOM     66  C   UNL A   1      39.596  26.044  28.813  1.00  0.00     0.009 A 
ATOM     67  C   UNL A   1      40.909  27.235  27.168  1.00  0.00     0.009 A 
ATOM     68  C   UNL A   1      39.349  25.033  27.881  1.00  0.00     0.001 A 
ATOM     69  C   UNL A   1      40.638  26.238  26.230  1.00  0.00     0.001 A 
ATOM     70  C   UNL A   1      39.867  25.132  26.590  1.00  0.00     0.000 A 
ENDBRANCH  51  65
BRANCH  52  71
ATOM     71  C   UNL A   1      41.705  34.463  35.116  1.00  0.00    -0.014 A 
ATOM     72  C   UNL A   1      41.146  34.340  36.398  1.00  0.00     0.009 A 
ATOM     73  C   UNL A   1      42.445  35.613  34.804  1.00  0.00     0.009 A 
ATOM     74  C   UNL A   1      41.304  35.361  37.338  1.00  0.00     0.001 A 
ATOM     75  C   UNL A   1      42.623  36.620  35.755  1.00  0.00     0.001 A 
ATOM     76  C   UNL A   1      42.045  36.497  37.018  1.00  0.00     0.000 A 
ENDBRANCH  52  71
BRANCH  64  77
ATOM     77  C   UNL A   1      45.407  28.837  33.375  1.00  0.00    -0.014 A 
ATOM     78  C   UNL A   1      45.454  27.803  34.322  1.00  0.00     0.009 A 
ATOM     79  C   UNL A   1      46.611  29.342  32.858  1.00  0.00     0.009 A 
ATOM     80  C   UNL A   1      46.682  27.307  34.765  1.00  0.00     0.001 A 
ATOM     81  C   UNL A   1      47.836  28.826  33.282  1.00  0.00     0.001 A 
ATOM     82  C   UNL A   1      47.870  27.815  34.241  1.00  0.00     0.000 A 
ENDBRANCH  64  77
ENDBRANCH  38  39
ENDBRANCH  30  33
ENDBRANCH  28  29
ENDBRANCH  27  28
ENDBRANCH  26  27
ENDBRANCH  25  26
ENDBRANCH   1  25
TORSDOF 17
ENDMDL
MODEL 2
REMARK VINA RESULT:     -10.6      4.268      9.428
REMARK SMILES [NH3+][C@H]1C=C[C@@H](C(=O)NC2(CC(=O)NCCCCCCNC(=O)c3ccc(-c4c5nc(c(-c6ccccc6)c6ccc([nH]6)c(-c6ccccc6)c6nc(c(-c7ccccc7)c7ccc4[nH]7)C=C6)C=C5)cc3)CCC2)C1
REMARK SMILES IDX 15 1 14 2 13 3 11 4 12 5 10 7 9 8 71 9 73 10 72 11 8 12 6 13
REMARK SMILES IDX 7 14 5 16 2 17 3 18 74 19 4 20 1 21 16 25 17 26 18 27 19 28
REMARK SMILES IDX 20 29 21 30 22 32 23 33 24 34 70 35 25 36 69 37 26 38 27 39
REMARK SMILES IDX 28 40 63 41 29 42 68 43 62 44 64 45 30 46 67 47 61 48 60 49
REMARK SMILES IDX 31 51 53 52 38 53 52 54 39 55 42 56 51 57 65 58 40 59 41 60
REMARK SMILES IDX 50 62 66 63 43 64 32 65 33 66 37 67 34 68 36 69 35 70 54 71
REMARK SMILES IDX 55 72 59 73 56 74 58 75 57 76 44 77 45 78 49 79 46 80 48 81
REMARK SMILES IDX 47 82
REMARK H PARENT 13 6 8 15 1 22 1 23 1 24 20 31 64 50 42 61
REMARK Flexibility Score: inf
ROOT
ATOM      1  C   UNL A   1      37.308  23.437  25.985  1.00  0.00     0.021 C 
ENDROOT
BRANCH   1   2
ATOM      2  C   UNL A   1      35.843  23.070  25.743  1.00  0.00     0.116 C 
BRANCH   2   3
ATOM      3  N   UNL A   1      34.987  24.175  26.125  1.00  0.00    -0.356 N 
ATOM      4  C   UNL A   1      34.377  25.098  25.335  1.00  0.00     0.222 C 
ATOM      5  O   UNL A   1      33.908  26.109  25.862  1.00  0.00    -0.275 OA
ATOM      6  H   UNL A   1      34.824  24.270  27.091  1.00  0.00     0.163 HD
BRANCH   4   7
ATOM      7  C   UNL A   1      34.243  24.887  23.842  1.00  0.00     0.128 C 
BRANCH   7   8
ATOM      8  C   UNL A   1      32.812  24.694  23.279  1.00  0.00     0.049 C 
ATOM      9  C   UNL A   1      32.832  23.974  21.886  1.00  0.00     0.029 C 
ATOM     10  C   UNL A   1      32.294  25.932  22.515  1.00  0.00     0.029 C 
ATOM     11  C   UNL A   1      32.909  25.358  21.226  1.00  0.00     0.005 C 
BRANCH   8  12
ATOM     12  N   UNL A   1      31.973  23.955  24.249  1.00  0.00    -0.350 N 
ATOM     13  C   UNL A   1      31.930  22.744  24.860  1.00  0.00     0.227 C 
ATOM     14  O   UNL A   1      31.048  22.639  25.729  1.00  0.00    -0.274 OA
ATOM     15  H   UNL A   1      31.216  24.512  24.540  1.00  0.00     0.164 HD
BRANCH  13  16
ATOM     16  C   UNL A   1      32.796  21.512  24.586  1.00  0.00     0.107 C 
ATOM     17  C   UNL A   1      33.316  19.242  25.329  1.00  0.00     0.205 C 
ATOM     18  C   UNL A   1      32.627  19.254  23.997  1.00  0.00     0.033 C 
ATOM     19  C   UNL A   1      33.150  20.687  25.822  1.00  0.00     0.087 C 
ATOM     20  C   UNL A   1      32.320  20.496  23.598  1.00  0.00    -0.012 C 
BRANCH  17  21
ATOM     21  N   UNL A   1      32.724  18.304  26.273  1.00  0.00    -0.352 N 
ATOM     22  H   UNL A   1      31.757  18.572  26.458  1.00  0.00     0.345 HD
ATOM     23  H   UNL A   1      33.254  18.318  27.144  1.00  0.00     0.345 HD
ATOM     24  H   UNL A   1      32.745  17.364  25.877  1.00  0.00     0.345 HD
ENDBRANCH  17  21
ENDBRANCH  13  16
ENDBRANCH   8  12
ENDBRANCH   7   8
ENDBRANCH   4   7
ENDBRANCH   2   3
ENDBRANCH   1   2
BRANCH   1  25
ATOM     25  C   UNL A   1      38.293  22.301  25.692  1.00  0.00     0.002 C 
BRANCH  25  26
ATOM     26  C   UNL A   1      37.697  21.116  24.923  1.00  0.00     0.002 C 
BRANCH  26  27
ATOM     27  C   UNL A   1      38.541  19.838  24.922  1.00  0.00     0.021 C 
BRANCH  27  28
ATOM     28  C   UNL A   1      39.346  19.594  26.199  1.00  0.00     0.116 C 
BRANCH  28  29
ATOM     29  N   UNL A   1      40.647  19.007  25.917  1.00  0.00    -0.352 N 
ATOM     30  C   UNL A   1      41.891  19.586  25.875  1.00  0.00     0.251 C 
ATOM     31  H   UNL A   1      40.633  18.041  25.726  1.00  0.00     0.163 HD
ATOM     32  O   UNL A   1      42.837  18.973  25.392  1.00  0.00    -0.269 OA
BRANCH  30  33
ATOM     33  C   UNL A   1      42.102  20.952  26.401  1.00  0.00     0.039 A 
ATOM     34  C   UNL A   1      42.018  21.165  27.781  1.00  0.00     0.014 A 
ATOM     35  C   UNL A   1      42.330  22.030  25.541  1.00  0.00     0.014 A 
ATOM     36  C   UNL A   1      42.219  22.447  28.301  1.00  0.00     0.010 A 
ATOM     37  C   UNL A   1      42.592  23.295  26.065  1.00  0.00     0.010 A 
ATOM     38  C   UNL A   1      42.536  23.517  27.449  1.00  0.00    -0.014 A 
BRANCH  38  39
ATOM     39  C   UNL A   1      42.809  24.875  27.985  1.00  0.00     0.031 A 
ATOM     40  C   UNL A   1      44.199  25.257  28.413  1.00  0.00     0.074 A 
ATOM     41  C   UNL A   1      41.793  25.744  28.149  1.00  0.00     0.049 A 
ATOM     42  N   UNL A   1      44.616  26.365  28.972  1.00  0.00    -0.248 NA
ATOM     43  C   UNL A   1      45.255  24.252  28.207  1.00  0.00     0.031 C 
ATOM     44  C   UNL A   1      40.393  25.488  27.805  1.00  0.00     0.029 A 
ATOM     45  N   UNL A   1      41.783  27.019  28.658  1.00  0.00    -0.354 N 
ATOM     46  C   UNL A   1      45.974  26.184  29.202  1.00  0.00     0.074 A 
ATOM     47  C   UNL A   1      46.303  24.846  28.762  1.00  0.00     0.031 C 
ATOM     48  C   UNL A   1      39.664  26.579  28.093  1.00  0.00     0.029 A 
ATOM     49  C   UNL A   1      40.536  27.594  28.676  1.00  0.00     0.049 A 
ATOM     50  H   UNL A   1      42.593  27.477  28.980  1.00  0.00     0.167 HD
ATOM     51  C   UNL A   1      46.871  27.057  29.720  1.00  0.00     0.031 A 
ATOM     52  C   UNL A   1      40.136  28.800  29.120  1.00  0.00     0.031 A 
ATOM     53  C   UNL A   1      46.551  28.393  30.145  1.00  0.00     0.049 A 
ATOM     54  C   UNL A   1      41.148  29.748  29.698  1.00  0.00     0.074 A 
ATOM     55  C   UNL A   1      47.403  29.373  30.630  1.00  0.00     0.029 A 
ATOM     56  N   UNL A   1      45.278  28.941  30.136  1.00  0.00    -0.354 N 
ATOM     57  N   UNL A   1      42.439  29.582  29.855  1.00  0.00    -0.248 NA
ATOM     58  C   UNL A   1      40.648  31.054  30.149  1.00  0.00     0.031 C 
ATOM     59  C   UNL A   1      46.637  30.496  30.957  1.00  0.00     0.029 A 
ATOM     60  C   UNL A   1      45.318  30.235  30.628  1.00  0.00     0.049 A 
ATOM     61  H   UNL A   1      44.466  28.477  29.828  1.00  0.00     0.167 HD
ATOM     62  C   UNL A   1      42.909  30.769  30.400  1.00  0.00     0.074 A 
ATOM     63  C   UNL A   1      41.769  31.652  30.532  1.00  0.00     0.031 C 
ATOM     64  C   UNL A   1      44.174  31.099  30.756  1.00  0.00     0.031 A 
BRANCH  51  65
ATOM     65  C   UNL A   1      48.292  26.586  29.861  1.00  0.00    -0.014 A 
ATOM     66  C   UNL A   1      49.255  26.876  28.881  1.00  0.00     0.009 A 
ATOM     67  C   UNL A   1      48.681  25.871  31.005  1.00  0.00     0.009 A 
ATOM     68  C   UNL A   1      50.569  26.427  29.026  1.00  0.00     0.001 A 
ATOM     69  C   UNL A   1      50.002  25.447  31.161  1.00  0.00     0.001 A 
ATOM     70  C   UNL A   1      50.943  25.716  30.167  1.00  0.00     0.000 A 
ENDBRANCH  51  65
BRANCH  52  71
ATOM     71  C   UNL A   1      38.706  29.191  29.021  1.00  0.00    -0.014 A 
ATOM     72  C   UNL A   1      37.857  29.066  30.132  1.00  0.00     0.009 A 
ATOM     73  C   UNL A   1      38.181  29.686  27.818  1.00  0.00     0.009 A 
ATOM     74  C   UNL A   1      36.506  29.406  30.031  1.00  0.00     0.001 A 
ATOM     75  C   UNL A   1      36.837  30.051  27.728  1.00  0.00     0.001 A 
ATOM     76  C   UNL A   1      35.998  29.902  28.832  1.00  0.00     0.000 A 
ENDBRANCH  52  71
BRANCH  64  77
ATOM     77  C   UNL A   1      44.395  32.485  31.293  1.00  0.00    -0.014 A 
ATOM     78  C   UNL A   1      44.334  32.750  32.670  1.00  0.00     0.009 A 
ATOM     79  C   UNL A   1      44.707  33.531  30.411  1.00  0.00     0.009 A 
ATOM     80  C   UNL A   1      44.550  34.044  33.149  1.00  0.00     0.001 A 
ATOM     81  C   UNL A   1      44.949  34.818  30.895  1.00  0.00     0.001 A 
ATOM     82  C   UNL A   1      44.862  35.074  32.262  1.00  0.00     0.000 A 
ENDBRANCH  64  77
ENDBRANCH  38  39
ENDBRANCH  30  33
ENDBRANCH  28  29
ENDBRANCH  27  28
ENDBRANCH  26  27
ENDBRANCH  25  26
ENDBRANCH   1  25
TORSDOF 17
ENDMDL
MODEL 3
REMARK VINA RESULT:     -10.6      4.019      8.729
REMARK SMILES [NH3+][C@H]1C=C[C@@H](C(=O)NC2(CC(=O)NCCCCCCNC(=O)c3ccc(-c4c5nc(c(-c6ccccc6)c6ccc([nH]6)c(-c6ccccc6)c6nc(c(-c7ccccc7)c7ccc4[nH]7)C=C6)C=C5)cc3)CCC2)C1
REMARK SMILES IDX 15 1 14 2 13 3 11 4 12 5 10 7 9 8 71 9 73 10 72 11 8 12 6 13
REMARK SMILES IDX 7 14 5 16 2 17 3 18 74 19 4 20 1 21 16 25 17 26 18 27 19 28
REMARK SMILES IDX 20 29 21 30 22 32 23 33 24 34 70 35 25 36 69 37 26 38 27 39
REMARK SMILES IDX 28 40 63 41 29 42 68 43 62 44 64 45 30 46 67 47 61 48 60 49
REMARK SMILES IDX 31 51 53 52 38 53 52 54 39 55 42 56 51 57 65 58 40 59 41 60
REMARK SMILES IDX 50 62 66 63 43 64 32 65 33 66 37 67 34 68 36 69 35 70 54 71
REMARK SMILES IDX 55 72 59 73 56 74 58 75 57 76 44 77 45 78 49 79 46 80 48 81
REMARK SMILES IDX 47 82
REMARK H PARENT 13 6 8 15 1 22 1 23 1 24 20 31 64 50 42 61
REMARK Flexibility Score: inf
ROOT
ATOM      1  C   UNL A   1      33.797  20.709  24.225  1.00  0.00     0.021 C 
ENDROOT
BRANCH   1   2
ATOM      2  C   UNL A   1      32.942  21.905  24.646  1.00  0.00     0.116 C 
BRANCH   2   3
ATOM      3  N   UNL A   1      33.755  22.866  25.364  1.00  0.00    -0.356 N 
ATOM      4  C   UNL A   1      34.407  23.960  24.890  1.00  0.00     0.222 C 
ATOM      5  O   UNL A   1      35.255  24.497  25.605  1.00  0.00    -0.275 OA
ATOM      6  H   UNL A   1      33.847  22.703  26.332  1.00  0.00     0.163 HD
BRANCH   4   7
ATOM      7  C   UNL A   1      34.087  24.533  23.526  1.00  0.00     0.128 C 
BRANCH   7   8
ATOM      8  C   UNL A   1      32.937  25.570  23.445  1.00  0.00     0.049 C 
ATOM      9  C   UNL A   1      31.793  25.087  22.487  1.00  0.00     0.029 C 
ATOM     10  C   UNL A   1      33.198  26.679  22.404  1.00  0.00     0.029 C 
ATOM     11  C   UNL A   1      32.520  25.800  21.339  1.00  0.00     0.005 C 
BRANCH   8  12
ATOM     12  N   UNL A   1      32.413  25.862  24.798  1.00  0.00    -0.350 N 
ATOM     13  C   UNL A   1      31.446  26.609  25.388  1.00  0.00     0.227 C 
ATOM     14  O   UNL A   1      31.320  26.414  26.609  1.00  0.00    -0.274 OA
ATOM     15  H   UNL A   1      32.921  25.363  25.476  1.00  0.00     0.164 HD
BRANCH  13  16
ATOM     16  C   UNL A   1      30.538  27.663  24.748  1.00  0.00     0.107 C 
ATOM     17  C   UNL A   1      30.398  29.372  23.006  1.00  0.00     0.205 C 
ATOM     18  C   UNL A   1      29.512  28.199  22.715  1.00  0.00     0.033 C 
ATOM     19  C   UNL A   1      31.269  28.873  24.169  1.00  0.00     0.087 C 
ATOM     20  C   UNL A   1      29.603  27.250  23.657  1.00  0.00    -0.012 C 
BRANCH  17  21
ATOM     21  N   UNL A   1      31.226  29.761  21.873  1.00  0.00    -0.352 N 
ATOM     22  H   UNL A   1      32.202  29.814  22.167  1.00  0.00     0.345 HD
ATOM     23  H   UNL A   1      30.925  30.672  21.528  1.00  0.00     0.345 HD
ATOM     24  H   UNL A   1      31.133  29.068  21.130  1.00  0.00     0.345 HD
ENDBRANCH  17  21
ENDBRANCH  13  16
ENDBRANCH   8  12
ENDBRANCH   7   8
ENDBRANCH   4   7
ENDBRANCH   2   3
ENDBRANCH   1   2
BRANCH   1  25
ATOM     25  C   UNL A   1      34.968  20.416  25.166  1.00  0.00     0.002 C 
BRANCH  25  26
ATOM     26  C   UNL A   1      36.350  20.773  24.604  1.00  0.00     0.002 C 
BRANCH  26  27
ATOM     27  C   UNL A   1      37.471  19.781  24.929  1.00  0.00     0.021 C 
BRANCH  27  28
ATOM     28  C   UNL A   1      38.669  20.378  25.666  1.00  0.00     0.116 C 
BRANCH  28  29
ATOM     29  N   UNL A   1      39.774  19.436  25.761  1.00  0.00    -0.352 N 
ATOM     30  C   UNL A   1      41.096  19.648  26.060  1.00  0.00     0.251 C 
ATOM     31  H   UNL A   1      39.535  18.498  25.580  1.00  0.00     0.163 HD
ATOM     32  O   UNL A   1      41.920  18.760  25.863  1.00  0.00    -0.269 OA
BRANCH  30  33
ATOM     33  C   UNL A   1      41.544  20.945  26.614  1.00  0.00     0.039 A 
ATOM     34  C   UNL A   1      41.995  21.935  25.736  1.00  0.00     0.014 A 
ATOM     35  C   UNL A   1      41.570  21.169  27.993  1.00  0.00     0.014 A 
ATOM     36  C   UNL A   1      42.418  23.169  26.237  1.00  0.00     0.010 A 
ATOM     37  C   UNL A   1      41.933  22.421  28.488  1.00  0.00     0.010 A 
ATOM     38  C   UNL A   1      42.364  23.433  27.615  1.00  0.00    -0.014 A 
BRANCH  38  39
ATOM     39  C   UNL A   1      42.754  24.756  28.164  1.00  0.00     0.031 A 
ATOM     40  C   UNL A   1      41.716  25.821  28.391  1.00  0.00     0.074 A 
ATOM     41  C   UNL A   1      44.054  25.024  28.396  1.00  0.00     0.049 A 
ATOM     42  N   UNL A   1      41.875  27.057  28.791  1.00  0.00    -0.248 NA
ATOM     43  C   UNL A   1      40.319  25.453  28.111  1.00  0.00     0.031 C 
ATOM     44  C   UNL A   1      45.164  24.093  28.187  1.00  0.00     0.029 A 
ATOM     45  N   UNL A   1      44.661  26.169  28.851  1.00  0.00    -0.354 N 
ATOM     46  C   UNL A   1      40.606  27.620  28.790  1.00  0.00     0.074 A 
ATOM     47  C   UNL A   1      39.693  26.605  28.311  1.00  0.00     0.031 C 
ATOM     48  C   UNL A   1      46.313  24.695  28.533  1.00  0.00     0.029 A 
ATOM     49  C   UNL A   1      46.027  26.064  28.949  1.00  0.00     0.049 A 
ATOM     50  H   UNL A   1      44.165  26.987  29.083  1.00  0.00     0.167 HD
ATOM     51  C   UNL A   1      40.229  28.865  29.168  1.00  0.00     0.031 A 
ATOM     52  C   UNL A   1      46.948  26.971  29.326  1.00  0.00     0.031 A 
ATOM     53  C   UNL A   1      41.131  29.873  29.659  1.00  0.00     0.049 A 
ATOM     54  C   UNL A   1      46.506  28.348  29.732  1.00  0.00     0.074 A 
ATOM     55  C   UNL A   1      40.835  31.145  30.120  1.00  0.00     0.029 A 
ATOM     56  N   UNL A   1      42.505  29.723  29.754  1.00  0.00    -0.354 N 
ATOM     57  N   UNL A   1      45.294  28.846  29.780  1.00  0.00    -0.248 NA
ATOM     58  C   UNL A   1      47.561  29.285  30.147  1.00  0.00     0.031 C 
ATOM     59  C   UNL A   1      42.037  31.780  30.451  1.00  0.00     0.029 A 
ATOM     60  C   UNL A   1      43.074  30.887  30.244  1.00  0.00     0.049 A 
ATOM     61  H   UNL A   1      43.002  28.910  29.508  1.00  0.00     0.167 HD
ATOM     62  C   UNL A   1      45.438  30.143  30.253  1.00  0.00     0.074 A 
ATOM     63  C   UNL A   1      46.851  30.351  30.491  1.00  0.00     0.031 C 
ATOM     64  C   UNL A   1      44.482  31.078  30.473  1.00  0.00     0.031 A 
BRANCH  51  65
ATOM     65  C   UNL A   1      38.769  29.209  29.057  1.00  0.00    -0.014 A 
ATOM     66  C   UNL A   1      37.911  29.108  30.164  1.00  0.00     0.009 A 
ATOM     67  C   UNL A   1      38.252  29.673  27.837  1.00  0.00     0.009 A 
ATOM     68  C   UNL A   1      36.558  29.428  30.042  1.00  0.00     0.001 A 
ATOM     69  C   UNL A   1      36.904  30.018  27.724  1.00  0.00     0.001 A 
ATOM     70  C   UNL A   1      36.056  29.886  28.824  1.00  0.00     0.000 A 
ENDBRANCH  51  65
BRANCH  52  71
ATOM     71  C   UNL A   1      48.387  26.600  29.352  1.00  0.00    -0.014 A 
ATOM     72  C   UNL A   1      49.201  26.836  28.233  1.00  0.00     0.009 A 
ATOM     73  C   UNL A   1      48.952  26.008  30.491  1.00  0.00     0.009 A 
ATOM     74  C   UNL A   1      50.547  26.462  28.247  1.00  0.00     0.001 A 
ATOM     75  C   UNL A   1      50.304  25.660  30.511  1.00  0.00     0.001 A 
ATOM     76  C   UNL A   1      51.098  25.879  29.386  1.00  0.00     0.000 A 
ENDBRANCH  52  71
BRANCH  64  77
ATOM     77  C   UNL A   1      44.931  32.400  31.028  1.00  0.00    -0.014 A 
ATOM     78  C   UNL A   1      45.069  32.600  32.409  1.00  0.00     0.009 A 
ATOM     79  C   UNL A   1      45.255  33.448  30.152  1.00  0.00     0.009 A 
ATOM     80  C   UNL A   1      45.494  33.835  32.904  1.00  0.00     0.001 A 
ATOM     81  C   UNL A   1      45.706  34.672  30.648  1.00  0.00     0.001 A 
ATOM     82  C   UNL A   1      45.817  34.867  32.023  1.00  0.00     0.000 A 
ENDBRANCH  64  77
ENDBRANCH  38  39
ENDBRANCH  30  33
ENDBRANCH  28  29
ENDBRANCH  27  28
ENDBRANCH  26  27
ENDBRANCH  25  26
ENDBRANCH   1  25
TORSDOF 17
ENDMDL
