MODEL 1
REMARK VINA RESULT:      -9.9      0.000      0.000
REMARK SMILES [NH3+][C@H]1CCC[C@H]1C(=O)NCc1ccc(C(=O)NCCCCCCNC(=O)c2ccc(-c3c4nc(c(-c5ccccc5)c5ccc([nH]5)c(-c5ccccc5)c5nc(c(-c6ccccc6)c6ccc3[nH]6)C=C5)C=C4)cc2)o1
REMARK SMILES IDX 19 1 18 2 17 3 15 4 16 5 14 7 11 8 12 9 75 10 13 11 10 12
REMARK SMILES IDX 9 13 7 14 8 15 6 17 2 18 3 19 4 20 5 21 1 22 20 26 21 27
REMARK SMILES IDX 22 28 23 29 24 30 25 31 26 33 27 34 28 35 74 36 29 37 73 38
REMARK SMILES IDX 30 39 31 40 32 41 67 42 33 43 72 44 66 45 68 46 34 47 71 48
REMARK SMILES IDX 65 49 64 50 35 52 57 53 42 54 56 55 43 56 46 57 55 58 69 59
REMARK SMILES IDX 44 60 45 61 54 63 70 64 47 65 36 66 37 67 41 68 38 69 40 70
REMARK SMILES IDX 39 71 58 72 59 73 63 74 60 75 62 76 61 77 48 78 49 79 53 80
REMARK SMILES IDX 50 81 52 82 51 83
REMARK H PARENT 17 6 9 16 1 23 1 24 1 25 24 32 68 51 46 62
REMARK Flexibility Score: inf
ROOT
ATOM      1  C   UNL A   1      35.256  33.581  33.910  1.00  0.00     0.021 C 
ENDROOT
BRANCH   1   2
ATOM      2  C   UNL A   1      36.548  32.856  34.284  1.00  0.00     0.116 C 
BRANCH   2   3
ATOM      3  N   UNL A   1      36.647  31.584  33.604  1.00  0.00    -0.349 N 
ATOM      4  C   UNL A   1      37.607  30.599  33.629  1.00  0.00     0.286 C 
ATOM      5  O   UNL A   1      37.356  29.611  32.931  1.00  0.00    -0.266 OA
ATOM      6  H   UNL A   1      35.885  31.386  33.012  1.00  0.00     0.163 HD
BRANCH   4   7
ATOM      7  C   UNL A   1      38.811  30.704  34.435  1.00  0.00     0.191 A 
ATOM      8  C   UNL A   1      40.696  29.845  35.241  1.00  0.00     0.124 A 
ATOM      9  C   UNL A   1      40.551  31.082  35.827  1.00  0.00     0.048 A 
ATOM     10  O   UNL A   1      39.664  29.623  34.382  1.00  0.00    -0.454 OA
ATOM     11  C   UNL A   1      39.366  31.641  35.289  1.00  0.00     0.056 A 
BRANCH   8  12
ATOM     12  C   UNL A   1      41.681  28.740  35.379  1.00  0.00     0.191 C 
BRANCH  12  13
ATOM     13  N   UNL A   1      41.299  27.893  36.489  1.00  0.00    -0.348 N 
ATOM     14  C   UNL A   1      41.457  26.564  36.700  1.00  0.00     0.229 C 
ATOM     15  O   UNL A   1      40.762  26.070  37.598  1.00  0.00    -0.275 OA
ATOM     16  H   UNL A   1      40.843  28.367  37.222  1.00  0.00     0.163 HD
BRANCH  14  17
ATOM     17  C   UNL A   1      42.456  25.684  35.961  1.00  0.00     0.136 C 
ATOM     18  C   UNL A   1      43.792  25.330  36.626  1.00  0.00     0.193 C 
ATOM     19  C   UNL A   1      44.342  24.261  35.673  1.00  0.00     0.066 C 
ATOM     20  C   UNL A   1      43.126  23.497  35.143  1.00  0.00     0.007 C 
ATOM     21  C   UNL A   1      41.907  24.389  35.368  1.00  0.00     0.020 C 
BRANCH  18  22
ATOM     22  N   UNL A   1      43.746  24.794  37.977  1.00  0.00    -0.354 N 
ATOM     23  H   UNL A   1      44.626  24.323  38.186  1.00  0.00     0.344 HD
ATOM     24  H   UNL A   1      42.976  24.129  38.053  1.00  0.00     0.344 HD
ATOM     25  H   UNL A   1      43.602  25.557  38.640  1.00  0.00     0.344 HD
ENDBRANCH  18  22
ENDBRANCH  14  17
ENDBRANCH  12  13
ENDBRANCH   8  12
ENDBRANCH   4   7
ENDBRANCH   2   3
ENDBRANCH   1   2
BRANCH   1  26
ATOM     26  C   UNL A   1      35.490  34.891  33.143  1.00  0.00     0.002 C 
BRANCH  26  27
ATOM     27  C   UNL A   1      34.336  35.903  33.210  1.00  0.00     0.002 C 
BRANCH  27  28
ATOM     28  C   UNL A   1      33.215  35.687  32.188  1.00  0.00     0.021 C 
BRANCH  28  29
ATOM     29  C   UNL A   1      33.444  36.368  30.842  1.00  0.00     0.116 C 
BRANCH  29  30
ATOM     30  N   UNL A   1      32.762  35.676  29.761  1.00  0.00    -0.352 N 
ATOM     31  C   UNL A   1      33.209  34.659  28.955  1.00  0.00     0.251 C 
ATOM     32  H   UNL A   1      31.845  35.983  29.579  1.00  0.00     0.163 HD
ATOM     33  O   UNL A   1      32.571  34.342  27.956  1.00  0.00    -0.269 OA
BRANCH  31  34
ATOM     34  C   UNL A   1      34.465  33.951  29.278  1.00  0.00     0.039 A 
ATOM     35  C   UNL A   1      35.652  34.373  28.673  1.00  0.00     0.014 A 
ATOM     36  C   UNL A   1      34.472  32.856  30.147  1.00  0.00     0.014 A 
ATOM     37  C   UNL A   1      36.854  33.733  28.980  1.00  0.00     0.010 A 
ATOM     38  C   UNL A   1      35.678  32.259  30.501  1.00  0.00     0.010 A 
ATOM     39  C   UNL A   1      36.880  32.688  29.918  1.00  0.00    -0.014 A 
BRANCH  39  40
ATOM     40  C   UNL A   1      38.157  32.038  30.304  1.00  0.00     0.031 A 
ATOM     41  C   UNL A   1      39.103  32.722  31.252  1.00  0.00     0.074 A 
ATOM     42  C   UNL A   1      38.494  30.857  29.752  1.00  0.00     0.049 A 
ATOM     43  N   UNL A   1      40.281  32.330  31.667  1.00  0.00    -0.248 NA
ATOM     44  C   UNL A   1      38.680  34.027  31.784  1.00  0.00     0.031 C 
ATOM     45  C   UNL A   1      37.684  30.111  28.787  1.00  0.00     0.029 A 
ATOM     46  N   UNL A   1      39.614  30.081  29.917  1.00  0.00    -0.354 N 
ATOM     47  C   UNL A   1      40.747  33.346  32.492  1.00  0.00     0.074 A 
ATOM     48  C   UNL A   1      39.745  34.390  32.483  1.00  0.00     0.031 C 
ATOM     49  C   UNL A   1      38.321  28.973  28.466  1.00  0.00     0.029 A 
ATOM     50  C   UNL A   1      39.598  28.928  29.172  1.00  0.00     0.049 A 
ATOM     51  H   UNL A   1      40.357  30.328  30.514  1.00  0.00     0.167 HD
ATOM     52  C   UNL A   1      41.897  33.399  33.206  1.00  0.00     0.031 A 
ATOM     53  C   UNL A   1      40.509  27.944  29.065  1.00  0.00     0.031 A 
ATOM     54  C   UNL A   1      42.889  32.358  33.223  1.00  0.00     0.049 A 
ATOM     55  C   UNL A   1      41.779  28.028  29.863  1.00  0.00     0.074 A 
ATOM     56  C   UNL A   1      44.057  32.292  33.963  1.00  0.00     0.029 A 
ATOM     57  N   UNL A   1      42.831  31.202  32.461  1.00  0.00    -0.354 N 
ATOM     58  N   UNL A   1      42.173  28.962  30.694  1.00  0.00    -0.248 NA
ATOM     59  C   UNL A   1      42.726  26.913  29.717  1.00  0.00     0.031 C 
ATOM     60  C   UNL A   1      44.730  31.116  33.612  1.00  0.00     0.029 A 
ATOM     61  C   UNL A   1      43.955  30.427  32.693  1.00  0.00     0.049 A 
ATOM     62  H   UNL A   1      42.100  30.967  31.845  1.00  0.00     0.167 HD
ATOM     63  C   UNL A   1      43.400  28.539  31.186  1.00  0.00     0.074 A 
ATOM     64  C   UNL A   1      43.678  27.256  30.573  1.00  0.00     0.031 C 
ATOM     65  C   UNL A   1      44.222  29.157  32.069  1.00  0.00     0.031 A 
BRANCH  52  66
ATOM     66  C   UNL A   1      42.145  34.639  34.021  1.00  0.00    -0.014 A 
ATOM     67  C   UNL A   1      42.732  35.780  33.452  1.00  0.00     0.009 A 
ATOM     68  C   UNL A   1      41.763  34.674  35.371  1.00  0.00     0.009 A 
ATOM     69  C   UNL A   1      42.970  36.916  34.228  1.00  0.00     0.001 A 
ATOM     70  C   UNL A   1      41.975  35.822  36.138  1.00  0.00     0.001 A 
ATOM     71  C   UNL A   1      42.588  36.938  35.569  1.00  0.00     0.000 A 
ENDBRANCH  52  66
BRANCH  53  72
ATOM     72  C   UNL A   1      40.243  26.782  28.180  1.00  0.00    -0.014 A 
ATOM     73  C   UNL A   1      39.465  25.708  28.635  1.00  0.00     0.009 A 
ATOM     74  C   UNL A   1      40.756  26.746  26.874  1.00  0.00     0.009 A 
ATOM     75  C   UNL A   1      39.222  24.610  27.806  1.00  0.00     0.001 A 
ATOM     76  C   UNL A   1      40.490  25.658  26.039  1.00  0.00     0.001 A 
ATOM     77  C   UNL A   1      39.730  24.588  26.509  1.00  0.00     0.000 A 
ENDBRANCH  53  72
BRANCH  65  78
ATOM     78  C   UNL A   1      45.488  28.439  32.443  1.00  0.00    -0.014 A 
ATOM     79  C   UNL A   1      45.514  27.513  33.497  1.00  0.00     0.009 A 
ATOM     80  C   UNL A   1      46.660  28.668  31.706  1.00  0.00     0.009 A 
ATOM     81  C   UNL A   1      46.699  26.852  33.825  1.00  0.00     0.001 A 
ATOM     82  C   UNL A   1      47.837  27.987  32.020  1.00  0.00     0.001 A 
ATOM     83  C   UNL A   1      47.858  27.086  33.084  1.00  0.00     0.000 A 
ENDBRANCH  65  78
ENDBRANCH  39  40
ENDBRANCH  31  34
ENDBRANCH  29  30
ENDBRANCH  28  29
ENDBRANCH  27  28
ENDBRANCH  26  27
ENDBRANCH   1  26
TORSDOF 17
ENDMDL
MODEL 2
REMARK VINA RESULT:      -9.4      0.671      5.912
REMARK SMILES [NH3+][C@H]1CCC[C@H]1C(=O)NCc1ccc(C(=O)NCCCCCCNC(=O)c2ccc(-c3c4nc(c(-c5ccccc5)c5ccc([nH]5)c(-c5ccccc5)c5nc(c(-c6ccccc6)c6ccc3[nH]6)C=C5)C=C4)cc2)o1
REMARK SMILES IDX 19 1 18 2 17 3 15 4 16 5 14 7 11 8 12 9 75 10 13 11 10 12
REMARK SMILES IDX 9 13 7 14 8 15 6 17 2 18 3 19 4 20 5 21 1 22 20 26 21 27
REMARK SMILES IDX 22 28 23 29 24 30 25 31 26 33 27 34 28 35 74 36 29 37 73 38
REMARK SMILES IDX 30 39 31 40 32 41 67 42 33 43 72 44 66 45 68 46 34 47 71 48
REMARK SMILES IDX 65 49 64 50 35 52 57 53 42 54 56 55 43 56 46 57 55 58 69 59
REMARK SMILES IDX 44 60 45 61 54 63 70 64 47 65 36 66 37 67 41 68 38 69 40 70
REMARK SMILES IDX 39 71 58 72 59 73 63 74 60 75 62 76 61 77 48 78 49 79 53 80
REMARK SMILES IDX 50 81 52 82 51 83
REMARK H PARENT 17 6 9 16 1 23 1 24 1 25 24 32 68 51 46 62
REMARK Flexibility Score: inf
ROOT
ATOM      1  C   UNL A   1      35.211  34.257  34.409  1.00  0.00     0.021 C 
ENDROOT
BRANCH   1   2
ATOM      2  C   UNL A   1      36.494  33.462  34.658  1.00  0.00     0.116 C 
BRANCH   2   3
ATOM      3  N   UNL A   1      36.520  32.255  33.863  1.00  0.00    -0.349 N 
ATOM      4  C   UNL A   1      37.416  31.213  33.802  1.00  0.00     0.286 C 
ATOM      5  O   UNL A   1      37.112  30.312  33.015  1.00  0.00    -0.266 OA
ATOM      6  H   UNL A   1      35.756  32.162  33.250  1.00  0.00     0.163 HD
BRANCH   4   7
ATOM      7  C   UNL A   1      38.614  31.165  34.623  1.00  0.00     0.191 A 
ATOM      8  C   UNL A   1      40.469  30.148  35.303  1.00  0.00     0.124 A 
ATOM      9  C   UNL A   1      40.348  31.287  36.068  1.00  0.00     0.048 A 
ATOM     10  O   UNL A   1      39.441  30.083  34.414  1.00  0.00    -0.454 OA
ATOM     11  C   UNL A   1      39.183  31.950  35.612  1.00  0.00     0.056 A 
BRANCH   8  12
ATOM     12  C   UNL A   1      41.426  29.011  35.281  1.00  0.00     0.191 C 
BRANCH  12  13
ATOM     13  N   UNL A   1      41.124  28.109  36.373  1.00  0.00    -0.348 N 
ATOM     14  C   UNL A   1      41.480  26.821  36.598  1.00  0.00     0.229 C 
ATOM     15  O   UNL A   1      40.825  26.220  37.460  1.00  0.00    -0.275 OA
ATOM     16  H   UNL A   1      40.562  28.502  37.079  1.00  0.00     0.163 HD
BRANCH  14  17
ATOM     17  C   UNL A   1      42.643  26.113  35.917  1.00  0.00     0.136 C 
ATOM     18  C   UNL A   1      42.774  24.589  36.030  1.00  0.00     0.193 C 
ATOM     19  C   UNL A   1      43.890  24.294  35.019  1.00  0.00     0.066 C 
ATOM     20  C   UNL A   1      43.722  25.316  33.891  1.00  0.00     0.007 C 
ATOM     21  C   UNL A   1      42.884  26.463  34.451  1.00  0.00     0.020 C 
BRANCH  18  22
ATOM     22  N   UNL A   1      41.603  23.790  35.703  1.00  0.00    -0.354 N 
ATOM     23  H   UNL A   1      41.338  23.228  36.511  1.00  0.00     0.344 HD
ATOM     24  H   UNL A   1      41.819  23.177  34.917  1.00  0.00     0.344 HD
ATOM     25  H   UNL A   1      40.831  24.408  35.450  1.00  0.00     0.344 HD
ENDBRANCH  18  22
ENDBRANCH  14  17
ENDBRANCH  12  13
ENDBRANCH   8  12
ENDBRANCH   4   7
ENDBRANCH   2   3
ENDBRANCH   1   2
BRANCH   1  26
ATOM     26  C   UNL A   1      35.275  35.141  33.155  1.00  0.00     0.002 C 
BRANCH  26  27
ATOM     27  C   UNL A   1      34.133  36.160  33.015  1.00  0.00     0.002 C 
BRANCH  27  28
ATOM     28  C   UNL A   1      33.069  35.811  31.970  1.00  0.00     0.021 C 
BRANCH  28  29
ATOM     29  C   UNL A   1      33.355  36.347  30.570  1.00  0.00     0.116 C 
BRANCH  29  30
ATOM     30  N   UNL A   1      32.706  35.551  29.541  1.00  0.00    -0.352 N 
ATOM     31  C   UNL A   1      33.202  34.507  28.801  1.00  0.00     0.251 C 
ATOM     32  H   UNL A   1      31.774  35.798  29.345  1.00  0.00     0.163 HD
ATOM     33  O   UNL A   1      32.578  34.093  27.829  1.00  0.00    -0.269 OA
BRANCH  31  34
ATOM     34  C   UNL A   1      34.495  33.887  29.162  1.00  0.00     0.039 A 
ATOM     35  C   UNL A   1      35.643  34.266  28.462  1.00  0.00     0.014 A 
ATOM     36  C   UNL A   1      34.571  32.914  30.162  1.00  0.00     0.014 A 
ATOM     37  C   UNL A   1      36.878  33.710  28.801  1.00  0.00     0.010 A 
ATOM     38  C   UNL A   1      35.811  32.405  30.542  1.00  0.00     0.010 A 
ATOM     39  C   UNL A   1      36.975  32.796  29.862  1.00  0.00    -0.014 A 
BRANCH  39  40
ATOM     40  C   UNL A   1      38.288  32.242  30.277  1.00  0.00     0.031 A 
ATOM     41  C   UNL A   1      38.765  30.925  29.731  1.00  0.00     0.074 A 
ATOM     42  C   UNL A   1      39.024  32.896  31.196  1.00  0.00     0.049 A 
ATOM     43  N   UNL A   1      39.860  30.263  30.012  1.00  0.00    -0.248 NA
ATOM     44  C   UNL A   1      37.888  30.253  28.759  1.00  0.00     0.031 C 
ATOM     45  C   UNL A   1      38.653  34.161  31.835  1.00  0.00     0.029 A 
ATOM     46  N   UNL A   1      40.235  32.581  31.759  1.00  0.00    -0.354 N 
ATOM     47  C   UNL A   1      39.793  29.092  29.268  1.00  0.00     0.074 A 
ATOM     48  C   UNL A   1      38.532  29.113  28.559  1.00  0.00     0.031 C 
ATOM     49  C   UNL A   1      39.628  34.526  32.682  1.00  0.00     0.029 A 
ATOM     50  C   UNL A   1      40.672  33.506  32.674  1.00  0.00     0.049 A 
ATOM     51  H   UNL A   1      40.742  31.769  31.528  1.00  0.00     0.167 HD
ATOM     52  C   UNL A   1      40.705  28.096  29.171  1.00  0.00     0.031 A 
ATOM     53  C   UNL A   1      41.788  33.532  33.426  1.00  0.00     0.031 A 
ATOM     54  C   UNL A   1      41.964  28.078  29.868  1.00  0.00     0.049 A 
ATOM     55  C   UNL A   1      42.783  32.413  33.304  1.00  0.00     0.074 A 
ATOM     56  C   UNL A   1      42.982  27.144  29.787  1.00  0.00     0.029 A 
ATOM     57  N   UNL A   1      42.372  29.039  30.779  1.00  0.00    -0.354 N 
ATOM     58  N   UNL A   1      42.739  31.348  32.543  1.00  0.00    -0.248 NA
ATOM     59  C   UNL A   1      43.989  32.508  34.138  1.00  0.00     0.031 C 
ATOM     60  C   UNL A   1      43.988  27.516  30.685  1.00  0.00     0.029 A 
ATOM     61  C   UNL A   1      43.618  28.707  31.287  1.00  0.00     0.049 A 
ATOM     62  H   UNL A   1      41.855  29.838  31.029  1.00  0.00     0.167 HD
ATOM     63  C   UNL A   1      43.917  30.657  32.789  1.00  0.00     0.074 A 
ATOM     64  C   UNL A   1      44.664  31.433  33.758  1.00  0.00     0.031 C 
ATOM     65  C   UNL A   1      44.345  29.486  32.257  1.00  0.00     0.031 A 
BRANCH  52  66
ATOM     66  C   UNL A   1      40.364  26.933  28.281  1.00  0.00    -0.014 A 
ATOM     67  C   UNL A   1      40.837  26.863  26.960  1.00  0.00     0.009 A 
ATOM     68  C   UNL A   1      39.579  25.880  28.776  1.00  0.00     0.009 A 
ATOM     69  C   UNL A   1      40.497  25.784  26.143  1.00  0.00     0.001 A 
ATOM     70  C   UNL A   1      39.264  24.788  27.965  1.00  0.00     0.001 A 
ATOM     71  C   UNL A   1      39.714  24.746  26.646  1.00  0.00     0.000 A 
ENDBRANCH  52  66
BRANCH  53  72
ATOM     72  C   UNL A   1      42.032  34.670  34.349  1.00  0.00    -0.014 A 
ATOM     73  C   UNL A   1      41.679  34.574  35.702  1.00  0.00     0.009 A 
ATOM     74  C   UNL A   1      42.630  35.851  33.882  1.00  0.00     0.009 A 
ATOM     75  C   UNL A   1      41.900  35.648  36.568  1.00  0.00     0.001 A 
ATOM     76  C   UNL A   1      42.873  36.913  34.757  1.00  0.00     0.001 A 
ATOM     77  C   UNL A   1      42.500  36.814  36.097  1.00  0.00     0.000 A 
ENDBRANCH  53  72
BRANCH  65  78
ATOM     78  C   UNL A   1      45.693  28.987  32.694  1.00  0.00    -0.014 A 
ATOM     79  C   UNL A   1      45.863  28.337  33.927  1.00  0.00     0.009 A 
ATOM     80  C   UNL A   1      46.798  29.138  31.844  1.00  0.00     0.009 A 
ATOM     81  C   UNL A   1      47.123  27.876  34.312  1.00  0.00     0.001 A 
ATOM     82  C   UNL A   1      48.052  28.652  32.221  1.00  0.00     0.001 A 
ATOM     83  C   UNL A   1      48.214  28.030  33.458  1.00  0.00     0.000 A 
ENDBRANCH  65  78
ENDBRANCH  39  40
ENDBRANCH  31  34
ENDBRANCH  29  30
ENDBRANCH  28  29
ENDBRANCH  27  28
ENDBRANCH  26  27
ENDBRANCH   1  26
TORSDOF 17
ENDMDL
MODEL 3
REMARK VINA RESULT:      -8.7      4.966     11.517
REMARK SMILES [NH3+][C@H]1CCC[C@H]1C(=O)NCc1ccc(C(=O)NCCCCCCNC(=O)c2ccc(-c3c4nc(c(-c5ccccc5)c5ccc([nH]5)c(-c5ccccc5)c5nc(c(-c6ccccc6)c6ccc3[nH]6)C=C5)C=C4)cc2)o1
REMARK SMILES IDX 19 1 18 2 17 3 15 4 16 5 14 7 11 8 12 9 75 10 13 11 10 12
REMARK SMILES IDX 9 13 7 14 8 15 6 17 2 18 3 19 4 20 5 21 1 22 20 26 21 27
REMARK SMILES IDX 22 28 23 29 24 30 25 31 26 33 27 34 28 35 74 36 29 37 73 38
REMARK SMILES IDX 30 39 31 40 32 41 67 42 33 43 72 44 66 45 68 46 34 47 71 48
REMARK SMILES IDX 65 49 64 50 35 52 57 53 42 54 56 55 43 56 46 57 55 58 69 59
REMARK SMILES IDX 44 60 45 61 54 63 70 64 47 65 36 66 37 67 41 68 38 69 40 70
REMARK SMILES IDX 39 71 58 72 59 73 63 74 60 75 62 76 61 77 48 78 49 79 53 80
REMARK SMILES IDX 50 81 52 82 51 83
REMARK H PARENT 17 6 9 16 1 23 1 24 1 25 24 32 68 51 46 62
REMARK Flexibility Score: inf
ROOT
ATOM      1  C   UNL A   1      33.126  22.298  23.806  1.00  0.00     0.021 C 
ENDROOT
BRANCH   1   2
ATOM      2  C   UNL A   1      31.711  22.852  23.977  1.00  0.00     0.116 C 
BRANCH   2   3
ATOM      3  N   UNL A   1      31.459  23.222  25.351  1.00  0.00    -0.349 N 
ATOM      4  C   UNL A   1      31.765  24.354  26.070  1.00  0.00     0.286 C 
ATOM      5  O   UNL A   1      31.370  24.349  27.240  1.00  0.00    -0.266 OA
ATOM      6  H   UNL A   1      30.979  22.536  25.869  1.00  0.00     0.163 HD
BRANCH   4   7
ATOM      7  C   UNL A   1      32.477  25.480  25.487  1.00  0.00     0.191 A 
ATOM      8  C   UNL A   1      32.531  27.298  24.210  1.00  0.00     0.124 A 
ATOM      9  C   UNL A   1      33.823  27.081  24.634  1.00  0.00     0.048 A 
ATOM     10  O   UNL A   1      31.711  26.351  24.742  1.00  0.00    -0.454 OA
ATOM     11  C   UNL A   1      33.782  25.941  25.473  1.00  0.00     0.056 A 
BRANCH   8  12
ATOM     12  C   UNL A   1      31.889  28.284  23.302  1.00  0.00     0.191 C 
BRANCH  12  13
ATOM     13  N   UNL A   1      30.501  27.921  23.104  1.00  0.00    -0.348 N 
ATOM     14  C   UNL A   1      29.376  28.673  23.055  1.00  0.00     0.229 C 
ATOM     15  O   UNL A   1      28.307  28.060  23.178  1.00  0.00    -0.275 OA
ATOM     16  H   UNL A   1      30.349  26.956  22.983  1.00  0.00     0.163 HD
BRANCH  14  17
ATOM     17  C   UNL A   1      29.348  30.174  22.803  1.00  0.00     0.136 C 
ATOM     18  C   UNL A   1      28.908  30.705  21.433  1.00  0.00     0.193 C 
ATOM     19  C   UNL A   1      28.789  32.211  21.705  1.00  0.00     0.066 C 
ATOM     20  C   UNL A   1      28.315  32.345  23.154  1.00  0.00     0.007 C 
ATOM     21  C   UNL A   1      28.632  31.023  23.850  1.00  0.00     0.020 C 
BRANCH  18  22
ATOM     22  N   UNL A   1      27.651  30.210  20.895  1.00  0.00    -0.354 N 
ATOM     23  H   UNL A   1      27.396  30.754  20.071  1.00  0.00     0.344 HD
ATOM     24  H   UNL A   1      26.921  30.299  21.602  1.00  0.00     0.344 HD
ATOM     25  H   UNL A   1      27.756  29.229  20.637  1.00  0.00     0.344 HD
ENDBRANCH  18  22
ENDBRANCH  14  17
ENDBRANCH  12  13
ENDBRANCH   8  12
ENDBRANCH   4   7
ENDBRANCH   2   3
ENDBRANCH   1   2
BRANCH   1  26
ATOM     26  C   UNL A   1      33.981  23.100  22.814  1.00  0.00     0.002 C 
BRANCH  26  27
ATOM     27  C   UNL A   1      35.427  23.363  23.261  1.00  0.00     0.002 C 
BRANCH  27  28
ATOM     28  C   UNL A   1      35.764  22.914  24.686  1.00  0.00     0.021 C 
BRANCH  28  29
ATOM     29  C   UNL A   1      36.971  23.614  25.303  1.00  0.00     0.116 C 
BRANCH  29  30
ATOM     30  N   UNL A   1      38.057  22.686  25.574  1.00  0.00    -0.352 N 
ATOM     31  C   UNL A   1      39.285  22.918  26.141  1.00  0.00     0.251 C 
ATOM     32  H   UNL A   1      37.887  21.753  25.310  1.00  0.00     0.163 HD
ATOM     33  O   UNL A   1      40.155  22.053  26.098  1.00  0.00    -0.269 OA
BRANCH  31  34
ATOM     34  C   UNL A   1      39.570  24.213  26.795  1.00  0.00     0.039 A 
ATOM     35  C   UNL A   1      39.128  24.419  28.104  1.00  0.00     0.014 A 
ATOM     36  C   UNL A   1      40.240  25.232  26.112  1.00  0.00     0.014 A 
ATOM     37  C   UNL A   1      39.404  25.626  28.749  1.00  0.00     0.010 A 
ATOM     38  C   UNL A   1      40.571  26.411  26.775  1.00  0.00     0.010 A 
ATOM     39  C   UNL A   1      40.152  26.621  28.098  1.00  0.00    -0.014 A 
BRANCH  39  40
ATOM     40  C   UNL A   1      40.510  27.884  28.789  1.00  0.00     0.031 A 
ATOM     41  C   UNL A   1      41.863  28.048  29.423  1.00  0.00     0.074 A 
ATOM     42  C   UNL A   1      39.592  28.863  28.900  1.00  0.00     0.049 A 
ATOM     43  N   UNL A   1      42.337  29.059  30.108  1.00  0.00    -0.248 NA
ATOM     44  C   UNL A   1      42.798  26.919  29.292  1.00  0.00     0.031 C 
ATOM     45  C   UNL A   1      38.229  28.812  28.365  1.00  0.00     0.029 A 
ATOM     46  N   UNL A   1      39.665  30.092  29.507  1.00  0.00    -0.354 N 
ATOM     47  C   UNL A   1      43.614  28.681  30.503  1.00  0.00     0.074 A 
ATOM     48  C   UNL A   1      43.824  27.333  30.020  1.00  0.00     0.031 C 
ATOM     49  C   UNL A   1      37.604  29.966  28.646  1.00  0.00     0.029 A 
ATOM     50  C   UNL A   1      38.506  30.822  29.411  1.00  0.00     0.049 A 
ATOM     51  H   UNL A   1      40.471  30.418  29.968  1.00  0.00     0.167 HD
ATOM     52  C   UNL A   1      44.535  29.397  31.191  1.00  0.00     0.031 A 
ATOM     53  C   UNL A   1      38.201  32.043  29.886  1.00  0.00     0.031 A 
ATOM     54  C   UNL A   1      44.331  30.741  31.663  1.00  0.00     0.049 A 
ATOM     55  C   UNL A   1      39.238  32.816  30.650  1.00  0.00     0.074 A 
ATOM     56  C   UNL A   1      45.226  31.571  32.314  1.00  0.00     0.029 A 
ATOM     57  N   UNL A   1      43.146  31.448  31.537  1.00  0.00    -0.354 N 
ATOM     58  N   UNL A   1      40.466  32.473  30.954  1.00  0.00    -0.248 NA
ATOM     59  C   UNL A   1      38.850  34.151  31.127  1.00  0.00     0.031 C 
ATOM     60  C   UNL A   1      44.567  32.766  32.624  1.00  0.00     0.029 A 
ATOM     61  C   UNL A   1      43.278  32.697  32.120  1.00  0.00     0.049 A 
ATOM     62  H   UNL A   1      42.331  31.113  31.098  1.00  0.00     0.167 HD
ATOM     63  C   UNL A   1      41.003  33.555  31.636  1.00  0.00     0.074 A 
ATOM     64  C   UNL A   1      39.974  34.573  31.688  1.00  0.00     0.031 C 
ATOM     65  C   UNL A   1      42.241  33.695  32.171  1.00  0.00     0.031 A 
BRANCH  52  66
ATOM     66  C   UNL A   1      45.850  28.727  31.483  1.00  0.00    -0.014 A 
ATOM     67  C   UNL A   1      46.059  28.025  32.681  1.00  0.00     0.009 A 
ATOM     68  C   UNL A   1      46.885  28.777  30.536  1.00  0.00     0.009 A 
ATOM     69  C   UNL A   1      47.291  27.423  32.943  1.00  0.00     0.001 A 
ATOM     70  C   UNL A   1      48.106  28.149  30.788  1.00  0.00     0.001 A 
ATOM     71  C   UNL A   1      48.313  27.483  31.995  1.00  0.00     0.000 A 
ENDBRANCH  52  66
BRANCH  53  72
ATOM     72  C   UNL A   1      36.856  32.620  29.634  1.00  0.00    -0.014 A 
ATOM     73  C   UNL A   1      35.840  32.497  30.593  1.00  0.00     0.009 A 
ATOM     74  C   UNL A   1      36.585  33.305  28.439  1.00  0.00     0.009 A 
ATOM     75  C   UNL A   1      34.572  33.031  30.352  1.00  0.00     0.001 A 
ATOM     76  C   UNL A   1      35.324  33.860  28.212  1.00  0.00     0.001 A 
ATOM     77  C   UNL A   1      34.316  33.716  29.165  1.00  0.00     0.000 A 
ENDBRANCH  53  72
BRANCH  65  78
ATOM     78  C   UNL A   1      42.556  35.006  32.835  1.00  0.00    -0.014 A 
ATOM     79  C   UNL A   1      42.154  35.267  34.154  1.00  0.00     0.009 A 
ATOM     80  C   UNL A   1      43.296  35.975  32.142  1.00  0.00     0.009 A 
ATOM     81  C   UNL A   1      42.461  36.489  34.755  1.00  0.00     0.001 A 
ATOM     82  C   UNL A   1      43.625  37.186  32.755  1.00  0.00     0.001 A 
ATOM     83  C   UNL A   1      43.200  37.445  34.057  1.00  0.00     0.000 A 
ENDBRANCH  65  78
ENDBRANCH  39  40
ENDBRANCH  31  34
ENDBRANCH  29  30
ENDBRANCH  28  29
ENDBRANCH  27  28
ENDBRANCH  26  27
ENDBRANCH   1  26
TORSDOF 17
ENDMDL
