MODEL 1
REMARK VINA RESULT:     -11.5      0.000      0.000
REMARK SMILES CCc1cc(C(=O)c2[nH]c3cc(Cl)ccc3c2CC(=O)NCCCCCCNC(=O)c2ccc(-c3c4nc(c(-c5ccccc5)c5ccc([nH]5)c(-c5ccccc5)c5nc(c(-c6ccccc6)c6ccc3[nH]6)C=C5)C=C4)cc2)ncc1Cl
REMARK SMILES IDX 23 1 22 2 21 3 19 4 20 5 18 7 17 8 8 9 9 10 10 11 16 13
REMARK SMILES IDX 11 14 15 15 12 16 14 17 13 18 6 19 7 20 5 21 3 22 4 23 81 24
REMARK SMILES IDX 80 25 82 26 79 27 2 28 1 29 24 30 25 31 26 32 27 33 28 34
REMARK SMILES IDX 29 35 30 37 31 38 32 39 78 40 33 41 77 42 34 43 35 44 36 45
REMARK SMILES IDX 71 46 37 47 76 48 70 49 72 50 38 51 75 52 69 53 68 54 39 56
REMARK SMILES IDX 61 57 46 58 60 59 47 60 50 61 59 62 73 63 48 64 49 65 58 67
REMARK SMILES IDX 74 68 51 69 40 70 41 71 45 72 42 73 44 74 43 75 62 76 63 77
REMARK SMILES IDX 67 78 64 79 66 80 65 81 52 82 53 83 57 84 54 85 56 86 55 87
REMARK H PARENT 21 6 9 12 28 36 72 55 50 66
REMARK Flexibility Score: inf
ROOT
ATOM      1  C   UNL A   1      35.881  23.600  25.754  1.00  0.00     0.021 C 
ENDROOT
BRANCH   1   2
ATOM      2  C   UNL A   1      34.970  24.570  25.001  1.00  0.00     0.116 C 
BRANCH   2   3
ATOM      3  N   UNL A   1      34.132  25.342  25.894  1.00  0.00    -0.356 N 
ATOM      4  C   UNL A   1      33.539  26.556  25.697  1.00  0.00     0.224 C 
ATOM      5  O   UNL A   1      32.790  26.987  26.579  1.00  0.00    -0.275 OA
ATOM      6  H   UNL A   1      33.964  24.931  26.773  1.00  0.00     0.163 HD
BRANCH   4   7
ATOM      7  C   UNL A   1      33.692  27.298  24.380  1.00  0.00     0.138 C 
BRANCH   7   8
ATOM      8  C   UNL A   1      32.429  27.466  23.583  1.00  0.00    -0.002 A 
ATOM      9  C   UNL A   1      31.969  26.669  22.540  1.00  0.00     0.093 A 
ATOM     10  N   UNL A   1      30.731  27.142  22.172  1.00  0.00    -0.351 N 
ATOM     11  C   UNL A   1      30.440  28.305  22.838  1.00  0.00     0.048 A 
ATOM     12  H   UNL A   1      30.137  26.706  21.520  1.00  0.00     0.167 HD
ATOM     13  C   UNL A   1      31.488  28.545  23.723  1.00  0.00     0.004 A 
ATOM     14  C   UNL A   1      29.326  29.150  22.731  1.00  0.00     0.047 A 
ATOM     15  C   UNL A   1      31.429  29.696  24.538  1.00  0.00     0.012 A 
ATOM     16  C   UNL A   1      29.296  30.280  23.552  1.00  0.00     0.043 A 
ATOM     17  C   UNL A   1      30.327  30.556  24.443  1.00  0.00     0.021 A 
ATOM     18  Cl  UNL A   1      27.950  31.350  23.458  1.00  0.00    -0.084 Cl
BRANCH   9  19
ATOM     19  C   UNL A   1      32.567  25.486  21.945  1.00  0.00     0.227 C 
ATOM     20  O   UNL A   1      33.229  25.567  20.915  1.00  0.00    -0.285 OA
BRANCH  19  21
ATOM     21  C   UNL A   1      32.402  24.161  22.658  1.00  0.00     0.113 A 
ATOM     22  C   UNL A   1      31.579  22.782  24.481  1.00  0.00    -0.026 A 
ATOM     23  C   UNL A   1      31.664  24.033  23.838  1.00  0.00     0.037 A 
ATOM     24  C   UNL A   1      32.225  21.693  23.886  1.00  0.00     0.062 A 
ATOM     25  C   UNL A   1      32.930  21.906  22.709  1.00  0.00     0.132 A 
ATOM     26  Cl  UNL A   1      32.181  20.105  24.551  1.00  0.00    -0.082 Cl
ATOM     27  N   UNL A   1      33.043  23.107  22.095  1.00  0.00    -0.251 NA
BRANCH  22  28
ATOM     28  C   UNL A   1      30.829  22.679  25.787  1.00  0.00     0.034 C 
ATOM     29  C   UNL A   1      31.726  22.948  26.989  1.00  0.00     0.009 C 
ENDBRANCH  22  28
ENDBRANCH  19  21
ENDBRANCH   9  19
ENDBRANCH   7   8
ENDBRANCH   4   7
ENDBRANCH   2   3
ENDBRANCH   1   2
BRANCH   1  30
ATOM     30  C   UNL A   1      35.396  22.143  25.767  1.00  0.00     0.002 C 
BRANCH  30  31
ATOM     31  C   UNL A   1      35.886  21.265  24.610  1.00  0.00     0.002 C 
BRANCH  31  32
ATOM     32  C   UNL A   1      36.954  20.224  24.966  1.00  0.00     0.021 C 
BRANCH  32  33
ATOM     33  C   UNL A   1      38.315  20.788  25.366  1.00  0.00     0.116 C 
BRANCH  33  34
ATOM     34  N   UNL A   1      39.319  19.751  25.539  1.00  0.00    -0.352 N 
ATOM     35  C   UNL A   1      40.603  19.845  26.019  1.00  0.00     0.251 C 
ATOM     36  H   UNL A   1      39.038  18.847  25.271  1.00  0.00     0.163 HD
ATOM     37  O   UNL A   1      41.354  18.878  25.951  1.00  0.00    -0.269 OA
BRANCH  35  38
ATOM     38  C   UNL A   1      41.101  21.113  26.602  1.00  0.00     0.039 A 
ATOM     39  C   UNL A   1      41.636  22.079  25.741  1.00  0.00     0.014 A 
ATOM     40  C   UNL A   1      41.091  21.337  27.982  1.00  0.00     0.014 A 
ATOM     41  C   UNL A   1      42.110  23.288  26.257  1.00  0.00     0.010 A 
ATOM     42  C   UNL A   1      41.527  22.560  28.491  1.00  0.00     0.010 A 
ATOM     43  C   UNL A   1      42.040  23.546  27.634  1.00  0.00    -0.014 A 
BRANCH  43  44
ATOM     44  C   UNL A   1      42.497  24.842  28.195  1.00  0.00     0.031 A 
ATOM     45  C   UNL A   1      41.511  25.940  28.472  1.00  0.00     0.074 A 
ATOM     46  C   UNL A   1      43.811  25.053  28.402  1.00  0.00     0.049 A 
ATOM     47  N   UNL A   1      41.732  27.161  28.888  1.00  0.00    -0.248 NA
ATOM     48  C   UNL A   1      40.093  25.630  28.235  1.00  0.00     0.031 C 
ATOM     49  C   UNL A   1      44.877  24.081  28.153  1.00  0.00     0.029 A 
ATOM     50  N   UNL A   1      44.471  26.164  28.862  1.00  0.00    -0.354 N 
ATOM     51  C   UNL A   1      40.488  27.774  28.938  1.00  0.00     0.074 A 
ATOM     52  C   UNL A   1      39.517  26.796  28.493  1.00  0.00     0.031 C 
ATOM     53  C   UNL A   1      46.057  24.635  28.477  1.00  0.00     0.029 A 
ATOM     54  C   UNL A   1      45.833  26.004  28.928  1.00  0.00     0.049 A 
ATOM     55  H   UNL A   1      44.012  26.997  29.120  1.00  0.00     0.167 HD
ATOM     56  C   UNL A   1      40.177  29.034  29.325  1.00  0.00     0.031 A 
ATOM     57  C   UNL A   1      46.795  26.866  29.305  1.00  0.00     0.031 A 
ATOM     58  C   UNL A   1      41.129  30.006  29.790  1.00  0.00     0.049 A 
ATOM     59  C   UNL A   1      46.425  28.254  29.742  1.00  0.00     0.074 A 
ATOM     60  C   UNL A   1      40.897  31.290  30.252  1.00  0.00     0.029 A 
ATOM     61  N   UNL A   1      42.497  29.798  29.857  1.00  0.00    -0.354 N 
ATOM     62  N   UNL A   1      45.239  28.805  29.814  1.00  0.00    -0.248 NA
ATOM     63  C   UNL A   1      47.529  29.134  30.151  1.00  0.00     0.031 C 
ATOM     64  C   UNL A   1      42.129  31.868  30.577  1.00  0.00     0.029 A 
ATOM     65  C   UNL A   1      43.123  30.934  30.341  1.00  0.00     0.049 A 
ATOM     66  H   UNL A   1      42.955  28.966  29.599  1.00  0.00     0.167 HD
ATOM     67  C   UNL A   1      45.451  30.090  30.292  1.00  0.00     0.074 A 
ATOM     68  C   UNL A   1      46.877  30.235  30.498  1.00  0.00     0.031 C 
ATOM     69  C   UNL A   1      44.542  31.064  30.539  1.00  0.00     0.031 A 
BRANCH  56  70
ATOM     70  C   UNL A   1      38.735  29.435  29.247  1.00  0.00    -0.014 A 
ATOM     71  C   UNL A   1      37.892  29.323  30.363  1.00  0.00     0.009 A 
ATOM     72  C   UNL A   1      38.218  29.949  28.047  1.00  0.00     0.009 A 
ATOM     73  C   UNL A   1      36.549  29.690  30.270  1.00  0.00     0.001 A 
ATOM     74  C   UNL A   1      36.878  30.332  27.964  1.00  0.00     0.001 A 
ATOM     75  C   UNL A   1      36.043  30.196  29.073  1.00  0.00     0.000 A 
ENDBRANCH  56  70
BRANCH  57  76
ATOM     76  C   UNL A   1      48.213  26.433  29.299  1.00  0.00    -0.014 A 
ATOM     77  C   UNL A   1      48.768  25.822  30.434  1.00  0.00     0.009 A 
ATOM     78  C   UNL A   1      49.013  26.621  28.162  1.00  0.00     0.009 A 
ATOM     79  C   UNL A   1      50.105  25.420  30.434  1.00  0.00     0.001 A 
ATOM     80  C   UNL A   1      50.344  26.204  28.161  1.00  0.00     0.001 A 
ATOM     81  C   UNL A   1      50.890  25.609  29.298  1.00  0.00     0.000 A 
ENDBRANCH  57  76
BRANCH  69  82
ATOM     82  C   UNL A   1      45.064  32.360  31.080  1.00  0.00    -0.014 A 
ATOM     83  C   UNL A   1      45.421  33.408  30.217  1.00  0.00     0.009 A 
ATOM     84  C   UNL A   1      45.171  32.546  32.466  1.00  0.00     0.009 A 
ATOM     85  C   UNL A   1      45.898  34.613  30.736  1.00  0.00     0.001 A 
ATOM     86  C   UNL A   1      45.634  33.757  32.980  1.00  0.00     0.001 A 
ATOM     87  C   UNL A   1      46.002  34.787  32.115  1.00  0.00     0.000 A 
ENDBRANCH  69  82
ENDBRANCH  43  44
ENDBRANCH  35  38
ENDBRANCH  33  34
ENDBRANCH  32  33
ENDBRANCH  31  32
ENDBRANCH  30  31
ENDBRANCH   1  30
TORSDOF 17
ENDMDL
MODEL 2
REMARK VINA RESULT:     -11.3      3.068      8.680
REMARK SMILES CCc1cc(C(=O)c2[nH]c3cc(Cl)ccc3c2CC(=O)NCCCCCCNC(=O)c2ccc(-c3c4nc(c(-c5ccccc5)c5ccc([nH]5)c(-c5ccccc5)c5nc(c(-c6ccccc6)c6ccc3[nH]6)C=C5)C=C4)cc2)ncc1Cl
REMARK SMILES IDX 23 1 22 2 21 3 19 4 20 5 18 7 17 8 8 9 9 10 10 11 16 13
REMARK SMILES IDX 11 14 15 15 12 16 14 17 13 18 6 19 7 20 5 21 3 22 4 23 81 24
REMARK SMILES IDX 80 25 82 26 79 27 2 28 1 29 24 30 25 31 26 32 27 33 28 34
REMARK SMILES IDX 29 35 30 37 31 38 32 39 78 40 33 41 77 42 34 43 35 44 36 45
REMARK SMILES IDX 71 46 37 47 76 48 70 49 72 50 38 51 75 52 69 53 68 54 39 56
REMARK SMILES IDX 61 57 46 58 60 59 47 60 50 61 59 62 73 63 48 64 49 65 58 67
REMARK SMILES IDX 74 68 51 69 40 70 41 71 45 72 42 73 44 74 43 75 62 76 63 77
REMARK SMILES IDX 67 78 64 79 66 80 65 81 52 82 53 83 57 84 54 85 56 86 55 87
REMARK H PARENT 21 6 9 12 28 36 72 55 50 66
REMARK Flexibility Score: inf
ROOT
ATOM      1  C   UNL A   1      33.675  28.155  25.986  1.00  0.00     0.021 C 
ENDROOT
BRANCH   1   2
ATOM      2  C   UNL A   1      33.478  26.642  26.075  1.00  0.00     0.116 C 
BRANCH   2   3
ATOM      3  N   UNL A   1      34.305  25.924  25.127  1.00  0.00    -0.356 N 
ATOM      4  C   UNL A   1      34.710  24.620  25.141  1.00  0.00     0.224 C 
ATOM      5  O   UNL A   1      35.349  24.200  24.172  1.00  0.00    -0.275 OA
ATOM      6  H   UNL A   1      34.620  26.453  24.359  1.00  0.00     0.163 HD
BRANCH   4   7
ATOM      7  C   UNL A   1      34.282  23.678  26.253  1.00  0.00     0.138 C 
BRANCH   7   8
ATOM      8  C   UNL A   1      33.422  22.522  25.825  1.00  0.00    -0.002 A 
ATOM      9  C   UNL A   1      32.033  22.457  25.809  1.00  0.00     0.093 A 
ATOM     10  N   UNL A   1      31.681  21.246  25.257  1.00  0.00    -0.351 N 
ATOM     11  C   UNL A   1      32.792  20.467  25.054  1.00  0.00     0.048 A 
ATOM     12  H   UNL A   1      30.760  20.977  25.039  1.00  0.00     0.167 HD
ATOM     13  C   UNL A   1      33.900  21.231  25.410  1.00  0.00     0.004 A 
ATOM     14  C   UNL A   1      32.895  19.155  24.572  1.00  0.00     0.047 A 
ATOM     15  C   UNL A   1      35.181  20.651  25.291  1.00  0.00     0.012 A 
ATOM     16  C   UNL A   1      34.177  18.609  24.464  1.00  0.00     0.043 A 
ATOM     17  C   UNL A   1      35.306  19.339  24.816  1.00  0.00     0.021 A 
ATOM     18  Cl  UNL A   1      34.358  17.000  23.878  1.00  0.00    -0.084 Cl
BRANCH   9  19
ATOM     19  C   UNL A   1      31.052  23.458  26.193  1.00  0.00     0.227 C 
ATOM     20  O   UNL A   1      30.505  23.412  27.290  1.00  0.00    -0.285 OA
BRANCH  19  21
ATOM     21  C   UNL A   1      30.768  24.592  25.231  1.00  0.00     0.113 A 
ATOM     22  C   UNL A   1      31.029  25.726  23.099  1.00  0.00    -0.026 A 
ATOM     23  C   UNL A   1      31.295  24.624  23.936  1.00  0.00     0.037 A 
ATOM     24  C   UNL A   1      30.212  26.746  23.595  1.00  0.00     0.062 A 
ATOM     25  C   UNL A   1      29.723  26.630  24.889  1.00  0.00     0.132 A 
ATOM     26  Cl  UNL A   1      29.786  28.135  22.669  1.00  0.00    -0.082 Cl
ATOM     27  N   UNL A   1      29.991  25.592  25.715  1.00  0.00    -0.251 NA
BRANCH  22  28
ATOM     28  C   UNL A   1      31.659  25.771  21.727  1.00  0.00     0.034 C 
ATOM     29  C   UNL A   1      33.139  26.129  21.784  1.00  0.00     0.009 C 
ENDBRANCH  22  28
ENDBRANCH  19  21
ENDBRANCH   9  19
ENDBRANCH   7   8
ENDBRANCH   4   7
ENDBRANCH   2   3
ENDBRANCH   1   2
BRANCH   1  30
ATOM     30  C   UNL A   1      34.185  28.813  27.276  1.00  0.00     0.002 C 
BRANCH  30  31
ATOM     31  C   UNL A   1      34.317  30.340  27.242  1.00  0.00     0.002 C 
BRANCH  31  32
ATOM     32  C   UNL A   1      33.049  31.128  27.590  1.00  0.00     0.021 C 
BRANCH  32  33
ATOM     33  C   UNL A   1      32.749  32.325  26.689  1.00  0.00     0.116 C 
BRANCH  33  34
ATOM     34  N   UNL A   1      32.417  33.522  27.443  1.00  0.00    -0.352 N 
ATOM     35  C   UNL A   1      33.090  34.119  28.481  1.00  0.00     0.251 C 
ATOM     36  H   UNL A   1      31.585  33.972  27.170  1.00  0.00     0.163 HD
ATOM     37  O   UNL A   1      32.573  35.049  29.092  1.00  0.00    -0.269 OA
BRANCH  35  38
ATOM     38  C   UNL A   1      34.431  33.639  28.889  1.00  0.00     0.039 A 
ATOM     39  C   UNL A   1      34.551  32.933  30.092  1.00  0.00     0.014 A 
ATOM     40  C   UNL A   1      35.570  33.916  28.127  1.00  0.00     0.014 A 
ATOM     41  C   UNL A   1      35.800  32.461  30.504  1.00  0.00     0.010 A 
ATOM     42  C   UNL A   1      36.809  33.409  28.518  1.00  0.00     0.010 A 
ATOM     43  C   UNL A   1      36.935  32.677  29.710  1.00  0.00    -0.014 A 
BRANCH  43  44
ATOM     44  C   UNL A   1      38.261  32.145  30.109  1.00  0.00     0.031 A 
ATOM     45  C   UNL A   1      38.747  30.832  29.567  1.00  0.00     0.074 A 
ATOM     46  C   UNL A   1      39.008  32.817  31.005  1.00  0.00     0.049 A 
ATOM     47  N   UNL A   1      39.840  30.172  29.859  1.00  0.00    -0.248 NA
ATOM     48  C   UNL A   1      37.884  30.163  28.582  1.00  0.00     0.031 C 
ATOM     49  C   UNL A   1      38.646  34.092  31.627  1.00  0.00     0.029 A 
ATOM     50  N   UNL A   1      40.228  32.511  31.555  1.00  0.00    -0.354 N 
ATOM     51  C   UNL A   1      39.784  29.002  29.115  1.00  0.00     0.074 A 
ATOM     52  C   UNL A   1      38.542  29.032  28.372  1.00  0.00     0.031 C 
ATOM     53  C   UNL A   1      39.628  34.465  32.463  1.00  0.00     0.029 A 
ATOM     54  C   UNL A   1      40.673  33.446  32.456  1.00  0.00     0.049 A 
ATOM     55  H   UNL A   1      40.734  31.698  31.326  1.00  0.00     0.167 HD
ATOM     56  C   UNL A   1      40.687  27.994  29.050  1.00  0.00     0.031 A 
ATOM     57  C   UNL A   1      41.795  33.477  33.198  1.00  0.00     0.031 A 
ATOM     58  C   UNL A   1      41.934  27.964  29.765  1.00  0.00     0.049 A 
ATOM     59  C   UNL A   1      42.787  32.355  33.099  1.00  0.00     0.074 A 
ATOM     60  C   UNL A   1      42.934  27.007  29.718  1.00  0.00     0.029 A 
ATOM     61  N   UNL A   1      42.354  28.939  30.655  1.00  0.00    -0.354 N 
ATOM     62  N   UNL A   1      42.733  31.271  32.365  1.00  0.00    -0.248 NA
ATOM     63  C   UNL A   1      43.995  32.464  33.930  1.00  0.00     0.031 C 
ATOM     64  C   UNL A   1      43.950  27.393  30.600  1.00  0.00     0.029 A 
ATOM     65  C   UNL A   1      43.593  28.602  31.173  1.00  0.00     0.049 A 
ATOM     66  H   UNL A   1      41.847  29.751  30.884  1.00  0.00     0.167 HD
ATOM     67  C   UNL A   1      43.905  30.578  32.632  1.00  0.00     0.074 A 
ATOM     68  C   UNL A   1      44.653  31.365  33.591  1.00  0.00     0.031 C 
ATOM     69  C   UNL A   1      44.323  29.393  32.126  1.00  0.00     0.031 A 
BRANCH  56  70
ATOM     70  C   UNL A   1      40.344  26.827  28.173  1.00  0.00    -0.014 A 
ATOM     71  C   UNL A   1      40.844  26.733  26.866  1.00  0.00     0.009 A 
ATOM     72  C   UNL A   1      39.525  25.800  28.668  1.00  0.00     0.009 A 
ATOM     73  C   UNL A   1      40.506  25.646  26.059  1.00  0.00     0.001 A 
ATOM     74  C   UNL A   1      39.204  24.705  27.864  1.00  0.00     0.001 A 
ATOM     75  C   UNL A   1      39.688  24.633  26.559  1.00  0.00     0.000 A 
ENDBRANCH  56  70
BRANCH  57  76
ATOM     76  C   UNL A   1      42.050  34.628  34.097  1.00  0.00    -0.014 A 
ATOM     77  C   UNL A   1      41.674  34.563  35.447  1.00  0.00     0.009 A 
ATOM     78  C   UNL A   1      42.673  35.788  33.615  1.00  0.00     0.009 A 
ATOM     79  C   UNL A   1      41.906  35.647  36.295  1.00  0.00     0.001 A 
ATOM     80  C   UNL A   1      42.917  36.864  34.469  1.00  0.00     0.001 A 
ATOM     81  C   UNL A   1      42.529  36.794  35.807  1.00  0.00     0.000 A 
ENDBRANCH  57  76
BRANCH  69  82
ATOM     82  C   UNL A   1      45.659  28.891  32.584  1.00  0.00    -0.014 A 
ATOM     83  C   UNL A   1      45.768  28.060  33.710  1.00  0.00     0.009 A 
ATOM     84  C   UNL A   1      46.815  29.229  31.866  1.00  0.00     0.009 A 
ATOM     85  C   UNL A   1      47.018  27.594  34.120  1.00  0.00     0.001 A 
ATOM     86  C   UNL A   1      48.061  28.750  32.271  1.00  0.00     0.001 A 
ATOM     87  C   UNL A   1      48.162  27.937  33.400  1.00  0.00     0.000 A 
ENDBRANCH  69  82
ENDBRANCH  43  44
ENDBRANCH  35  38
ENDBRANCH  33  34
ENDBRANCH  32  33
ENDBRANCH  31  32
ENDBRANCH  30  31
ENDBRANCH   1  30
TORSDOF 17
ENDMDL
MODEL 3
REMARK VINA RESULT:     -11.2      1.150      3.918
REMARK SMILES CCc1cc(C(=O)c2[nH]c3cc(Cl)ccc3c2CC(=O)NCCCCCCNC(=O)c2ccc(-c3c4nc(c(-c5ccccc5)c5ccc([nH]5)c(-c5ccccc5)c5nc(c(-c6ccccc6)c6ccc3[nH]6)C=C5)C=C4)cc2)ncc1Cl
REMARK SMILES IDX 23 1 22 2 21 3 19 4 20 5 18 7 17 8 8 9 9 10 10 11 16 13
REMARK SMILES IDX 11 14 15 15 12 16 14 17 13 18 6 19 7 20 5 21 3 22 4 23 81 24
REMARK SMILES IDX 80 25 82 26 79 27 2 28 1 29 24 30 25 31 26 32 27 33 28 34
REMARK SMILES IDX 29 35 30 37 31 38 32 39 78 40 33 41 77 42 34 43 35 44 36 45
REMARK SMILES IDX 71 46 37 47 76 48 70 49 72 50 38 51 75 52 69 53 68 54 39 56
REMARK SMILES IDX 61 57 46 58 60 59 47 60 50 61 59 62 73 63 48 64 49 65 58 67
REMARK SMILES IDX 74 68 51 69 40 70 41 71 45 72 42 73 44 74 43 75 62 76 63 77
REMARK SMILES IDX 67 78 64 79 66 80 65 81 52 82 53 83 57 84 54 85 56 86 55 87
REMARK H PARENT 21 6 9 12 28 36 72 55 50 66
REMARK Flexibility Score: inf
ROOT
ATOM      1  C   UNL A   1      35.947  22.813  24.943  1.00  0.00     0.021 C 
ENDROOT
BRANCH   1   2
ATOM      2  C   UNL A   1      35.333  23.873  25.857  1.00  0.00     0.116 C 
BRANCH   2   3
ATOM      3  N   UNL A   1      34.500  23.292  26.890  1.00  0.00    -0.356 N 
ATOM      4  C   UNL A   1      33.152  23.398  27.082  1.00  0.00     0.224 C 
ATOM      5  O   UNL A   1      32.642  22.739  27.992  1.00  0.00    -0.275 OA
ATOM      6  H   UNL A   1      34.976  22.738  27.551  1.00  0.00     0.163 HD
BRANCH   4   7
ATOM      7  C   UNL A   1      32.286  24.202  26.127  1.00  0.00     0.138 C 
BRANCH   7   8
ATOM      8  C   UNL A   1      32.242  23.696  24.713  1.00  0.00    -0.002 A 
ATOM      9  C   UNL A   1      32.162  24.445  23.544  1.00  0.00     0.093 A 
ATOM     10  N   UNL A   1      32.240  23.571  22.485  1.00  0.00    -0.351 N 
ATOM     11  C   UNL A   1      32.218  22.272  22.928  1.00  0.00     0.048 A 
ATOM     12  H   UNL A   1      32.303  23.840  21.541  1.00  0.00     0.167 HD
ATOM     13  C   UNL A   1      32.207  22.314  24.320  1.00  0.00     0.004 A 
ATOM     14  C   UNL A   1      32.219  21.074  22.201  1.00  0.00     0.047 A 
ATOM     15  C   UNL A   1      32.185  21.092  25.026  1.00  0.00     0.012 A 
ATOM     16  C   UNL A   1      32.199  19.881  22.930  1.00  0.00     0.043 A 
ATOM     17  C   UNL A   1      32.181  19.883  24.320  1.00  0.00     0.021 A 
ATOM     18  Cl  UNL A   1      32.199  18.381  22.085  1.00  0.00    -0.084 Cl
BRANCH   9  19
ATOM     19  C   UNL A   1      32.098  25.887  23.369  1.00  0.00     0.227 C 
ATOM     20  O   UNL A   1      33.119  26.542  23.188  1.00  0.00    -0.285 OA
BRANCH  19  21
ATOM     21  C   UNL A   1      30.738  26.550  23.356  1.00  0.00     0.113 A 
ATOM     22  C   UNL A   1      29.254  28.417  22.894  1.00  0.00    -0.026 A 
ATOM     23  C   UNL A   1      30.536  27.834  22.842  1.00  0.00     0.037 A 
ATOM     24  C   UNL A   1      28.211  27.663  23.442  1.00  0.00     0.062 A 
ATOM     25  C   UNL A   1      28.497  26.391  23.922  1.00  0.00     0.132 A 
ATOM     26  Cl  UNL A   1      26.593  28.243  23.543  1.00  0.00    -0.082 Cl
ATOM     27  N   UNL A   1      29.728  25.829  23.904  1.00  0.00    -0.251 NA
BRANCH  22  28
ATOM     28  C   UNL A   1      29.071  29.829  22.391  1.00  0.00     0.034 C 
ATOM     29  C   UNL A   1      29.149  30.856  23.515  1.00  0.00     0.009 C 
ENDBRANCH  22  28
ENDBRANCH  19  21
ENDBRANCH   9  19
ENDBRANCH   7   8
ENDBRANCH   4   7
ENDBRANCH   2   3
ENDBRANCH   1   2
BRANCH   1  30
ATOM     30  C   UNL A   1      36.464  21.562  25.667  1.00  0.00     0.002 C 
BRANCH  30  31
ATOM     31  C   UNL A   1      36.477  20.269  24.843  1.00  0.00     0.002 C 
BRANCH  31  32
ATOM     32  C   UNL A   1      37.774  19.452  24.901  1.00  0.00     0.021 C 
BRANCH  32  33
ATOM     33  C   UNL A   1      38.924  20.096  25.672  1.00  0.00     0.116 C 
BRANCH  33  34
ATOM     34  N   UNL A   1      40.102  19.247  25.731  1.00  0.00    -0.352 N 
ATOM     35  C   UNL A   1      41.397  19.565  26.059  1.00  0.00     0.251 C 
ATOM     36  H   UNL A   1      39.948  18.302  25.499  1.00  0.00     0.163 HD
ATOM     37  O   UNL A   1      42.288  18.736  25.908  1.00  0.00    -0.269 OA
BRANCH  35  38
ATOM     38  C   UNL A   1      41.737  20.910  26.577  1.00  0.00     0.039 A 
ATOM     39  C   UNL A   1      41.644  21.139  27.955  1.00  0.00     0.014 A 
ATOM     40  C   UNL A   1      42.097  21.955  25.720  1.00  0.00     0.014 A 
ATOM     41  C   UNL A   1      41.962  22.395  28.478  1.00  0.00     0.010 A 
ATOM     42  C   UNL A   1      42.454  23.196  26.247  1.00  0.00     0.010 A 
ATOM     43  C   UNL A   1      42.390  23.427  27.630  1.00  0.00    -0.014 A 
BRANCH  43  44
ATOM     44  C   UNL A   1      42.775  24.753  28.173  1.00  0.00     0.031 A 
ATOM     45  C   UNL A   1      41.734  25.810  28.405  1.00  0.00     0.074 A 
ATOM     46  C   UNL A   1      44.073  25.028  28.404  1.00  0.00     0.049 A 
ATOM     47  N   UNL A   1      41.890  27.049  28.799  1.00  0.00    -0.248 NA
ATOM     48  C   UNL A   1      40.338  25.431  28.143  1.00  0.00     0.031 C 
ATOM     49  C   UNL A   1      45.187  24.101  28.200  1.00  0.00     0.029 A 
ATOM     50  N   UNL A   1      44.671  26.178  28.856  1.00  0.00    -0.354 N 
ATOM     51  C   UNL A   1      40.619  27.605  28.808  1.00  0.00     0.074 A 
ATOM     52  C   UNL A   1      39.703  26.575  28.363  1.00  0.00     0.031 C 
ATOM     53  C   UNL A   1      46.333  24.715  28.538  1.00  0.00     0.029 A 
ATOM     54  C   UNL A   1      46.037  26.082  28.955  1.00  0.00     0.049 A 
ATOM     55  H   UNL A   1      44.169  26.994  29.085  1.00  0.00     0.167 HD
ATOM     56  C   UNL A   1      40.242  28.857  29.161  1.00  0.00     0.031 A 
ATOM     57  C   UNL A   1      46.950  26.994  29.335  1.00  0.00     0.031 A 
ATOM     58  C   UNL A   1      41.138  29.881  29.627  1.00  0.00     0.049 A 
ATOM     59  C   UNL A   1      46.508  28.372  29.734  1.00  0.00     0.074 A 
ATOM     60  C   UNL A   1      40.837  31.162  30.056  1.00  0.00     0.029 A 
ATOM     61  N   UNL A   1      42.512  29.737  29.728  1.00  0.00    -0.354 N 
ATOM     62  N   UNL A   1      45.297  28.870  29.768  1.00  0.00    -0.248 NA
ATOM     63  C   UNL A   1      47.561  29.311  30.148  1.00  0.00     0.031 C 
ATOM     64  C   UNL A   1      42.034  31.803  30.395  1.00  0.00     0.029 A 
ATOM     65  C   UNL A   1      43.074  30.910  30.202  1.00  0.00     0.049 A 
ATOM     66  H   UNL A   1      43.013  28.922  29.498  1.00  0.00     0.167 HD
ATOM     67  C   UNL A   1      45.439  30.173  30.223  1.00  0.00     0.074 A 
ATOM     68  C   UNL A   1      46.852  30.387  30.457  1.00  0.00     0.031 C 
ATOM     69  C   UNL A   1      44.481  31.109  30.428  1.00  0.00     0.031 A 
BRANCH  56  70
ATOM     70  C   UNL A   1      38.785  29.190  29.042  1.00  0.00    -0.014 A 
ATOM     71  C   UNL A   1      37.918  29.044  30.136  1.00  0.00     0.009 A 
ATOM     72  C   UNL A   1      38.277  29.674  27.826  1.00  0.00     0.009 A 
ATOM     73  C   UNL A   1      36.563  29.348  30.005  1.00  0.00     0.001 A 
ATOM     74  C   UNL A   1      36.924  29.993  27.705  1.00  0.00     0.001 A 
ATOM     75  C   UNL A   1      36.067  29.824  28.792  1.00  0.00     0.000 A 
ENDBRANCH  56  70
BRANCH  57  76
ATOM     76  C   UNL A   1      48.386  26.627  29.370  1.00  0.00    -0.014 A 
ATOM     77  C   UNL A   1      49.232  26.992  28.313  1.00  0.00     0.009 A 
ATOM     78  C   UNL A   1      48.916  25.918  30.459  1.00  0.00     0.009 A 
ATOM     79  C   UNL A   1      50.583  26.642  28.340  1.00  0.00     0.001 A 
ATOM     80  C   UNL A   1      50.270  25.583  30.489  1.00  0.00     0.001 A 
ATOM     81  C   UNL A   1      51.101  25.940  29.428  1.00  0.00     0.000 A 
ENDBRANCH  57  76
BRANCH  69  82
ATOM     82  C   UNL A   1      44.931  32.439  30.953  1.00  0.00    -0.014 A 
ATOM     83  C   UNL A   1      45.094  32.651  32.330  1.00  0.00     0.009 A 
ATOM     84  C   UNL A   1      45.223  33.479  30.059  1.00  0.00     0.009 A 
ATOM     85  C   UNL A   1      45.521  33.893  32.803  1.00  0.00     0.001 A 
ATOM     86  C   UNL A   1      45.664  34.714  30.534  1.00  0.00     0.001 A 
ATOM     87  C   UNL A   1      45.808  34.922  31.906  1.00  0.00     0.000 A 
ENDBRANCH  69  82
ENDBRANCH  43  44
ENDBRANCH  35  38
ENDBRANCH  33  34
ENDBRANCH  32  33
ENDBRANCH  31  32
ENDBRANCH  30  31
ENDBRANCH   1  30
TORSDOF 17
ENDMDL
