MODEL 1
REMARK VINA RESULT:      -8.9      0.000      0.000
REMARK SMILES C[C@H](C[N@@H+](C)[C@@H](C)[C@@H](C)O)C(=O)NCCCCCCNC(=O)c1ccc(-c2c3nc(c(-c4ccccc4)c4ccc([nH]4)c(-c4ccccc4)c4nc(c(-c5ccccc5)c5ccc2[nH]5)C=C4)C=C3)cc1
REMARK SMILES IDX 15 1 14 2 13 3 11 4 12 5 2 7 1 8 3 9 4 10 5 11 6 13 7 14
REMARK SMILES IDX 8 15 9 16 10 17 16 19 17 20 18 21 19 22 20 23 21 24 22 26
REMARK SMILES IDX 23 27 24 28 70 29 25 30 69 31 26 32 27 33 28 34 63 35 29 36
REMARK SMILES IDX 68 37 62 38 64 39 30 40 67 41 61 42 60 43 31 45 53 46 38 47
REMARK SMILES IDX 52 48 39 49 42 50 51 51 65 52 40 53 41 54 50 56 66 57 43 58
REMARK SMILES IDX 32 59 33 60 37 61 34 62 36 63 35 64 54 65 55 66 59 67 56 68
REMARK SMILES IDX 58 69 57 70 44 71 45 72 49 73 46 74 48 75 47 76
REMARK H PARENT 13 6 4 12 10 18 20 25 64 44 42 55
REMARK Flexibility Score: inf
ROOT
ATOM      1  C   UNL A   1      32.007  27.244  22.379  1.00  0.00     0.021 C 
ENDROOT
BRANCH   1   2
ATOM      2  C   UNL A   1      32.078  25.727  22.038  1.00  0.00     0.116 C 
BRANCH   2   3
ATOM      3  N   UNL A   1      33.254  24.842  22.499  1.00  0.00    -0.356 N 
ATOM      4  C   UNL A   1      33.901  24.126  23.469  1.00  0.00     0.228 C 
ATOM      5  O   UNL A   1      34.628  23.276  22.896  1.00  0.00    -0.275 OA
ATOM      6  H   UNL A   1      33.820  24.745  21.700  1.00  0.00     0.163 HD
BRANCH   4   7
ATOM      7  C   UNL A   1      33.981  24.005  25.094  1.00  0.00     0.130 C 
ATOM      8  C   UNL A   1      32.961  24.875  25.877  1.00  0.00     0.024 C 
BRANCH   7   9
ATOM      9  C   UNL A   1      35.166  23.588  26.056  1.00  0.00     0.275 C 
BRANCH   9  10
ATOM     10  N   UNL A   1      35.274  22.210  26.605  1.00  0.00    -0.332 N 
ATOM     11  C   UNL A   1      33.983  21.723  27.111  1.00  0.00     0.333 C 
ATOM     12  H   UNL A   1      35.910  22.241  27.402  1.00  0.00     0.348 HD
BRANCH  10  13
ATOM     13  C   UNL A   1      35.847  21.289  25.601  1.00  0.00     0.209 C 
ATOM     14  C   UNL A   1      34.573  20.577  25.059  1.00  0.00     0.078 C 
BRANCH  13  15
ATOM     15  C   UNL A   1      37.057  22.189  24.995  1.00  0.00     0.169 C 
ATOM     16  C   UNL A   1      38.400  21.788  25.601  1.00  0.00     0.045 C 
BRANCH  15  17
ATOM     17  O   UNL A   1      37.344  22.386  23.622  1.00  0.00    -0.387 OA
ATOM     18  H   UNL A   1      38.213  22.806  23.531  1.00  0.00     0.211 HD
ENDBRANCH  15  17
ENDBRANCH  13  15
ENDBRANCH  10  13
ENDBRANCH   9  10
ENDBRANCH   7   9
ENDBRANCH   4   7
ENDBRANCH   2   3
ENDBRANCH   1   2
BRANCH   1  19
ATOM     19  C   UNL A   1      33.344  27.992  22.360  1.00  0.00     0.002 C 
BRANCH  19  20
ATOM     20  C   UNL A   1      33.640  28.919  23.550  1.00  0.00     0.002 C 
BRANCH  20  21
ATOM     21  C   UNL A   1      33.075  28.539  24.927  1.00  0.00     0.021 C 
BRANCH  21  22
ATOM     22  C   UNL A   1      33.989  28.782  26.126  1.00  0.00     0.116 C 
BRANCH  22  23
ATOM     23  N   UNL A   1      33.804  30.103  26.712  1.00  0.00    -0.352 N 
ATOM     24  C   UNL A   1      34.530  30.756  27.665  1.00  0.00     0.251 C 
ATOM     25  H   UNL A   1      33.031  30.605  26.366  1.00  0.00     0.163 HD
ATOM     26  O   UNL A   1      34.096  31.799  28.170  1.00  0.00    -0.269 OA
BRANCH  24  27
ATOM     27  C   UNL A   1      35.832  30.225  28.094  1.00  0.00     0.039 A 
ATOM     28  C   UNL A   1      36.913  30.276  27.210  1.00  0.00     0.014 A 
ATOM     29  C   UNL A   1      35.976  29.653  29.361  1.00  0.00     0.014 A 
ATOM     30  C   UNL A   1      38.153  29.789  27.615  1.00  0.00     0.010 A 
ATOM     31  C   UNL A   1      37.229  29.240  29.790  1.00  0.00     0.010 A 
ATOM     32  C   UNL A   1      38.324  29.288  28.915  1.00  0.00    -0.014 A 
BRANCH  32  33
ATOM     33  C   UNL A   1      39.634  28.772  29.369  1.00  0.00     0.031 A 
ATOM     34  C   UNL A   1      40.487  29.611  30.278  1.00  0.00     0.074 A 
ATOM     35  C   UNL A   1      40.071  27.580  28.920  1.00  0.00     0.049 A 
ATOM     36  N   UNL A   1      41.687  29.368  30.739  1.00  0.00    -0.248 NA
ATOM     37  C   UNL A   1      39.933  30.909  30.702  1.00  0.00     0.031 C 
ATOM     38  C   UNL A   1      39.338  26.698  28.007  1.00  0.00     0.029 A 
ATOM     39  N   UNL A   1      41.238  26.907  29.168  1.00  0.00    -0.354 N 
ATOM     40  C   UNL A   1      42.034  30.486  31.489  1.00  0.00     0.074 A 
ATOM     41  C   UNL A   1      40.947  31.431  31.375  1.00  0.00     0.031 C 
ATOM     42  C   UNL A   1      40.061  25.587  27.797  1.00  0.00     0.029 A 
ATOM     43  C   UNL A   1      41.322  25.697  28.521  1.00  0.00     0.049 A 
ATOM     44  H   UNL A   1      41.948  27.256  29.754  1.00  0.00     0.167 HD
ATOM     45  C   UNL A   1      43.149  30.694  32.226  1.00  0.00     0.031 A 
ATOM     46  C   UNL A   1      42.313  24.786  28.510  1.00  0.00     0.031 A 
ATOM     47  C   UNL A   1      44.220  29.742  32.343  1.00  0.00     0.049 A 
ATOM     48  C   UNL A   1      43.551  25.054  29.322  1.00  0.00     0.074 A 
ATOM     49  C   UNL A   1      45.372  29.829  33.103  1.00  0.00     0.029 A 
ATOM     50  N   UNL A   1      44.267  28.526  31.677  1.00  0.00    -0.354 N 
ATOM     51  N   UNL A   1      43.835  26.085  30.081  1.00  0.00    -0.248 NA
ATOM     52  C   UNL A   1      44.598  24.025  29.286  1.00  0.00     0.031 C 
ATOM     53  C   UNL A   1      46.144  28.691  32.850  1.00  0.00     0.029 A 
ATOM     54  C   UNL A   1      45.441  27.864  31.989  1.00  0.00     0.049 A 
ATOM     55  H   UNL A   1      43.567  28.185  31.073  1.00  0.00     0.167 HD
ATOM     56  C   UNL A   1      45.078  25.813  30.640  1.00  0.00     0.074 A 
ATOM     57  C   UNL A   1      45.482  24.513  30.145  1.00  0.00     0.031 C 
ATOM     58  C   UNL A   1      45.816  26.568  31.489  1.00  0.00     0.031 A 
BRANCH  45  59
ATOM     59  C   UNL A   1      43.269  32.005  32.954  1.00  0.00    -0.014 A 
ATOM     60  C   UNL A   1      42.849  32.140  34.287  1.00  0.00     0.009 A 
ATOM     61  C   UNL A   1      43.846  33.111  32.310  1.00  0.00     0.009 A 
ATOM     62  C   UNL A   1      42.972  33.366  34.947  1.00  0.00     0.001 A 
ATOM     63  C   UNL A   1      43.997  34.325  32.983  1.00  0.00     0.001 A 
ATOM     64  C   UNL A   1      43.551  34.454  34.297  1.00  0.00     0.000 A 
ENDBRANCH  45  59
BRANCH  46  65
ATOM     65  C   UNL A   1      42.175  23.537  27.717  1.00  0.00    -0.014 A 
ATOM     66  C   UNL A   1      41.649  22.374  28.301  1.00  0.00     0.009 A 
ATOM     67  C   UNL A   1      42.586  23.493  26.375  1.00  0.00     0.009 A 
ATOM     68  C   UNL A   1      41.571  21.186  27.570  1.00  0.00     0.001 A 
ATOM     69  C   UNL A   1      42.477  22.313  25.636  1.00  0.00     0.001 A 
ATOM     70  C   UNL A   1      41.982  21.158  26.238  1.00  0.00     0.000 A 
ENDBRANCH  46  65
BRANCH  58  71
ATOM     71  C   UNL A   1      47.114  25.985  31.974  1.00  0.00    -0.014 A 
ATOM     72  C   UNL A   1      48.308  26.153  31.256  1.00  0.00     0.009 A 
ATOM     73  C   UNL A   1      47.145  25.300  33.199  1.00  0.00     0.009 A 
ATOM     74  C   UNL A   1      49.501  25.613  31.740  1.00  0.00     0.001 A 
ATOM     75  C   UNL A   1      48.345  24.793  33.697  1.00  0.00     0.001 A 
ATOM     76  C   UNL A   1      49.520  24.940  32.962  1.00  0.00     0.000 A 
ENDBRANCH  58  71
ENDBRANCH  32  33
ENDBRANCH  24  27
ENDBRANCH  22  23
ENDBRANCH  21  22
ENDBRANCH  20  21
ENDBRANCH  19  20
ENDBRANCH   1  19
TORSDOF 18
ENDMDL
MODEL 2
REMARK VINA RESULT:      -8.8      1.582      2.319
REMARK SMILES C[C@H](C[N@@H+](C)[C@@H](C)[C@@H](C)O)C(=O)NCCCCCCNC(=O)c1ccc(-c2c3nc(c(-c4ccccc4)c4ccc([nH]4)c(-c4ccccc4)c4nc(c(-c5ccccc5)c5ccc2[nH]5)C=C4)C=C3)cc1
REMARK SMILES IDX 15 1 14 2 13 3 11 4 12 5 2 7 1 8 3 9 4 10 5 11 6 13 7 14
REMARK SMILES IDX 8 15 9 16 10 17 16 19 17 20 18 21 19 22 20 23 21 24 22 26
REMARK SMILES IDX 23 27 24 28 70 29 25 30 69 31 26 32 27 33 28 34 63 35 29 36
REMARK SMILES IDX 68 37 62 38 64 39 30 40 67 41 61 42 60 43 31 45 53 46 38 47
REMARK SMILES IDX 52 48 39 49 42 50 51 51 65 52 40 53 41 54 50 56 66 57 43 58
REMARK SMILES IDX 32 59 33 60 37 61 34 62 36 63 35 64 54 65 55 66 59 67 56 68
REMARK SMILES IDX 58 69 57 70 44 71 45 72 49 73 46 74 48 75 47 76
REMARK H PARENT 13 6 4 12 10 18 20 25 64 44 42 55
REMARK Flexibility Score: inf
ROOT
ATOM      1  C   UNL A   1      30.575  28.746  23.794  1.00  0.00     0.021 C 
ENDROOT
BRANCH   1   2
ATOM      2  C   UNL A   1      30.685  28.026  22.419  1.00  0.00     0.116 C 
BRANCH   2   3
ATOM      3  N   UNL A   1      31.916  27.179  22.038  1.00  0.00    -0.356 N 
ATOM      4  C   UNL A   1      32.714  26.083  22.220  1.00  0.00     0.228 C 
ATOM      5  O   UNL A   1      33.328  25.873  21.144  1.00  0.00    -0.275 OA
ATOM      6  H   UNL A   1      32.338  27.673  21.299  1.00  0.00     0.163 HD
BRANCH   4   7
ATOM      7  C   UNL A   1      33.067  24.964  23.354  1.00  0.00     0.130 C 
ATOM      8  C   UNL A   1      34.405  24.206  23.147  1.00  0.00     0.024 C 
BRANCH   7   9
ATOM      9  C   UNL A   1      32.139  24.137  24.334  1.00  0.00     0.275 C 
BRANCH   9  10
ATOM     10  N   UNL A   1      32.613  23.708  25.677  1.00  0.00    -0.332 N 
ATOM     11  C   UNL A   1      31.508  23.618  26.641  1.00  0.00     0.333 C 
ATOM     12  H   UNL A   1      33.251  24.424  26.026  1.00  0.00     0.348 HD
BRANCH  10  13
ATOM     13  C   UNL A   1      33.361  22.437  25.587  1.00  0.00     0.209 C 
ATOM     14  C   UNL A   1      34.269  22.512  26.850  1.00  0.00     0.078 C 
BRANCH  13  15
ATOM     15  C   UNL A   1      32.225  21.437  24.995  1.00  0.00     0.169 C 
ATOM     16  C   UNL A   1      32.634  20.880  23.634  1.00  0.00     0.045 C 
BRANCH  15  17
ATOM     17  O   UNL A   1      31.659  20.326  25.666  1.00  0.00    -0.387 OA
ATOM     18  H   UNL A   1      31.017  20.638  26.322  1.00  0.00     0.211 HD
ENDBRANCH  15  17
ENDBRANCH  13  15
ENDBRANCH  10  13
ENDBRANCH   9  10
ENDBRANCH   7   9
ENDBRANCH   4   7
ENDBRANCH   2   3
ENDBRANCH   1   2
BRANCH   1  19
ATOM     19  C   UNL A   1      31.829  28.696  24.673  1.00  0.00     0.002 C 
BRANCH  19  20
ATOM     20  C   UNL A   1      31.886  27.591  25.741  1.00  0.00     0.002 C 
BRANCH  20  21
ATOM     21  C   UNL A   1      32.444  27.947  27.127  1.00  0.00     0.021 C 
BRANCH  21  22
ATOM     22  C   UNL A   1      33.791  28.665  27.153  1.00  0.00     0.116 C 
BRANCH  22  23
ATOM     23  N   UNL A   1      33.680  30.047  27.600  1.00  0.00    -0.352 N 
ATOM     24  C   UNL A   1      34.553  30.819  28.310  1.00  0.00     0.251 C 
ATOM     25  H   UNL A   1      32.842  30.497  27.350  1.00  0.00     0.163 HD
ATOM     26  O   UNL A   1      34.192  31.913  28.759  1.00  0.00    -0.269 OA
BRANCH  24  27
ATOM     27  C   UNL A   1      35.929  30.354  28.543  1.00  0.00     0.039 A 
ATOM     28  C   UNL A   1      36.283  29.886  29.811  1.00  0.00     0.014 A 
ATOM     29  C   UNL A   1      36.873  30.407  27.515  1.00  0.00     0.014 A 
ATOM     30  C   UNL A   1      37.580  29.430  30.036  1.00  0.00     0.010 A 
ATOM     31  C   UNL A   1      38.141  29.880  27.719  1.00  0.00     0.010 A 
ATOM     32  C   UNL A   1      38.510  29.404  28.985  1.00  0.00    -0.014 A 
BRANCH  32  33
ATOM     33  C   UNL A   1      39.890  28.916  29.198  1.00  0.00     0.031 A 
ATOM     34  C   UNL A   1      40.916  29.831  29.807  1.00  0.00     0.074 A 
ATOM     35  C   UNL A   1      40.227  27.677  28.794  1.00  0.00     0.049 A 
ATOM     36  N   UNL A   1      42.188  29.618  30.021  1.00  0.00    -0.248 NA
ATOM     37  C   UNL A   1      40.458  31.176  30.200  1.00  0.00     0.031 C 
ATOM     38  C   UNL A   1      39.319  26.716  28.159  1.00  0.00     0.029 A 
ATOM     39  N   UNL A   1      41.424  27.014  28.853  1.00  0.00    -0.354 N 
ATOM     40  C   UNL A   1      42.682  30.802  30.555  1.00  0.00     0.074 A 
ATOM     41  C   UNL A   1      41.591  31.749  30.579  1.00  0.00     0.031 C 
ATOM     42  C   UNL A   1      39.986  25.578  27.917  1.00  0.00     0.029 A 
ATOM     43  C   UNL A   1      41.373  25.742  28.335  1.00  0.00     0.049 A 
ATOM     44  H   UNL A   1      42.242  27.410  29.232  1.00  0.00     0.167 HD
ATOM     45  C   UNL A   1      43.930  31.067  31.006  1.00  0.00     0.031 A 
ATOM     46  C   UNL A   1      42.344  24.818  28.207  1.00  0.00     0.031 A 
ATOM     47  C   UNL A   1      45.006  30.115  30.989  1.00  0.00     0.049 A 
ATOM     48  C   UNL A   1      43.727  25.148  28.699  1.00  0.00     0.074 A 
ATOM     49  C   UNL A   1      46.295  30.261  31.468  1.00  0.00     0.029 A 
ATOM     50  N   UNL A   1      44.915  28.835  30.462  1.00  0.00    -0.354 N 
ATOM     51  N   UNL A   1      44.163  26.248  29.265  1.00  0.00    -0.248 NA
ATOM     52  C   UNL A   1      44.747  24.103  28.546  1.00  0.00     0.031 C 
ATOM     53  C   UNL A   1      47.001  29.090  31.177  1.00  0.00     0.029 A 
ATOM     54  C   UNL A   1      46.133  28.190  30.581  1.00  0.00     0.049 A 
ATOM     55  H   UNL A   1      44.103  28.445  30.063  1.00  0.00     0.167 HD
ATOM     56  C   UNL A   1      45.498  26.014  29.568  1.00  0.00     0.074 A 
ATOM     57  C   UNL A   1      45.794  24.663  29.137  1.00  0.00     0.031 C 
ATOM     58  C   UNL A   1      46.399  26.841  30.151  1.00  0.00     0.031 A 
BRANCH  45  59
ATOM     59  C   UNL A   1      44.197  32.445  31.548  1.00  0.00    -0.014 A 
ATOM     60  C   UNL A   1      44.633  33.486  30.712  1.00  0.00     0.009 A 
ATOM     61  C   UNL A   1      43.973  32.716  32.907  1.00  0.00     0.009 A 
ATOM     62  C   UNL A   1      44.873  34.760  31.234  1.00  0.00     0.001 A 
ATOM     63  C   UNL A   1      44.182  33.998  33.419  1.00  0.00     0.001 A 
ATOM     64  C   UNL A   1      44.641  35.016  32.584  1.00  0.00     0.000 A 
ENDBRANCH  45  59
BRANCH  46  65
ATOM     65  C   UNL A   1      42.045  23.495  27.600  1.00  0.00    -0.014 A 
ATOM     66  C   UNL A   1      41.500  22.458  28.374  1.00  0.00     0.009 A 
ATOM     67  C   UNL A   1      42.319  23.252  26.244  1.00  0.00     0.009 A 
ATOM     68  C   UNL A   1      41.271  21.199  27.815  1.00  0.00     0.001 A 
ATOM     69  C   UNL A   1      42.059  22.002  25.678  1.00  0.00     0.001 A 
ATOM     70  C   UNL A   1      41.548  20.973  26.467  1.00  0.00     0.000 A 
ENDBRANCH  46  65
BRANCH  58  71
ATOM     71  C   UNL A   1      47.775  26.291  30.403  1.00  0.00    -0.014 A 
ATOM     72  C   UNL A   1      48.126  25.733  31.642  1.00  0.00     0.009 A 
ATOM     73  C   UNL A   1      48.715  26.285  29.361  1.00  0.00     0.009 A 
ATOM     74  C   UNL A   1      49.408  25.215  31.841  1.00  0.00     0.001 A 
ATOM     75  C   UNL A   1      49.982  25.735  29.553  1.00  0.00     0.001 A 
ATOM     76  C   UNL A   1      50.331  25.210  30.796  1.00  0.00     0.000 A 
ENDBRANCH  58  71
ENDBRANCH  32  33
ENDBRANCH  24  27
ENDBRANCH  22  23
ENDBRANCH  21  22
ENDBRANCH  20  21
ENDBRANCH  19  20
ENDBRANCH   1  19
TORSDOF 18
ENDMDL
MODEL 3
REMARK VINA RESULT:      -8.4      5.132     11.104
REMARK SMILES C[C@H](C[N@@H+](C)[C@@H](C)[C@@H](C)O)C(=O)NCCCCCCNC(=O)c1ccc(-c2c3nc(c(-c4ccccc4)c4ccc([nH]4)c(-c4ccccc4)c4nc(c(-c5ccccc5)c5ccc2[nH]5)C=C4)C=C3)cc1
REMARK SMILES IDX 15 1 14 2 13 3 11 4 12 5 2 7 1 8 3 9 4 10 5 11 6 13 7 14
REMARK SMILES IDX 8 15 9 16 10 17 16 19 17 20 18 21 19 22 20 23 21 24 22 26
REMARK SMILES IDX 23 27 24 28 70 29 25 30 69 31 26 32 27 33 28 34 63 35 29 36
REMARK SMILES IDX 68 37 62 38 64 39 30 40 67 41 61 42 60 43 31 45 53 46 38 47
REMARK SMILES IDX 52 48 39 49 42 50 51 51 65 52 40 53 41 54 50 56 66 57 43 58
REMARK SMILES IDX 32 59 33 60 37 61 34 62 36 63 35 64 54 65 55 66 59 67 56 68
REMARK SMILES IDX 58 69 57 70 44 71 45 72 49 73 46 74 48 75 47 76
REMARK H PARENT 13 6 4 12 10 18 20 25 64 44 42 55
REMARK Flexibility Score: inf
ROOT
ATOM      1  C   UNL A   1      46.705  23.321  24.156  1.00  0.00     0.021 C 
ENDROOT
BRANCH   1   2
ATOM      2  C   UNL A   1      47.386  24.493  24.921  1.00  0.00     0.116 C 
BRANCH   2   3
ATOM      3  N   UNL A   1      47.593  25.877  24.274  1.00  0.00    -0.356 N 
ATOM      4  C   UNL A   1      48.377  26.776  23.603  1.00  0.00     0.228 C 
ATOM      5  O   UNL A   1      47.615  27.589  23.021  1.00  0.00    -0.275 OA
ATOM      6  H   UNL A   1      46.740  26.346  24.412  1.00  0.00     0.163 HD
BRANCH   4   7
ATOM      7  C   UNL A   1      49.949  27.081  23.292  1.00  0.00     0.130 C 
ATOM      8  C   UNL A   1      50.714  27.836  24.412  1.00  0.00     0.024 C 
BRANCH   7   9
ATOM      9  C   UNL A   1      50.739  27.220  21.928  1.00  0.00     0.275 C 
BRANCH   9  10
ATOM     10  N   UNL A   1      52.033  27.950  21.849  1.00  0.00    -0.332 N 
ATOM     11  C   UNL A   1      53.168  27.029  21.695  1.00  0.00     0.333 C 
ATOM     12  H   UNL A   1      52.169  28.440  22.733  1.00  0.00     0.348 HD
BRANCH  10  13
ATOM     13  C   UNL A   1      52.001  28.958  20.770  1.00  0.00     0.209 C 
ATOM     14  C   UNL A   1      51.298  28.175  19.623  1.00  0.00     0.078 C 
BRANCH  13  15
ATOM     15  C   UNL A   1      51.739  30.323  21.614  1.00  0.00     0.169 C 
ATOM     16  C   UNL A   1      52.764  30.485  22.734  1.00  0.00     0.045 C 
BRANCH  15  17
ATOM     17  O   UNL A   1      51.609  31.626  21.074  1.00  0.00    -0.387 OA
ATOM     18  H   UNL A   1      52.461  32.086  21.133  1.00  0.00     0.211 HD
ENDBRANCH  15  17
ENDBRANCH  13  15
ENDBRANCH  10  13
ENDBRANCH   9  10
ENDBRANCH   7   9
ENDBRANCH   4   7
ENDBRANCH   2   3
ENDBRANCH   1   2
BRANCH   1  19
ATOM     19  C   UNL A   1      45.996  22.280  25.028  1.00  0.00     0.002 C 
BRANCH  19  20
ATOM     20  C   UNL A   1      46.243  20.802  24.687  1.00  0.00     0.002 C 
BRANCH  20  21
ATOM     21  C   UNL A   1      45.029  19.915  24.371  1.00  0.00     0.021 C 
BRANCH  21  22
ATOM     22  C   UNL A   1      44.460  19.103  25.533  1.00  0.00     0.116 C 
BRANCH  22  23
ATOM     23  N   UNL A   1      43.025  18.883  25.411  1.00  0.00    -0.352 N 
ATOM     24  C   UNL A   1      41.976  19.630  25.864  1.00  0.00     0.251 C 
ATOM     25  H   UNL A   1      42.771  18.066  24.925  1.00  0.00     0.163 HD
ATOM     26  O   UNL A   1      40.827  19.172  25.827  1.00  0.00    -0.269 OA
BRANCH  24  27
ATOM     27  C   UNL A   1      42.205  20.982  26.394  1.00  0.00     0.039 A 
ATOM     28  C   UNL A   1      42.261  21.169  27.778  1.00  0.00     0.014 A 
ATOM     29  C   UNL A   1      42.338  22.066  25.523  1.00  0.00     0.014 A 
ATOM     30  C   UNL A   1      42.493  22.444  28.288  1.00  0.00     0.010 A 
ATOM     31  C   UNL A   1      42.647  23.320  26.030  1.00  0.00     0.010 A 
ATOM     32  C   UNL A   1      42.709  23.523  27.417  1.00  0.00    -0.014 A 
BRANCH  32  33
ATOM     33  C   UNL A   1      42.966  24.885  27.935  1.00  0.00     0.031 A 
ATOM     34  C   UNL A   1      44.367  25.290  28.298  1.00  0.00     0.074 A 
ATOM     35  C   UNL A   1      41.933  25.728  28.128  1.00  0.00     0.049 A 
ATOM     36  N   UNL A   1      44.792  26.411  28.823  1.00  0.00    -0.248 NA
ATOM     37  C   UNL A   1      45.428  24.294  28.070  1.00  0.00     0.031 C 
ATOM     38  C   UNL A   1      40.527  25.426  27.842  1.00  0.00     0.029 A 
ATOM     39  N   UNL A   1      41.906  27.009  28.612  1.00  0.00    -0.354 N 
ATOM     40  C   UNL A   1      46.160  26.246  29.001  1.00  0.00     0.074 A 
ATOM     41  C   UNL A   1      46.486  24.900  28.586  1.00  0.00     0.031 C 
ATOM     42  C   UNL A   1      39.781  26.503  28.129  1.00  0.00     0.029 A 
ATOM     43  C   UNL A   1      40.645  27.552  28.659  1.00  0.00     0.049 A 
ATOM     44  H   UNL A   1      42.713  27.494  28.900  1.00  0.00     0.167 HD
ATOM     45  C   UNL A   1      47.066  27.144  29.449  1.00  0.00     0.031 A 
ATOM     46  C   UNL A   1      40.235  28.760  29.089  1.00  0.00     0.031 A 
ATOM     47  C   UNL A   1      46.734  28.485  29.849  1.00  0.00     0.049 A 
ATOM     48  C   UNL A   1      41.262  29.732  29.602  1.00  0.00     0.074 A 
ATOM     49  C   UNL A   1      47.580  29.494  30.270  1.00  0.00     0.029 A 
ATOM     50  N   UNL A   1      45.446  28.999  29.877  1.00  0.00    -0.354 N 
ATOM     51  N   UNL A   1      42.562  29.586  29.701  1.00  0.00    -0.248 NA
ATOM     52  C   UNL A   1      40.766  31.040  30.050  1.00  0.00     0.031 C 
ATOM     53  C   UNL A   1      46.797  30.602  30.609  1.00  0.00     0.029 A 
ATOM     54  C   UNL A   1      45.472  30.306  30.332  1.00  0.00     0.049 A 
ATOM     55  H   UNL A   1      44.635  28.508  29.610  1.00  0.00     0.167 HD
ATOM     56  C   UNL A   1      43.043  30.795  30.188  1.00  0.00     0.074 A 
ATOM     57  C   UNL A   1      41.896  31.666  30.349  1.00  0.00     0.031 C 
ATOM     58  C   UNL A   1      44.317  31.154  30.475  1.00  0.00     0.031 A 
BRANCH  45  59
ATOM     59  C   UNL A   1      48.502  26.702  29.539  1.00  0.00    -0.014 A 
ATOM     60  C   UNL A   1      48.989  26.031  30.672  1.00  0.00     0.009 A 
ATOM     61  C   UNL A   1      49.370  26.927  28.459  1.00  0.00     0.009 A 
ATOM     62  C   UNL A   1      50.325  25.626  30.735  1.00  0.00     0.001 A 
ATOM     63  C   UNL A   1      50.695  26.492  28.511  1.00  0.00     0.001 A 
ATOM     64  C   UNL A   1      51.174  25.851  29.652  1.00  0.00     0.000 A 
ENDBRANCH  45  59
BRANCH  46  65
ATOM     65  C   UNL A   1      38.795  29.123  29.046  1.00  0.00    -0.014 A 
ATOM     66  C   UNL A   1      38.228  29.664  27.881  1.00  0.00     0.009 A 
ATOM     67  C   UNL A   1      37.979  28.949  30.176  1.00  0.00     0.009 A 
ATOM     68  C   UNL A   1      36.887  30.056  27.860  1.00  0.00     0.001 A 
ATOM     69  C   UNL A   1      36.630  29.310  30.142  1.00  0.00     0.001 A 
ATOM     70  C   UNL A   1      36.090  29.876  28.989  1.00  0.00     0.000 A 
ENDBRANCH  46  65
BRANCH  58  71
ATOM     71  C   UNL A   1      44.545  32.564  30.945  1.00  0.00    -0.014 A 
ATOM     72  C   UNL A   1      44.764  33.612  30.039  1.00  0.00     0.009 A 
ATOM     73  C   UNL A   1      44.486  32.849  32.318  1.00  0.00     0.009 A 
ATOM     74  C   UNL A   1      44.956  34.915  30.504  1.00  0.00     0.001 A 
ATOM     75  C   UNL A   1      44.643  34.157  32.776  1.00  0.00     0.001 A 
ATOM     76  C   UNL A   1      44.889  35.186  31.870  1.00  0.00     0.000 A 
ENDBRANCH  58  71
ENDBRANCH  32  33
ENDBRANCH  24  27
ENDBRANCH  22  23
ENDBRANCH  21  22
ENDBRANCH  20  21
ENDBRANCH  19  20
ENDBRANCH   1  19
TORSDOF 18
ENDMDL
