MODEL 1
REMARK VINA RESULT:      -9.7      0.000      0.000
REMARK SMILES CC[C@@H](C)SCc1cc(F)cc(/C=C/C(=O)NCCCCCCNC(=O)c2ccc(-c3c4nc(c(-c5ccccc5)c5ccc([nH]5)c(-c5ccccc5)c5nc(c(-c6ccccc6)c6ccc3[nH]6)C=C5)C=C4)cc2)c1
REMARK SMILES IDX 19 1 18 2 17 3 15 4 16 5 14 7 13 8 12 9 7 10 8 11 75 12 9 13
REMARK SMILES IDX 10 14 11 15 6 16 5 17 3 18 4 19 2 20 1 21 20 22 21 23 22 24
REMARK SMILES IDX 23 25 24 26 25 27 26 29 27 30 28 31 74 32 29 33 73 34 30 35
REMARK SMILES IDX 31 36 32 37 67 38 33 39 72 40 66 41 68 42 34 43 71 44 65 45
REMARK SMILES IDX 64 46 35 48 57 49 42 50 56 51 43 52 46 53 55 54 69 55 44 56
REMARK SMILES IDX 45 57 54 59 70 60 47 61 36 62 37 63 41 64 38 65 40 66 39 67
REMARK SMILES IDX 58 68 59 69 63 70 60 71 62 72 61 73 48 74 49 75 53 76 50 77
REMARK SMILES IDX 52 78 51 79
REMARK H PARENT 17 6 24 28 68 47 46 58
REMARK Flexibility Score: inf
ROOT
ATOM      1  C   UNL A   1      35.655  31.150  28.149  1.00  0.00     0.021 C 
ENDROOT
BRANCH   1   2
ATOM      2  C   UNL A   1      35.226  29.784  27.611  1.00  0.00     0.116 C 
BRANCH   2   3
ATOM      3  N   UNL A   1      33.809  29.572  27.847  1.00  0.00    -0.353 N 
ATOM      4  C   UNL A   1      32.903  28.786  27.207  1.00  0.00     0.243 C 
ATOM      5  O   UNL A   1      31.745  28.736  27.614  1.00  0.00    -0.270 OA
ATOM      6  H   UNL A   1      33.440  30.087  28.601  1.00  0.00     0.163 HD
BRANCH   4   7
ATOM      7  C   UNL A   1      33.329  27.891  26.111  1.00  0.00     0.072 C 
ATOM      8  C   UNL A   1      33.404  26.553  26.188  1.00  0.00     0.014 C 
BRANCH   8   9
ATOM      9  C   UNL A   1      33.685  25.728  25.004  1.00  0.00    -0.022 A 
ATOM     10  C   UNL A   1      34.193  23.490  24.151  1.00  0.00    -0.035 A 
ATOM     11  C   UNL A   1      33.946  23.948  22.851  1.00  0.00     0.043 A 
ATOM     12  C   UNL A   1      34.117  24.408  25.210  1.00  0.00     0.013 A 
ATOM     13  C   UNL A   1      33.606  25.280  22.638  1.00  0.00     0.124 A 
ATOM     14  F   UNL A   1      33.375  25.707  21.389  1.00  0.00    -0.207 F 
ATOM     15  C   UNL A   1      33.461  26.168  23.699  1.00  0.00     0.047 A 
BRANCH  10  16
ATOM     16  C   UNL A   1      34.472  22.035  24.415  1.00  0.00     0.105 C 
BRANCH  16  17
ATOM     17  S   UNL A   1      35.596  21.740  25.826  1.00  0.00    -0.154 SA
BRANCH  17  18
ATOM     18  C   UNL A   1      37.243  22.367  25.265  1.00  0.00     0.043 C 
ATOM     19  C   UNL A   1      38.351  21.334  25.463  1.00  0.00     0.019 C 
BRANCH  18  20
ATOM     20  C   UNL A   1      37.574  23.776  25.783  1.00  0.00     0.011 C 
ATOM     21  C   UNL A   1      38.851  23.844  26.612  1.00  0.00     0.005 C 
ENDBRANCH  18  20
ENDBRANCH  17  18
ENDBRANCH  16  17
ENDBRANCH  10  16
ENDBRANCH   8   9
ENDBRANCH   4   7
ENDBRANCH   2   3
ENDBRANCH   1   2
BRANCH   1  22
ATOM     22  C   UNL A   1      34.487  32.006  28.661  1.00  0.00     0.002 C 
BRANCH  22  23
ATOM     23  C   UNL A   1      34.424  33.429  28.092  1.00  0.00     0.002 C 
BRANCH  23  24
ATOM     24  C   UNL A   1      33.243  34.271  28.580  1.00  0.00     0.021 C 
BRANCH  24  25
ATOM     25  C   UNL A   1      33.630  35.439  29.485  1.00  0.00     0.116 C 
BRANCH  25  26
ATOM     26  N   UNL A   1      32.678  35.625  30.572  1.00  0.00    -0.352 N 
ATOM     27  C   UNL A   1      32.747  35.196  31.872  1.00  0.00     0.251 C 
ATOM     28  H   UNL A   1      31.869  36.134  30.338  1.00  0.00     0.163 HD
ATOM     29  O   UNL A   1      31.756  35.252  32.599  1.00  0.00    -0.269 OA
BRANCH  27  30
ATOM     30  C   UNL A   1      34.012  34.644  32.398  1.00  0.00     0.039 A 
ATOM     31  C   UNL A   1      34.033  33.334  32.883  1.00  0.00     0.014 A 
ATOM     32  C   UNL A   1      35.176  35.419  32.405  1.00  0.00     0.014 A 
ATOM     33  C   UNL A   1      35.241  32.771  33.298  1.00  0.00     0.010 A 
ATOM     34  C   UNL A   1      36.389  34.836  32.758  1.00  0.00     0.010 A 
ATOM     35  C   UNL A   1      36.436  33.503  33.193  1.00  0.00    -0.014 A 
BRANCH  35  36
ATOM     36  C   UNL A   1      37.752  32.883  33.487  1.00  0.00     0.031 A 
ATOM     37  C   UNL A   1      38.348  31.878  32.543  1.00  0.00     0.074 A 
ATOM     38  C   UNL A   1      38.367  33.162  34.654  1.00  0.00     0.049 A 
ATOM     39  N   UNL A   1      39.429  31.153  32.685  1.00  0.00    -0.248 NA
ATOM     40  C   UNL A   1      37.624  31.641  31.284  1.00  0.00     0.031 C 
ATOM     41  C   UNL A   1      37.879  34.100  35.667  1.00  0.00     0.029 A 
ATOM     42  N   UNL A   1      39.530  32.670  35.192  1.00  0.00    -0.354 N 
ATOM     43  C   UNL A   1      39.509  30.368  31.543  1.00  0.00     0.074 A 
ATOM     44  C   UNL A   1      38.345  30.671  30.737  1.00  0.00     0.031 C 
ATOM     45  C   UNL A   1      38.743  34.129  36.693  1.00  0.00     0.029 A 
ATOM     46  C   UNL A   1      39.817  33.174  36.437  1.00  0.00     0.049 A 
ATOM     47  H   UNL A   1      40.104  32.017  34.729  1.00  0.00     0.167 HD
ATOM     48  C   UNL A   1      40.472  29.482  31.189  1.00  0.00     0.031 A 
ATOM     49  C   UNL A   1      40.818  32.886  37.290  1.00  0.00     0.031 A 
ATOM     50  C   UNL A   1      41.627  29.179  31.992  1.00  0.00     0.049 A 
ATOM     51  C   UNL A   1      41.841  31.857  36.898  1.00  0.00     0.074 A 
ATOM     52  C   UNL A   1      42.684  28.337  31.697  1.00  0.00     0.029 A 
ATOM     53  N   UNL A   1      41.871  29.700  33.254  1.00  0.00    -0.354 N 
ATOM     54  N   UNL A   1      41.938  31.171  35.785  1.00  0.00    -0.248 NA
ATOM     55  C   UNL A   1      42.894  31.563  37.881  1.00  0.00     0.031 C 
ATOM     56  C   UNL A   1      43.536  28.298  32.806  1.00  0.00     0.029 A 
ATOM     57  C   UNL A   1      43.041  29.165  33.766  1.00  0.00     0.049 A 
ATOM     58  H   UNL A   1      41.298  30.354  33.716  1.00  0.00     0.167 HD
ATOM     59  C   UNL A   1      43.070  30.379  35.926  1.00  0.00     0.074 A 
ATOM     60  C   UNL A   1      43.639  30.687  37.222  1.00  0.00     0.031 C 
ATOM     61  C   UNL A   1      43.589  29.474  35.062  1.00  0.00     0.031 A 
BRANCH  48  62
ATOM     62  C   UNL A   1      40.310  28.764  29.879  1.00  0.00    -0.014 A 
ATOM     63  C   UNL A   1      39.586  27.564  29.790  1.00  0.00     0.009 A 
ATOM     64  C   UNL A   1      40.848  29.320  28.706  1.00  0.00     0.009 A 
ATOM     65  C   UNL A   1      39.432  26.921  28.560  1.00  0.00     0.001 A 
ATOM     66  C   UNL A   1      40.666  28.690  27.474  1.00  0.00     0.001 A 
ATOM     67  C   UNL A   1      39.966  27.486  27.403  1.00  0.00     0.000 A 
ENDBRANCH  48  62
BRANCH  49  68
ATOM     68  C   UNL A   1      40.896  33.567  38.609  1.00  0.00    -0.014 A 
ATOM     69  C   UNL A   1      40.259  33.019  39.733  1.00  0.00     0.009 A 
ATOM     70  C   UNL A   1      41.596  34.776  38.749  1.00  0.00     0.009 A 
ATOM     71  C   UNL A   1      40.297  33.683  40.961  1.00  0.00     0.001 A 
ATOM     72  C   UNL A   1      41.658  35.421  39.987  1.00  0.00     0.001 A 
ATOM     73  C   UNL A   1      41.000  34.879  41.088  1.00  0.00     0.000 A 
ENDBRANCH  49  68
BRANCH  61  74
ATOM     74  C   UNL A   1      44.844  28.762  35.484  1.00  0.00    -0.014 A 
ATOM     75  C   UNL A   1      46.110  29.306  35.220  1.00  0.00     0.009 A 
ATOM     76  C   UNL A   1      44.756  27.554  36.195  1.00  0.00     0.009 A 
ATOM     77  C   UNL A   1      47.265  28.640  35.634  1.00  0.00     0.001 A 
ATOM     78  C   UNL A   1      45.912  26.907  36.635  1.00  0.00     0.001 A 
ATOM     79  C   UNL A   1      47.164  27.445  36.346  1.00  0.00     0.000 A 
ENDBRANCH  61  74
ENDBRANCH  35  36
ENDBRANCH  27  30
ENDBRANCH  25  26
ENDBRANCH  24  25
ENDBRANCH  23  24
ENDBRANCH  22  23
ENDBRANCH   1  22
TORSDOF 18
ENDMDL
MODEL 2
REMARK VINA RESULT:      -9.7      2.860      6.878
REMARK SMILES CC[C@@H](C)SCc1cc(F)cc(/C=C/C(=O)NCCCCCCNC(=O)c2ccc(-c3c4nc(c(-c5ccccc5)c5ccc([nH]5)c(-c5ccccc5)c5nc(c(-c6ccccc6)c6ccc3[nH]6)C=C5)C=C4)cc2)c1
REMARK SMILES IDX 19 1 18 2 17 3 15 4 16 5 14 7 13 8 12 9 7 10 8 11 75 12 9 13
REMARK SMILES IDX 10 14 11 15 6 16 5 17 3 18 4 19 2 20 1 21 20 22 21 23 22 24
REMARK SMILES IDX 23 25 24 26 25 27 26 29 27 30 28 31 74 32 29 33 73 34 30 35
REMARK SMILES IDX 31 36 32 37 67 38 33 39 72 40 66 41 68 42 34 43 71 44 65 45
REMARK SMILES IDX 64 46 35 48 57 49 42 50 56 51 43 52 46 53 55 54 69 55 44 56
REMARK SMILES IDX 45 57 54 59 70 60 47 61 36 62 37 63 41 64 38 65 40 66 39 67
REMARK SMILES IDX 58 68 59 69 63 70 60 71 62 72 61 73 48 74 49 75 53 76 50 77
REMARK SMILES IDX 52 78 51 79
REMARK H PARENT 17 6 24 28 68 47 46 58
REMARK Flexibility Score: inf
ROOT
ATOM      1  C   UNL A   1      33.244  28.357  24.871  1.00  0.00     0.021 C 
ENDROOT
BRANCH   1   2
ATOM      2  C   UNL A   1      32.384  27.293  24.188  1.00  0.00     0.116 C 
BRANCH   2   3
ATOM      3  N   UNL A   1      32.752  27.169  22.788  1.00  0.00    -0.353 N 
ATOM      4  C   UNL A   1      33.182  26.101  22.068  1.00  0.00     0.243 C 
ATOM      5  O   UNL A   1      33.401  26.225  20.866  1.00  0.00    -0.270 OA
ATOM      6  H   UNL A   1      32.675  28.004  22.273  1.00  0.00     0.163 HD
BRANCH   4   7
ATOM      7  C   UNL A   1      33.263  24.761  22.687  1.00  0.00     0.072 C 
ATOM      8  C   UNL A   1      32.379  23.768  22.505  1.00  0.00     0.014 C 
BRANCH   8   9
ATOM      9  C   UNL A   1      32.618  22.417  23.033  1.00  0.00    -0.022 A 
ATOM     10  C   UNL A   1      33.326  21.073  24.952  1.00  0.00    -0.035 A 
ATOM     11  C   UNL A   1      32.847  19.927  24.305  1.00  0.00     0.043 A 
ATOM     12  C   UNL A   1      33.259  22.301  24.276  1.00  0.00     0.013 A 
ATOM     13  C   UNL A   1      32.294  20.030  23.032  1.00  0.00     0.124 A 
ATOM     14  F   UNL A   1      31.843  18.925  22.422  1.00  0.00    -0.207 F 
ATOM     15  C   UNL A   1      32.163  21.260  22.397  1.00  0.00     0.047 A 
BRANCH  10  16
ATOM     16  C   UNL A   1      33.843  21.000  26.364  1.00  0.00     0.105 C 
BRANCH  16  17
ATOM     17  S   UNL A   1      34.345  22.617  27.052  1.00  0.00    -0.154 SA
BRANCH  17  18
ATOM     18  C   UNL A   1      36.033  22.928  26.362  1.00  0.00     0.043 C 
ATOM     19  C   UNL A   1      36.084  24.201  25.517  1.00  0.00     0.019 C 
BRANCH  18  20
ATOM     20  C   UNL A   1      36.667  21.691  25.706  1.00  0.00     0.011 C 
ATOM     21  C   UNL A   1      37.112  21.917  24.266  1.00  0.00     0.005 C 
ENDBRANCH  18  20
ENDBRANCH  17  18
ENDBRANCH  16  17
ENDBRANCH  10  16
ENDBRANCH   8   9
ENDBRANCH   4   7
ENDBRANCH   2   3
ENDBRANCH   1   2
BRANCH   1  22
ATOM     22  C   UNL A   1      32.603  28.950  26.134  1.00  0.00     0.002 C 
BRANCH  22  23
ATOM     23  C   UNL A   1      31.792  30.233  25.912  1.00  0.00     0.002 C 
BRANCH  23  24
ATOM     24  C   UNL A   1      31.868  31.255  27.050  1.00  0.00     0.021 C 
BRANCH  24  25
ATOM     25  C   UNL A   1      32.970  32.300  26.888  1.00  0.00     0.116 C 
BRANCH  25  26
ATOM     26  N   UNL A   1      32.602  33.576  27.485  1.00  0.00    -0.352 N 
ATOM     27  C   UNL A   1      33.166  34.234  28.547  1.00  0.00     0.251 C 
ATOM     28  H   UNL A   1      31.838  34.032  27.064  1.00  0.00     0.163 HD
ATOM     29  O   UNL A   1      32.594  35.197  29.057  1.00  0.00    -0.269 OA
BRANCH  27  30
ATOM     30  C   UNL A   1      34.458  33.774  29.095  1.00  0.00     0.039 A 
ATOM     31  C   UNL A   1      34.465  32.992  30.253  1.00  0.00     0.014 A 
ATOM     32  C   UNL A   1      35.658  34.110  28.462  1.00  0.00     0.014 A 
ATOM     33  C   UNL A   1      35.672  32.475  30.729  1.00  0.00     0.010 A 
ATOM     34  C   UNL A   1      36.850  33.542  28.899  1.00  0.00     0.010 A 
ATOM     35  C   UNL A   1      36.867  32.707  30.027  1.00  0.00    -0.014 A 
BRANCH  35  36
ATOM     36  C   UNL A   1      38.137  32.052  30.425  1.00  0.00     0.031 A 
ATOM     37  C   UNL A   1      39.107  32.756  31.332  1.00  0.00     0.074 A 
ATOM     38  C   UNL A   1      38.457  30.855  29.894  1.00  0.00     0.049 A 
ATOM     39  N   UNL A   1      40.308  32.390  31.698  1.00  0.00    -0.248 NA
ATOM     40  C   UNL A   1      38.677  34.052  31.883  1.00  0.00     0.031 C 
ATOM     41  C   UNL A   1      37.614  30.080  28.982  1.00  0.00     0.029 A 
ATOM     42  N   UNL A   1      39.586  30.087  30.033  1.00  0.00    -0.354 N 
ATOM     43  C   UNL A   1      40.783  33.411  32.510  1.00  0.00     0.074 A 
ATOM     44  C   UNL A   1      39.758  34.433  32.549  1.00  0.00     0.031 C 
ATOM     45  C   UNL A   1      38.246  28.941  28.657  1.00  0.00     0.029 A 
ATOM     46  C   UNL A   1      39.559  28.929  29.295  1.00  0.00     0.049 A 
ATOM     47  H   UNL A   1      40.344  30.343  30.608  1.00  0.00     0.167 HD
ATOM     48  C   UNL A   1      41.961  33.487  33.176  1.00  0.00     0.031 A 
ATOM     49  C   UNL A   1      40.493  27.974  29.128  1.00  0.00     0.031 A 
ATOM     50  C   UNL A   1      42.980  32.472  33.133  1.00  0.00     0.049 A 
ATOM     51  C   UNL A   1      41.815  28.111  29.831  1.00  0.00     0.074 A 
ATOM     52  C   UNL A   1      44.185  32.432  33.814  1.00  0.00     0.029 A 
ATOM     53  N   UNL A   1      42.920  31.323  32.360  1.00  0.00    -0.354 N 
ATOM     54  N   UNL A   1      42.222  29.052  30.648  1.00  0.00    -0.248 NA
ATOM     55  C   UNL A   1      42.806  27.053  29.589  1.00  0.00     0.031 C 
ATOM     56  C   UNL A   1      44.881  31.291  33.404  1.00  0.00     0.029 A 
ATOM     57  C   UNL A   1      44.084  30.588  32.516  1.00  0.00     0.049 A 
ATOM     58  H   UNL A   1      42.162  31.066  31.787  1.00  0.00     0.167 HD
ATOM     59  C   UNL A   1      43.506  28.690  31.032  1.00  0.00     0.074 A 
ATOM     60  C   UNL A   1      43.802  27.433  30.376  1.00  0.00     0.031 C 
ATOM     61  C   UNL A   1      44.367  29.343  31.849  1.00  0.00     0.031 A 
BRANCH  48  62
ATOM     62  C   UNL A   1      42.219  34.718  33.997  1.00  0.00    -0.014 A 
ATOM     63  C   UNL A   1      41.960  34.741  35.378  1.00  0.00     0.009 A 
ATOM     64  C   UNL A   1      42.774  35.858  33.394  1.00  0.00     0.009 A 
ATOM     65  C   UNL A   1      42.223  35.889  36.129  1.00  0.00     0.001 A 
ATOM     66  C   UNL A   1      43.063  36.993  34.152  1.00  0.00     0.001 A 
ATOM     67  C   UNL A   1      42.779  37.011  35.517  1.00  0.00     0.000 A 
ENDBRANCH  48  62
BRANCH  49  68
ATOM     68  C   UNL A   1      40.223  26.809  28.244  1.00  0.00    -0.014 A 
ATOM     69  C   UNL A   1      40.781  26.745  26.958  1.00  0.00     0.009 A 
ATOM     70  C   UNL A   1      39.394  25.762  28.676  1.00  0.00     0.009 A 
ATOM     71  C   UNL A   1      40.491  25.672  26.114  1.00  0.00     0.001 A 
ATOM     72  C   UNL A   1      39.131  24.674  27.840  1.00  0.00     0.001 A 
ATOM     73  C   UNL A   1      39.671  24.636  26.556  1.00  0.00     0.000 A 
ENDBRANCH  49  68
BRANCH  61  74
ATOM     74  C   UNL A   1      45.704  28.702  32.092  1.00  0.00    -0.014 A 
ATOM     75  C   UNL A   1      45.880  27.755  33.113  1.00  0.00     0.009 A 
ATOM     76  C   UNL A   1      46.791  29.017  31.260  1.00  0.00     0.009 A 
ATOM     77  C   UNL A   1      47.126  27.157  33.314  1.00  0.00     0.001 A 
ATOM     78  C   UNL A   1      48.027  28.393  31.444  1.00  0.00     0.001 A 
ATOM     79  C   UNL A   1      48.195  27.472  32.476  1.00  0.00     0.000 A 
ENDBRANCH  61  74
ENDBRANCH  35  36
ENDBRANCH  27  30
ENDBRANCH  25  26
ENDBRANCH  24  25
ENDBRANCH  23  24
ENDBRANCH  22  23
ENDBRANCH   1  22
TORSDOF 18
ENDMDL
MODEL 3
REMARK VINA RESULT:      -9.5      6.513     11.602
REMARK SMILES CC[C@@H](C)SCc1cc(F)cc(/C=C/C(=O)NCCCCCCNC(=O)c2ccc(-c3c4nc(c(-c5ccccc5)c5ccc([nH]5)c(-c5ccccc5)c5nc(c(-c6ccccc6)c6ccc3[nH]6)C=C5)C=C4)cc2)c1
REMARK SMILES IDX 19 1 18 2 17 3 15 4 16 5 14 7 13 8 12 9 7 10 8 11 75 12 9 13
REMARK SMILES IDX 10 14 11 15 6 16 5 17 3 18 4 19 2 20 1 21 20 22 21 23 22 24
REMARK SMILES IDX 23 25 24 26 25 27 26 29 27 30 28 31 74 32 29 33 73 34 30 35
REMARK SMILES IDX 31 36 32 37 67 38 33 39 72 40 66 41 68 42 34 43 71 44 65 45
REMARK SMILES IDX 64 46 35 48 57 49 42 50 56 51 43 52 46 53 55 54 69 55 44 56
REMARK SMILES IDX 45 57 54 59 70 60 47 61 36 62 37 63 41 64 38 65 40 66 39 67
REMARK SMILES IDX 58 68 59 69 63 70 60 71 62 72 61 73 48 74 49 75 53 76 50 77
REMARK SMILES IDX 52 78 51 79
REMARK H PARENT 17 6 24 28 68 47 46 58
REMARK Flexibility Score: inf
ROOT
ATOM      1  C   UNL A   1      40.461  22.607  26.474  1.00  0.00     0.021 C 
ENDROOT
BRANCH   1   2
ATOM      2  C   UNL A   1      38.955  22.867  26.400  1.00  0.00     0.116 C 
BRANCH   2   3
ATOM      3  N   UNL A   1      38.261  21.680  25.934  1.00  0.00    -0.353 N 
ATOM      4  C   UNL A   1      37.058  21.530  25.320  1.00  0.00     0.243 C 
ATOM      5  O   UNL A   1      36.684  20.412  24.975  1.00  0.00    -0.270 OA
ATOM      6  H   UNL A   1      38.746  20.837  26.089  1.00  0.00     0.163 HD
BRANCH   4   7
ATOM      7  C   UNL A   1      36.255  22.713  24.944  1.00  0.00     0.072 C 
ATOM      8  C   UNL A   1      35.197  22.701  24.119  1.00  0.00     0.014 C 
BRANCH   8   9
ATOM      9  C   UNL A   1      34.360  23.894  23.922  1.00  0.00    -0.022 A 
ATOM     10  C   UNL A   1      33.659  26.064  24.813  1.00  0.00    -0.035 A 
ATOM     11  C   UNL A   1      33.065  26.359  23.580  1.00  0.00     0.043 A 
ATOM     12  C   UNL A   1      34.249  24.802  24.987  1.00  0.00     0.013 A 
ATOM     13  C   UNL A   1      33.095  25.421  22.553  1.00  0.00     0.124 A 
ATOM     14  F   UNL A   1      32.521  25.714  21.379  1.00  0.00    -0.207 F 
ATOM     15  C   UNL A   1      33.746  24.201  22.707  1.00  0.00     0.047 A 
BRANCH  10  16
ATOM     16  C   UNL A   1      33.719  27.097  25.906  1.00  0.00     0.105 C 
BRANCH  16  17
ATOM     17  S   UNL A   1      33.652  28.820  25.301  1.00  0.00    -0.154 SA
BRANCH  17  18
ATOM     18  C   UNL A   1      31.949  29.408  25.719  1.00  0.00     0.043 C 
ATOM     19  C   UNL A   1      31.027  29.418  24.500  1.00  0.00     0.019 C 
BRANCH  18  20
ATOM     20  C   UNL A   1      31.932  30.700  26.551  1.00  0.00     0.011 C 
ATOM     21  C   UNL A   1      33.210  30.939  27.346  1.00  0.00     0.005 C 
ENDBRANCH  18  20
ENDBRANCH  17  18
ENDBRANCH  16  17
ENDBRANCH  10  16
ENDBRANCH   8   9
ENDBRANCH   4   7
ENDBRANCH   2   3
ENDBRANCH   1   2
BRANCH   1  22
ATOM     22  C   UNL A   1      40.905  21.922  27.775  1.00  0.00     0.002 C 
BRANCH  22  23
ATOM     23  C   UNL A   1      42.290  21.266  27.725  1.00  0.00     0.002 C 
BRANCH  23  24
ATOM     24  C   UNL A   1      42.316  19.846  27.151  1.00  0.00     0.021 C 
BRANCH  24  25
ATOM     25  C   UNL A   1      42.198  19.777  25.630  1.00  0.00     0.116 C 
BRANCH  25  26
ATOM     26  N   UNL A   1      43.342  19.110  25.025  1.00  0.00    -0.352 N 
ATOM     27  C   UNL A   1      44.517  19.645  24.564  1.00  0.00     0.251 C 
ATOM     28  H   UNL A   1      43.260  18.134  24.935  1.00  0.00     0.163 HD
ATOM     29  O   UNL A   1      45.285  18.967  23.884  1.00  0.00    -0.269 OA
BRANCH  27  30
ATOM     30  C   UNL A   1      44.854  21.050  24.869  1.00  0.00     0.039 A 
ATOM     31  C   UNL A   1      44.503  22.048  23.956  1.00  0.00     0.014 A 
ATOM     32  C   UNL A   1      45.510  21.381  26.059  1.00  0.00     0.014 A 
ATOM     33  C   UNL A   1      44.734  23.388  24.274  1.00  0.00     0.010 A 
ATOM     34  C   UNL A   1      45.681  22.719  26.402  1.00  0.00     0.010 A 
ATOM     35  C   UNL A   1      45.282  23.735  25.521  1.00  0.00    -0.014 A 
BRANCH  35  36
ATOM     36  C   UNL A   1      45.403  25.151  25.945  1.00  0.00     0.031 A 
ATOM     37  C   UNL A   1      46.738  25.842  25.923  1.00  0.00     0.074 A 
ATOM     38  C   UNL A   1      44.321  25.787  26.436  1.00  0.00     0.049 A 
ATOM     39  N   UNL A   1      47.056  27.034  26.358  1.00  0.00    -0.248 NA
ATOM     40  C   UNL A   1      47.866  25.084  25.358  1.00  0.00     0.031 C 
ATOM     41  C   UNL A   1      42.975  25.220  26.534  1.00  0.00     0.029 A 
ATOM     42  N   UNL A   1      44.186  27.049  26.960  1.00  0.00    -0.354 N 
ATOM     43  C   UNL A   1      48.419  27.167  26.131  1.00  0.00     0.074 A 
ATOM     44  C   UNL A   1      48.877  25.918  25.560  1.00  0.00     0.031 C 
ATOM     45  C   UNL A   1      42.149  26.134  27.068  1.00  0.00     0.029 A 
ATOM     46  C   UNL A   1      42.915  27.331  27.398  1.00  0.00     0.049 A 
ATOM     47  H   UNL A   1      44.931  27.691  27.017  1.00  0.00     0.167 HD
ATOM     48  C   UNL A   1      49.217  28.237  26.364  1.00  0.00     0.031 A 
ATOM     49  C   UNL A   1      42.423  28.420  28.017  1.00  0.00     0.031 A 
ATOM     50  C   UNL A   1      48.761  29.477  26.934  1.00  0.00     0.049 A 
ATOM     51  C   UNL A   1      43.343  29.571  28.317  1.00  0.00     0.074 A 
ATOM     52  C   UNL A   1      49.481  30.637  27.161  1.00  0.00     0.029 A 
ATOM     53  N   UNL A   1      47.469  29.715  27.378  1.00  0.00    -0.354 N 
ATOM     54  N   UNL A   1      44.616  29.706  28.035  1.00  0.00    -0.248 NA
ATOM     55  C   UNL A   1      42.755  30.721  29.020  1.00  0.00     0.031 C 
ATOM     56  C   UNL A   1      48.641  31.555  27.800  1.00  0.00     0.029 A 
ATOM     57  C   UNL A   1      47.382  30.989  27.915  1.00  0.00     0.049 A 
ATOM     58  H   UNL A   1      46.724  29.074  27.320  1.00  0.00     0.167 HD
ATOM     59  C   UNL A   1      44.977  30.960  28.509  1.00  0.00     0.074 A 
ATOM     60  C   UNL A   1      43.784  31.555  29.075  1.00  0.00     0.031 C 
ATOM     61  C   UNL A   1      46.190  31.563  28.483  1.00  0.00     0.031 A 
BRANCH  48  62
ATOM     62  C   UNL A   1      50.673  28.110  26.014  1.00  0.00    -0.014 A 
ATOM     63  C   UNL A   1      51.154  28.483  24.748  1.00  0.00     0.009 A 
ATOM     64  C   UNL A   1      51.586  27.655  26.979  1.00  0.00     0.009 A 
ATOM     65  C   UNL A   1      52.513  28.375  24.447  1.00  0.00     0.001 A 
ATOM     66  C   UNL A   1      52.948  27.576  26.685  1.00  0.00     0.001 A 
ATOM     67  C   UNL A   1      53.410  27.927  25.417  1.00  0.00     0.000 A 
ENDBRANCH  48  62
BRANCH  49  68
ATOM     68  C   UNL A   1      40.991  28.472  28.414  1.00  0.00    -0.014 A 
ATOM     69  C   UNL A   1      40.570  27.935  29.640  1.00  0.00     0.009 A 
ATOM     70  C   UNL A   1      40.034  29.047  27.562  1.00  0.00     0.009 A 
ATOM     71  C   UNL A   1      39.219  27.945  29.991  1.00  0.00     0.001 A 
ATOM     72  C   UNL A   1      38.687  29.084  27.930  1.00  0.00     0.001 A 
ATOM     73  C   UNL A   1      38.280  28.524  29.139  1.00  0.00     0.000 A 
ENDBRANCH  49  68
BRANCH  61  74
ATOM     74  C   UNL A   1      46.284  32.943  29.070  1.00  0.00    -0.014 A 
ATOM     75  C   UNL A   1      46.635  33.137  30.416  1.00  0.00     0.009 A 
ATOM     76  C   UNL A   1      46.062  34.066  28.256  1.00  0.00     0.009 A 
ATOM     77  C   UNL A   1      46.735  34.427  30.940  1.00  0.00     0.001 A 
ATOM     78  C   UNL A   1      46.194  35.354  28.776  1.00  0.00     0.001 A 
ATOM     79  C   UNL A   1      46.520  35.533  30.120  1.00  0.00     0.000 A 
ENDBRANCH  61  74
ENDBRANCH  35  36
ENDBRANCH  27  30
ENDBRANCH  25  26
ENDBRANCH  24  25
ENDBRANCH  23  24
ENDBRANCH  22  23
ENDBRANCH   1  22
TORSDOF 18
ENDMDL
