MODEL 1
REMARK VINA RESULT:     -11.7      0.000      0.000
REMARK SMILES COc1ccc(Cl)cc1C(=O)Nc1ccc(C(=O)NCCCCCCNC(=O)c2ccc(-c3c4nc(c(-c5ccccc5)c5ccc([nH]5)c(-c5ccccc5)c5nc(c(-c6ccccc6)c6ccc3[nH]6)C=C5)C=C4)cc2)cc1C
REMARK SMILES IDX 22 1 21 2 20 3 19 4 17 5 18 6 16 8 13 9 14 10 78 11 15 12
REMARK SMILES IDX 77 13 79 14 12 15 10 16 11 17 9 19 3 20 4 21 5 22 8 23 6 24
REMARK SMILES IDX 7 25 2 26 1 27 23 28 24 29 25 30 26 31 27 32 28 34 29 35
REMARK SMILES IDX 30 36 76 37 31 38 75 39 32 40 33 41 34 42 69 43 35 44 74 45
REMARK SMILES IDX 68 46 70 47 36 48 73 49 67 50 66 51 37 53 59 54 44 55 58 56
REMARK SMILES IDX 45 57 48 58 57 59 71 60 46 61 47 62 56 64 72 65 49 66 38 67
REMARK SMILES IDX 39 68 43 69 40 70 42 71 41 72 60 73 61 74 65 75 62 76 64 77
REMARK SMILES IDX 63 78 50 79 51 80 55 81 52 82 54 83 53 84
REMARK H PARENT 19 7 12 18 26 33 70 52 48 63
REMARK Flexibility Score: inf
ROOT
ATOM      1  C   UNL A   1      31.781  30.197  26.007  1.00  0.00     0.002 C 
ENDROOT
BRANCH   1   2
ATOM      2  C   UNL A   1      32.466  28.994  25.342  1.00  0.00     0.021 C 
BRANCH   2   3
ATOM      3  C   UNL A   1      32.839  29.223  23.877  1.00  0.00     0.116 C 
BRANCH   3   4
ATOM      4  N   UNL A   1      31.648  29.253  23.048  1.00  0.00    -0.352 N 
ATOM      5  C   UNL A   1      30.856  28.268  22.516  1.00  0.00     0.251 C 
ATOM      6  O   UNL A   1      29.876  28.613  21.856  1.00  0.00    -0.269 OA
ATOM      7  H   UNL A   1      31.349  30.163  22.823  1.00  0.00     0.163 HD
BRANCH   5   8
ATOM      8  C   UNL A   1      31.062  26.823  22.807  1.00  0.00     0.040 A 
ATOM      9  C   UNL A   1      31.317  24.032  22.827  1.00  0.00     0.044 A 
ATOM     10  C   UNL A   1      30.326  24.658  23.591  1.00  0.00     0.027 A 
ATOM     11  C   UNL A   1      32.310  24.806  22.200  1.00  0.00    -0.027 A 
ATOM     12  C   UNL A   1      30.235  26.054  23.622  1.00  0.00     0.016 A 
ATOM     13  C   UNL A   1      32.139  26.200  22.160  1.00  0.00     0.019 A 
ATOM     14  C   UNL A   1      33.449  24.223  21.407  1.00  0.00     0.046 C 
BRANCH   9  15
ATOM     15  N   UNL A   1      31.344  22.643  22.680  1.00  0.00    -0.322 N 
ATOM     16  C   UNL A   1      32.096  21.665  23.282  1.00  0.00     0.259 C 
ATOM     17  O   UNL A   1      32.057  20.543  22.763  1.00  0.00    -0.269 OA
ATOM     18  H   UNL A   1      30.700  22.301  22.018  1.00  0.00     0.170 HD
BRANCH  16  19
ATOM     19  C   UNL A   1      32.872  21.808  24.555  1.00  0.00     0.083 A 
ATOM     20  C   UNL A   1      32.349  21.997  25.851  1.00  0.00     0.131 A 
ATOM     21  C   UNL A   1      33.218  21.967  26.959  1.00  0.00     0.049 A 
ATOM     22  C   UNL A   1      34.582  21.719  26.802  1.00  0.00     0.024 A 
ATOM     23  C   UNL A   1      34.256  21.553  24.421  1.00  0.00     0.038 A 
ATOM     24  C   UNL A   1      35.092  21.499  25.533  1.00  0.00     0.042 A 
ATOM     25  Cl  UNL A   1      36.757  21.112  25.341  1.00  0.00    -0.084 Cl
BRANCH  20  26
ATOM     26  O   UNL A   1      30.993  22.083  26.027  1.00  0.00    -0.496 OA
ATOM     27  C   UNL A   1      30.529  23.142  26.863  1.00  0.00     0.278 C 
ENDBRANCH  20  26
ENDBRANCH  16  19
ENDBRANCH   9  15
ENDBRANCH   5   8
ENDBRANCH   3   4
ENDBRANCH   2   3
ENDBRANCH   1   2
BRANCH   1  28
ATOM     28  C   UNL A   1      32.549  30.860  27.166  1.00  0.00     0.002 C 
BRANCH  28  29
ATOM     29  C   UNL A   1      34.058  30.604  27.208  1.00  0.00     0.021 C 
BRANCH  29  30
ATOM     30  C   UNL A   1      34.849  31.655  27.977  1.00  0.00     0.116 C 
BRANCH  30  31
ATOM     31  N   UNL A   1      34.021  32.710  28.548  1.00  0.00    -0.352 N 
ATOM     32  C   UNL A   1      34.276  33.557  29.618  1.00  0.00     0.251 C 
ATOM     33  H   UNL A   1      33.151  32.842  28.107  1.00  0.00     0.163 HD
ATOM     34  O   UNL A   1      33.450  34.367  29.968  1.00  0.00    -0.269 OA
BRANCH  32  35
ATOM     35  C   UNL A   1      35.632  33.556  30.228  1.00  0.00     0.039 A 
ATOM     36  C   UNL A   1      36.651  34.196  29.512  1.00  0.00     0.014 A 
ATOM     37  C   UNL A   1      35.939  32.767  31.332  1.00  0.00     0.014 A 
ATOM     38  C   UNL A   1      37.972  33.819  29.729  1.00  0.00     0.010 A 
ATOM     39  C   UNL A   1      37.238  32.329  31.496  1.00  0.00     0.010 A 
ATOM     40  C   UNL A   1      38.234  32.787  30.630  1.00  0.00    -0.014 A 
BRANCH  40  41
ATOM     41  C   UNL A   1      39.485  32.039  30.616  1.00  0.00     0.031 A 
ATOM     42  C   UNL A   1      39.581  30.771  29.858  1.00  0.00     0.074 A 
ATOM     43  C   UNL A   1      40.554  32.520  31.293  1.00  0.00     0.049 A 
ATOM     44  N   UNL A   1      40.396  29.811  30.142  1.00  0.00    -0.248 NA
ATOM     45  C   UNL A   1      38.699  30.464  28.736  1.00  0.00     0.031 C 
ATOM     46  C   UNL A   1      41.923  32.004  31.250  1.00  0.00     0.029 A 
ATOM     47  N   UNL A   1      40.614  33.475  32.313  1.00  0.00    -0.354 N 
ATOM     48  C   UNL A   1      40.365  28.919  29.094  1.00  0.00     0.074 A 
ATOM     49  C   UNL A   1      39.221  29.312  28.303  1.00  0.00     0.031 C 
ATOM     50  C   UNL A   1      42.554  32.381  32.375  1.00  0.00     0.029 A 
ATOM     51  C   UNL A   1      41.553  32.992  33.234  1.00  0.00     0.049 A 
ATOM     52  H   UNL A   1      40.101  34.313  32.372  1.00  0.00     0.167 HD
ATOM     53  C   UNL A   1      41.396  28.041  28.926  1.00  0.00     0.031 A 
ATOM     54  C   UNL A   1      41.261  32.569  34.502  1.00  0.00     0.031 A 
ATOM     55  C   UNL A   1      42.344  28.101  30.039  1.00  0.00     0.049 A 
ATOM     56  C   UNL A   1      41.716  31.145  34.787  1.00  0.00     0.074 A 
ATOM     57  C   UNL A   1      43.576  28.714  30.198  1.00  0.00     0.029 A 
ATOM     58  N   UNL A   1      41.929  27.719  31.311  1.00  0.00    -0.354 N 
ATOM     59  N   UNL A   1      42.002  30.274  33.858  1.00  0.00    -0.248 NA
ATOM     60  C   UNL A   1      41.806  30.569  36.130  1.00  0.00     0.031 C 
ATOM     61  C   UNL A   1      43.855  28.784  31.589  1.00  0.00     0.029 A 
ATOM     62  C   UNL A   1      42.811  28.181  32.269  1.00  0.00     0.049 A 
ATOM     63  H   UNL A   1      41.118  27.194  31.501  1.00  0.00     0.167 HD
ATOM     64  C   UNL A   1      42.279  29.062  34.431  1.00  0.00     0.074 A 
ATOM     65  C   UNL A   1      42.165  29.301  35.859  1.00  0.00     0.031 C 
ATOM     66  C   UNL A   1      42.547  27.952  33.683  1.00  0.00     0.031 A 
BRANCH  53  67
ATOM     67  C   UNL A   1      41.703  27.359  27.608  1.00  0.00    -0.014 A 
ATOM     68  C   UNL A   1      41.109  26.116  27.314  1.00  0.00     0.009 A 
ATOM     69  C   UNL A   1      42.619  27.834  26.655  1.00  0.00     0.009 A 
ATOM     70  C   UNL A   1      41.486  25.354  26.198  1.00  0.00     0.001 A 
ATOM     71  C   UNL A   1      43.029  27.064  25.556  1.00  0.00     0.001 A 
ATOM     72  C   UNL A   1      42.471  25.814  25.336  1.00  0.00     0.000 A 
ENDBRANCH  53  67
BRANCH  54  73
ATOM     73  C   UNL A   1      40.041  33.165  35.110  1.00  0.00    -0.014 A 
ATOM     74  C   UNL A   1      38.815  32.486  34.987  1.00  0.00     0.009 A 
ATOM     75  C   UNL A   1      40.140  34.205  36.045  1.00  0.00     0.009 A 
ATOM     76  C   UNL A   1      37.757  32.758  35.860  1.00  0.00     0.001 A 
ATOM     77  C   UNL A   1      39.074  34.484  36.908  1.00  0.00     0.001 A 
ATOM     78  C   UNL A   1      37.898  33.737  36.839  1.00  0.00     0.000 A 
ENDBRANCH  54  73
BRANCH  66  79
ATOM     79  C   UNL A   1      42.631  26.544  34.213  1.00  0.00    -0.014 A 
ATOM     80  C   UNL A   1      43.767  25.731  34.100  1.00  0.00     0.009 A 
ATOM     81  C   UNL A   1      41.568  26.046  34.997  1.00  0.00     0.009 A 
ATOM     82  C   UNL A   1      43.818  24.463  34.696  1.00  0.00     0.001 A 
ATOM     83  C   UNL A   1      41.633  24.802  35.630  1.00  0.00     0.001 A 
ATOM     84  C   UNL A   1      42.756  24.004  35.468  1.00  0.00     0.000 A 
ENDBRANCH  66  79
ENDBRANCH  40  41
ENDBRANCH  32  35
ENDBRANCH  30  31
ENDBRANCH  29  30
ENDBRANCH  28  29
ENDBRANCH   1  28
TORSDOF 16
ENDMDL
MODEL 2
REMARK VINA RESULT:     -11.7      4.374      9.755
REMARK SMILES COc1ccc(Cl)cc1C(=O)Nc1ccc(C(=O)NCCCCCCNC(=O)c2ccc(-c3c4nc(c(-c5ccccc5)c5ccc([nH]5)c(-c5ccccc5)c5nc(c(-c6ccccc6)c6ccc3[nH]6)C=C5)C=C4)cc2)cc1C
REMARK SMILES IDX 22 1 21 2 20 3 19 4 17 5 18 6 16 8 13 9 14 10 78 11 15 12
REMARK SMILES IDX 77 13 79 14 12 15 10 16 11 17 9 19 3 20 4 21 5 22 8 23 6 24
REMARK SMILES IDX 7 25 2 26 1 27 23 28 24 29 25 30 26 31 27 32 28 34 29 35
REMARK SMILES IDX 30 36 76 37 31 38 75 39 32 40 33 41 34 42 69 43 35 44 74 45
REMARK SMILES IDX 68 46 70 47 36 48 73 49 67 50 66 51 37 53 59 54 44 55 58 56
REMARK SMILES IDX 45 57 48 58 57 59 71 60 46 61 47 62 56 64 72 65 49 66 38 67
REMARK SMILES IDX 39 68 43 69 40 70 42 71 41 72 60 73 61 74 65 75 62 76 64 77
REMARK SMILES IDX 63 78 50 79 51 80 55 81 52 82 54 83 53 84
REMARK H PARENT 19 7 12 18 26 33 70 52 48 63
REMARK Flexibility Score: inf
ROOT
ATOM      1  C   UNL A   1      40.725  21.791  26.142  1.00  0.00     0.002 C 
ENDROOT
BRANCH   1   2
ATOM      2  C   UNL A   1      39.333  22.377  26.417  1.00  0.00     0.021 C 
BRANCH   2   3
ATOM      3  C   UNL A   1      38.193  21.611  25.745  1.00  0.00     0.116 C 
BRANCH   3   4
ATOM      4  N   UNL A   1      37.815  22.251  24.498  1.00  0.00    -0.352 N 
ATOM      5  C   UNL A   1      36.628  22.753  24.028  1.00  0.00     0.251 C 
ATOM      6  O   UNL A   1      36.624  23.269  22.911  1.00  0.00    -0.269 OA
ATOM      7  H   UNL A   1      38.561  22.344  23.862  1.00  0.00     0.163 HD
BRANCH   5   8
ATOM      8  C   UNL A   1      35.392  22.807  24.856  1.00  0.00     0.040 A 
ATOM      9  C   UNL A   1      32.816  23.016  25.939  1.00  0.00     0.044 A 
ATOM     10  C   UNL A   1      33.806  23.943  26.283  1.00  0.00     0.027 A 
ATOM     11  C   UNL A   1      33.159  21.867  25.204  1.00  0.00    -0.027 A 
ATOM     12  C   UNL A   1      35.106  23.807  25.784  1.00  0.00     0.016 A 
ATOM     13  C   UNL A   1      34.440  21.804  24.631  1.00  0.00     0.019 A 
ATOM     14  C   UNL A   1      32.180  20.785  24.837  1.00  0.00     0.046 C 
BRANCH   9  15
ATOM     15  N   UNL A   1      31.486  23.206  26.320  1.00  0.00    -0.322 N 
ATOM     16  C   UNL A   1      30.654  24.298  26.261  1.00  0.00     0.259 C 
ATOM     17  O   UNL A   1      29.600  24.222  26.902  1.00  0.00    -0.269 OA
ATOM     18  H   UNL A   1      31.064  22.404  26.706  1.00  0.00     0.170 HD
BRANCH  16  19
ATOM     19  C   UNL A   1      30.862  25.519  25.418  1.00  0.00     0.083 A 
ATOM     20  C   UNL A   1      31.036  26.842  25.871  1.00  0.00     0.131 A 
ATOM     21  C   UNL A   1      31.366  27.852  24.946  1.00  0.00     0.049 A 
ATOM     22  C   UNL A   1      31.559  27.562  23.596  1.00  0.00     0.024 A 
ATOM     23  C   UNL A   1      31.068  25.247  24.046  1.00  0.00     0.038 A 
ATOM     24  C   UNL A   1      31.423  26.256  23.154  1.00  0.00     0.042 A 
ATOM     25  Cl  UNL A   1      31.739  25.877  21.507  1.00  0.00    -0.084 Cl
BRANCH  20  26
ATOM     26  O   UNL A   1      31.005  27.107  27.215  1.00  0.00    -0.496 OA
ATOM     27  C   UNL A   1      31.769  28.228  27.658  1.00  0.00     0.278 C 
ENDBRANCH  20  26
ENDBRANCH  16  19
ENDBRANCH   9  15
ENDBRANCH   5   8
ENDBRANCH   3   4
ENDBRANCH   2   3
ENDBRANCH   1   2
BRANCH   1  28
ATOM     28  C   UNL A   1      41.080  20.498  26.901  1.00  0.00     0.002 C 
BRANCH  28  29
ATOM     29  C   UNL A   1      41.912  19.471  26.128  1.00  0.00     0.021 C 
BRANCH  29  30
ATOM     30  C   UNL A   1      43.384  19.839  25.986  1.00  0.00     0.116 C 
BRANCH  30  31
ATOM     31  N   UNL A   1      43.731  20.372  24.675  1.00  0.00    -0.352 N 
ATOM     32  C   UNL A   1      44.310  21.588  24.335  1.00  0.00     0.251 C 
ATOM     33  H   UNL A   1      43.524  19.781  23.915  1.00  0.00     0.163 HD
ATOM     34  O   UNL A   1      44.505  21.872  23.177  1.00  0.00    -0.269 OA
BRANCH  32  35
ATOM     35  C   UNL A   1      44.822  22.467  25.420  1.00  0.00     0.039 A 
ATOM     36  C   UNL A   1      44.369  22.205  26.718  1.00  0.00     0.014 A 
ATOM     37  C   UNL A   1      45.527  23.636  25.145  1.00  0.00     0.014 A 
ATOM     38  C   UNL A   1      44.376  23.228  27.659  1.00  0.00     0.010 A 
ATOM     39  C   UNL A   1      45.462  24.679  26.047  1.00  0.00     0.010 A 
ATOM     40  C   UNL A   1      44.802  24.497  27.265  1.00  0.00    -0.014 A 
BRANCH  40  41
ATOM     41  C   UNL A   1      44.456  25.702  28.009  1.00  0.00     0.031 A 
ATOM     42  C   UNL A   1      43.103  26.288  27.880  1.00  0.00     0.074 A 
ATOM     43  C   UNL A   1      45.379  26.269  28.821  1.00  0.00     0.049 A 
ATOM     44  N   UNL A   1      42.828  27.536  28.062  1.00  0.00    -0.248 NA
ATOM     45  C   UNL A   1      41.946  25.498  27.468  1.00  0.00     0.031 C 
ATOM     46  C   UNL A   1      45.160  27.364  29.766  1.00  0.00     0.029 A 
ATOM     47  N   UNL A   1      46.767  26.107  28.850  1.00  0.00    -0.354 N 
ATOM     48  C   UNL A   1      41.457  27.658  28.092  1.00  0.00     0.074 A 
ATOM     49  C   UNL A   1      40.960  26.389  27.611  1.00  0.00     0.031 C 
ATOM     50  C   UNL A   1      46.338  27.967  29.998  1.00  0.00     0.029 A 
ATOM     51  C   UNL A   1      47.297  27.384  29.074  1.00  0.00     0.049 A 
ATOM     52  H   UNL A   1      47.270  25.268  28.736  1.00  0.00     0.167 HD
ATOM     53  C   UNL A   1      40.891  28.760  28.663  1.00  0.00     0.031 A 
ATOM     54  C   UNL A   1      48.028  28.100  28.166  1.00  0.00     0.031 A 
ATOM     55  C   UNL A   1      41.899  29.754  29.035  1.00  0.00     0.049 A 
ATOM     56  C   UNL A   1      47.445  29.473  27.863  1.00  0.00     0.074 A 
ATOM     57  C   UNL A   1      42.503  30.081  30.239  1.00  0.00     0.029 A 
ATOM     58  N   UNL A   1      42.646  30.375  28.040  1.00  0.00    -0.354 N 
ATOM     59  N   UNL A   1      46.210  29.810  28.118  1.00  0.00    -0.248 NA
ATOM     60  C   UNL A   1      48.177  30.541  27.180  1.00  0.00     0.031 C 
ATOM     61  C   UNL A   1      43.678  30.826  29.951  1.00  0.00     0.029 A 
ATOM     62  C   UNL A   1      43.765  30.981  28.578  1.00  0.00     0.049 A 
ATOM     63  H   UNL A   1      42.410  30.380  27.084  1.00  0.00     0.167 HD
ATOM     64  C   UNL A   1      45.966  31.069  27.639  1.00  0.00     0.074 A 
ATOM     65  C   UNL A   1      47.235  31.497  27.079  1.00  0.00     0.031 C 
ATOM     66  C   UNL A   1      44.730  31.644  27.713  1.00  0.00     0.031 A 
BRANCH  53  67
ATOM     67  C   UNL A   1      39.462  28.799  29.163  1.00  0.00    -0.014 A 
ATOM     68  C   UNL A   1      38.439  29.256  28.310  1.00  0.00     0.009 A 
ATOM     69  C   UNL A   1      39.062  28.481  30.472  1.00  0.00     0.009 A 
ATOM     70  C   UNL A   1      37.131  29.482  28.765  1.00  0.00     0.001 A 
ATOM     71  C   UNL A   1      37.767  28.737  30.947  1.00  0.00     0.001 A 
ATOM     72  C   UNL A   1      36.803  29.253  30.094  1.00  0.00     0.000 A 
ENDBRANCH  53  67
BRANCH  54  73
ATOM     73  C   UNL A   1      48.759  27.292  27.153  1.00  0.00    -0.014 A 
ATOM     74  C   UNL A   1      48.171  27.082  25.893  1.00  0.00     0.009 A 
ATOM     75  C   UNL A   1      50.121  27.002  27.314  1.00  0.00     0.009 A 
ATOM     76  C   UNL A   1      48.951  26.710  24.794  1.00  0.00     0.001 A 
ATOM     77  C   UNL A   1      50.896  26.617  26.213  1.00  0.00     0.001 A 
ATOM     78  C   UNL A   1      50.319  26.507  24.949  1.00  0.00     0.000 A 
ENDBRANCH  54  73
BRANCH  66  79
ATOM     79  C   UNL A   1      44.319  32.914  27.013  1.00  0.00    -0.014 A 
ATOM     80  C   UNL A   1      44.093  33.010  25.633  1.00  0.00     0.009 A 
ATOM     81  C   UNL A   1      43.999  34.048  27.790  1.00  0.00     0.009 A 
ATOM     82  C   UNL A   1      43.621  34.195  25.052  1.00  0.00     0.001 A 
ATOM     83  C   UNL A   1      43.485  35.216  27.221  1.00  0.00     0.001 A 
ATOM     84  C   UNL A   1      43.308  35.294  25.847  1.00  0.00     0.000 A 
ENDBRANCH  66  79
ENDBRANCH  40  41
ENDBRANCH  32  35
ENDBRANCH  30  31
ENDBRANCH  29  30
ENDBRANCH  28  29
ENDBRANCH   1  28
TORSDOF 16
ENDMDL
MODEL 3
REMARK VINA RESULT:     -11.6      3.233      8.399
REMARK SMILES COc1ccc(Cl)cc1C(=O)Nc1ccc(C(=O)NCCCCCCNC(=O)c2ccc(-c3c4nc(c(-c5ccccc5)c5ccc([nH]5)c(-c5ccccc5)c5nc(c(-c6ccccc6)c6ccc3[nH]6)C=C5)C=C4)cc2)cc1C
REMARK SMILES IDX 22 1 21 2 20 3 19 4 17 5 18 6 16 8 13 9 14 10 78 11 15 12
REMARK SMILES IDX 77 13 79 14 12 15 10 16 11 17 9 19 3 20 4 21 5 22 8 23 6 24
REMARK SMILES IDX 7 25 2 26 1 27 23 28 24 29 25 30 26 31 27 32 28 34 29 35
REMARK SMILES IDX 30 36 76 37 31 38 75 39 32 40 33 41 34 42 69 43 35 44 74 45
REMARK SMILES IDX 68 46 70 47 36 48 73 49 67 50 66 51 37 53 59 54 44 55 58 56
REMARK SMILES IDX 45 57 48 58 57 59 71 60 46 61 47 62 56 64 72 65 49 66 38 67
REMARK SMILES IDX 39 68 43 69 40 70 42 71 41 72 60 73 61 74 65 75 62 76 64 77
REMARK SMILES IDX 63 78 50 79 51 80 55 81 52 82 54 83 53 84
REMARK H PARENT 19 7 12 18 26 33 70 52 48 63
REMARK Flexibility Score: inf
ROOT
ATOM      1  C   UNL A   1      35.650  23.401  25.690  1.00  0.00     0.002 C 
ENDROOT
BRANCH   1   2
ATOM      2  C   UNL A   1      34.738  22.666  26.682  1.00  0.00     0.021 C 
BRANCH   2   3
ATOM      3  C   UNL A   1      34.251  21.303  26.186  1.00  0.00     0.116 C 
BRANCH   3   4
ATOM      4  N   UNL A   1      32.805  21.218  26.271  1.00  0.00    -0.352 N 
ATOM      5  C   UNL A   1      31.793  22.011  25.792  1.00  0.00     0.251 C 
ATOM      6  O   UNL A   1      30.634  21.659  26.012  1.00  0.00    -0.269 OA
ATOM      7  H   UNL A   1      32.486  20.433  26.773  1.00  0.00     0.163 HD
BRANCH   5   8
ATOM      8  C   UNL A   1      32.039  23.194  24.924  1.00  0.00     0.040 A 
ATOM      9  C   UNL A   1      33.022  25.245  23.286  1.00  0.00     0.044 A 
ATOM     10  C   UNL A   1      32.527  25.534  24.562  1.00  0.00     0.027 A 
ATOM     11  C   UNL A   1      32.851  23.958  22.745  1.00  0.00    -0.027 A 
ATOM     12  C   UNL A   1      31.987  24.518  25.358  1.00  0.00     0.016 A 
ATOM     13  C   UNL A   1      32.402  22.934  23.595  1.00  0.00     0.019 A 
ATOM     14  C   UNL A   1      33.295  23.567  21.361  1.00  0.00     0.046 C 
BRANCH   9  15
ATOM     15  N   UNL A   1      33.681  26.218  22.531  1.00  0.00    -0.322 N 
ATOM     16  C   UNL A   1      33.542  27.582  22.459  1.00  0.00     0.259 C 
ATOM     17  O   UNL A   1      34.107  28.144  21.513  1.00  0.00    -0.269 OA
ATOM     18  H   UNL A   1      34.377  25.855  21.936  1.00  0.00     0.170 HD
BRANCH  16  19
ATOM     19  C   UNL A   1      32.858  28.453  23.468  1.00  0.00     0.083 A 
ATOM     20  C   UNL A   1      31.538  28.944  23.407  1.00  0.00     0.131 A 
ATOM     21  C   UNL A   1      31.004  29.632  24.515  1.00  0.00     0.049 A 
ATOM     22  C   UNL A   1      31.745  29.806  25.684  1.00  0.00     0.024 A 
ATOM     23  C   UNL A   1      33.587  28.635  24.664  1.00  0.00     0.038 A 
ATOM     24  C   UNL A   1      33.030  29.293  25.758  1.00  0.00     0.042 A 
ATOM     25  Cl  UNL A   1      33.918  29.432  27.224  1.00  0.00    -0.084 Cl
BRANCH  20  26
ATOM     26  O   UNL A   1      30.752  28.641  22.327  1.00  0.00    -0.496 OA
ATOM     27  C   UNL A   1      29.402  29.103  22.376  1.00  0.00     0.278 C 
ENDBRANCH  20  26
ENDBRANCH  16  19
ENDBRANCH   9  15
ENDBRANCH   5   8
ENDBRANCH   3   4
ENDBRANCH   2   3
ENDBRANCH   1   2
BRANCH   1  28
ATOM     28  C   UNL A   1      37.010  23.872  26.239  1.00  0.00     0.002 C 
BRANCH  28  29
ATOM     29  C   UNL A   1      38.080  22.790  26.408  1.00  0.00     0.021 C 
BRANCH  29  30
ATOM     30  C   UNL A   1      39.461  23.193  25.907  1.00  0.00     0.116 C 
BRANCH  30  31
ATOM     31  N   UNL A   1      40.496  23.140  26.932  1.00  0.00    -0.352 N 
ATOM     32  C   UNL A   1      40.905  24.116  27.831  1.00  0.00     0.251 C 
ATOM     33  H   UNL A   1      40.975  22.283  26.997  1.00  0.00     0.163 HD
ATOM     34  O   UNL A   1      41.808  23.897  28.603  1.00  0.00    -0.269 OA
BRANCH  32  35
ATOM     35  C   UNL A   1      40.121  25.375  27.931  1.00  0.00     0.039 A 
ATOM     36  C   UNL A   1      40.543  26.451  27.141  1.00  0.00     0.014 A 
ATOM     37  C   UNL A   1      39.164  25.566  28.923  1.00  0.00     0.014 A 
ATOM     38  C   UNL A   1      40.219  27.746  27.529  1.00  0.00     0.010 A 
ATOM     39  C   UNL A   1      38.907  26.850  29.361  1.00  0.00     0.010 A 
ATOM     40  C   UNL A   1      39.514  27.931  28.718  1.00  0.00    -0.014 A 
BRANCH  40  41
ATOM     41  C   UNL A   1      39.498  29.206  29.425  1.00  0.00     0.031 A 
ATOM     42  C   UNL A   1      38.499  30.237  29.071  1.00  0.00     0.074 A 
ATOM     43  C   UNL A   1      40.398  29.429  30.412  1.00  0.00     0.049 A 
ATOM     44  N   UNL A   1      38.667  31.506  29.240  1.00  0.00    -0.248 NA
ATOM     45  C   UNL A   1      37.230  29.907  28.427  1.00  0.00     0.031 C 
ATOM     46  C   UNL A   1      40.422  30.562  31.337  1.00  0.00     0.029 A 
ATOM     47  N   UNL A   1      41.603  28.775  30.690  1.00  0.00    -0.354 N 
ATOM     48  C   UNL A   1      37.453  32.117  29.022  1.00  0.00     0.074 A 
ATOM     49  C   UNL A   1      36.626  31.099  28.416  1.00  0.00     0.031 C 
ATOM     50  C   UNL A   1      41.675  30.705  31.801  1.00  0.00     0.029 A 
ATOM     51  C   UNL A   1      42.510  29.781  31.051  1.00  0.00     0.049 A 
ATOM     52  H   UNL A   1      41.779  27.808  30.642  1.00  0.00     0.167 HD
ATOM     53  C   UNL A   1      37.231  33.370  29.516  1.00  0.00     0.031 A 
ATOM     54  C   UNL A   1      43.603  30.150  30.316  1.00  0.00     0.031 A 
ATOM     55  C   UNL A   1      38.445  33.943  30.100  1.00  0.00     0.049 A 
ATOM     56  C   UNL A   1      43.624  31.629  29.958  1.00  0.00     0.074 A 
ATOM     57  C   UNL A   1      38.894  34.073  31.404  1.00  0.00     0.029 A 
ATOM     58  N   UNL A   1      39.535  34.215  29.280  1.00  0.00    -0.354 N 
ATOM     59  N   UNL A   1      42.571  32.400  29.993  1.00  0.00    -0.248 NA
ATOM     60  C   UNL A   1      44.806  32.333  29.457  1.00  0.00     0.031 C 
ATOM     61  C   UNL A   1      40.291  34.330  31.362  1.00  0.00     0.029 A 
ATOM     62  C   UNL A   1      40.678  34.393  30.035  1.00  0.00     0.049 A 
ATOM     63  H   UNL A   1      39.496  34.270  28.298  1.00  0.00     0.167 HD
ATOM     64  C   UNL A   1      42.893  33.644  29.520  1.00  0.00     0.074 A 
ATOM     65  C   UNL A   1      44.311  33.561  29.217  1.00  0.00     0.031 C 
ATOM     66  C   UNL A   1      41.959  34.630  29.384  1.00  0.00     0.031 A 
BRANCH  53  67
ATOM     67  C   UNL A   1      35.847  33.942  29.746  1.00  0.00    -0.014 A 
ATOM     68  C   UNL A   1      35.116  34.452  28.655  1.00  0.00     0.009 A 
ATOM     69  C   UNL A   1      35.239  34.085  31.004  1.00  0.00     0.009 A 
ATOM     70  C   UNL A   1      33.912  35.151  28.825  1.00  0.00     0.001 A 
ATOM     71  C   UNL A   1      34.054  34.814  31.188  1.00  0.00     0.001 A 
ATOM     72  C   UNL A   1      33.397  35.360  30.097  1.00  0.00     0.000 A 
ENDBRANCH  53  67
BRANCH  54  73
ATOM     73  C   UNL A   1      44.163  29.096  29.429  1.00  0.00    -0.014 A 
ATOM     74  C   UNL A   1      44.821  27.995  30.008  1.00  0.00     0.009 A 
ATOM     75  C   UNL A   1      43.788  29.018  28.080  1.00  0.00     0.009 A 
ATOM     76  C   UNL A   1      44.990  26.806  29.292  1.00  0.00     0.001 A 
ATOM     77  C   UNL A   1      43.970  27.830  27.363  1.00  0.00     0.001 A 
ATOM     78  C   UNL A   1      44.537  26.715  27.979  1.00  0.00     0.000 A 
ENDBRANCH  54  73
BRANCH  66  79
ATOM     79  C   UNL A   1      42.172  35.937  28.663  1.00  0.00    -0.014 A 
ATOM     80  C   UNL A   1      42.505  37.138  29.303  1.00  0.00     0.009 A 
ATOM     81  C   UNL A   1      42.182  35.943  27.252  1.00  0.00     0.009 A 
ATOM     82  C   UNL A   1      42.782  38.301  28.570  1.00  0.00     0.001 A 
ATOM     83  C   UNL A   1      42.502  37.088  26.518  1.00  0.00     0.001 A 
ATOM     84  C   UNL A   1      42.790  38.273  27.179  1.00  0.00     0.000 A 
ENDBRANCH  66  79
ENDBRANCH  40  41
ENDBRANCH  32  35
ENDBRANCH  30  31
ENDBRANCH  29  30
ENDBRANCH  28  29
ENDBRANCH   1  28
TORSDOF 16
ENDMDL
