MODEL 1
REMARK VINA RESULT:     -11.1      0.000      0.000
REMARK SMILES CCCN1CCC[C@@]2(CCN(c3ccc(C(=O)NCCCCCCNC(=O)c4ccc(-c5c6nc(c(-c7ccccc7)c7ccc([nH]7)c(-c7ccccc7)c7nc(c(-c8ccccc8)c8ccc5[nH]8)C=C7)C=C6)cc4)cn3)C2)C1=O
REMARK SMILES IDX 21 1 20 2 19 3 18 4 16 5 17 6 15 8 12 9 13 10 77 11 14 12
REMARK SMILES IDX 76 13 11 14 4 15 5 16 79 17 6 18 8 19 80 20 7 21 9 22 78 23
REMARK SMILES IDX 10 24 3 25 2 26 1 27 22 28 23 29 24 30 25 31 26 32 27 34
REMARK SMILES IDX 28 35 29 36 75 37 30 38 74 39 31 40 32 41 33 42 68 43 34 44
REMARK SMILES IDX 73 45 67 46 69 47 35 48 72 49 66 50 65 51 36 53 58 54 43 55
REMARK SMILES IDX 57 56 44 57 47 58 56 59 70 60 45 61 46 62 55 64 71 65 48 66
REMARK SMILES IDX 37 67 38 68 42 69 39 70 41 71 40 72 59 73 60 74 64 75 61 76
REMARK SMILES IDX 63 77 62 78 49 79 50 80 54 81 51 82 53 83 52 84
REMARK H PARENT 18 7 25 33 69 52 47 63
REMARK Flexibility Score: inf
ROOT
ATOM      1  C   UNL A   1      41.346  21.592  26.748  1.00  0.00     0.002 C 
ENDROOT
BRANCH   1   2
ATOM      2  C   UNL A   1      40.485  22.625  27.488  1.00  0.00     0.021 C 
BRANCH   2   3
ATOM      3  C   UNL A   1      39.345  23.173  26.626  1.00  0.00     0.116 C 
BRANCH   3   4
ATOM      4  N   UNL A   1      38.798  22.122  25.792  1.00  0.00    -0.352 N 
ATOM      5  C   UNL A   1      37.547  21.877  25.286  1.00  0.00     0.252 C 
ATOM      6  O   UNL A   1      37.408  20.863  24.603  1.00  0.00    -0.269 OA
ATOM      7  H   UNL A   1      39.463  21.442  25.534  1.00  0.00     0.163 HD
BRANCH   5   8
ATOM      8  C   UNL A   1      36.383  22.779  25.479  1.00  0.00     0.058 A 
ATOM      9  C   UNL A   1      34.048  24.216  25.958  1.00  0.00     0.128 A 
ATOM     10  C   UNL A   1      34.941  24.633  24.978  1.00  0.00     0.048 A 
ATOM     11  N   UNL A   1      34.316  23.148  26.729  1.00  0.00    -0.239 NA
ATOM     12  C   UNL A   1      36.134  23.949  24.776  1.00  0.00     0.019 A 
ATOM     13  C   UNL A   1      35.452  22.444  26.460  1.00  0.00     0.127 A 
BRANCH   9  14
ATOM     14  N   UNL A   1      32.900  24.940  26.129  1.00  0.00    -0.356 N 
ATOM     15  N   UNL A   1      31.749  28.653  24.419  1.00  0.00    -0.342 N 
ATOM     16  C   UNL A   1      31.608  29.701  25.416  1.00  0.00     0.119 C 
ATOM     17  C   UNL A   1      31.222  27.386  24.654  1.00  0.00     0.230 C 
ATOM     18  C   UNL A   1      31.959  29.219  26.814  1.00  0.00     0.023 C 
ATOM     19  C   UNL A   1      31.484  26.853  26.069  1.00  0.00     0.069 C 
ATOM     20  O   UNL A   1      30.739  26.695  23.761  1.00  0.00    -0.274 OA
ATOM     21  C   UNL A   1      31.200  27.931  27.125  1.00  0.00     0.021 C 
ATOM     22  C   UNL A   1      30.699  25.553  26.338  1.00  0.00     0.040 C 
ATOM     23  C   UNL A   1      32.964  26.395  26.118  1.00  0.00     0.135 C 
ATOM     24  C   UNL A   1      31.594  24.456  25.748  1.00  0.00     0.119 C 
BRANCH  15  25
ATOM     25  C   UNL A   1      32.240  28.975  23.084  1.00  0.00     0.119 C 
BRANCH  25  26
ATOM     26  C   UNL A   1      33.671  28.551  22.767  1.00  0.00     0.018 C 
ATOM     27  C   UNL A   1      33.801  27.091  22.368  1.00  0.00     0.006 C 
ENDBRANCH  25  26
ENDBRANCH  15  25
ENDBRANCH   9  14
ENDBRANCH   5   8
ENDBRANCH   3   4
ENDBRANCH   2   3
ENDBRANCH   1   2
BRANCH   1  28
ATOM     28  C   UNL A   1      41.844  20.433  27.623  1.00  0.00     0.002 C 
BRANCH  28  29
ATOM     29  C   UNL A   1      42.609  19.346  26.867  1.00  0.00     0.021 C 
BRANCH  29  30
ATOM     30  C   UNL A   1      42.587  19.522  25.354  1.00  0.00     0.116 C 
BRANCH  30  31
ATOM     31  N   UNL A   1      43.754  18.914  24.730  1.00  0.00    -0.352 N 
ATOM     32  C   UNL A   1      44.889  19.520  24.252  1.00  0.00     0.251 C 
ATOM     33  H   UNL A   1      43.725  17.934  24.640  1.00  0.00     0.163 HD
ATOM     34  O   UNL A   1      45.676  18.914  23.540  1.00  0.00    -0.269 OA
BRANCH  32  35
ATOM     35  C   UNL A   1      45.139  20.932  24.604  1.00  0.00     0.039 A 
ATOM     36  C   UNL A   1      44.822  21.935  23.686  1.00  0.00     0.014 A 
ATOM     37  C   UNL A   1      45.655  21.254  25.862  1.00  0.00     0.014 A 
ATOM     38  C   UNL A   1      44.960  23.273  24.057  1.00  0.00     0.010 A 
ATOM     39  C   UNL A   1      45.717  22.583  26.256  1.00  0.00     0.010 A 
ATOM     40  C   UNL A   1      45.371  23.606  25.359  1.00  0.00    -0.014 A 
BRANCH  40  41
ATOM     41  C   UNL A   1      45.450  25.013  25.818  1.00  0.00     0.031 A 
ATOM     42  C   UNL A   1      46.770  25.730  25.800  1.00  0.00     0.074 A 
ATOM     43  C   UNL A   1      44.360  25.610  26.338  1.00  0.00     0.049 A 
ATOM     44  N   UNL A   1      47.074  26.913  26.269  1.00  0.00    -0.248 NA
ATOM     45  C   UNL A   1      47.905  25.009  25.199  1.00  0.00     0.031 C 
ATOM     46  C   UNL A   1      43.027  25.012  26.429  1.00  0.00     0.029 A 
ATOM     47  N   UNL A   1      44.208  26.852  26.897  1.00  0.00    -0.354 N 
ATOM     48  C   UNL A   1      48.435  27.068  26.038  1.00  0.00     0.074 A 
ATOM     49  C   UNL A   1      48.907  25.838  25.440  1.00  0.00     0.031 C 
ATOM     50  C   UNL A   1      42.186  25.900  26.985  1.00  0.00     0.029 A 
ATOM     51  C   UNL A   1      42.931  27.104  27.337  1.00  0.00     0.049 A 
ATOM     52  H   UNL A   1      44.944  27.502  26.978  1.00  0.00     0.167 HD
ATOM     53  C   UNL A   1      49.220  28.144  26.285  1.00  0.00     0.031 A 
ATOM     54  C   UNL A   1      42.421  28.182  27.963  1.00  0.00     0.031 A 
ATOM     55  C   UNL A   1      48.748  29.364  26.882  1.00  0.00     0.049 A 
ATOM     56  C   UNL A   1      43.324  29.342  28.278  1.00  0.00     0.074 A 
ATOM     57  C   UNL A   1      49.452  30.528  27.138  1.00  0.00     0.029 A 
ATOM     58  N   UNL A   1      47.450  29.574  27.324  1.00  0.00    -0.354 N 
ATOM     59  N   UNL A   1      44.598  29.496  28.008  1.00  0.00    -0.248 NA
ATOM     60  C   UNL A   1      42.715  30.481  28.979  1.00  0.00     0.031 C 
ATOM     61  C   UNL A   1      48.594  31.421  27.788  1.00  0.00     0.029 A 
ATOM     62  C   UNL A   1      47.339  30.839  27.876  1.00  0.00     0.049 A 
ATOM     63  H   UNL A   1      46.717  28.921  27.254  1.00  0.00     0.167 HD
ATOM     64  C   UNL A   1      44.933  30.763  28.470  1.00  0.00     0.074 A 
ATOM     65  C   UNL A   1      43.727  31.335  29.032  1.00  0.00     0.031 C 
ATOM     66  C   UNL A   1      46.130  31.397  28.427  1.00  0.00     0.031 A 
BRANCH  53  67
ATOM     67  C   UNL A   1      50.676  28.032  25.922  1.00  0.00    -0.014 A 
ATOM     68  C   UNL A   1      51.127  28.303  24.619  1.00  0.00     0.009 A 
ATOM     69  C   UNL A   1      51.613  27.656  26.897  1.00  0.00     0.009 A 
ATOM     70  C   UNL A   1      52.475  28.152  24.290  1.00  0.00     0.001 A 
ATOM     71  C   UNL A   1      52.965  27.539  26.573  1.00  0.00     0.001 A 
ATOM     72  C   UNL A   1      53.394  27.774  25.268  1.00  0.00     0.000 A 
ENDBRANCH  53  67
BRANCH  54  73
ATOM     73  C   UNL A   1      40.979  28.225  28.320  1.00  0.00    -0.014 A 
ATOM     74  C   UNL A   1      40.525  27.609  29.498  1.00  0.00     0.009 A 
ATOM     75  C   UNL A   1      40.048  28.870  27.491  1.00  0.00     0.009 A 
ATOM     76  C   UNL A   1      39.166  27.616  29.823  1.00  0.00     0.001 A 
ATOM     77  C   UNL A   1      38.694  28.902  27.835  1.00  0.00     0.001 A 
ATOM     78  C   UNL A   1      38.253  28.266  28.994  1.00  0.00     0.000 A 
ENDBRANCH  54  73
BRANCH  66  79
ATOM     79  C   UNL A   1      46.186  32.804  28.953  1.00  0.00    -0.014 A 
ATOM     80  C   UNL A   1      45.901  33.907  28.135  1.00  0.00     0.009 A 
ATOM     81  C   UNL A   1      46.481  33.021  30.309  1.00  0.00     0.009 A 
ATOM     82  C   UNL A   1      45.938  35.201  28.659  1.00  0.00     0.001 A 
ATOM     83  C   UNL A   1      46.486  34.313  30.836  1.00  0.00     0.001 A 
ATOM     84  C   UNL A   1      46.222  35.402  30.008  1.00  0.00     0.000 A 
ENDBRANCH  66  79
ENDBRANCH  40  41
ENDBRANCH  32  35
ENDBRANCH  30  31
ENDBRANCH  29  30
ENDBRANCH  28  29
ENDBRANCH   1  28
TORSDOF 16
ENDMDL
MODEL 2
REMARK VINA RESULT:     -10.4      2.434      3.612
REMARK SMILES CCCN1CCC[C@@]2(CCN(c3ccc(C(=O)NCCCCCCNC(=O)c4ccc(-c5c6nc(c(-c7ccccc7)c7ccc([nH]7)c(-c7ccccc7)c7nc(c(-c8ccccc8)c8ccc5[nH]8)C=C7)C=C6)cc4)cn3)C2)C1=O
REMARK SMILES IDX 21 1 20 2 19 3 18 4 16 5 17 6 15 8 12 9 13 10 77 11 14 12
REMARK SMILES IDX 76 13 11 14 4 15 5 16 79 17 6 18 8 19 80 20 7 21 9 22 78 23
REMARK SMILES IDX 10 24 3 25 2 26 1 27 22 28 23 29 24 30 25 31 26 32 27 34
REMARK SMILES IDX 28 35 29 36 75 37 30 38 74 39 31 40 32 41 33 42 68 43 34 44
REMARK SMILES IDX 73 45 67 46 69 47 35 48 72 49 66 50 65 51 36 53 58 54 43 55
REMARK SMILES IDX 57 56 44 57 47 58 56 59 70 60 45 61 46 62 55 64 71 65 48 66
REMARK SMILES IDX 37 67 38 68 42 69 39 70 41 71 40 72 59 73 60 74 64 75 61 76
REMARK SMILES IDX 63 77 62 78 49 79 50 80 54 81 51 82 53 83 52 84
REMARK H PARENT 18 7 25 33 69 52 47 63
REMARK Flexibility Score: inf
ROOT
ATOM      1  C   UNL A   1      36.774  22.231  25.077  1.00  0.00     0.002 C 
ENDROOT
BRANCH   1   2
ATOM      2  C   UNL A   1      35.726  21.302  25.707  1.00  0.00     0.021 C 
BRANCH   2   3
ATOM      3  C   UNL A   1      35.635  19.946  25.000  1.00  0.00     0.116 C 
BRANCH   3   4
ATOM      4  N   UNL A   1      34.342  19.339  25.246  1.00  0.00    -0.352 N 
ATOM      5  C   UNL A   1      33.053  19.775  25.083  1.00  0.00     0.252 C 
ATOM      6  O   UNL A   1      32.154  18.997  25.406  1.00  0.00    -0.269 OA
ATOM      7  H   UNL A   1      34.403  18.424  25.605  1.00  0.00     0.163 HD
BRANCH   5   8
ATOM      8  C   UNL A   1      32.688  21.094  24.506  1.00  0.00     0.058 A 
ATOM      9  C   UNL A   1      32.194  23.491  23.181  1.00  0.00     0.128 A 
ATOM     10  C   UNL A   1      32.045  23.407  24.561  1.00  0.00     0.048 A 
ATOM     11  N   UNL A   1      32.526  22.410  22.454  1.00  0.00    -0.239 NA
ATOM     12  C   UNL A   1      32.235  22.196  25.216  1.00  0.00     0.019 A 
ATOM     13  C   UNL A   1      32.787  21.253  23.126  1.00  0.00     0.127 A 
BRANCH   9  14
ATOM     14  N   UNL A   1      31.971  24.702  22.585  1.00  0.00    -0.356 N 
ATOM     15  N   UNL A   1      32.396  28.624  24.156  1.00  0.00    -0.342 N 
ATOM     16  C   UNL A   1      31.127  29.330  24.234  1.00  0.00     0.119 C 
ATOM     17  C   UNL A   1      32.727  27.899  23.015  1.00  0.00     0.230 C 
ATOM     18  C   UNL A   1      29.960  28.468  23.782  1.00  0.00     0.023 C 
ATOM     19  C   UNL A   1      31.577  27.047  22.461  1.00  0.00     0.069 C 
ATOM     20  O   UNL A   1      33.877  27.821  22.592  1.00  0.00    -0.274 OA
ATOM     21  C   UNL A   1      30.268  27.848  22.420  1.00  0.00     0.021 C 
ATOM     22  C   UNL A   1      31.932  26.440  21.089  1.00  0.00     0.040 C 
ATOM     23  C   UNL A   1      31.446  25.803  23.379  1.00  0.00     0.135 C 
ATOM     24  C   UNL A   1      32.717  25.171  21.440  1.00  0.00     0.119 C 
BRANCH  15  25
ATOM     25  C   UNL A   1      33.421  28.850  25.169  1.00  0.00     0.119 C 
BRANCH  25  26
ATOM     26  C   UNL A   1      33.396  27.921  26.379  1.00  0.00     0.018 C 
ATOM     27  C   UNL A   1      33.907  26.521  26.085  1.00  0.00     0.006 C 
ENDBRANCH  25  26
ENDBRANCH  15  25
ENDBRANCH   9  14
ENDBRANCH   5   8
ENDBRANCH   3   4
ENDBRANCH   2   3
ENDBRANCH   1   2
BRANCH   1  28
ATOM     28  C   UNL A   1      38.156  22.176  25.741  1.00  0.00     0.002 C 
BRANCH  28  29
ATOM     29  C   UNL A   1      38.990  20.947  25.377  1.00  0.00     0.021 C 
BRANCH  29  30
ATOM     30  C   UNL A   1      39.734  20.339  26.559  1.00  0.00     0.116 C 
BRANCH  30  31
ATOM     31  N   UNL A   1      40.918  19.611  26.126  1.00  0.00    -0.352 N 
ATOM     32  C   UNL A   1      42.178  20.093  25.868  1.00  0.00     0.251 C 
ATOM     33  H   UNL A   1      40.800  18.642  26.002  1.00  0.00     0.163 HD
ATOM     34  O   UNL A   1      43.006  19.411  25.283  1.00  0.00    -0.269 OA
BRANCH  32  35
ATOM     35  C   UNL A   1      42.514  21.463  26.302  1.00  0.00     0.039 A 
ATOM     36  C   UNL A   1      42.696  22.461  25.342  1.00  0.00     0.014 A 
ATOM     37  C   UNL A   1      42.612  21.758  27.664  1.00  0.00     0.014 A 
ATOM     38  C   UNL A   1      42.910  23.777  25.755  1.00  0.00     0.010 A 
ATOM     39  C   UNL A   1      42.746  23.077  28.071  1.00  0.00     0.010 A 
ATOM     40  C   UNL A   1      42.897  24.100  27.122  1.00  0.00    -0.014 A 
BRANCH  40  41
ATOM     41  C   UNL A   1      43.038  25.497  27.598  1.00  0.00     0.031 A 
ATOM     42  C   UNL A   1      44.398  26.035  27.939  1.00  0.00     0.074 A 
ATOM     43  C   UNL A   1      41.939  26.245  27.811  1.00  0.00     0.049 A 
ATOM     44  N   UNL A   1      44.721  27.181  28.482  1.00  0.00    -0.248 NA
ATOM     45  C   UNL A   1      45.545  25.156  27.658  1.00  0.00     0.031 C 
ATOM     46  C   UNL A   1      40.562  25.830  27.537  1.00  0.00     0.029 A 
ATOM     47  N   UNL A   1      41.809  27.512  28.319  1.00  0.00    -0.354 N 
ATOM     48  C   UNL A   1      46.103  27.151  28.626  1.00  0.00     0.074 A 
ATOM     49  C   UNL A   1      46.549  25.854  28.166  1.00  0.00     0.031 C 
ATOM     50  C   UNL A   1      39.729  26.835  27.855  1.00  0.00     0.029 A 
ATOM     51  C   UNL A   1      40.507  27.941  28.403  1.00  0.00     0.049 A 
ATOM     52  H   UNL A   1      42.577  28.062  28.600  1.00  0.00     0.167 HD
ATOM     53  C   UNL A   1      46.930  28.121  29.082  1.00  0.00     0.031 A 
ATOM     54  C   UNL A   1      39.997  29.093  28.879  1.00  0.00     0.031 A 
ATOM     55  C   UNL A   1      46.482  29.409  29.541  1.00  0.00     0.049 A 
ATOM     56  C   UNL A   1      40.930  30.133  29.434  1.00  0.00     0.074 A 
ATOM     57  C   UNL A   1      47.241  30.478  29.985  1.00  0.00     0.029 A 
ATOM     58  N   UNL A   1      45.154  29.799  29.621  1.00  0.00    -0.354 N 
ATOM     59  N   UNL A   1      42.238  30.113  29.516  1.00  0.00    -0.248 NA
ATOM     60  C   UNL A   1      40.313  31.361  29.955  1.00  0.00     0.031 C 
ATOM     61  C   UNL A   1      46.368  31.492  30.390  1.00  0.00     0.029 A 
ATOM     62  C   UNL A   1      45.069  31.082  30.133  1.00  0.00     0.049 A 
ATOM     63  H   UNL A   1      44.385  29.245  29.352  1.00  0.00     0.167 HD
ATOM     64  C   UNL A   1      42.603  31.338  30.061  1.00  0.00     0.074 A 
ATOM     65  C   UNL A   1      41.379  32.077  30.284  1.00  0.00     0.031 C 
ATOM     66  C   UNL A   1      43.842  31.808  30.345  1.00  0.00     0.031 A 
BRANCH  53  67
ATOM     67  C   UNL A   1      48.401  27.810  29.121  1.00  0.00    -0.014 A 
ATOM     68  C   UNL A   1      48.995  27.227  30.253  1.00  0.00     0.009 A 
ATOM     69  C   UNL A   1      49.206  28.098  28.008  1.00  0.00     0.009 A 
ATOM     70  C   UNL A   1      50.369  26.985  30.288  1.00  0.00     0.001 A 
ATOM     71  C   UNL A   1      50.574  27.823  28.033  1.00  0.00     0.001 A 
ATOM     72  C   UNL A   1      51.158  27.280  29.177  1.00  0.00     0.000 A 
ENDBRANCH  53  67
BRANCH  54  73
ATOM     73  C   UNL A   1      38.531  29.333  28.837  1.00  0.00    -0.014 A 
ATOM     74  C   UNL A   1      37.750  29.138  29.988  1.00  0.00     0.009 A 
ATOM     75  C   UNL A   1      37.900  29.751  27.655  1.00  0.00     0.009 A 
ATOM     76  C   UNL A   1      36.367  29.329  29.948  1.00  0.00     0.001 A 
ATOM     77  C   UNL A   1      36.521  29.971  27.626  1.00  0.00     0.001 A 
ATOM     78  C   UNL A   1      35.755  29.750  28.769  1.00  0.00     0.000 A 
ENDBRANCH  54  73
BRANCH  66  79
ATOM     79  C   UNL A   1      43.943  33.210  30.878  1.00  0.00    -0.014 A 
ATOM     80  C   UNL A   1      44.018  34.319  30.023  1.00  0.00     0.009 A 
ATOM     81  C   UNL A   1      43.909  33.423  32.266  1.00  0.00     0.009 A 
ATOM     82  C   UNL A   1      44.087  35.611  30.548  1.00  0.00     0.001 A 
ATOM     83  C   UNL A   1      43.946  34.717  32.787  1.00  0.00     0.001 A 
ATOM     84  C   UNL A   1      44.043  35.809  31.928  1.00  0.00     0.000 A 
ENDBRANCH  66  79
ENDBRANCH  40  41
ENDBRANCH  32  35
ENDBRANCH  30  31
ENDBRANCH  29  30
ENDBRANCH  28  29
ENDBRANCH   1  28
TORSDOF 16
ENDMDL
MODEL 3
REMARK VINA RESULT:     -10.2      1.681      2.494
REMARK SMILES CCCN1CCC[C@@]2(CCN(c3ccc(C(=O)NCCCCCCNC(=O)c4ccc(-c5c6nc(c(-c7ccccc7)c7ccc([nH]7)c(-c7ccccc7)c7nc(c(-c8ccccc8)c8ccc5[nH]8)C=C7)C=C6)cc4)cn3)C2)C1=O
REMARK SMILES IDX 21 1 20 2 19 3 18 4 16 5 17 6 15 8 12 9 13 10 77 11 14 12
REMARK SMILES IDX 76 13 11 14 4 15 5 16 79 17 6 18 8 19 80 20 7 21 9 22 78 23
REMARK SMILES IDX 10 24 3 25 2 26 1 27 22 28 23 29 24 30 25 31 26 32 27 34
REMARK SMILES IDX 28 35 29 36 75 37 30 38 74 39 31 40 32 41 33 42 68 43 34 44
REMARK SMILES IDX 73 45 67 46 69 47 35 48 72 49 66 50 65 51 36 53 58 54 43 55
REMARK SMILES IDX 57 56 44 57 47 58 56 59 70 60 45 61 46 62 55 64 71 65 48 66
REMARK SMILES IDX 37 67 38 68 42 69 39 70 41 71 40 72 59 73 60 74 64 75 61 76
REMARK SMILES IDX 63 77 62 78 49 79 50 80 54 81 51 82 53 83 52 84
REMARK H PARENT 18 7 25 33 69 52 47 63
REMARK Flexibility Score: inf
ROOT
ATOM      1  C   UNL A   1      41.504  23.471  27.522  1.00  0.00     0.002 C 
ENDROOT
BRANCH   1   2
ATOM      2  C   UNL A   1      39.991  23.666  27.696  1.00  0.00     0.021 C 
BRANCH   2   3
ATOM      3  C   UNL A   1      39.272  23.937  26.371  1.00  0.00     0.116 C 
BRANCH   3   4
ATOM      4  N   UNL A   1      38.889  22.688  25.745  1.00  0.00    -0.352 N 
ATOM      5  C   UNL A   1      37.678  22.129  25.426  1.00  0.00     0.252 C 
ATOM      6  O   UNL A   1      37.697  21.019  24.894  1.00  0.00    -0.269 OA
ATOM      7  H   UNL A   1      39.657  22.124  25.496  1.00  0.00     0.163 HD
BRANCH   5   8
ATOM      8  C   UNL A   1      36.371  22.799  25.643  1.00  0.00     0.058 A 
ATOM      9  C   UNL A   1      34.053  24.316  25.924  1.00  0.00     0.128 A 
ATOM     10  C   UNL A   1      34.280  23.218  26.747  1.00  0.00     0.048 A 
ATOM     11  N   UNL A   1      34.916  24.635  24.944  1.00  0.00    -0.239 NA
ATOM     12  C   UNL A   1      35.409  22.427  26.570  1.00  0.00     0.019 A 
ATOM     13  C   UNL A   1      36.056  23.894  24.840  1.00  0.00     0.127 A 
BRANCH   9  14
ATOM     14  N   UNL A   1      32.914  25.045  26.127  1.00  0.00    -0.356 N 
ATOM     15  N   UNL A   1      31.812  28.850  24.598  1.00  0.00    -0.342 N 
ATOM     16  C   UNL A   1      31.682  29.850  25.645  1.00  0.00     0.119 C 
ATOM     17  C   UNL A   1      31.269  27.580  24.770  1.00  0.00     0.230 C 
ATOM     18  C   UNL A   1      32.024  29.296  27.018  1.00  0.00     0.023 C 
ATOM     19  C   UNL A   1      31.521  26.976  26.158  1.00  0.00     0.069 C 
ATOM     20  O   UNL A   1      30.780  26.939  23.843  1.00  0.00    -0.274 OA
ATOM     21  C   UNL A   1      31.248  28.004  27.264  1.00  0.00     0.021 C 
ATOM     22  C   UNL A   1      30.721  25.673  26.362  1.00  0.00     0.040 C 
ATOM     23  C   UNL A   1      32.996  26.497  26.187  1.00  0.00     0.135 C 
ATOM     24  C   UNL A   1      31.603  24.596  25.721  1.00  0.00     0.119 C 
BRANCH  15  25
ATOM     25  C   UNL A   1      32.310  29.230  23.281  1.00  0.00     0.119 C 
BRANCH  25  26
ATOM     26  C   UNL A   1      33.726  28.778  22.935  1.00  0.00     0.018 C 
ATOM     27  C   UNL A   1      33.773  27.541  22.054  1.00  0.00     0.006 C 
ENDBRANCH  25  26
ENDBRANCH  15  25
ENDBRANCH   9  14
ENDBRANCH   5   8
ENDBRANCH   3   4
ENDBRANCH   2   3
ENDBRANCH   1   2
BRANCH   1  28
ATOM     28  C   UNL A   1      42.065  22.209  28.192  1.00  0.00     0.002 C 
BRANCH  28  29
ATOM     29  C   UNL A   1      42.237  21.013  27.255  1.00  0.00     0.021 C 
BRANCH  29  30
ATOM     30  C   UNL A   1      42.780  21.385  25.881  1.00  0.00     0.116 C 
BRANCH  30  31
ATOM     31  N   UNL A   1      44.129  20.872  25.685  1.00  0.00    -0.352 N 
ATOM     32  C   UNL A   1      45.312  21.566  25.618  1.00  0.00     0.251 C 
ATOM     33  H   UNL A   1      44.202  19.895  25.589  1.00  0.00     0.163 HD
ATOM     34  O   UNL A   1      46.333  21.033  25.211  1.00  0.00    -0.269 OA
BRANCH  32  35
ATOM     35  C   UNL A   1      45.326  22.982  26.036  1.00  0.00     0.039 A 
ATOM     36  C   UNL A   1      45.055  23.978  25.096  1.00  0.00     0.014 A 
ATOM     37  C   UNL A   1      45.577  23.310  27.370  1.00  0.00     0.014 A 
ATOM     38  C   UNL A   1      44.966  25.307  25.512  1.00  0.00     0.010 A 
ATOM     39  C   UNL A   1      45.410  24.621  27.796  1.00  0.00     0.010 A 
ATOM     40  C   UNL A   1      45.104  25.632  26.871  1.00  0.00    -0.014 A 
BRANCH  40  41
ATOM     41  C   UNL A   1      44.934  27.020  27.365  1.00  0.00     0.031 A 
ATOM     42  C   UNL A   1      46.135  27.908  27.519  1.00  0.00     0.074 A 
ATOM     43  C   UNL A   1      43.720  27.444  27.763  1.00  0.00     0.049 A 
ATOM     44  N   UNL A   1      46.217  29.104  28.045  1.00  0.00    -0.248 NA
ATOM     45  C   UNL A   1      47.420  27.369  27.043  1.00  0.00     0.031 C 
ATOM     46  C   UNL A   1      42.480  26.669  27.683  1.00  0.00     0.029 A 
ATOM     47  N   UNL A   1      43.333  28.634  28.325  1.00  0.00    -0.354 N 
ATOM     48  C   UNL A   1      47.560  29.450  27.981  1.00  0.00     0.074 A 
ATOM     49  C   UNL A   1      48.264  28.317  27.419  1.00  0.00     0.031 C 
ATOM     50  C   UNL A   1      41.465  27.415  28.152  1.00  0.00     0.029 A 
ATOM     51  C   UNL A   1      41.991  28.695  28.614  1.00  0.00     0.049 A 
ATOM     52  H   UNL A   1      43.958  29.374  28.506  1.00  0.00     0.167 HD
ATOM     53  C   UNL A   1      48.155  30.612  28.340  1.00  0.00     0.031 A 
ATOM     54  C   UNL A   1      41.268  29.671  29.197  1.00  0.00     0.031 A 
ATOM     55  C   UNL A   1      47.453  31.735  28.901  1.00  0.00     0.049 A 
ATOM     56  C   UNL A   1      41.960  30.930  29.640  1.00  0.00     0.074 A 
ATOM     57  C   UNL A   1      47.954  32.973  29.262  1.00  0.00     0.029 A 
ATOM     58  N   UNL A   1      46.096  31.752  29.189  1.00  0.00    -0.354 N 
ATOM     59  N   UNL A   1      43.222  31.264  29.527  1.00  0.00    -0.248 NA
ATOM     60  C   UNL A   1      41.122  31.950  30.286  1.00  0.00     0.031 C 
ATOM     61  C   UNL A   1      46.913  33.718  29.824  1.00  0.00     0.029 A 
ATOM     62  C   UNL A   1      45.749  32.969  29.749  1.00  0.00     0.049 A 
ATOM     63  H   UNL A   1      45.473  31.009  29.020  1.00  0.00     0.167 HD
ATOM     64  C   UNL A   1      43.323  32.548  30.051  1.00  0.00     0.074 A 
ATOM     65  C   UNL A   1      41.993  32.931  30.477  1.00  0.00     0.031 C 
ATOM     66  C   UNL A   1      44.419  33.338  30.163  1.00  0.00     0.031 A 
BRANCH  53  67
ATOM     67  C   UNL A   1      49.645  30.711  28.151  1.00  0.00    -0.014 A 
ATOM     68  C   UNL A   1      50.198  31.193  26.953  1.00  0.00     0.009 A 
ATOM     69  C   UNL A   1      50.508  30.323  29.188  1.00  0.00     0.009 A 
ATOM     70  C   UNL A   1      51.583  31.237  26.780  1.00  0.00     0.001 A 
ATOM     71  C   UNL A   1      51.892  30.401  29.024  1.00  0.00     0.001 A 
ATOM     72  C   UNL A   1      52.429  30.844  27.816  1.00  0.00     0.000 A 
ENDBRANCH  53  67
BRANCH  54  73
ATOM     73  C   UNL A   1      39.803  29.505  29.380  1.00  0.00    -0.014 A 
ATOM     74  C   UNL A   1      39.297  28.971  30.576  1.00  0.00     0.009 A 
ATOM     75  C   UNL A   1      38.902  29.870  28.368  1.00  0.00     0.009 A 
ATOM     76  C   UNL A   1      37.923  28.781  30.743  1.00  0.00     0.001 A 
ATOM     77  C   UNL A   1      37.527  29.708  28.550  1.00  0.00     0.001 A 
ATOM     78  C   UNL A   1      37.039  29.154  29.732  1.00  0.00     0.000 A 
ENDBRANCH  54  73
BRANCH  66  79
ATOM     79  C   UNL A   1      44.218  34.720  30.721  1.00  0.00    -0.014 A 
ATOM     80  C   UNL A   1      44.289  34.975  32.098  1.00  0.00     0.009 A 
ATOM     81  C   UNL A   1      44.006  35.794  29.841  1.00  0.00     0.009 A 
ATOM     82  C   UNL A   1      44.123  36.273  32.584  1.00  0.00     0.001 A 
ATOM     83  C   UNL A   1      43.871  37.095  30.327  1.00  0.00     0.001 A 
ATOM     84  C   UNL A   1      43.922  37.331  31.699  1.00  0.00     0.000 A 
ENDBRANCH  66  79
ENDBRANCH  40  41
ENDBRANCH  32  35
ENDBRANCH  30  31
ENDBRANCH  29  30
ENDBRANCH  28  29
ENDBRANCH   1  28
TORSDOF 16
ENDMDL
