MODEL 1
REMARK VINA RESULT:     -11.4      0.000      0.000
REMARK SMILES O=C(NCCCCCCNC(=O)c1ccccc1Nc1cccc(C(F)(F)F)c1)c1ccc(-c2c3nc(c(-c4ccccc4)c4ccc([nH]4)c(-c4ccccc4)c4nc(c(-c5ccccc5)c5ccc2[nH]5)C=C4)C=C3)cc1
REMARK SMILES IDX 7 1 6 2 5 3 4 4 3 5 1 6 2 7 30 9 31 10 77 11 32 12 76 13
REMARK SMILES IDX 33 14 34 15 35 16 70 17 36 18 75 19 69 20 71 21 37 22 74 23
REMARK SMILES IDX 68 24 67 25 38 27 60 28 45 29 59 30 46 31 49 32 58 33 72 34
REMARK SMILES IDX 47 35 48 36 57 38 73 39 50 40 39 41 40 42 44 43 41 44 43 45
REMARK SMILES IDX 42 46 61 47 62 48 66 49 63 50 65 51 64 52 51 53 52 54 56 55
REMARK SMILES IDX 53 56 55 57 54 58 8 59 9 60 10 61 11 62 12 64 13 65 14 66
REMARK SMILES IDX 18 67 15 68 17 69 16 70 19 71 20 73 21 74 29 75 22 76 24 77
REMARK SMILES IDX 23 78 25 79 26 80 27 81 28 82
REMARK H PARENT 3 8 71 26 49 37 10 63 19 72
REMARK Flexibility Score: inf
ROOT
ATOM      1  C   UNL A   1      31.817  29.216  26.603  1.00  0.00     0.002 C 
ENDROOT
BRANCH   1   2
ATOM      2  C   UNL A   1      31.425  30.447  25.781  1.00  0.00     0.002 C 
BRANCH   2   3
ATOM      3  C   UNL A   1      31.258  31.741  26.579  1.00  0.00     0.021 C 
BRANCH   3   4
ATOM      4  C   UNL A   1      32.563  32.425  26.965  1.00  0.00     0.116 C 
BRANCH   4   5
ATOM      5  N   UNL A   1      32.356  33.780  27.450  1.00  0.00    -0.352 N 
ATOM      6  O   UNL A   1      32.622  35.547  28.828  1.00  0.00    -0.269 OA
ATOM      7  C   UNL A   1      33.043  34.469  28.415  1.00  0.00     0.251 C 
ATOM      8  H   UNL A   1      31.618  34.272  27.024  1.00  0.00     0.163 HD
BRANCH   7   9
ATOM      9  C   UNL A   1      34.287  33.902  28.973  1.00  0.00     0.039 A 
ATOM     10  C   UNL A   1      34.244  32.963  30.009  1.00  0.00     0.014 A 
ATOM     11  C   UNL A   1      35.512  34.303  28.436  1.00  0.00     0.014 A 
ATOM     12  C   UNL A   1      35.427  32.514  30.586  1.00  0.00     0.010 A 
ATOM     13  C   UNL A   1      36.698  33.791  28.964  1.00  0.00     0.010 A 
ATOM     14  C   UNL A   1      36.664  32.908  30.055  1.00  0.00    -0.014 A 
BRANCH  14  15
ATOM     15  C   UNL A   1      37.920  32.336  30.596  1.00  0.00     0.031 A 
ATOM     16  C   UNL A   1      38.537  31.113  29.984  1.00  0.00     0.074 A 
ATOM     17  C   UNL A   1      38.480  32.908  31.678  1.00  0.00     0.049 A 
ATOM     18  N   UNL A   1      39.584  30.433  30.379  1.00  0.00    -0.248 NA
ATOM     19  C   UNL A   1      37.888  30.576  28.779  1.00  0.00     0.031 C 
ATOM     20  C   UNL A   1      37.967  34.097  32.362  1.00  0.00     0.029 A 
ATOM     21  N   UNL A   1      39.590  32.558  32.402  1.00  0.00    -0.354 N 
ATOM     22  C   UNL A   1      39.705  29.374  29.489  1.00  0.00     0.074 A 
ATOM     23  C   UNL A   1      38.610  29.488  28.549  1.00  0.00     0.031 C 
ATOM     24  C   UNL A   1      38.765  34.384  33.400  1.00  0.00     0.029 A 
ATOM     25  C   UNL A   1      39.801  33.362  33.494  1.00  0.00     0.049 A 
ATOM     26  H   UNL A   1      40.178  31.805  32.162  1.00  0.00     0.167 HD
ATOM     27  C   UNL A   1      40.642  28.395  29.463  1.00  0.00     0.031 A 
ATOM     28  C   UNL A   1      40.701  33.269  34.490  1.00  0.00     0.031 A 
ATOM     29  C   UNL A   1      41.716  28.281  30.416  1.00  0.00     0.049 A 
ATOM     30  C   UNL A   1      41.698  32.148  34.473  1.00  0.00     0.074 A 
ATOM     31  C   UNL A   1      42.742  27.354  30.453  1.00  0.00     0.029 A 
ATOM     32  N   UNL A   1      41.891  29.112  31.514  1.00  0.00    -0.354 N 
ATOM     33  N   UNL A   1      41.833  31.182  33.597  1.00  0.00    -0.248 NA
ATOM     34  C   UNL A   1      42.666  32.105  35.575  1.00  0.00     0.031 C 
ATOM     35  C   UNL A   1      43.494  27.578  31.610  1.00  0.00     0.029 A 
ATOM     36  C   UNL A   1      42.984  28.694  32.254  1.00  0.00     0.049 A 
ATOM     37  H   UNL A   1      41.321  29.886  31.734  1.00  0.00     0.167 HD
ATOM     38  C   UNL A   1      42.917  30.430  34.027  1.00  0.00     0.074 A 
ATOM     39  C   UNL A   1      43.407  31.058  35.239  1.00  0.00     0.031 C 
ATOM     40  C   UNL A   1      43.460  29.325  33.461  1.00  0.00     0.031 A 
BRANCH  27  41
ATOM     41  C   UNL A   1      40.511  27.340  28.398  1.00  0.00    -0.014 A 
ATOM     42  C   UNL A   1      41.110  27.486  27.135  1.00  0.00     0.009 A 
ATOM     43  C   UNL A   1      39.782  26.171  28.668  1.00  0.00     0.009 A 
ATOM     44  C   UNL A   1      40.937  26.509  26.152  1.00  0.00     0.001 A 
ATOM     45  C   UNL A   1      39.639  25.181  27.694  1.00  0.00     0.001 A 
ATOM     46  C   UNL A   1      40.202  25.357  26.433  1.00  0.00     0.000 A 
ENDBRANCH  27  41
BRANCH  28  47
ATOM     47  C   UNL A   1      40.661  34.261  35.595  1.00  0.00    -0.014 A 
ATOM     48  C   UNL A   1      41.373  35.465  35.504  1.00  0.00     0.009 A 
ATOM     49  C   UNL A   1      39.857  34.030  36.723  1.00  0.00     0.009 A 
ATOM     50  C   UNL A   1      41.286  36.414  36.526  1.00  0.00     0.001 A 
ATOM     51  C   UNL A   1      39.747  34.993  37.727  1.00  0.00     0.001 A 
ATOM     52  C   UNL A   1      40.466  36.181  37.630  1.00  0.00     0.000 A 
ENDBRANCH  28  47
BRANCH  40  53
ATOM     53  C   UNL A   1      44.676  28.735  34.119  1.00  0.00    -0.014 A 
ATOM     54  C   UNL A   1      44.570  27.723  35.084  1.00  0.00     0.009 A 
ATOM     55  C   UNL A   1      45.953  29.151  33.706  1.00  0.00     0.009 A 
ATOM     56  C   UNL A   1      45.719  27.150  35.635  1.00  0.00     0.001 A 
ATOM     57  C   UNL A   1      47.098  28.556  34.235  1.00  0.00     0.001 A 
ATOM     58  C   UNL A   1      46.982  27.560  35.202  1.00  0.00     0.000 A 
ENDBRANCH  40  53
ENDBRANCH  14  15
ENDBRANCH   7   9
ENDBRANCH   4   5
ENDBRANCH   3   4
ENDBRANCH   2   3
ENDBRANCH   1   2
BRANCH   1  59
ATOM     59  C   UNL A   1      32.806  28.258  25.929  1.00  0.00     0.021 C 
BRANCH  59  60
ATOM     60  C   UNL A   1      32.719  26.808  26.394  1.00  0.00     0.116 C 
BRANCH  60  61
ATOM     61  N   UNL A   1      31.377  26.447  26.815  1.00  0.00    -0.352 N 
ATOM     62  C   UNL A   1      30.591  25.408  26.390  1.00  0.00     0.253 C 
ATOM     63  H   UNL A   1      30.977  27.028  27.501  1.00  0.00     0.163 HD
ATOM     64  O   UNL A   1      29.430  25.318  26.781  1.00  0.00    -0.269 OA
BRANCH  62  65
ATOM     65  C   UNL A   1      31.121  24.404  25.442  1.00  0.00     0.063 A 
ATOM     66  C   UNL A   1      32.059  23.497  25.960  1.00  0.00     0.016 A 
ATOM     67  C   UNL A   1      30.753  24.370  24.082  1.00  0.00     0.051 A 
ATOM     68  C   UNL A   1      32.606  22.512  25.142  1.00  0.00     0.001 A 
ATOM     69  C   UNL A   1      31.309  23.354  23.286  1.00  0.00     0.027 A 
ATOM     70  C   UNL A   1      32.225  22.436  23.807  1.00  0.00     0.002 A 
BRANCH  67  71
ATOM     71  N   UNL A   1      29.835  25.291  23.533  1.00  0.00    -0.355 N 
ATOM     72  H   UNL A   1      28.954  24.912  23.308  1.00  0.00     0.167 HD
BRANCH  71  73
ATOM     73  C   UNL A   1      29.973  26.661  23.256  1.00  0.00     0.039 A 
ATOM     74  C   UNL A   1      31.205  27.153  22.815  1.00  0.00     0.026 A 
ATOM     75  C   UNL A   1      28.891  27.549  23.336  1.00  0.00     0.039 A 
ATOM     76  C   UNL A   1      31.352  28.492  22.446  1.00  0.00     0.003 A 
ATOM     77  C   UNL A   1      29.023  28.901  22.983  1.00  0.00     0.058 A 
ATOM     78  C   UNL A   1      30.265  29.362  22.525  1.00  0.00     0.013 A 
BRANCH  77  79
ATOM     79  C   UNL A   1      27.848  29.842  23.067  1.00  0.00     0.416 C 
ATOM     80  F   UNL A   1      27.497  30.347  21.852  1.00  0.00    -0.166 F 
ATOM     81  F   UNL A   1      26.732  29.239  23.560  1.00  0.00    -0.166 F 
ATOM     82  F   UNL A   1      28.071  30.924  23.865  1.00  0.00    -0.166 F 
ENDBRANCH  77  79
ENDBRANCH  71  73
ENDBRANCH  67  71
ENDBRANCH  62  65
ENDBRANCH  60  61
ENDBRANCH  59  60
ENDBRANCH   1  59
TORSDOF 16
ENDMDL
MODEL 2
REMARK VINA RESULT:     -11.1      2.570      3.703
REMARK SMILES O=C(NCCCCCCNC(=O)c1ccccc1Nc1cccc(C(F)(F)F)c1)c1ccc(-c2c3nc(c(-c4ccccc4)c4ccc([nH]4)c(-c4ccccc4)c4nc(c(-c5ccccc5)c5ccc2[nH]5)C=C4)C=C3)cc1
REMARK SMILES IDX 7 1 6 2 5 3 4 4 3 5 1 6 2 7 30 9 31 10 77 11 32 12 76 13
REMARK SMILES IDX 33 14 34 15 35 16 70 17 36 18 75 19 69 20 71 21 37 22 74 23
REMARK SMILES IDX 68 24 67 25 38 27 60 28 45 29 59 30 46 31 49 32 58 33 72 34
REMARK SMILES IDX 47 35 48 36 57 38 73 39 50 40 39 41 40 42 44 43 41 44 43 45
REMARK SMILES IDX 42 46 61 47 62 48 66 49 63 50 65 51 64 52 51 53 52 54 56 55
REMARK SMILES IDX 53 56 55 57 54 58 8 59 9 60 10 61 11 62 12 64 13 65 14 66
REMARK SMILES IDX 18 67 15 68 17 69 16 70 19 71 20 73 21 74 29 75 22 76 24 77
REMARK SMILES IDX 23 78 25 79 26 80 27 81 28 82
REMARK H PARENT 3 8 71 26 49 37 10 63 19 72
REMARK Flexibility Score: inf
ROOT
ATOM      1  C   UNL A   1      32.905  29.803  26.225  1.00  0.00     0.002 C 
ENDROOT
BRANCH   1   2
ATOM      2  C   UNL A   1      31.564  30.480  25.928  1.00  0.00     0.002 C 
BRANCH   2   3
ATOM      3  C   UNL A   1      31.381  31.867  26.547  1.00  0.00     0.021 C 
BRANCH   3   4
ATOM      4  C   UNL A   1      32.665  32.520  27.042  1.00  0.00     0.116 C 
BRANCH   4   5
ATOM      5  N   UNL A   1      32.430  33.826  27.634  1.00  0.00    -0.352 N 
ATOM      6  O   UNL A   1      32.697  35.501  29.122  1.00  0.00    -0.269 OA
ATOM      7  C   UNL A   1      33.139  34.474  28.612  1.00  0.00     0.251 C 
ATOM      8  H   UNL A   1      31.652  34.315  27.281  1.00  0.00     0.163 HD
BRANCH   7   9
ATOM      9  C   UNL A   1      34.431  33.923  29.066  1.00  0.00     0.039 A 
ATOM     10  C   UNL A   1      35.627  34.303  28.449  1.00  0.00     0.014 A 
ATOM     11  C   UNL A   1      34.444  33.028  30.138  1.00  0.00     0.014 A 
ATOM     12  C   UNL A   1      36.822  33.700  28.825  1.00  0.00     0.010 A 
ATOM     13  C   UNL A   1      35.655  32.484  30.567  1.00  0.00     0.010 A 
ATOM     14  C   UNL A   1      36.849  32.801  29.901  1.00  0.00    -0.014 A 
BRANCH  14  15
ATOM     15  C   UNL A   1      38.141  32.250  30.377  1.00  0.00     0.031 A 
ATOM     16  C   UNL A   1      38.694  30.978  29.807  1.00  0.00     0.074 A 
ATOM     17  C   UNL A   1      38.795  32.890  31.365  1.00  0.00     0.049 A 
ATOM     18  N   UNL A   1      39.764  30.312  30.163  1.00  0.00    -0.248 NA
ATOM     19  C   UNL A   1      37.942  30.365  28.702  1.00  0.00     0.031 C 
ATOM     20  C   UNL A   1      38.351  34.133  31.999  1.00  0.00     0.029 A 
ATOM     21  N   UNL A   1      39.958  32.578  32.018  1.00  0.00    -0.354 N 
ATOM     22  C   UNL A   1      39.801  29.190  29.346  1.00  0.00     0.074 A 
ATOM     23  C   UNL A   1      38.633  29.252  28.494  1.00  0.00     0.031 C 
ATOM     24  C   UNL A   1      39.235  34.482  32.944  1.00  0.00     0.029 A 
ATOM     25  C   UNL A   1      40.267  33.455  33.027  1.00  0.00     0.049 A 
ATOM     26  H   UNL A   1      40.517  31.801  31.786  1.00  0.00     0.167 HD
ATOM     27  C   UNL A   1      40.724  28.198  29.315  1.00  0.00     0.031 A 
ATOM     28  C   UNL A   1      41.246  33.420  33.949  1.00  0.00     0.031 A 
ATOM     29  C   UNL A   1      41.873  28.137  30.181  1.00  0.00     0.049 A 
ATOM     30  C   UNL A   1      42.228  32.287  33.932  1.00  0.00     0.074 A 
ATOM     31  C   UNL A   1      42.890  27.199  30.201  1.00  0.00     0.029 A 
ATOM     32  N   UNL A   1      42.146  29.042  31.197  1.00  0.00    -0.354 N 
ATOM     33  N   UNL A   1      42.281  31.259  33.120  1.00  0.00    -0.248 NA
ATOM     34  C   UNL A   1      43.285  32.310  34.950  1.00  0.00     0.031 C 
ATOM     35  C   UNL A   1      43.738  27.496  31.272  1.00  0.00     0.029 A 
ATOM     36  C   UNL A   1      43.294  28.663  31.873  1.00  0.00     0.049 A 
ATOM     37  H   UNL A   1      41.604  29.838  31.406  1.00  0.00     0.167 HD
ATOM     38  C   UNL A   1      43.390  30.524  33.513  1.00  0.00     0.074 A 
ATOM     39  C   UNL A   1      43.985  31.229  34.631  1.00  0.00     0.031 C 
ATOM     40  C   UNL A   1      43.875  29.372  32.987  1.00  0.00     0.031 A 
BRANCH  27  41
ATOM     41  C   UNL A   1      40.495  27.071  28.344  1.00  0.00    -0.014 A 
ATOM     42  C   UNL A   1      39.769  25.923  28.702  1.00  0.00     0.009 A 
ATOM     43  C   UNL A   1      41.009  27.166  27.041  1.00  0.00     0.009 A 
ATOM     44  C   UNL A   1      39.608  24.874  27.792  1.00  0.00     0.001 A 
ATOM     45  C   UNL A   1      40.817  26.131  26.123  1.00  0.00     0.001 A 
ATOM     46  C   UNL A   1      40.132  24.980  26.504  1.00  0.00     0.000 A 
ENDBRANCH  27  41
BRANCH  28  47
ATOM     47  C   UNL A   1      41.307  34.490  34.978  1.00  0.00    -0.014 A 
ATOM     48  C   UNL A   1      40.659  34.337  36.212  1.00  0.00     0.009 A 
ATOM     49  C   UNL A   1      42.071  35.647  34.750  1.00  0.00     0.009 A 
ATOM     50  C   UNL A   1      40.769  35.326  37.193  1.00  0.00     0.001 A 
ATOM     51  C   UNL A   1      42.203  36.618  35.743  1.00  0.00     0.001 A 
ATOM     52  C   UNL A   1      41.547  36.460  36.961  1.00  0.00     0.000 A 
ENDBRANCH  28  47
BRANCH  40  53
ATOM     53  C   UNL A   1      45.136  28.813  33.583  1.00  0.00    -0.014 A 
ATOM     54  C   UNL A   1      45.102  27.863  34.614  1.00  0.00     0.009 A 
ATOM     55  C   UNL A   1      46.378  29.192  33.048  1.00  0.00     0.009 A 
ATOM     56  C   UNL A   1      46.288  27.315  35.108  1.00  0.00     0.001 A 
ATOM     57  C   UNL A   1      47.559  28.622  33.522  1.00  0.00     0.001 A 
ATOM     58  C   UNL A   1      47.515  27.688  34.555  1.00  0.00     0.000 A 
ENDBRANCH  40  53
ENDBRANCH  14  15
ENDBRANCH   7   9
ENDBRANCH   4   5
ENDBRANCH   3   4
ENDBRANCH   2   3
ENDBRANCH   1   2
BRANCH   1  59
ATOM     59  C   UNL A   1      32.820  28.463  26.966  1.00  0.00     0.021 C 
BRANCH  59  60
ATOM     60  C   UNL A   1      31.404  27.977  27.261  1.00  0.00     0.116 C 
BRANCH  60  61
ATOM     61  N   UNL A   1      31.203  26.596  26.860  1.00  0.00    -0.352 N 
ATOM     62  C   UNL A   1      30.900  26.095  25.621  1.00  0.00     0.253 C 
ATOM     63  H   UNL A   1      31.299  25.928  27.576  1.00  0.00     0.163 HD
ATOM     64  O   UNL A   1      30.657  24.898  25.487  1.00  0.00    -0.269 OA
BRANCH  62  65
ATOM     65  C   UNL A   1      30.836  26.988  24.444  1.00  0.00     0.063 A 
ATOM     66  C   UNL A   1      29.566  27.487  24.113  1.00  0.00     0.016 A 
ATOM     67  C   UNL A   1      31.965  27.297  23.659  1.00  0.00     0.051 A 
ATOM     68  C   UNL A   1      29.411  28.341  23.025  1.00  0.00     0.001 A 
ATOM     69  C   UNL A   1      31.780  28.174  22.576  1.00  0.00     0.027 A 
ATOM     70  C   UNL A   1      30.520  28.691  22.261  1.00  0.00     0.002 A 
BRANCH  67  71
ATOM     71  N   UNL A   1      33.245  26.782  23.955  1.00  0.00    -0.355 N 
ATOM     72  H   UNL A   1      33.911  27.458  24.216  1.00  0.00     0.167 HD
BRANCH  71  73
ATOM     73  C   UNL A   1      33.723  25.461  23.939  1.00  0.00     0.039 A 
ATOM     74  C   UNL A   1      33.510  24.667  22.808  1.00  0.00     0.026 A 
ATOM     75  C   UNL A   1      34.476  24.930  24.995  1.00  0.00     0.039 A 
ATOM     76  C   UNL A   1      34.048  23.381  22.724  1.00  0.00     0.003 A 
ATOM     77  C   UNL A   1      35.013  23.634  24.934  1.00  0.00     0.058 A 
ATOM     78  C   UNL A   1      34.801  22.868  23.780  1.00  0.00     0.013 A 
BRANCH  77  79
ATOM     79  C   UNL A   1      35.828  23.079  26.074  1.00  0.00     0.416 C 
ATOM     80  F   UNL A   1      36.929  23.834  26.344  1.00  0.00    -0.166 F 
ATOM     81  F   UNL A   1      35.122  23.016  27.237  1.00  0.00    -0.166 F 
ATOM     82  F   UNL A   1      36.292  21.818  25.850  1.00  0.00    -0.166 F 
ENDBRANCH  77  79
ENDBRANCH  71  73
ENDBRANCH  67  71
ENDBRANCH  62  65
ENDBRANCH  60  61
ENDBRANCH  59  60
ENDBRANCH   1  59
TORSDOF 16
ENDMDL
MODEL 3
REMARK VINA RESULT:     -11.0      5.671     10.110
REMARK SMILES O=C(NCCCCCCNC(=O)c1ccccc1Nc1cccc(C(F)(F)F)c1)c1ccc(-c2c3nc(c(-c4ccccc4)c4ccc([nH]4)c(-c4ccccc4)c4nc(c(-c5ccccc5)c5ccc2[nH]5)C=C4)C=C3)cc1
REMARK SMILES IDX 7 1 6 2 5 3 4 4 3 5 1 6 2 7 30 9 31 10 77 11 32 12 76 13
REMARK SMILES IDX 33 14 34 15 35 16 70 17 36 18 75 19 69 20 71 21 37 22 74 23
REMARK SMILES IDX 68 24 67 25 38 27 60 28 45 29 59 30 46 31 49 32 58 33 72 34
REMARK SMILES IDX 47 35 48 36 57 38 73 39 50 40 39 41 40 42 44 43 41 44 43 45
REMARK SMILES IDX 42 46 61 47 62 48 66 49 63 50 65 51 64 52 51 53 52 54 56 55
REMARK SMILES IDX 53 56 55 57 54 58 8 59 9 60 10 61 11 62 12 64 13 65 14 66
REMARK SMILES IDX 18 67 15 68 17 69 16 70 19 71 20 73 21 74 29 75 22 76 24 77
REMARK SMILES IDX 23 78 25 79 26 80 27 81 28 82
REMARK H PARENT 3 8 71 26 49 37 10 63 19 72
REMARK Flexibility Score: inf
ROOT
ATOM      1  C   UNL A   1      37.204  21.844  24.420  1.00  0.00     0.002 C 
ENDROOT
BRANCH   1   2
ATOM      2  C   UNL A   1      36.730  20.418  24.716  1.00  0.00     0.002 C 
BRANCH   2   3
ATOM      3  C   UNL A   1      37.841  19.404  24.991  1.00  0.00     0.021 C 
BRANCH   3   4
ATOM      4  C   UNL A   1      39.031  19.955  25.767  1.00  0.00     0.116 C 
BRANCH   4   5
ATOM      5  N   UNL A   1      40.144  19.022  25.811  1.00  0.00    -0.352 N 
ATOM      6  O   UNL A   1      42.307  18.385  25.878  1.00  0.00    -0.269 OA
ATOM      7  C   UNL A   1      41.470  19.267  26.054  1.00  0.00     0.251 C 
ATOM      8  H   UNL A   1      39.912  18.080  25.643  1.00  0.00     0.163 HD
BRANCH   7   9
ATOM      9  C   UNL A   1      41.895  20.604  26.513  1.00  0.00     0.039 A 
ATOM     10  C   UNL A   1      41.986  20.897  27.877  1.00  0.00     0.014 A 
ATOM     11  C   UNL A   1      42.225  21.572  25.560  1.00  0.00     0.014 A 
ATOM     12  C   UNL A   1      42.293  22.189  28.289  1.00  0.00     0.010 A 
ATOM     13  C   UNL A   1      42.609  22.846  25.978  1.00  0.00     0.010 A 
ATOM     14  C   UNL A   1      42.628  23.169  27.343  1.00  0.00    -0.014 A 
BRANCH  14  15
ATOM     15  C   UNL A   1      43.069  24.512  27.790  1.00  0.00     0.031 A 
ATOM     16  C   UNL A   1      42.071  25.568  28.163  1.00  0.00     0.074 A 
ATOM     17  C   UNL A   1      44.387  24.786  27.816  1.00  0.00     0.049 A 
ATOM     18  N   UNL A   1      42.279  26.818  28.494  1.00  0.00    -0.248 NA
ATOM     19  C   UNL A   1      40.655  25.175  28.150  1.00  0.00     0.031 C 
ATOM     20  C   UNL A   1      45.450  23.840  27.470  1.00  0.00     0.029 A 
ATOM     21  N   UNL A   1      45.055  25.941  28.130  1.00  0.00    -0.354 N 
ATOM     22  C   UNL A   1      41.021  27.368  28.704  1.00  0.00     0.074 A 
ATOM     23  C   UNL A   1      40.056  26.323  28.438  1.00  0.00     0.031 C 
ATOM     24  C   UNL A   1      46.637  24.449  27.599  1.00  0.00     0.029 A 
ATOM     25  C   UNL A   1      46.415  25.842  27.969  1.00  0.00     0.049 A 
ATOM     26  H   UNL A   1      44.605  26.759  28.440  1.00  0.00     0.167 HD
ATOM     27  C   UNL A   1      40.704  28.630  29.080  1.00  0.00     0.031 A 
ATOM     28  C   UNL A   1      47.378  26.776  28.064  1.00  0.00     0.031 A 
ATOM     29  C   UNL A   1      41.673  29.668  29.323  1.00  0.00     0.049 A 
ATOM     30  C   UNL A   1      47.002  28.181  28.430  1.00  0.00     0.074 A 
ATOM     31  C   UNL A   1      41.458  30.966  29.750  1.00  0.00     0.029 A 
ATOM     32  N   UNL A   1      43.041  29.530  29.141  1.00  0.00    -0.354 N 
ATOM     33  N   UNL A   1      45.813  28.675  28.676  1.00  0.00    -0.248 NA
ATOM     34  C   UNL A   1      48.096  29.154  28.536  1.00  0.00     0.031 C 
ATOM     35  C   UNL A   1      42.687  31.634  29.756  1.00  0.00     0.029 A 
ATOM     36  C   UNL A   1      43.678  30.731  29.409  1.00  0.00     0.049 A 
ATOM     37  H   UNL A   1      43.494  28.700  28.863  1.00  0.00     0.167 HD
ATOM     38  C   UNL A   1      46.017  30.011  28.991  1.00  0.00     0.074 A 
ATOM     39  C   UNL A   1      47.445  30.247  28.911  1.00  0.00     0.031 C 
ATOM     40  C   UNL A   1      45.101  30.953  29.323  1.00  0.00     0.031 A 
BRANCH  27  41
ATOM     41  C   UNL A   1      39.242  28.970  29.198  1.00  0.00    -0.014 A 
ATOM     42  C   UNL A   1      38.511  29.479  28.112  1.00  0.00     0.009 A 
ATOM     43  C   UNL A   1      38.581  28.765  30.420  1.00  0.00     0.009 A 
ATOM     44  C   UNL A   1      37.165  29.824  28.263  1.00  0.00     0.001 A 
ATOM     45  C   UNL A   1      37.228  29.079  30.558  1.00  0.00     0.001 A 
ATOM     46  C   UNL A   1      36.525  29.623  29.486  1.00  0.00     0.000 A 
ENDBRANCH  27  41
BRANCH  28  47
ATOM     47  C   UNL A   1      48.784  26.396  27.772  1.00  0.00    -0.014 A 
ATOM     48  C   UNL A   1      49.307  26.515  26.477  1.00  0.00     0.009 A 
ATOM     49  C   UNL A   1      49.630  25.968  28.809  1.00  0.00     0.009 A 
ATOM     50  C   UNL A   1      50.646  26.206  26.225  1.00  0.00     0.001 A 
ATOM     51  C   UNL A   1      50.974  25.690  28.561  1.00  0.00     0.001 A 
ATOM     52  C   UNL A   1      51.480  25.803  27.268  1.00  0.00     0.000 A 
ENDBRANCH  28  47
BRANCH  40  53
ATOM     53  C   UNL A   1      45.610  32.325  29.669  1.00  0.00    -0.014 A 
ATOM     54  C   UNL A   1      45.641  33.357  28.719  1.00  0.00     0.009 A 
ATOM     55  C   UNL A   1      45.994  32.605  30.990  1.00  0.00     0.009 A 
ATOM     56  C   UNL A   1      46.062  34.638  29.084  1.00  0.00     0.001 A 
ATOM     57  C   UNL A   1      46.384  33.891  31.359  1.00  0.00     0.001 A 
ATOM     58  C   UNL A   1      46.424  34.906  30.405  1.00  0.00     0.000 A 
ENDBRANCH  40  53
ENDBRANCH  14  15
ENDBRANCH   7   9
ENDBRANCH   4   5
ENDBRANCH   3   4
ENDBRANCH   2   3
ENDBRANCH   1   2
BRANCH   1  59
ATOM     59  C   UNL A   1      36.197  22.737  23.685  1.00  0.00     0.021 C 
BRANCH  59  60
ATOM     60  C   UNL A   1      35.399  23.681  24.579  1.00  0.00     0.116 C 
BRANCH  60  61
ATOM     61  N   UNL A   1      35.347  23.221  25.955  1.00  0.00    -0.352 N 
ATOM     62  C   UNL A   1      34.292  23.233  26.828  1.00  0.00     0.253 C 
ATOM     63  H   UNL A   1      36.187  22.849  26.310  1.00  0.00     0.163 HD
ATOM     64  O   UNL A   1      34.460  22.901  27.999  1.00  0.00    -0.269 OA
BRANCH  62  65
ATOM     65  C   UNL A   1      32.951  23.668  26.380  1.00  0.00     0.063 A 
ATOM     66  C   UNL A   1      32.737  25.055  26.320  1.00  0.00     0.016 A 
ATOM     67  C   UNL A   1      31.918  22.760  26.069  1.00  0.00     0.051 A 
ATOM     68  C   UNL A   1      31.507  25.556  25.903  1.00  0.00     0.001 A 
ATOM     69  C   UNL A   1      30.694  23.297  25.635  1.00  0.00     0.027 A 
ATOM     70  C   UNL A   1      30.488  24.676  25.553  1.00  0.00     0.002 A 
BRANCH  67  71
ATOM     71  N   UNL A   1      32.102  21.363  26.151  1.00  0.00    -0.355 N 
ATOM     72  H   UNL A   1      32.037  20.991  27.060  1.00  0.00     0.167 HD
BRANCH  71  73
ATOM     73  C   UNL A   1      32.360  20.417  25.146  1.00  0.00     0.039 A 
ATOM     74  C   UNL A   1      32.022  20.711  23.821  1.00  0.00     0.026 A 
ATOM     75  C   UNL A   1      33.018  19.208  25.413  1.00  0.00     0.039 A 
ATOM     76  C   UNL A   1      32.346  19.831  22.787  1.00  0.00     0.003 A 
ATOM     77  C   UNL A   1      33.339  18.305  24.388  1.00  0.00     0.058 A 
ATOM     78  C   UNL A   1      33.006  18.635  23.067  1.00  0.00     0.013 A 
BRANCH  77  79
ATOM     79  C   UNL A   1      34.054  17.013  24.690  1.00  0.00     0.416 C 
ATOM     80  F   UNL A   1      33.863  16.072  23.723  1.00  0.00    -0.166 F 
ATOM     81  F   UNL A   1      35.402  17.175  24.794  1.00  0.00    -0.166 F 
ATOM     82  F   UNL A   1      33.657  16.429  25.855  1.00  0.00    -0.166 F 
ENDBRANCH  77  79
ENDBRANCH  71  73
ENDBRANCH  67  71
ENDBRANCH  62  65
ENDBRANCH  60  61
ENDBRANCH  59  60
ENDBRANCH   1  59
TORSDOF 16
ENDMDL
