MODEL 1
REMARK VINA RESULT:      -9.7      0.000      0.000
REMARK SMILES CCCCCCNC(=O)Oc1cccc(-c2ccc([C@@H](C)C(=O)NCCCCCCNC(=O)c3ccc(-c4c5nc(c(-c6ccccc6)c6ccc([nH]6)c(-c6ccccc6)c6nc(c(-c7ccccc7)c7ccc4[nH]7)C=C6)C=C5)cc3)cc2[N+](=O)[O-])c1
REMARK SMILES IDX 22 1 23 2 24 3 20 5 21 6 19 7 16 8 17 9 83 10 18 11 82 12
REMARK SMILES IDX 15 13 11 14 12 15 87 16 13 17 14 18 10 19 8 20 7 21 9 23
REMARK SMILES IDX 6 24 5 25 4 26 3 27 2 28 1 29 84 30 85 31 86 32 25 33 26 34
REMARK SMILES IDX 27 35 28 36 29 37 30 38 31 39 32 40 33 42 34 43 35 44 81 45
REMARK SMILES IDX 36 46 80 47 37 48 38 49 39 50 74 51 40 52 79 53 73 54 75 55
REMARK SMILES IDX 41 56 78 57 72 58 71 59 42 61 64 62 49 63 63 64 50 65 53 66
REMARK SMILES IDX 62 67 76 68 51 69 52 70 61 72 77 73 54 74 43 75 44 76 48 77
REMARK SMILES IDX 45 78 47 79 46 80 65 81 66 82 70 83 67 84 69 85 68 86 55 87
REMARK SMILES IDX 56 88 60 89 57 90 59 91 58 92
REMARK H PARENT 24 4 7 22 31 41 75 60 53 71
REMARK Flexibility Score: inf
ROOT
ATOM      1  C   UNL A   1      31.387  26.189  25.522  1.00  0.00     0.227 C 
ATOM      2  O   UNL A   1      30.464  25.809  26.253  1.00  0.00    -0.274 OA
ATOM      3  N   UNL A   1      31.924  27.403  25.813  1.00  0.00    -0.356 N 
ATOM      4  H   UNL A   1      31.574  27.807  26.640  1.00  0.00     0.163 HD
ENDROOT
BRANCH   1   5
ATOM      5  C   UNL A   1      31.865  25.288  24.372  1.00  0.00     0.105 C 
ATOM      6  C   UNL A   1      30.752  24.506  23.675  1.00  0.00     0.023 C 
BRANCH   5   7
ATOM      7  C   UNL A   1      33.122  24.491  24.692  1.00  0.00    -0.029 A 
ATOM      8  C   UNL A   1      35.438  22.855  25.174  1.00  0.00     0.060 A 
ATOM      9  C   UNL A   1      35.523  24.095  24.519  1.00  0.00     0.016 A 
ATOM     10  C   UNL A   1      34.163  22.496  25.651  1.00  0.00     0.277 A 
ATOM     11  C   UNL A   1      34.401  24.911  24.321  1.00  0.00     0.005 A 
ATOM     12  C   UNL A   1      33.017  23.274  25.383  1.00  0.00     0.090 A 
BRANCH   8  13
ATOM     13  C   UNL A   1      36.657  22.022  25.272  1.00  0.00    -0.008 A 
ATOM     14  C   UNL A   1      38.965  21.700  25.958  1.00  0.00     0.133 A 
ATOM     15  C   UNL A   1      38.960  20.393  25.482  1.00  0.00     0.047 A 
ATOM     16  C   UNL A   1      37.830  22.510  25.869  1.00  0.00     0.056 A 
ATOM     17  C   UNL A   1      37.798  19.884  24.911  1.00  0.00     0.004 A 
ATOM     18  C   UNL A   1      36.664  20.695  24.798  1.00  0.00     0.009 A 
BRANCH  14  19
ATOM     19  O   UNL A   1      40.199  22.216  26.383  1.00  0.00    -0.410 OA
BRANCH  19  20
ATOM     20  C   UNL A   1      41.027  21.426  27.164  1.00  0.00     0.412 C 
ATOM     21  N   UNL A   1      42.278  21.280  26.631  1.00  0.00    -0.321 N 
ATOM     22  H   UNL A   1      42.899  20.690  27.117  1.00  0.00     0.167 HD
ATOM     23  O   UNL A   1      40.717  20.888  28.220  1.00  0.00    -0.224 OA
BRANCH  21  24
ATOM     24  C   UNL A   1      42.782  21.908  25.426  1.00  0.00     0.119 C 
BRANCH  24  25
ATOM     25  C   UNL A   1      44.243  22.338  25.570  1.00  0.00     0.021 C 
BRANCH  25  26
ATOM     26  C   UNL A   1      44.653  23.533  24.703  1.00  0.00     0.002 C 
BRANCH  26  27
ATOM     27  C   UNL A   1      44.306  24.913  25.275  1.00  0.00    -0.000 C 
BRANCH  27  28
ATOM     28  C   UNL A   1      44.791  25.173  26.703  1.00  0.00    -0.003 C 
ATOM     29  C   UNL A   1      43.759  24.817  27.762  1.00  0.00     0.004 C 
ENDBRANCH  27  28
ENDBRANCH  26  27
ENDBRANCH  25  26
ENDBRANCH  24  25
ENDBRANCH  21  24
ENDBRANCH  19  20
ENDBRANCH  14  19
ENDBRANCH   8  13
BRANCH  10  30
ATOM     30  N   UNL A   1      33.977  21.335  26.517  1.00  0.00     0.063 N 
ATOM     31  O   UNL A   1      33.425  20.342  26.021  1.00  0.00    -0.258 OA
ATOM     32  O   UNL A   1      34.333  21.434  27.699  1.00  0.00    -0.258 OA
ENDBRANCH  10  30
ENDBRANCH   5   7
ENDBRANCH   1   5
BRANCH   3  33
ATOM     33  C   UNL A   1      32.913  28.213  25.135  1.00  0.00     0.116 C 
BRANCH  33  34
ATOM     34  C   UNL A   1      32.847  29.674  25.588  1.00  0.00     0.021 C 
BRANCH  34  35
ATOM     35  C   UNL A   1      32.867  29.854  27.109  1.00  0.00     0.002 C 
BRANCH  35  36
ATOM     36  C   UNL A   1      33.905  30.857  27.630  1.00  0.00     0.002 C 
BRANCH  36  37
ATOM     37  C   UNL A   1      33.705  32.308  27.179  1.00  0.00     0.021 C 
BRANCH  37  38
ATOM     38  C   UNL A   1      32.417  32.960  27.673  1.00  0.00     0.116 C 
BRANCH  38  39
ATOM     39  N   UNL A   1      32.605  34.369  27.979  1.00  0.00    -0.352 N 
ATOM     40  C   UNL A   1      33.510  34.972  28.814  1.00  0.00     0.251 C 
ATOM     41  H   UNL A   1      31.990  34.982  27.516  1.00  0.00     0.163 HD
ATOM     42  O   UNL A   1      33.371  36.150  29.127  1.00  0.00    -0.269 OA
BRANCH  40  43
ATOM     43  C   UNL A   1      34.654  34.203  29.350  1.00  0.00     0.039 A 
ATOM     44  C   UNL A   1      35.910  34.354  28.753  1.00  0.00     0.014 A 
ATOM     45  C   UNL A   1      34.484  33.310  30.411  1.00  0.00     0.014 A 
ATOM     46  C   UNL A   1      37.006  33.652  29.259  1.00  0.00     0.010 A 
ATOM     47  C   UNL A   1      35.589  32.660  30.954  1.00  0.00     0.010 A 
ATOM     48  C   UNL A   1      36.861  32.824  30.383  1.00  0.00    -0.014 A 
BRANCH  48  49
ATOM     49  C   UNL A   1      38.026  32.124  30.978  1.00  0.00     0.031 A 
ATOM     50  C   UNL A   1      38.688  30.991  30.244  1.00  0.00     0.074 A 
ATOM     51  C   UNL A   1      38.449  32.468  32.209  1.00  0.00     0.049 A 
ATOM     52  N   UNL A   1      39.676  30.222  30.631  1.00  0.00    -0.248 NA
ATOM     53  C   UNL A   1      38.157  30.662  28.912  1.00  0.00     0.031 C 
ATOM     54  C   UNL A   1      37.870  33.527  33.040  1.00  0.00     0.029 A 
ATOM     55  N   UNL A   1      39.462  31.957  32.981  1.00  0.00    -0.354 N 
ATOM     56  C   UNL A   1      39.872  29.313  29.600  1.00  0.00     0.074 A 
ATOM     57  C   UNL A   1      38.873  29.594  28.592  1.00  0.00     0.031 C 
ATOM     58  C   UNL A   1      38.553  33.601  34.194  1.00  0.00     0.029 A 
ATOM     59  C   UNL A   1      39.588  32.574  34.202  1.00  0.00     0.049 A 
ATOM     60  H   UNL A   1      40.043  31.218  32.687  1.00  0.00     0.167 HD
ATOM     61  C   UNL A   1      40.810  28.341  29.493  1.00  0.00     0.031 A 
ATOM     62  C   UNL A   1      40.438  32.335  35.217  1.00  0.00     0.031 A 
ATOM     63  C   UNL A   1      41.809  28.067  30.490  1.00  0.00     0.049 A 
ATOM     64  C   UNL A   1      41.459  31.240  35.081  1.00  0.00     0.074 A 
ATOM     65  C   UNL A   1      42.837  27.140  30.449  1.00  0.00     0.029 A 
ATOM     66  N   UNL A   1      41.905  28.717  31.710  1.00  0.00    -0.354 N 
ATOM     67  N   UNL A   1      41.672  30.431  34.073  1.00  0.00    -0.248 NA
ATOM     68  C   UNL A   1      42.364  31.035  36.221  1.00  0.00     0.031 C 
ATOM     69  C   UNL A   1      43.525  27.197  31.665  1.00  0.00     0.029 A 
ATOM     70  C   UNL A   1      42.959  28.194  32.442  1.00  0.00     0.049 A 
ATOM     71  H   UNL A   1      41.312  29.442  32.013  1.00  0.00     0.167 HD
ATOM     72  C   UNL A   1      42.748  29.638  34.446  1.00  0.00     0.074 A 
ATOM     73  C   UNL A   1      43.155  30.074  35.766  1.00  0.00     0.031 C 
ATOM     74  C   UNL A   1      43.348  28.637  33.755  1.00  0.00     0.031 A 
BRANCH  61  75
ATOM     75  C   UNL A   1      40.791  27.496  28.250  1.00  0.00    -0.014 A 
ATOM     76  C   UNL A   1      41.482  27.890  27.092  1.00  0.00     0.009 A 
ATOM     77  C   UNL A   1      40.103  26.272  28.246  1.00  0.00     0.009 A 
ATOM     78  C   UNL A   1      41.453  27.093  25.945  1.00  0.00     0.001 A 
ATOM     79  C   UNL A   1      40.099  25.465  27.107  1.00  0.00     0.001 A 
ATOM     80  C   UNL A   1      40.765  25.880  25.955  1.00  0.00     0.000 A 
ENDBRANCH  61  75
BRANCH  62  81
ATOM     81  C   UNL A   1      40.371  33.159  36.452  1.00  0.00    -0.014 A 
ATOM     82  C   UNL A   1      39.552  32.768  37.523  1.00  0.00     0.009 A 
ATOM     83  C   UNL A   1      41.120  34.340  36.566  1.00  0.00     0.009 A 
ATOM     84  C   UNL A   1      39.466  33.556  38.672  1.00  0.00     0.001 A 
ATOM     85  C   UNL A   1      41.054  35.112  37.728  1.00  0.00     0.001 A 
ATOM     86  C   UNL A   1      40.221  34.724  38.775  1.00  0.00     0.000 A 
ENDBRANCH  62  81
BRANCH  74  87
ATOM     87  C   UNL A   1      44.524  27.966  34.405  1.00  0.00    -0.014 A 
ATOM     88  C   UNL A   1      45.821  28.487  34.278  1.00  0.00     0.009 A 
ATOM     89  C   UNL A   1      44.324  26.816  35.186  1.00  0.00     0.009 A 
ATOM     90  C   UNL A   1      46.900  27.851  34.897  1.00  0.00     0.001 A 
ATOM     91  C   UNL A   1      45.399  26.199  35.825  1.00  0.00     0.001 A 
ATOM     92  C   UNL A   1      46.687  26.712  35.672  1.00  0.00     0.000 A 
ENDBRANCH  74  87
ENDBRANCH  48  49
ENDBRANCH  40  43
ENDBRANCH  38  39
ENDBRANCH  37  38
ENDBRANCH  36  37
ENDBRANCH  35  36
ENDBRANCH  34  35
ENDBRANCH  33  34
ENDBRANCH   3  33
TORSDOF 23
ENDMDL
MODEL 2
REMARK VINA RESULT:      -9.5      5.939     11.102
REMARK SMILES CCCCCCNC(=O)Oc1cccc(-c2ccc([C@@H](C)C(=O)NCCCCCCNC(=O)c3ccc(-c4c5nc(c(-c6ccccc6)c6ccc([nH]6)c(-c6ccccc6)c6nc(c(-c7ccccc7)c7ccc4[nH]7)C=C6)C=C5)cc3)cc2[N+](=O)[O-])c1
REMARK SMILES IDX 22 1 23 2 24 3 20 5 21 6 19 7 16 8 17 9 83 10 18 11 82 12
REMARK SMILES IDX 15 13 11 14 12 15 87 16 13 17 14 18 10 19 8 20 7 21 9 23
REMARK SMILES IDX 6 24 5 25 4 26 3 27 2 28 1 29 84 30 85 31 86 32 25 33 26 34
REMARK SMILES IDX 27 35 28 36 29 37 30 38 31 39 32 40 33 42 34 43 35 44 81 45
REMARK SMILES IDX 36 46 80 47 37 48 38 49 39 50 74 51 40 52 79 53 73 54 75 55
REMARK SMILES IDX 41 56 78 57 72 58 71 59 42 61 64 62 49 63 63 64 50 65 53 66
REMARK SMILES IDX 62 67 76 68 51 69 52 70 61 72 77 73 54 74 43 75 44 76 48 77
REMARK SMILES IDX 45 78 47 79 46 80 65 81 66 82 70 83 67 84 69 85 68 86 55 87
REMARK SMILES IDX 56 88 60 89 57 90 59 91 58 92
REMARK H PARENT 24 4 7 22 31 41 75 60 53 71
REMARK Flexibility Score: inf
ROOT
ATOM      1  C   UNL A   1      35.999  29.896  28.759  1.00  0.00     0.227 C 
ATOM      2  O   UNL A   1      35.587  29.662  29.901  1.00  0.00    -0.274 OA
ATOM      3  N   UNL A   1      37.283  29.532  28.497  1.00  0.00    -0.356 N 
ATOM      4  H   UNL A   1      37.713  29.032  29.229  1.00  0.00     0.163 HD
ENDROOT
BRANCH   1   5
ATOM      5  C   UNL A   1      35.063  30.553  27.733  1.00  0.00     0.105 C 
ATOM      6  C   UNL A   1      34.365  31.818  28.230  1.00  0.00     0.023 C 
BRANCH   5   7
ATOM      7  C   UNL A   1      34.175  29.568  26.985  1.00  0.00    -0.029 A 
ATOM      8  C   UNL A   1      32.653  27.612  25.526  1.00  0.00     0.060 A 
ATOM      9  C   UNL A   1      32.583  27.720  26.926  1.00  0.00     0.016 A 
ATOM     10  C   UNL A   1      33.451  28.570  24.873  1.00  0.00     0.277 A 
ATOM     11  C   UNL A   1      33.293  28.700  27.632  1.00  0.00     0.005 A 
ATOM     12  C   UNL A   1      34.231  29.505  25.585  1.00  0.00     0.090 A 
BRANCH   8  13
ATOM     13  C   UNL A   1      31.933  26.500  24.866  1.00  0.00    -0.008 A 
ATOM     14  C   UNL A   1      31.835  24.211  24.058  1.00  0.00     0.133 A 
ATOM     15  C   UNL A   1      30.519  24.379  23.639  1.00  0.00     0.047 A 
ATOM     16  C   UNL A   1      32.539  25.248  24.675  1.00  0.00     0.056 A 
ATOM     17  C   UNL A   1      29.894  25.605  23.845  1.00  0.00     0.004 A 
ATOM     18  C   UNL A   1      30.598  26.655  24.442  1.00  0.00     0.009 A 
BRANCH  14  19
ATOM     19  O   UNL A   1      32.470  23.014  23.692  1.00  0.00    -0.410 OA
BRANCH  19  20
ATOM     20  C   UNL A   1      33.719  23.069  23.096  1.00  0.00     0.412 C 
ATOM     21  N   UNL A   1      34.717  22.609  23.912  1.00  0.00    -0.321 N 
ATOM     22  H   UNL A   1      35.636  22.667  23.562  1.00  0.00     0.167 HD
ATOM     23  O   UNL A   1      33.959  23.481  21.967  1.00  0.00    -0.224 OA
BRANCH  21  24
ATOM     24  C   UNL A   1      34.557  22.044  25.237  1.00  0.00     0.119 C 
BRANCH  24  25
ATOM     25  C   UNL A   1      34.832  20.540  25.257  1.00  0.00     0.021 C 
BRANCH  25  26
ATOM     26  C   UNL A   1      33.904  19.702  24.371  1.00  0.00     0.002 C 
BRANCH  26  27
ATOM     27  C   UNL A   1      32.717  19.050  25.089  1.00  0.00    -0.000 C 
BRANCH  27  28
ATOM     28  C   UNL A   1      32.439  17.593  24.712  1.00  0.00    -0.003 C 
ATOM     29  C   UNL A   1      32.894  16.601  25.771  1.00  0.00     0.004 C 
ENDBRANCH  27  28
ENDBRANCH  26  27
ENDBRANCH  25  26
ENDBRANCH  24  25
ENDBRANCH  21  24
ENDBRANCH  19  20
ENDBRANCH  14  19
ENDBRANCH   8  13
BRANCH  10  30
ATOM     30  N   UNL A   1      33.450  28.691  23.418  1.00  0.00     0.063 N 
ATOM     31  O   UNL A   1      34.513  28.443  22.828  1.00  0.00    -0.258 OA
ATOM     32  O   UNL A   1      32.410  29.083  22.872  1.00  0.00    -0.258 OA
ENDBRANCH  10  30
ENDBRANCH   5   7
ENDBRANCH   1   5
BRANCH   3  33
ATOM     33  C   UNL A   1      38.134  29.740  27.346  1.00  0.00     0.116 C 
BRANCH  33  34
ATOM     34  C   UNL A   1      39.470  29.009  27.496  1.00  0.00     0.021 C 
BRANCH  34  35
ATOM     35  C   UNL A   1      39.534  28.077  28.711  1.00  0.00     0.002 C 
BRANCH  35  36
ATOM     36  C   UNL A   1      40.439  26.850  28.540  1.00  0.00     0.002 C 
BRANCH  36  37
ATOM     37  C   UNL A   1      39.716  25.532  28.241  1.00  0.00     0.021 C 
BRANCH  37  38
ATOM     38  C   UNL A   1      39.747  25.105  26.775  1.00  0.00     0.116 C 
BRANCH  38  39
ATOM     39  N   UNL A   1      40.450  23.845  26.593  1.00  0.00    -0.352 N 
ATOM     40  C   UNL A   1      41.763  23.611  26.275  1.00  0.00     0.251 C 
ATOM     41  H   UNL A   1      39.899  23.038  26.717  1.00  0.00     0.163 HD
ATOM     42  O   UNL A   1      42.124  22.489  25.933  1.00  0.00    -0.269 OA
BRANCH  40  43
ATOM     43  C   UNL A   1      42.749  24.711  26.333  1.00  0.00     0.039 A 
ATOM     44  C   UNL A   1      43.369  25.001  27.552  1.00  0.00     0.014 A 
ATOM     45  C   UNL A   1      43.034  25.479  25.200  1.00  0.00     0.014 A 
ATOM     46  C   UNL A   1      44.318  26.023  27.621  1.00  0.00     0.010 A 
ATOM     47  C   UNL A   1      44.027  26.454  25.256  1.00  0.00     0.010 A 
ATOM     48  C   UNL A   1      44.677  26.737  26.467  1.00  0.00    -0.014 A 
BRANCH  48  49
ATOM     49  C   UNL A   1      45.733  27.779  26.504  1.00  0.00     0.031 A 
ATOM     50  C   UNL A   1      45.366  29.228  26.666  1.00  0.00     0.074 A 
ATOM     51  C   UNL A   1      47.020  27.425  26.330  1.00  0.00     0.049 A 
ATOM     52  N   UNL A   1      46.143  30.282  26.659  1.00  0.00    -0.248 NA
ATOM     53  C   UNL A   1      43.937  29.536  26.832  1.00  0.00     0.031 C 
ATOM     54  C   UNL A   1      47.505  26.058  26.129  1.00  0.00     0.029 A 
ATOM     55  N   UNL A   1      48.159  28.190  26.286  1.00  0.00    -0.354 N 
ATOM     56  C   UNL A   1      45.298  31.374  26.805  1.00  0.00     0.074 A 
ATOM     57  C   UNL A   1      43.946  30.861  26.850  1.00  0.00     0.031 C 
ATOM     58  C   UNL A   1      48.842  26.079  26.007  1.00  0.00     0.029 A 
ATOM     59  C   UNL A   1      49.304  27.461  26.082  1.00  0.00     0.049 A 
ATOM     60  H   UNL A   1      48.154  29.170  26.390  1.00  0.00     0.167 HD
ATOM     61  C   UNL A   1      45.618  32.687  26.908  1.00  0.00     0.031 A 
ATOM     62  C   UNL A   1      50.584  27.859  25.961  1.00  0.00     0.031 A 
ATOM     63  C   UNL A   1      46.962  33.197  26.872  1.00  0.00     0.049 A 
ATOM     64  C   UNL A   1      50.912  29.323  26.063  1.00  0.00     0.074 A 
ATOM     65  C   UNL A   1      47.393  34.505  27.024  1.00  0.00     0.029 A 
ATOM     66  N   UNL A   1      48.095  32.425  26.667  1.00  0.00    -0.354 N 
ATOM     67  N   UNL A   1      50.107  30.337  26.263  1.00  0.00    -0.248 NA
ATOM     68  C   UNL A   1      52.328  29.693  25.932  1.00  0.00     0.031 C 
ATOM     69  C   UNL A   1      48.782  34.529  26.863  1.00  0.00     0.029 A 
ATOM     70  C   UNL A   1      49.221  33.231  26.664  1.00  0.00     0.049 A 
ATOM     71  H   UNL A   1      48.098  31.448  26.543  1.00  0.00     0.167 HD
ATOM     72  C   UNL A   1      50.920  31.462  26.307  1.00  0.00     0.074 A 
ATOM     73  C   UNL A   1      52.283  31.003  26.128  1.00  0.00     0.031 C 
ATOM     74  C   UNL A   1      50.569  32.759  26.480  1.00  0.00     0.031 A 
BRANCH  61  75
ATOM     75  C   UNL A   1      44.487  33.665  27.062  1.00  0.00    -0.014 A 
ATOM     76  C   UNL A   1      43.913  34.295  25.945  1.00  0.00     0.009 A 
ATOM     77  C   UNL A   1      43.964  33.934  28.337  1.00  0.00     0.009 A 
ATOM     78  C   UNL A   1      42.864  35.203  26.107  1.00  0.00     0.001 A 
ATOM     79  C   UNL A   1      42.897  34.820  28.492  1.00  0.00     0.001 A 
ATOM     80  C   UNL A   1      42.354  35.461  27.378  1.00  0.00     0.000 A 
ENDBRANCH  61  75
BRANCH  62  81
ATOM     81  C   UNL A   1      51.658  26.855  25.744  1.00  0.00    -0.014 A 
ATOM     82  C   UNL A   1      52.266  26.219  26.837  1.00  0.00     0.009 A 
ATOM     83  C   UNL A   1      52.082  26.530  24.447  1.00  0.00     0.009 A 
ATOM     84  C   UNL A   1      53.295  25.296  26.636  1.00  0.00     0.001 A 
ATOM     85  C   UNL A   1      53.091  25.586  24.247  1.00  0.00     0.001 A 
ATOM     86  C   UNL A   1      53.702  24.977  25.341  1.00  0.00     0.000 A 
ENDBRANCH  62  81
BRANCH  74  87
ATOM     87  C   UNL A   1      51.679  33.770  26.513  1.00  0.00    -0.014 A 
ATOM     88  C   UNL A   1      52.329  34.100  27.713  1.00  0.00     0.009 A 
ATOM     89  C   UNL A   1      52.106  34.372  25.319  1.00  0.00     0.009 A 
ATOM     90  C   UNL A   1      53.364  35.038  27.719  1.00  0.00     0.001 A 
ATOM     91  C   UNL A   1      53.158  35.288  25.325  1.00  0.00     0.001 A 
ATOM     92  C   UNL A   1      53.780  35.627  26.526  1.00  0.00     0.000 A 
ENDBRANCH  74  87
ENDBRANCH  48  49
ENDBRANCH  40  43
ENDBRANCH  38  39
ENDBRANCH  37  38
ENDBRANCH  36  37
ENDBRANCH  35  36
ENDBRANCH  34  35
ENDBRANCH  33  34
ENDBRANCH   3  33
TORSDOF 23
ENDMDL
MODEL 3
REMARK VINA RESULT:      -9.4      3.205      7.533
REMARK SMILES CCCCCCNC(=O)Oc1cccc(-c2ccc([C@@H](C)C(=O)NCCCCCCNC(=O)c3ccc(-c4c5nc(c(-c6ccccc6)c6ccc([nH]6)c(-c6ccccc6)c6nc(c(-c7ccccc7)c7ccc4[nH]7)C=C6)C=C5)cc3)cc2[N+](=O)[O-])c1
REMARK SMILES IDX 22 1 23 2 24 3 20 5 21 6 19 7 16 8 17 9 83 10 18 11 82 12
REMARK SMILES IDX 15 13 11 14 12 15 87 16 13 17 14 18 10 19 8 20 7 21 9 23
REMARK SMILES IDX 6 24 5 25 4 26 3 27 2 28 1 29 84 30 85 31 86 32 25 33 26 34
REMARK SMILES IDX 27 35 28 36 29 37 30 38 31 39 32 40 33 42 34 43 35 44 81 45
REMARK SMILES IDX 36 46 80 47 37 48 38 49 39 50 74 51 40 52 79 53 73 54 75 55
REMARK SMILES IDX 41 56 78 57 72 58 71 59 42 61 64 62 49 63 63 64 50 65 53 66
REMARK SMILES IDX 62 67 76 68 51 69 52 70 61 72 77 73 54 74 43 75 44 76 48 77
REMARK SMILES IDX 45 78 47 79 46 80 65 81 66 82 70 83 67 84 69 85 68 86 55 87
REMARK SMILES IDX 56 88 60 89 57 90 59 91 58 92
REMARK H PARENT 24 4 7 22 31 41 75 60 53 71
REMARK Flexibility Score: inf
ROOT
ATOM      1  C   UNL A   1      33.810  31.336  27.520  1.00  0.00     0.227 C 
ATOM      2  O   UNL A   1      34.573  30.408  27.817  1.00  0.00    -0.274 OA
ATOM      3  N   UNL A   1      34.114  32.554  28.042  1.00  0.00    -0.356 N 
ATOM      4  H   UNL A   1      34.970  32.579  28.528  1.00  0.00     0.163 HD
ENDROOT
BRANCH   1   5
ATOM      5  C   UNL A   1      32.610  31.067  26.599  1.00  0.00     0.105 C 
ATOM      6  C   UNL A   1      31.405  31.973  26.847  1.00  0.00     0.023 C 
BRANCH   5   7
ATOM      7  C   UNL A   1      32.290  29.590  26.415  1.00  0.00    -0.029 A 
ATOM      8  C   UNL A   1      31.869  26.769  26.045  1.00  0.00     0.060 A 
ATOM      9  C   UNL A   1      31.646  27.402  27.280  1.00  0.00     0.016 A 
ATOM     10  C   UNL A   1      32.235  27.611  24.978  1.00  0.00     0.277 A 
ATOM     11  C   UNL A   1      31.811  28.783  27.448  1.00  0.00     0.005 A 
ATOM     12  C   UNL A   1      32.482  28.988  25.162  1.00  0.00     0.090 A 
BRANCH   8  13
ATOM     13  C   UNL A   1      31.747  25.296  25.974  1.00  0.00    -0.008 A 
ATOM     14  C   UNL A   1      32.739  23.084  25.819  1.00  0.00     0.133 A 
ATOM     15  C   UNL A   1      31.487  22.480  25.880  1.00  0.00     0.047 A 
ATOM     16  C   UNL A   1      32.880  24.473  25.875  1.00  0.00     0.056 A 
ATOM     17  C   UNL A   1      30.356  23.280  26.005  1.00  0.00     0.004 A 
ATOM     18  C   UNL A   1      30.486  24.672  26.041  1.00  0.00     0.009 A 
BRANCH  14  19
ATOM     19  O   UNL A   1      33.833  22.249  25.539  1.00  0.00    -0.410 OA
BRANCH  19  20
ATOM     20  C   UNL A   1      34.630  21.811  26.583  1.00  0.00     0.412 C 
ATOM     21  N   UNL A   1      35.954  21.737  26.246  1.00  0.00    -0.321 N 
ATOM     22  H   UNL A   1      36.566  21.386  26.932  1.00  0.00     0.167 HD
ATOM     23  O   UNL A   1      34.241  21.506  27.704  1.00  0.00    -0.224 OA
BRANCH  21  24
ATOM     24  C   UNL A   1      36.545  22.123  24.980  1.00  0.00     0.119 C 
BRANCH  24  25
ATOM     25  C   UNL A   1      37.075  23.557  25.007  1.00  0.00     0.021 C 
BRANCH  25  26
ATOM     26  C   UNL A   1      37.587  24.031  26.372  1.00  0.00     0.002 C 
BRANCH  26  27
ATOM     27  C   UNL A   1      39.112  24.068  26.527  1.00  0.00    -0.000 C 
BRANCH  27  28
ATOM     28  C   UNL A   1      39.763  22.746  26.939  1.00  0.00    -0.003 C 
ATOM     29  C   UNL A   1      41.256  22.867  27.202  1.00  0.00     0.004 C 
ENDBRANCH  27  28
ENDBRANCH  26  27
ENDBRANCH  25  26
ENDBRANCH  24  25
ENDBRANCH  21  24
ENDBRANCH  19  20
ENDBRANCH  14  19
ENDBRANCH   8  13
BRANCH  10  30
ATOM     30  N   UNL A   1      32.302  27.112  23.608  1.00  0.00     0.063 N 
ATOM     31  O   UNL A   1      33.410  26.738  23.195  1.00  0.00    -0.258 OA
ATOM     32  O   UNL A   1      31.266  27.143  22.931  1.00  0.00    -0.258 OA
ENDBRANCH  10  30
ENDBRANCH   5   7
ENDBRANCH   1   5
BRANCH   3  33
ATOM     33  C   UNL A   1      33.415  33.821  28.016  1.00  0.00     0.116 C 
BRANCH  33  34
ATOM     34  C   UNL A   1      33.857  34.729  29.167  1.00  0.00     0.021 C 
BRANCH  34  35
ATOM     35  C   UNL A   1      32.954  35.948  29.377  1.00  0.00     0.002 C 
BRANCH  35  36
ATOM     36  C   UNL A   1      32.531  36.199  30.830  1.00  0.00     0.002 C 
BRANCH  36  37
ATOM     37  C   UNL A   1      33.457  37.113  31.640  1.00  0.00     0.021 C 
BRANCH  37  38
ATOM     38  C   UNL A   1      34.113  36.450  32.848  1.00  0.00     0.116 C 
BRANCH  38  39
ATOM     39  N   UNL A   1      33.497  35.170  33.164  1.00  0.00    -0.352 N 
ATOM     40  C   UNL A   1      34.015  33.903  33.084  1.00  0.00     0.251 C 
ATOM     41  H   UNL A   1      32.567  35.222  33.483  1.00  0.00     0.163 HD
ATOM     42  O   UNL A   1      33.275  32.928  33.167  1.00  0.00    -0.269 OA
BRANCH  40  43
ATOM     43  C   UNL A   1      35.467  33.705  32.886  1.00  0.00     0.039 A 
ATOM     44  C   UNL A   1      36.173  32.917  33.799  1.00  0.00     0.014 A 
ATOM     45  C   UNL A   1      36.137  34.323  31.826  1.00  0.00     0.014 A 
ATOM     46  C   UNL A   1      37.541  32.701  33.617  1.00  0.00     0.010 A 
ATOM     47  C   UNL A   1      37.487  34.056  31.610  1.00  0.00     0.010 A 
ATOM     48  C   UNL A   1      38.202  33.244  32.503  1.00  0.00    -0.014 A 
BRANCH  48  49
ATOM     49  C   UNL A   1      39.639  32.970  32.254  1.00  0.00     0.031 A 
ATOM     50  C   UNL A   1      40.699  33.774  32.954  1.00  0.00     0.074 A 
ATOM     51  C   UNL A   1      39.988  32.037  31.348  1.00  0.00     0.049 A 
ATOM     52  N   UNL A   1      42.000  33.721  32.817  1.00  0.00    -0.248 NA
ATOM     53  C   UNL A   1      40.237  34.787  33.915  1.00  0.00     0.031 C 
ATOM     54  C   UNL A   1      39.056  31.213  30.576  1.00  0.00     0.029 A 
ATOM     55  N   UNL A   1      41.226  31.631  30.916  1.00  0.00    -0.354 N 
ATOM     56  C   UNL A   1      42.508  34.699  33.661  1.00  0.00     0.074 A 
ATOM     57  C   UNL A   1      41.376  35.363  34.270  1.00  0.00     0.031 C 
ATOM     58  C   UNL A   1      39.755  30.384  29.784  1.00  0.00     0.029 A 
ATOM     59  C   UNL A   1      41.179  30.644  29.962  1.00  0.00     0.049 A 
ATOM     60  H   UNL A   1      42.068  32.012  31.258  1.00  0.00     0.167 HD
ATOM     61  C   UNL A   1      43.802  35.009  33.919  1.00  0.00     0.031 A 
ATOM     62  C   UNL A   1      42.172  30.022  29.300  1.00  0.00     0.031 A 
ATOM     63  C   UNL A   1      44.928  34.344  33.320  1.00  0.00     0.049 A 
ATOM     64  C   UNL A   1      43.599  30.395  29.592  1.00  0.00     0.074 A 
ATOM     65  C   UNL A   1      46.277  34.548  33.559  1.00  0.00     0.029 A 
ATOM     66  N   UNL A   1      44.838  33.347  32.362  1.00  0.00    -0.354 N 
ATOM     67  N   UNL A   1      44.064  31.280  30.439  1.00  0.00    -0.248 NA
ATOM     68  C   UNL A   1      44.636  29.673  28.842  1.00  0.00     0.031 C 
ATOM     69  C   UNL A   1      47.003  33.707  32.709  1.00  0.00     0.029 A 
ATOM     70  C   UNL A   1      46.107  32.944  31.980  1.00  0.00     0.049 A 
ATOM     71  H   UNL A   1      43.997  32.980  32.005  1.00  0.00     0.167 HD
ATOM     72  C   UNL A   1      45.447  31.204  30.342  1.00  0.00     0.074 A 
ATOM     73  C   UNL A   1      45.745  30.176  29.366  1.00  0.00     0.031 C 
ATOM     74  C   UNL A   1      46.387  31.923  31.005  1.00  0.00     0.031 A 
BRANCH  61  75
ATOM     75  C   UNL A   1      44.066  36.126  34.889  1.00  0.00    -0.014 A 
ATOM     76  C   UNL A   1      44.154  37.460  34.456  1.00  0.00     0.009 A 
ATOM     77  C   UNL A   1      44.193  35.847  36.259  1.00  0.00     0.009 A 
ATOM     78  C   UNL A   1      44.402  38.486  35.371  1.00  0.00     0.001 A 
ATOM     79  C   UNL A   1      44.412  36.878  37.174  1.00  0.00     0.001 A 
ATOM     80  C   UNL A   1      44.526  38.195  36.729  1.00  0.00     0.000 A 
ENDBRANCH  61  75
BRANCH  62  81
ATOM     81  C   UNL A   1      41.853  28.969  28.301  1.00  0.00    -0.014 A 
ATOM     82  C   UNL A   1      41.722  27.630  28.700  1.00  0.00     0.009 A 
ATOM     83  C   UNL A   1      41.681  29.294  26.948  1.00  0.00     0.009 A 
ATOM     84  C   UNL A   1      41.450  26.635  27.758  1.00  0.00     0.001 A 
ATOM     85  C   UNL A   1      41.381  28.302  26.013  1.00  0.00     0.001 A 
ATOM     86  C   UNL A   1      41.275  26.973  26.416  1.00  0.00     0.000 A 
ENDBRANCH  62  81
BRANCH  74  87
ATOM     87  C   UNL A   1      47.825  31.600  30.715  1.00  0.00    -0.014 A 
ATOM     88  C   UNL A   1      48.499  30.586  31.412  1.00  0.00     0.009 A 
ATOM     89  C   UNL A   1      48.502  32.298  29.702  1.00  0.00     0.009 A 
ATOM     90  C   UNL A   1      49.835  30.299  31.121  1.00  0.00     0.001 A 
ATOM     91  C   UNL A   1      49.827  31.990  29.395  1.00  0.00     0.001 A 
ATOM     92  C   UNL A   1      50.495  30.997  30.110  1.00  0.00     0.000 A 
ENDBRANCH  74  87
ENDBRANCH  48  49
ENDBRANCH  40  43
ENDBRANCH  38  39
ENDBRANCH  37  38
ENDBRANCH  36  37
ENDBRANCH  35  36
ENDBRANCH  34  35
ENDBRANCH  33  34
ENDBRANCH   3  33
TORSDOF 23
ENDMDL
