MODEL 1
REMARK VINA RESULT:     -11.3      0.000      0.000
REMARK SMILES Cc1nsc(N(C)C(=O)c2ccc(=O)n(C)n2)c1C(=O)NCCCCCCNC(=O)c1ccc(-c2c3nc(c(-c4ccccc4)c4ccc([nH]4)c(-c4ccccc4)c4nc(c(-c5ccccc5)c5ccc2[nH]5)C=C4)C=C3)cc1
REMARK SMILES IDX 24 1 23 2 22 3 21 4 19 5 20 6 18 8 1 9 2 10 3 11 4 12 5 13
REMARK SMILES IDX 6 14 7 15 8 16 9 17 10 18 11 19 17 20 12 21 15 22 13 23
REMARK SMILES IDX 16 24 14 25 25 26 26 27 27 28 28 29 29 30 30 32 31 33 32 34
REMARK SMILES IDX 78 35 33 36 77 37 34 38 35 39 36 40 71 41 37 42 76 43 70 44
REMARK SMILES IDX 72 45 38 46 75 47 69 48 68 49 39 51 61 52 46 53 60 54 47 55
REMARK SMILES IDX 50 56 59 57 73 58 48 59 49 60 58 62 74 63 51 64 40 65 41 66
REMARK SMILES IDX 45 67 42 68 44 69 43 70 62 71 63 72 67 73 64 74 66 75 65 76
REMARK SMILES IDX 52 77 53 78 57 79 54 80 56 81 55 82
REMARK H PARENT 21 7 28 31 72 50 50 61
REMARK Flexibility Score: inf
ROOT
ATOM      1  C   UNL A   1      33.833  30.045  27.792  1.00  0.00     0.002 C 
ENDROOT
BRANCH   1   2
ATOM      2  C   UNL A   1      34.118  29.212  26.537  1.00  0.00     0.021 C 
BRANCH   2   3
ATOM      3  C   UNL A   1      33.087  29.405  25.430  1.00  0.00     0.116 C 
BRANCH   3   4
ATOM      4  N   UNL A   1      31.792  28.913  25.815  1.00  0.00    -0.352 N 
ATOM      5  C   UNL A   1      31.415  27.621  26.072  1.00  0.00     0.256 C 
ATOM      6  O   UNL A   1      30.866  27.446  27.166  1.00  0.00    -0.269 OA
ATOM      7  H   UNL A   1      31.085  29.592  25.906  1.00  0.00     0.163 HD
BRANCH   5   8
ATOM      8  C   UNL A   1      31.541  26.516  25.108  1.00  0.00     0.097 A 
ATOM      9  C   UNL A   1      33.779  25.110  25.645  1.00  0.00     0.069 C 
ATOM     10  C   UNL A   1      32.478  25.396  24.982  1.00  0.00     0.066 A 
ATOM     11  N   UNL A   1      32.106  24.417  24.156  1.00  0.00    -0.195 NA
ATOM     12  S   UNL A   1      30.711  24.818  23.421  1.00  0.00    -0.017 S 
ATOM     13  C   UNL A   1      30.594  26.394  24.069  1.00  0.00     0.131 A 
BRANCH  13  14
ATOM     14  N   UNL A   1      29.631  27.266  23.500  1.00  0.00    -0.299 N 
ATOM     15  C   UNL A   1      28.196  27.180  23.785  1.00  0.00     0.154 C 
BRANCH  14  16
ATOM     16  C   UNL A   1      30.087  28.184  22.525  1.00  0.00     0.279 C 
ATOM     17  O   UNL A   1      30.893  27.924  21.629  1.00  0.00    -0.267 OA
BRANCH  16  18
ATOM     18  C   UNL A   1      29.459  29.587  22.483  1.00  0.00     0.149 A 
ATOM     19  C   UNL A   1      29.507  30.348  23.752  1.00  0.00     0.042 A 
ATOM     20  N   UNL A   1      28.930  30.040  21.385  1.00  0.00    -0.165 NA
ATOM     21  C   UNL A   1      29.043  31.599  23.731  1.00  0.00     0.076 A 
ATOM     22  N   UNL A   1      28.455  31.336  21.390  1.00  0.00    -0.232 N 
ATOM     23  C   UNL A   1      28.510  32.187  22.486  1.00  0.00     0.266 A 
ATOM     24  C   UNL A   1      27.917  31.840  20.142  1.00  0.00     0.178 C 
ATOM     25  O   UNL A   1      28.152  33.362  22.484  1.00  0.00    -0.268 OA
ENDBRANCH  16  18
ENDBRANCH  14  16
ENDBRANCH  13  14
ENDBRANCH   5   8
ENDBRANCH   3   4
ENDBRANCH   2   3
ENDBRANCH   1   2
BRANCH   1  26
ATOM     26  C   UNL A   1      34.122  31.549  27.657  1.00  0.00     0.002 C 
BRANCH  26  27
ATOM     27  C   UNL A   1      35.608  31.945  27.674  1.00  0.00     0.021 C 
BRANCH  27  28
ATOM     28  C   UNL A   1      35.845  33.245  28.417  1.00  0.00     0.116 C 
BRANCH  28  29
ATOM     29  N   UNL A   1      35.330  33.165  29.781  1.00  0.00    -0.352 N 
ATOM     30  C   UNL A   1      35.551  32.194  30.729  1.00  0.00     0.251 C 
ATOM     31  H   UNL A   1      34.745  33.907  30.059  1.00  0.00     0.163 HD
ATOM     32  O   UNL A   1      34.825  32.079  31.701  1.00  0.00    -0.269 OA
BRANCH  30  33
ATOM     33  C   UNL A   1      36.711  31.311  30.557  1.00  0.00     0.039 A 
ATOM     34  C   UNL A   1      36.544  29.930  30.414  1.00  0.00     0.014 A 
ATOM     35  C   UNL A   1      37.979  31.890  30.590  1.00  0.00     0.014 A 
ATOM     36  C   UNL A   1      37.672  29.133  30.287  1.00  0.00     0.010 A 
ATOM     37  C   UNL A   1      39.080  31.129  30.315  1.00  0.00     0.010 A 
ATOM     38  C   UNL A   1      38.929  29.749  30.254  1.00  0.00    -0.014 A 
BRANCH  38  39
ATOM     39  C   UNL A   1      40.145  28.970  30.199  1.00  0.00     0.031 A 
ATOM     40  C   UNL A   1      40.814  28.708  31.498  1.00  0.00     0.074 A 
ATOM     41  C   UNL A   1      40.468  28.312  29.067  1.00  0.00     0.049 A 
ATOM     42  N   UNL A   1      42.010  29.038  31.851  1.00  0.00    -0.248 NA
ATOM     43  C   UNL A   1      40.028  28.074  32.570  1.00  0.00     0.031 C 
ATOM     44  C   UNL A   1      39.697  28.180  27.823  1.00  0.00     0.029 A 
ATOM     45  N   UNL A   1      41.513  27.482  28.859  1.00  0.00    -0.354 N 
ATOM     46  C   UNL A   1      42.186  28.555  33.144  1.00  0.00     0.074 A 
ATOM     47  C   UNL A   1      40.897  28.079  33.582  1.00  0.00     0.031 C 
ATOM     48  C   UNL A   1      40.174  27.131  27.114  1.00  0.00     0.029 A 
ATOM     49  C   UNL A   1      41.367  26.632  27.774  1.00  0.00     0.049 A 
ATOM     50  H   UNL A   1      42.314  27.481  29.431  1.00  0.00     0.167 HD
ATOM     51  C   UNL A   1      43.418  28.424  33.711  1.00  0.00     0.031 A 
ATOM     52  C   UNL A   1      42.142  25.551  27.514  1.00  0.00     0.031 A 
ATOM     53  C   UNL A   1      44.437  29.091  32.948  1.00  0.00     0.049 A 
ATOM     54  C   UNL A   1      43.401  25.735  28.286  1.00  0.00     0.074 A 
ATOM     55  C   UNL A   1      44.674  30.409  32.615  1.00  0.00     0.029 A 
ATOM     56  N   UNL A   1      45.145  28.338  32.040  1.00  0.00    -0.354 N 
ATOM     57  N   UNL A   1      44.247  26.702  28.058  1.00  0.00    -0.248 NA
ATOM     58  C   UNL A   1      43.473  25.147  29.618  1.00  0.00     0.031 C 
ATOM     59  C   UNL A   1      45.070  30.369  31.246  1.00  0.00     0.029 A 
ATOM     60  C   UNL A   1      45.125  29.028  30.853  1.00  0.00     0.049 A 
ATOM     61  H   UNL A   1      45.580  27.471  32.208  1.00  0.00     0.167 HD
ATOM     62  C   UNL A   1      44.663  27.122  29.314  1.00  0.00     0.074 A 
ATOM     63  C   UNL A   1      44.218  26.073  30.232  1.00  0.00     0.031 C 
ATOM     64  C   UNL A   1      45.058  28.409  29.546  1.00  0.00     0.031 A 
BRANCH  51  65
ATOM     65  C   UNL A   1      43.744  27.450  34.803  1.00  0.00    -0.014 A 
ATOM     66  C   UNL A   1      43.806  26.078  34.513  1.00  0.00     0.009 A 
ATOM     67  C   UNL A   1      43.763  27.818  36.162  1.00  0.00     0.009 A 
ATOM     68  C   UNL A   1      43.861  25.121  35.535  1.00  0.00     0.001 A 
ATOM     69  C   UNL A   1      43.857  26.870  37.182  1.00  0.00     0.001 A 
ATOM     70  C   UNL A   1      43.888  25.518  36.868  1.00  0.00     0.000 A 
ENDBRANCH  51  65
BRANCH  52  71
ATOM     71  C   UNL A   1      41.719  24.242  26.959  1.00  0.00    -0.014 A 
ATOM     72  C   UNL A   1      42.525  23.574  26.024  1.00  0.00     0.009 A 
ATOM     73  C   UNL A   1      40.663  23.514  27.541  1.00  0.00     0.009 A 
ATOM     74  C   UNL A   1      42.316  22.220  25.725  1.00  0.00     0.001 A 
ATOM     75  C   UNL A   1      40.448  22.164  27.237  1.00  0.00     0.001 A 
ATOM     76  C   UNL A   1      41.288  21.512  26.343  1.00  0.00     0.000 A 
ENDBRANCH  52  71
BRANCH  64  77
ATOM     77  C   UNL A   1      45.160  29.355  28.370  1.00  0.00    -0.014 A 
ATOM     78  C   UNL A   1      44.048  30.048  27.857  1.00  0.00     0.009 A 
ATOM     79  C   UNL A   1      46.435  29.735  27.930  1.00  0.00     0.009 A 
ATOM     80  C   UNL A   1      44.208  31.088  26.934  1.00  0.00     0.001 A 
ATOM     81  C   UNL A   1      46.597  30.786  27.022  1.00  0.00     0.001 A 
ATOM     82  C   UNL A   1      45.485  31.463  26.526  1.00  0.00     0.000 A 
ENDBRANCH  64  77
ENDBRANCH  38  39
ENDBRANCH  30  33
ENDBRANCH  28  29
ENDBRANCH  27  28
ENDBRANCH  26  27
ENDBRANCH   1  26
TORSDOF 16
ENDMDL
MODEL 2
REMARK VINA RESULT:     -11.1      2.063      3.034
REMARK SMILES Cc1nsc(N(C)C(=O)c2ccc(=O)n(C)n2)c1C(=O)NCCCCCCNC(=O)c1ccc(-c2c3nc(c(-c4ccccc4)c4ccc([nH]4)c(-c4ccccc4)c4nc(c(-c5ccccc5)c5ccc2[nH]5)C=C4)C=C3)cc1
REMARK SMILES IDX 24 1 23 2 22 3 21 4 19 5 20 6 18 8 1 9 2 10 3 11 4 12 5 13
REMARK SMILES IDX 6 14 7 15 8 16 9 17 10 18 11 19 17 20 12 21 15 22 13 23
REMARK SMILES IDX 16 24 14 25 25 26 26 27 27 28 28 29 29 30 30 32 31 33 32 34
REMARK SMILES IDX 78 35 33 36 77 37 34 38 35 39 36 40 71 41 37 42 76 43 70 44
REMARK SMILES IDX 72 45 38 46 75 47 69 48 68 49 39 51 61 52 46 53 60 54 47 55
REMARK SMILES IDX 50 56 59 57 73 58 48 59 49 60 58 62 74 63 51 64 40 65 41 66
REMARK SMILES IDX 45 67 42 68 44 69 43 70 62 71 63 72 67 73 64 74 66 75 65 76
REMARK SMILES IDX 52 77 53 78 57 79 54 80 56 81 55 82
REMARK H PARENT 21 7 28 31 72 50 50 61
REMARK Flexibility Score: inf
ROOT
ATOM      1  C   UNL A   1      33.858  28.238  26.871  1.00  0.00     0.002 C 
ENDROOT
BRANCH   1   2
ATOM      2  C   UNL A   1      33.899  27.788  25.406  1.00  0.00     0.021 C 
BRANCH   2   3
ATOM      3  C   UNL A   1      33.578  26.308  25.214  1.00  0.00     0.116 C 
BRANCH   3   4
ATOM      4  N   UNL A   1      34.436  25.699  24.235  1.00  0.00    -0.352 N 
ATOM      5  C   UNL A   1      34.463  24.392  23.824  1.00  0.00     0.256 C 
ATOM      6  O   UNL A   1      34.373  24.229  22.602  1.00  0.00    -0.269 OA
ATOM      7  H   UNL A   1      35.088  26.297  23.804  1.00  0.00     0.163 HD
BRANCH   5   8
ATOM      8  C   UNL A   1      34.686  23.247  24.722  1.00  0.00     0.097 A 
ATOM      9  C   UNL A   1      37.283  23.169  25.445  1.00  0.00     0.069 C 
ATOM     10  C   UNL A   1      35.846  22.784  25.487  1.00  0.00     0.066 A 
ATOM     11  N   UNL A   1      35.595  21.875  26.431  1.00  0.00    -0.195 NA
ATOM     12  S   UNL A   1      34.023  21.455  26.386  1.00  0.00    -0.017 S 
ATOM     13  C   UNL A   1      33.616  22.370  25.002  1.00  0.00     0.131 A 
BRANCH  13  14
ATOM     14  N   UNL A   1      32.357  22.121  24.399  1.00  0.00    -0.299 N 
ATOM     15  C   UNL A   1      32.190  21.324  23.181  1.00  0.00     0.154 C 
BRANCH  14  16
ATOM     16  C   UNL A   1      31.234  22.778  24.954  1.00  0.00     0.279 C 
ATOM     17  O   UNL A   1      30.565  22.361  25.901  1.00  0.00    -0.267 OA
BRANCH  16  18
ATOM     18  C   UNL A   1      30.866  24.176  24.430  1.00  0.00     0.149 A 
ATOM     19  C   UNL A   1      30.068  25.016  25.353  1.00  0.00     0.042 A 
ATOM     20  N   UNL A   1      31.250  24.561  23.249  1.00  0.00    -0.165 NA
ATOM     21  C   UNL A   1      29.800  26.263  24.964  1.00  0.00     0.076 A 
ATOM     22  N   UNL A   1      30.958  25.855  22.870  1.00  0.00    -0.232 N 
ATOM     23  C   UNL A   1      30.287  26.773  23.667  1.00  0.00     0.266 A 
ATOM     24  C   UNL A   1      31.441  26.280  21.571  1.00  0.00     0.178 C 
ATOM     25  O   UNL A   1      30.080  27.946  23.368  1.00  0.00    -0.268 OA
ENDBRANCH  16  18
ENDBRANCH  14  16
ENDBRANCH  13  14
ENDBRANCH   5   8
ENDBRANCH   3   4
ENDBRANCH   2   3
ENDBRANCH   1   2
BRANCH   1  26
ATOM     26  C   UNL A   1      34.708  29.476  27.198  1.00  0.00     0.002 C 
BRANCH  26  27
ATOM     27  C   UNL A   1      33.921  30.736  27.600  1.00  0.00     0.021 C 
BRANCH  27  28
ATOM     28  C   UNL A   1      34.826  31.937  27.791  1.00  0.00     0.116 C 
BRANCH  28  29
ATOM     29  N   UNL A   1      34.694  32.479  29.140  1.00  0.00    -0.352 N 
ATOM     30  C   UNL A   1      35.282  32.041  30.304  1.00  0.00     0.251 C 
ATOM     31  H   UNL A   1      34.104  33.262  29.229  1.00  0.00     0.163 HD
ATOM     32  O   UNL A   1      34.853  32.373  31.395  1.00  0.00    -0.269 OA
BRANCH  30  33
ATOM     33  C   UNL A   1      36.468  31.183  30.199  1.00  0.00     0.039 A 
ATOM     34  C   UNL A   1      36.367  29.799  30.366  1.00  0.00     0.014 A 
ATOM     35  C   UNL A   1      37.699  31.799  29.976  1.00  0.00     0.014 A 
ATOM     36  C   UNL A   1      37.521  29.032  30.291  1.00  0.00     0.010 A 
ATOM     37  C   UNL A   1      38.810  31.036  29.751  1.00  0.00     0.010 A 
ATOM     38  C   UNL A   1      38.732  29.671  29.998  1.00  0.00    -0.014 A 
BRANCH  38  39
ATOM     39  C   UNL A   1      39.979  28.941  29.979  1.00  0.00     0.031 A 
ATOM     40  C   UNL A   1      40.621  28.709  31.297  1.00  0.00     0.074 A 
ATOM     41  C   UNL A   1      40.359  28.294  28.859  1.00  0.00     0.049 A 
ATOM     42  N   UNL A   1      41.793  29.088  31.681  1.00  0.00    -0.248 NA
ATOM     43  C   UNL A   1      39.832  28.046  32.348  1.00  0.00     0.031 C 
ATOM     44  C   UNL A   1      39.630  28.129  27.593  1.00  0.00     0.029 A 
ATOM     45  N   UNL A   1      41.443  27.506  28.682  1.00  0.00    -0.354 N 
ATOM     46  C   UNL A   1      41.953  28.614  32.980  1.00  0.00     0.074 A 
ATOM     47  C   UNL A   1      40.672  28.088  33.384  1.00  0.00     0.031 C 
ATOM     48  C   UNL A   1      40.167  27.098  26.902  1.00  0.00     0.029 A 
ATOM     49  C   UNL A   1      41.361  26.648  27.596  1.00  0.00     0.049 A 
ATOM     50  H   UNL A   1      42.227  27.539  29.276  1.00  0.00     0.167 HD
ATOM     51  C   UNL A   1      43.172  28.534  33.582  1.00  0.00     0.031 A 
ATOM     52  C   UNL A   1      42.185  25.599  27.362  1.00  0.00     0.031 A 
ATOM     53  C   UNL A   1      44.184  29.239  32.845  1.00  0.00     0.049 A 
ATOM     54  C   UNL A   1      43.414  25.835  28.168  1.00  0.00     0.074 A 
ATOM     55  C   UNL A   1      44.378  30.566  32.515  1.00  0.00     0.029 A 
ATOM     56  N   UNL A   1      44.947  28.513  31.960  1.00  0.00    -0.354 N 
ATOM     57  N   UNL A   1      44.226  26.834  27.960  1.00  0.00    -0.248 NA
ATOM     58  C   UNL A   1      43.472  25.253  29.502  1.00  0.00     0.031 C 
ATOM     59  C   UNL A   1      44.813  30.538  31.158  1.00  0.00     0.029 A 
ATOM     60  C   UNL A   1      44.933  29.200  30.771  1.00  0.00     0.049 A 
ATOM     61  H   UNL A   1      45.412  27.665  32.143  1.00  0.00     0.167 HD
ATOM     62  C   UNL A   1      44.590  27.273  29.226  1.00  0.00     0.074 A 
ATOM     63  C   UNL A   1      44.162  26.209  30.134  1.00  0.00     0.031 C 
ATOM     64  C   UNL A   1      44.927  28.576  29.464  1.00  0.00     0.031 A 
BRANCH  51  65
ATOM     65  C   UNL A   1      43.506  27.576  34.686  1.00  0.00    -0.014 A 
ATOM     66  C   UNL A   1      43.678  26.214  34.394  1.00  0.00     0.009 A 
ATOM     67  C   UNL A   1      43.428  27.934  36.045  1.00  0.00     0.009 A 
ATOM     68  C   UNL A   1      43.745  25.255  35.413  1.00  0.00     0.001 A 
ATOM     69  C   UNL A   1      43.533  26.987  37.065  1.00  0.00     0.001 A 
ATOM     70  C   UNL A   1      43.673  25.643  36.748  1.00  0.00     0.000 A 
ENDBRANCH  51  65
BRANCH  52  71
ATOM     71  C   UNL A   1      41.830  24.273  26.799  1.00  0.00    -0.014 A 
ATOM     72  C   UNL A   1      42.696  23.628  25.902  1.00  0.00     0.009 A 
ATOM     73  C   UNL A   1      40.778  23.512  27.343  1.00  0.00     0.009 A 
ATOM     74  C   UNL A   1      42.546  22.266  25.604  1.00  0.00     0.001 A 
ATOM     75  C   UNL A   1      40.622  22.154  27.040  1.00  0.00     0.001 A 
ATOM     76  C   UNL A   1      41.520  21.526  26.185  1.00  0.00     0.000 A 
ENDBRANCH  52  71
BRANCH  64  77
ATOM     77  C   UNL A   1      45.024  29.523  28.289  1.00  0.00    -0.014 A 
ATOM     78  C   UNL A   1      43.913  30.230  27.793  1.00  0.00     0.009 A 
ATOM     79  C   UNL A   1      46.297  29.888  27.831  1.00  0.00     0.009 A 
ATOM     80  C   UNL A   1      44.073  31.270  26.870  1.00  0.00     0.001 A 
ATOM     81  C   UNL A   1      46.459  30.938  26.922  1.00  0.00     0.001 A 
ATOM     82  C   UNL A   1      45.348  31.630  26.443  1.00  0.00     0.000 A 
ENDBRANCH  64  77
ENDBRANCH  38  39
ENDBRANCH  30  33
ENDBRANCH  28  29
ENDBRANCH  27  28
ENDBRANCH  26  27
ENDBRANCH   1  26
TORSDOF 16
ENDMDL
MODEL 3
REMARK VINA RESULT:     -11.1      2.937      7.957
REMARK SMILES Cc1nsc(N(C)C(=O)c2ccc(=O)n(C)n2)c1C(=O)NCCCCCCNC(=O)c1ccc(-c2c3nc(c(-c4ccccc4)c4ccc([nH]4)c(-c4ccccc4)c4nc(c(-c5ccccc5)c5ccc2[nH]5)C=C4)C=C3)cc1
REMARK SMILES IDX 24 1 23 2 22 3 21 4 19 5 20 6 18 8 1 9 2 10 3 11 4 12 5 13
REMARK SMILES IDX 6 14 7 15 8 16 9 17 10 18 11 19 17 20 12 21 15 22 13 23
REMARK SMILES IDX 16 24 14 25 25 26 26 27 27 28 28 29 29 30 30 32 31 33 32 34
REMARK SMILES IDX 78 35 33 36 77 37 34 38 35 39 36 40 71 41 37 42 76 43 70 44
REMARK SMILES IDX 72 45 38 46 75 47 69 48 68 49 39 51 61 52 46 53 60 54 47 55
REMARK SMILES IDX 50 56 59 57 73 58 48 59 49 60 58 62 74 63 51 64 40 65 41 66
REMARK SMILES IDX 45 67 42 68 44 69 43 70 62 71 63 72 67 73 64 74 66 75 65 76
REMARK SMILES IDX 52 77 53 78 57 79 54 80 56 81 55 82
REMARK H PARENT 21 7 28 31 72 50 50 61
REMARK Flexibility Score: inf
ROOT
ATOM      1  C   UNL A   1      36.838  21.382  24.748  1.00  0.00     0.002 C 
ENDROOT
BRANCH   1   2
ATOM      2  C   UNL A   1      36.823  22.494  23.693  1.00  0.00     0.021 C 
BRANCH   2   3
ATOM      3  C   UNL A   1      35.865  23.635  24.025  1.00  0.00     0.116 C 
BRANCH   3   4
ATOM      4  N   UNL A   1      34.771  23.700  23.096  1.00  0.00    -0.352 N 
ATOM      5  C   UNL A   1      33.445  23.439  23.323  1.00  0.00     0.256 C 
ATOM      6  O   UNL A   1      32.671  24.342  22.987  1.00  0.00    -0.269 OA
ATOM      7  H   UNL A   1      35.003  23.967  22.177  1.00  0.00     0.163 HD
BRANCH   5   8
ATOM      8  C   UNL A   1      32.931  22.155  23.829  1.00  0.00     0.097 A 
ATOM      9  C   UNL A   1      31.926  20.723  21.777  1.00  0.00     0.069 C 
ATOM     10  C   UNL A   1      32.381  20.967  23.173  1.00  0.00     0.066 A 
ATOM     11  N   UNL A   1      32.296  19.872  23.930  1.00  0.00    -0.195 NA
ATOM     12  S   UNL A   1      32.750  20.220  25.453  1.00  0.00    -0.017 S 
ATOM     13  C   UNL A   1      32.959  21.898  25.216  1.00  0.00     0.131 A 
BRANCH  13  14
ATOM     14  N   UNL A   1      33.118  22.708  26.370  1.00  0.00    -0.299 N 
ATOM     15  C   UNL A   1      34.311  22.675  27.221  1.00  0.00     0.154 C 
BRANCH  14  16
ATOM     16  C   UNL A   1      32.010  23.494  26.765  1.00  0.00     0.279 C 
ATOM     17  O   UNL A   1      31.191  23.181  27.631  1.00  0.00    -0.267 OA
BRANCH  16  18
ATOM     18  C   UNL A   1      31.857  24.902  26.168  1.00  0.00     0.149 A 
ATOM     19  C   UNL A   1      30.530  25.211  25.586  1.00  0.00     0.042 A 
ATOM     20  N   UNL A   1      32.850  25.741  26.191  1.00  0.00    -0.165 NA
ATOM     21  C   UNL A   1      30.336  26.449  25.131  1.00  0.00     0.076 A 
ATOM     22  N   UNL A   1      32.625  27.015  25.712  1.00  0.00    -0.232 N 
ATOM     23  C   UNL A   1      31.408  27.462  25.213  1.00  0.00     0.266 A 
ATOM     24  C   UNL A   1      33.729  27.950  25.795  1.00  0.00     0.178 C 
ATOM     25  O   UNL A   1      31.176  28.610  24.846  1.00  0.00    -0.268 OA
ENDBRANCH  16  18
ENDBRANCH  14  16
ENDBRANCH  13  14
ENDBRANCH   5   8
ENDBRANCH   3   4
ENDBRANCH   2   3
ENDBRANCH   1   2
BRANCH   1  26
ATOM     26  C   UNL A   1      38.213  21.092  25.372  1.00  0.00     0.002 C 
BRANCH  26  27
ATOM     27  C   UNL A   1      38.875  22.272  26.104  1.00  0.00     0.021 C 
BRANCH  27  28
ATOM     28  C   UNL A   1      40.042  21.829  26.963  1.00  0.00     0.116 C 
BRANCH  28  29
ATOM     29  N   UNL A   1      41.288  21.856  26.203  1.00  0.00    -0.352 N 
ATOM     30  C   UNL A   1      42.042  22.943  25.826  1.00  0.00     0.251 C 
ATOM     31  H   UNL A   1      41.635  20.979  25.922  1.00  0.00     0.163 HD
ATOM     32  O   UNL A   1      42.875  22.861  24.940  1.00  0.00    -0.269 OA
BRANCH  30  33
ATOM     33  C   UNL A   1      41.840  24.207  26.544  1.00  0.00     0.039 A 
ATOM     34  C   UNL A   1      40.994  25.194  26.031  1.00  0.00     0.014 A 
ATOM     35  C   UNL A   1      42.557  24.407  27.724  1.00  0.00     0.014 A 
ATOM     36  C   UNL A   1      40.861  26.386  26.729  1.00  0.00     0.010 A 
ATOM     37  C   UNL A   1      42.313  25.512  28.489  1.00  0.00     0.010 A 
ATOM     38  C   UNL A   1      41.538  26.530  27.946  1.00  0.00    -0.014 A 
BRANCH  38  39
ATOM     39  C   UNL A   1      41.501  27.773  28.683  1.00  0.00     0.031 A 
ATOM     40  C   UNL A   1      42.461  28.819  28.252  1.00  0.00     0.074 A 
ATOM     41  C   UNL A   1      40.469  28.028  29.512  1.00  0.00     0.049 A 
ATOM     42  N   UNL A   1      43.387  29.378  28.954  1.00  0.00    -0.248 NA
ATOM     43  C   UNL A   1      42.447  29.237  26.840  1.00  0.00     0.031 C 
ATOM     44  C   UNL A   1      39.252  27.236  29.746  1.00  0.00     0.029 A 
ATOM     45  N   UNL A   1      40.228  29.156  30.216  1.00  0.00    -0.354 N 
ATOM     46  C   UNL A   1      44.004  30.308  28.124  1.00  0.00     0.074 A 
ATOM     47  C   UNL A   1      43.469  30.093  26.801  1.00  0.00     0.031 C 
ATOM     48  C   UNL A   1      38.313  28.022  30.320  1.00  0.00     0.029 A 
ATOM     49  C   UNL A   1      38.915  29.307  30.633  1.00  0.00     0.049 A 
ATOM     50  H   UNL A   1      40.929  29.818  30.416  1.00  0.00     0.167 HD
ATOM     51  C   UNL A   1      44.794  31.307  28.607  1.00  0.00     0.031 A 
ATOM     52  C   UNL A   1      38.372  30.449  31.119  1.00  0.00     0.031 A 
ATOM     53  C   UNL A   1      45.126  31.110  29.991  1.00  0.00     0.049 A 
ATOM     54  C   UNL A   1      39.507  31.305  31.559  1.00  0.00     0.074 A 
ATOM     55  C   UNL A   1      45.839  30.146  30.676  1.00  0.00     0.029 A 
ATOM     56  N   UNL A   1      44.337  31.735  30.930  1.00  0.00    -0.354 N 
ATOM     57  N   UNL A   1      40.312  30.983  32.534  1.00  0.00    -0.248 NA
ATOM     58  C   UNL A   1      40.041  32.267  30.604  1.00  0.00     0.031 C 
ATOM     59  C   UNL A   1      45.071  29.899  31.851  1.00  0.00     0.029 A 
ATOM     60  C   UNL A   1      43.985  30.778  31.850  1.00  0.00     0.049 A 
ATOM     61  H   UNL A   1      44.075  32.683  30.938  1.00  0.00     0.167 HD
ATOM     62  C   UNL A   1      41.575  31.366  32.102  1.00  0.00     0.074 A 
ATOM     63  C   UNL A   1      41.334  32.227  30.943  1.00  0.00     0.031 C 
ATOM     64  C   UNL A   1      42.704  30.721  32.522  1.00  0.00     0.031 A 
BRANCH  51  65
ATOM     65  C   UNL A   1      45.028  32.612  27.906  1.00  0.00    -0.014 A 
ATOM     66  C   UNL A   1      43.986  33.549  27.819  1.00  0.00     0.009 A 
ATOM     67  C   UNL A   1      46.172  32.852  27.123  1.00  0.00     0.009 A 
ATOM     68  C   UNL A   1      44.079  34.661  26.973  1.00  0.00     0.001 A 
ATOM     69  C   UNL A   1      46.284  33.979  26.306  1.00  0.00     0.001 A 
ATOM     70  C   UNL A   1      45.228  34.875  26.217  1.00  0.00     0.000 A 
ENDBRANCH  51  65
BRANCH  52  71
ATOM     71  C   UNL A   1      37.005  30.976  30.887  1.00  0.00    -0.014 A 
ATOM     72  C   UNL A   1      36.368  31.753  31.867  1.00  0.00     0.009 A 
ATOM     73  C   UNL A   1      36.426  30.951  29.604  1.00  0.00     0.009 A 
ATOM     74  C   UNL A   1      35.232  32.516  31.560  1.00  0.00     0.001 A 
ATOM     75  C   UNL A   1      35.286  31.704  29.298  1.00  0.00     0.001 A 
ATOM     76  C   UNL A   1      34.701  32.503  30.273  1.00  0.00     0.000 A 
ENDBRANCH  52  71
BRANCH  64  77
ATOM     77  C   UNL A   1      42.570  29.648  33.580  1.00  0.00    -0.014 A 
ATOM     78  C   UNL A   1      42.660  29.927  34.957  1.00  0.00     0.009 A 
ATOM     79  C   UNL A   1      42.107  28.384  33.191  1.00  0.00     0.009 A 
ATOM     80  C   UNL A   1      42.297  28.969  35.912  1.00  0.00     0.001 A 
ATOM     81  C   UNL A   1      41.728  27.434  34.144  1.00  0.00     0.001 A 
ATOM     82  C   UNL A   1      41.821  27.727  35.503  1.00  0.00     0.000 A 
ENDBRANCH  64  77
ENDBRANCH  38  39
ENDBRANCH  30  33
ENDBRANCH  28  29
ENDBRANCH  27  28
ENDBRANCH  26  27
ENDBRANCH   1  26
TORSDOF 16
ENDMDL
