MODEL 1
REMARK VINA RESULT:     -11.4      0.000      0.000
REMARK SMILES O=C(NCCCCCCNC(=O)[C@@]1([C@@H]2CCO[C@@]3(CCOC3)C2)CCOC1)c1ccc(-c2c3nc(c(-c4ccccc4)c4ccc([nH]4)c(-c4ccccc4)c4nc(c(-c5ccccc5)c5ccc2[nH]5)C=C4)C=C3)cc1
REMARK SMILES IDX 6 1 5 2 4 3 3 4 1 5 2 6 28 8 29 9 75 10 30 11 74 12 31 13
REMARK SMILES IDX 32 14 33 15 68 16 34 17 73 18 67 19 69 20 35 21 72 22 66 23
REMARK SMILES IDX 65 24 36 26 58 27 43 28 57 29 44 30 47 31 56 32 70 33 45 34
REMARK SMILES IDX 46 35 55 37 71 38 48 39 37 40 38 41 42 42 39 43 41 44 40 45
REMARK SMILES IDX 59 46 60 47 64 48 61 49 63 50 62 51 49 52 50 53 54 54 51 55
REMARK SMILES IDX 53 56 52 57 7 58 8 59 9 60 10 61 11 62 12 64 13 65 24 66
REMARK SMILES IDX 27 67 25 68 26 69 14 70 15 71 23 72 16 73 18 74 17 75 19 76
REMARK SMILES IDX 22 77 20 78 21 79
REMARK H PARENT 3 7 69 25 47 36 10 63
REMARK Flexibility Score: inf
ROOT
ATOM      1  C   UNL A   1      31.509  27.223  27.019  1.00  0.00     0.002 C 
ENDROOT
BRANCH   1   2
ATOM      2  C   UNL A   1      32.156  28.554  26.609  1.00  0.00     0.021 C 
BRANCH   2   3
ATOM      3  C   UNL A   1      33.488  28.867  27.290  1.00  0.00     0.116 C 
BRANCH   3   4
ATOM      4  N   UNL A   1      33.582  30.265  27.667  1.00  0.00    -0.352 N 
ATOM      5  O   UNL A   1      34.382  32.040  28.799  1.00  0.00    -0.269 OA
ATOM      6  C   UNL A   1      34.581  30.920  28.341  1.00  0.00     0.251 C 
ATOM      7  H   UNL A   1      32.817  30.825  27.400  1.00  0.00     0.163 HD
BRANCH   6   8
ATOM      8  C   UNL A   1      35.904  30.282  28.519  1.00  0.00     0.039 A 
ATOM      9  C   UNL A   1      36.869  30.337  27.507  1.00  0.00     0.014 A 
ATOM     10  C   UNL A   1      36.215  29.697  29.750  1.00  0.00     0.014 A 
ATOM     11  C   UNL A   1      38.112  29.739  27.697  1.00  0.00     0.010 A 
ATOM     12  C   UNL A   1      37.488  29.160  29.964  1.00  0.00     0.010 A 
ATOM     13  C   UNL A   1      38.446  29.178  28.939  1.00  0.00    -0.014 A 
BRANCH  13  14
ATOM     14  C   UNL A   1      39.843  28.749  29.203  1.00  0.00     0.031 A 
ATOM     15  C   UNL A   1      40.853  29.684  29.801  1.00  0.00     0.074 A 
ATOM     16  C   UNL A   1      40.202  27.497  28.852  1.00  0.00     0.049 A 
ATOM     17  N   UNL A   1      42.122  29.474  30.045  1.00  0.00    -0.248 NA
ATOM     18  C   UNL A   1      40.387  31.031  30.166  1.00  0.00     0.031 C 
ATOM     19  C   UNL A   1      39.310  26.503  28.243  1.00  0.00     0.029 A 
ATOM     20  N   UNL A   1      41.405  26.845  28.947  1.00  0.00    -0.354 N 
ATOM     21  C   UNL A   1      42.612  30.662  30.571  1.00  0.00     0.074 A 
ATOM     22  C   UNL A   1      41.507  31.597  30.601  1.00  0.00     0.031 C 
ATOM     23  C   UNL A   1      39.991  25.367  28.039  1.00  0.00     0.029 A 
ATOM     24  C   UNL A   1      41.378  25.570  28.436  1.00  0.00     0.049 A 
ATOM     25  H   UNL A   1      42.208  27.251  29.345  1.00  0.00     0.167 HD
ATOM     26  C   UNL A   1      43.870  30.943  30.985  1.00  0.00     0.031 A 
ATOM     27  C   UNL A   1      42.366  24.672  28.266  1.00  0.00     0.031 A 
ATOM     28  C   UNL A   1      44.963  30.005  30.955  1.00  0.00     0.049 A 
ATOM     29  C   UNL A   1      43.759  25.035  28.691  1.00  0.00     0.074 A 
ATOM     30  C   UNL A   1      46.255  30.176  31.423  1.00  0.00     0.029 A 
ATOM     31  N   UNL A   1      44.900  28.732  30.411  1.00  0.00    -0.354 N 
ATOM     32  N   UNL A   1      44.184  26.133  29.265  1.00  0.00    -0.248 NA
ATOM     33  C   UNL A   1      44.808  24.038  28.439  1.00  0.00     0.031 C 
ATOM     34  C   UNL A   1      46.992  29.034  31.097  1.00  0.00     0.029 A 
ATOM     35  C   UNL A   1      46.144  28.128  30.483  1.00  0.00     0.049 A 
ATOM     36  H   UNL A   1      44.092  28.320  30.029  1.00  0.00     0.167 HD
ATOM     37  C   UNL A   1      45.548  25.955  29.453  1.00  0.00     0.074 A 
ATOM     38  C   UNL A   1      45.871  24.633  28.959  1.00  0.00     0.031 C 
ATOM     39  C   UNL A   1      46.452  26.815  29.979  1.00  0.00     0.031 A 
BRANCH  26  40
ATOM     40  C   UNL A   1      44.161  32.330  31.485  1.00  0.00    -0.014 A 
ATOM     41  C   UNL A   1      44.083  32.651  32.848  1.00  0.00     0.009 A 
ATOM     42  C   UNL A   1      44.621  33.305  30.583  1.00  0.00     0.009 A 
ATOM     43  C   UNL A   1      44.443  33.926  33.295  1.00  0.00     0.001 A 
ATOM     44  C   UNL A   1      45.002  34.569  31.036  1.00  0.00     0.001 A 
ATOM     45  C   UNL A   1      44.910  34.880  32.390  1.00  0.00     0.000 A 
ENDBRANCH  26  40
BRANCH  27  46
ATOM     46  C   UNL A   1      42.084  23.368  27.609  1.00  0.00    -0.014 A 
ATOM     47  C   UNL A   1      42.323  23.186  26.239  1.00  0.00     0.009 A 
ATOM     48  C   UNL A   1      41.557  22.301  28.353  1.00  0.00     0.009 A 
ATOM     49  C   UNL A   1      42.009  21.972  25.623  1.00  0.00     0.001 A 
ATOM     50  C   UNL A   1      41.276  21.078  27.743  1.00  0.00     0.001 A 
ATOM     51  C   UNL A   1      41.491  20.919  26.375  1.00  0.00     0.000 A 
ENDBRANCH  27  46
BRANCH  39  52
ATOM     52  C   UNL A   1      47.876  26.345  30.058  1.00  0.00    -0.014 A 
ATOM     53  C   UNL A   1      48.381  25.765  31.231  1.00  0.00     0.009 A 
ATOM     54  C   UNL A   1      48.708  26.443  28.932  1.00  0.00     0.009 A 
ATOM     55  C   UNL A   1      49.702  25.315  31.284  1.00  0.00     0.001 A 
ATOM     56  C   UNL A   1      50.017  25.965  28.978  1.00  0.00     0.001 A 
ATOM     57  C   UNL A   1      50.515  25.409  30.155  1.00  0.00     0.000 A 
ENDBRANCH  39  52
ENDBRANCH  13  14
ENDBRANCH   6   8
ENDBRANCH   3   4
ENDBRANCH   2   3
ENDBRANCH   1   2
BRANCH   1  58
ATOM     58  C   UNL A   1      31.208  26.245  25.881  1.00  0.00     0.002 C 
BRANCH  58  59
ATOM     59  C   UNL A   1      31.447  24.779  26.231  1.00  0.00     0.021 C 
BRANCH  59  60
ATOM     60  C   UNL A   1      32.714  24.144  25.661  1.00  0.00     0.116 C 
BRANCH  60  61
ATOM     61  N   UNL A   1      33.341  23.235  26.602  1.00  0.00    -0.356 N 
ATOM     62  C   UNL A   1      34.256  22.237  26.448  1.00  0.00     0.228 C 
ATOM     63  H   UNL A   1      33.048  23.365  27.532  1.00  0.00     0.163 HD
ATOM     64  O   UNL A   1      34.519  21.597  27.471  1.00  0.00    -0.274 OA
BRANCH  62  65
ATOM     65  C   UNL A   1      34.903  21.873  25.087  1.00  0.00     0.078 C 
ATOM     66  C   UNL A   1      35.163  23.112  24.222  1.00  0.00     0.048 C 
ATOM     67  C   UNL A   1      36.378  21.526  25.382  1.00  0.00     0.177 C 
ATOM     68  C   UNL A   1      36.442  22.787  23.461  1.00  0.00     0.161 C 
ATOM     69  O   UNL A   1      37.084  21.712  24.151  1.00  0.00    -0.380 OA
BRANCH  65  70
ATOM     70  C   UNL A   1      34.096  20.704  24.396  1.00  0.00     0.012 C 
ATOM     71  C   UNL A   1      32.575  20.848  24.267  1.00  0.00     0.033 C 
ATOM     72  C   UNL A   1      34.349  19.268  24.920  1.00  0.00     0.043 C 
ATOM     73  C   UNL A   1      32.069  19.888  23.191  1.00  0.00     0.161 C 
ATOM     74  C   UNL A   1      33.488  18.191  24.195  1.00  0.00     0.094 C 
ATOM     75  O   UNL A   1      32.837  18.702  23.041  1.00  0.00    -0.372 OA
ATOM     76  C   UNL A   1      34.318  17.000  23.722  1.00  0.00     0.066 C 
ATOM     77  C   UNL A   1      32.573  17.445  25.174  1.00  0.00     0.195 C 
ATOM     78  C   UNL A   1      34.526  16.189  24.974  1.00  0.00     0.163 C 
ATOM     79  O   UNL A   1      33.382  16.428  25.803  1.00  0.00    -0.378 OA
ENDBRANCH  65  70
ENDBRANCH  62  65
ENDBRANCH  60  61
ENDBRANCH  59  60
ENDBRANCH  58  59
ENDBRANCH   1  58
TORSDOF 14
ENDMDL
MODEL 2
REMARK VINA RESULT:     -11.2      3.741      7.974
REMARK SMILES O=C(NCCCCCCNC(=O)[C@@]1([C@@H]2CCO[C@@]3(CCOC3)C2)CCOC1)c1ccc(-c2c3nc(c(-c4ccccc4)c4ccc([nH]4)c(-c4ccccc4)c4nc(c(-c5ccccc5)c5ccc2[nH]5)C=C4)C=C3)cc1
REMARK SMILES IDX 6 1 5 2 4 3 3 4 1 5 2 6 28 8 29 9 75 10 30 11 74 12 31 13
REMARK SMILES IDX 32 14 33 15 68 16 34 17 73 18 67 19 69 20 35 21 72 22 66 23
REMARK SMILES IDX 65 24 36 26 58 27 43 28 57 29 44 30 47 31 56 32 70 33 45 34
REMARK SMILES IDX 46 35 55 37 71 38 48 39 37 40 38 41 42 42 39 43 41 44 40 45
REMARK SMILES IDX 59 46 60 47 64 48 61 49 63 50 62 51 49 52 50 53 54 54 51 55
REMARK SMILES IDX 53 56 52 57 7 58 8 59 9 60 10 61 11 62 12 64 13 65 24 66
REMARK SMILES IDX 27 67 25 68 26 69 14 70 15 71 23 72 16 73 18 74 17 75 19 76
REMARK SMILES IDX 22 77 20 78 21 79
REMARK H PARENT 3 7 69 25 47 36 10 63
REMARK Flexibility Score: inf
ROOT
ATOM      1  C   UNL A   1      31.615  30.702  26.057  1.00  0.00     0.002 C 
ENDROOT
BRANCH   1   2
ATOM      2  C   UNL A   1      31.410  32.144  26.545  1.00  0.00     0.021 C 
BRANCH   2   3
ATOM      3  C   UNL A   1      32.546  32.711  27.395  1.00  0.00     0.116 C 
BRANCH   3   4
ATOM      4  N   UNL A   1      32.370  34.128  27.650  1.00  0.00    -0.352 N 
ATOM      5  O   UNL A   1      32.550  36.045  28.819  1.00  0.00    -0.269 OA
ATOM      6  C   UNL A   1      33.002  34.934  28.563  1.00  0.00     0.251 C 
ATOM      7  H   UNL A   1      31.699  34.576  27.086  1.00  0.00     0.163 HD
BRANCH   6   8
ATOM      8  C   UNL A   1      34.231  34.470  29.243  1.00  0.00     0.039 A 
ATOM      9  C   UNL A   1      34.170  33.879  30.509  1.00  0.00     0.014 A 
ATOM     10  C   UNL A   1      35.451  34.547  28.565  1.00  0.00     0.014 A 
ATOM     11  C   UNL A   1      35.337  33.439  31.129  1.00  0.00     0.010 A 
ATOM     12  C   UNL A   1      36.611  34.040  29.158  1.00  0.00     0.010 A 
ATOM     13  C   UNL A   1      36.562  33.480  30.445  1.00  0.00    -0.014 A 
BRANCH  13  14
ATOM     14  C   UNL A   1      37.753  32.806  31.022  1.00  0.00     0.031 A 
ATOM     15  C   UNL A   1      38.336  31.572  30.396  1.00  0.00     0.074 A 
ATOM     16  C   UNL A   1      38.282  33.307  32.156  1.00  0.00     0.049 A 
ATOM     17  N   UNL A   1      39.341  30.841  30.808  1.00  0.00    -0.248 NA
ATOM     18  C   UNL A   1      37.712  31.089  29.154  1.00  0.00     0.031 C 
ATOM     19  C   UNL A   1      37.786  34.491  32.867  1.00  0.00     0.029 A 
ATOM     20  N   UNL A   1      39.343  32.886  32.916  1.00  0.00    -0.354 N 
ATOM     21  C   UNL A   1      39.458  29.803  29.893  1.00  0.00     0.074 A 
ATOM     22  C   UNL A   1      38.413  29.989  28.908  1.00  0.00     0.031 C 
ATOM     23  C   UNL A   1      38.552  34.710  33.944  1.00  0.00     0.029 A 
ATOM     24  C   UNL A   1      39.547  33.650  34.040  1.00  0.00     0.049 A 
ATOM     25  H   UNL A   1      39.904  32.113  32.679  1.00  0.00     0.167 HD
ATOM     26  C   UNL A   1      40.354  28.787  29.883  1.00  0.00     0.031 A 
ATOM     27  C   UNL A   1      40.411  33.496  35.060  1.00  0.00     0.031 A 
ATOM     28  C   UNL A   1      41.392  28.612  30.866  1.00  0.00     0.049 A 
ATOM     29  C   UNL A   1      41.357  32.331  35.042  1.00  0.00     0.074 A 
ATOM     30  C   UNL A   1      42.393  27.655  30.896  1.00  0.00     0.029 A 
ATOM     31  N   UNL A   1      41.552  29.393  31.999  1.00  0.00    -0.354 N 
ATOM     32  N   UNL A   1      41.509  31.409  34.124  1.00  0.00    -0.248 NA
ATOM     33  C   UNL A   1      42.247  32.183  36.202  1.00  0.00     0.031 C 
ATOM     34  C   UNL A   1      43.113  27.814  32.084  1.00  0.00     0.029 A 
ATOM     35  C   UNL A   1      42.601  28.908  32.762  1.00  0.00     0.049 A 
ATOM     36  H   UNL A   1      41.001  30.177  32.228  1.00  0.00     0.167 HD
ATOM     37  C   UNL A   1      42.517  30.576  34.591  1.00  0.00     0.074 A 
ATOM     38  C   UNL A   1      42.960  31.121  35.857  1.00  0.00     0.031 C 
ATOM     39  C   UNL A   1      43.024  29.456  34.024  1.00  0.00     0.031 A 
BRANCH  26  40
ATOM     40  C   UNL A   1      40.247  27.755  28.796  1.00  0.00    -0.014 A 
ATOM     41  C   UNL A   1      40.919  27.905  27.573  1.00  0.00     0.009 A 
ATOM     42  C   UNL A   1      39.543  26.565  29.041  1.00  0.00     0.009 A 
ATOM     43  C   UNL A   1      40.873  26.890  26.613  1.00  0.00     0.001 A 
ATOM     44  C   UNL A   1      39.518  25.544  28.090  1.00  0.00     0.001 A 
ATOM     45  C   UNL A   1      40.180  25.708  26.876  1.00  0.00     0.000 A 
ENDBRANCH  26  40
BRANCH  27  46
ATOM     46  C   UNL A   1      40.380  34.435  36.213  1.00  0.00    -0.014 A 
ATOM     47  C   UNL A   1      41.133  35.618  36.198  1.00  0.00     0.009 A 
ATOM     48  C   UNL A   1      39.604  34.140  37.345  1.00  0.00     0.009 A 
ATOM     49  C   UNL A   1      41.135  36.469  37.306  1.00  0.00     0.001 A 
ATOM     50  C   UNL A   1      39.580  35.008  38.438  1.00  0.00     0.001 A 
ATOM     51  C   UNL A   1      40.355  36.165  38.422  1.00  0.00     0.000 A 
ENDBRANCH  27  46
BRANCH  39  52
ATOM     52  C   UNL A   1      44.123  28.751  34.766  1.00  0.00    -0.014 A 
ATOM     53  C   UNL A   1      43.836  27.723  35.676  1.00  0.00     0.009 A 
ATOM     54  C   UNL A   1      45.462  29.088  34.516  1.00  0.00     0.009 A 
ATOM     55  C   UNL A   1      44.869  27.064  36.344  1.00  0.00     0.001 A 
ATOM     56  C   UNL A   1      46.494  28.407  35.162  1.00  0.00     0.001 A 
ATOM     57  C   UNL A   1      46.197  27.401  36.081  1.00  0.00     0.000 A 
ENDBRANCH  39  52
ENDBRANCH  13  14
ENDBRANCH   6   8
ENDBRANCH   3   4
ENDBRANCH   2   3
ENDBRANCH   1   2
BRANCH   1  58
ATOM     58  C   UNL A   1      32.105  29.702  27.107  1.00  0.00     0.002 C 
BRANCH  58  59
ATOM     59  C   UNL A   1      33.564  29.286  26.948  1.00  0.00     0.021 C 
BRANCH  59  60
ATOM     60  C   UNL A   1      33.812  27.905  26.342  1.00  0.00     0.116 C 
BRANCH  60  61
ATOM     61  N   UNL A   1      33.808  27.934  24.892  1.00  0.00    -0.356 N 
ATOM     62  C   UNL A   1      33.109  27.229  23.959  1.00  0.00     0.228 C 
ATOM     63  H   UNL A   1      34.430  28.593  24.508  1.00  0.00     0.163 HD
ATOM     64  O   UNL A   1      33.415  27.458  22.784  1.00  0.00    -0.274 OA
BRANCH  62  65
ATOM     65  C   UNL A   1      32.035  26.170  24.316  1.00  0.00     0.078 C 
ATOM     66  C   UNL A   1      30.951  26.736  25.240  1.00  0.00     0.048 C 
ATOM     67  C   UNL A   1      31.153  26.000  23.060  1.00  0.00     0.177 C 
ATOM     68  C   UNL A   1      29.675  26.018  24.821  1.00  0.00     0.161 C 
ATOM     69  O   UNL A   1      29.904  25.472  23.520  1.00  0.00    -0.380 OA
BRANCH  65  70
ATOM     70  C   UNL A   1      32.727  24.834  24.797  1.00  0.00     0.012 C 
ATOM     71  C   UNL A   1      32.680  24.488  26.290  1.00  0.00     0.033 C 
ATOM     72  C   UNL A   1      34.190  24.596  24.347  1.00  0.00     0.043 C 
ATOM     73  C   UNL A   1      32.962  22.997  26.470  1.00  0.00     0.161 C 
ATOM     74  C   UNL A   1      34.791  23.267  24.894  1.00  0.00     0.094 C 
ATOM     75  O   UNL A   1      33.808  22.427  25.481  1.00  0.00    -0.372 OA
ATOM     76  C   UNL A   1      35.464  22.437  23.804  1.00  0.00     0.066 C 
ATOM     77  C   UNL A   1      36.026  23.522  25.768  1.00  0.00     0.195 C 
ATOM     78  C   UNL A   1      36.793  23.117  23.605  1.00  0.00     0.163 C 
ATOM     79  O   UNL A   1      37.141  23.699  24.868  1.00  0.00    -0.378 OA
ENDBRANCH  65  70
ENDBRANCH  62  65
ENDBRANCH  60  61
ENDBRANCH  59  60
ENDBRANCH  58  59
ENDBRANCH   1  58
TORSDOF 14
ENDMDL
MODEL 3
REMARK VINA RESULT:     -11.1      3.246      7.557
REMARK SMILES O=C(NCCCCCCNC(=O)[C@@]1([C@@H]2CCO[C@@]3(CCOC3)C2)CCOC1)c1ccc(-c2c3nc(c(-c4ccccc4)c4ccc([nH]4)c(-c4ccccc4)c4nc(c(-c5ccccc5)c5ccc2[nH]5)C=C4)C=C3)cc1
REMARK SMILES IDX 6 1 5 2 4 3 3 4 1 5 2 6 28 8 29 9 75 10 30 11 74 12 31 13
REMARK SMILES IDX 32 14 33 15 68 16 34 17 73 18 67 19 69 20 35 21 72 22 66 23
REMARK SMILES IDX 65 24 36 26 58 27 43 28 57 29 44 30 47 31 56 32 70 33 45 34
REMARK SMILES IDX 46 35 55 37 71 38 48 39 37 40 38 41 42 42 39 43 41 44 40 45
REMARK SMILES IDX 59 46 60 47 64 48 61 49 63 50 62 51 49 52 50 53 54 54 51 55
REMARK SMILES IDX 53 56 52 57 7 58 8 59 9 60 10 61 11 62 12 64 13 65 24 66
REMARK SMILES IDX 27 67 25 68 26 69 14 70 15 71 23 72 16 73 18 74 17 75 19 76
REMARK SMILES IDX 22 77 20 78 21 79
REMARK H PARENT 3 7 69 25 47 36 10 63
REMARK Flexibility Score: inf
ROOT
ATOM      1  C   UNL A   1      31.691  30.375  25.970  1.00  0.00     0.002 C 
ENDROOT
BRANCH   1   2
ATOM      2  C   UNL A   1      31.484  31.789  26.532  1.00  0.00     0.021 C 
BRANCH   2   3
ATOM      3  C   UNL A   1      32.684  32.375  27.275  1.00  0.00     0.116 C 
BRANCH   3   4
ATOM      4  N   UNL A   1      32.480  33.774  27.604  1.00  0.00    -0.352 N 
ATOM      5  O   UNL A   1      32.653  35.638  28.857  1.00  0.00    -0.269 OA
ATOM      6  C   UNL A   1      33.124  34.553  28.531  1.00  0.00     0.251 C 
ATOM      7  H   UNL A   1      31.777  34.229  27.087  1.00  0.00     0.163 HD
BRANCH   6   8
ATOM      8  C   UNL A   1      34.390  34.092  29.144  1.00  0.00     0.039 A 
ATOM      9  C   UNL A   1      34.381  33.240  30.252  1.00  0.00     0.014 A 
ATOM     10  C   UNL A   1      35.602  34.447  28.544  1.00  0.00     0.014 A 
ATOM     11  C   UNL A   1      35.583  32.808  30.809  1.00  0.00     0.010 A 
ATOM     12  C   UNL A   1      36.804  33.956  29.060  1.00  0.00     0.010 A 
ATOM     13  C   UNL A   1      36.803  33.131  30.196  1.00  0.00    -0.014 A 
BRANCH  13  14
ATOM     14  C   UNL A   1      38.056  32.483  30.661  1.00  0.00     0.031 A 
ATOM     15  C   UNL A   1      38.571  31.224  30.027  1.00  0.00     0.074 A 
ATOM     16  C   UNL A   1      38.709  33.034  31.704  1.00  0.00     0.049 A 
ATOM     17  N   UNL A   1      39.621  30.512  30.352  1.00  0.00    -0.248 NA
ATOM     18  C   UNL A   1      37.811  30.686  28.888  1.00  0.00     0.031 C 
ATOM     19  C   UNL A   1      38.291  34.248  32.414  1.00  0.00     0.029 A 
ATOM     20  N   UNL A   1      39.853  32.649  32.355  1.00  0.00    -0.354 N 
ATOM     21  C   UNL A   1      39.639  29.435  29.477  1.00  0.00     0.074 A 
ATOM     22  C   UNL A   1      38.487  29.576  28.611  1.00  0.00     0.031 C 
ATOM     23  C   UNL A   1      39.174  34.516  33.386  1.00  0.00     0.029 A 
ATOM     24  C   UNL A   1      40.180  33.462  33.413  1.00  0.00     0.049 A 
ATOM     25  H   UNL A   1      40.388  31.867  32.089  1.00  0.00     0.167 HD
ATOM     26  C   UNL A   1      40.534  28.420  29.409  1.00  0.00     0.031 A 
ATOM     27  C   UNL A   1      41.156  33.355  34.333  1.00  0.00     0.031 A 
ATOM     28  C   UNL A   1      41.679  28.289  30.272  1.00  0.00     0.049 A 
ATOM     29  C   UNL A   1      42.101  32.191  34.257  1.00  0.00     0.074 A 
ATOM     30  C   UNL A   1      42.682  27.336  30.230  1.00  0.00     0.029 A 
ATOM     31  N   UNL A   1      41.963  29.121  31.344  1.00  0.00    -0.354 N 
ATOM     32  N   UNL A   1      42.152  31.228  33.370  1.00  0.00    -0.248 NA
ATOM     33  C   UNL A   1      43.119  32.095  35.313  1.00  0.00     0.031 C 
ATOM     34  C   UNL A   1      43.533  27.548  31.318  1.00  0.00     0.029 A 
ATOM     35  C   UNL A   1      43.095  28.670  32.002  1.00  0.00     0.049 A 
ATOM     36  H   UNL A   1      41.437  29.913  31.600  1.00  0.00     0.167 HD
ATOM     37  C   UNL A   1      43.212  30.418  33.753  1.00  0.00     0.074 A 
ATOM     38  C   UNL A   1      43.794  31.019  34.935  1.00  0.00     0.031 C 
ATOM     39  C   UNL A   1      43.657  29.274  33.182  1.00  0.00     0.031 A 
BRANCH  26  40
ATOM     40  C   UNL A   1      40.309  27.341  28.387  1.00  0.00    -0.014 A 
ATOM     41  C   UNL A   1      40.911  27.392  27.121  1.00  0.00     0.009 A 
ATOM     42  C   UNL A   1      39.562  26.204  28.738  1.00  0.00     0.009 A 
ATOM     43  C   UNL A   1      40.756  26.333  26.222  1.00  0.00     0.001 A 
ATOM     44  C   UNL A   1      39.428  25.138  27.847  1.00  0.00     0.001 A 
ATOM     45  C   UNL A   1      40.022  25.205  26.589  1.00  0.00     0.000 A 
ENDBRANCH  26  40
BRANCH  27  46
ATOM     46  C   UNL A   1      41.252  34.344  35.439  1.00  0.00    -0.014 A 
ATOM     47  C   UNL A   1      40.539  34.160  36.632  1.00  0.00     0.009 A 
ATOM     48  C   UNL A   1      42.050  35.490  35.296  1.00  0.00     0.009 A 
ATOM     49  C   UNL A   1      40.598  35.120  37.646  1.00  0.00     0.001 A 
ATOM     50  C   UNL A   1      42.135  36.431  36.323  1.00  0.00     0.001 A 
ATOM     51  C   UNL A   1      41.399  36.251  37.492  1.00  0.00     0.000 A 
ENDBRANCH  27  46
BRANCH  39  52
ATOM     52  C   UNL A   1      44.838  28.605  33.823  1.00  0.00    -0.014 A 
ATOM     53  C   UNL A   1      46.149  28.982  33.493  1.00  0.00     0.009 A 
ATOM     54  C   UNL A   1      44.637  27.618  34.800  1.00  0.00     0.009 A 
ATOM     55  C   UNL A   1      47.237  28.364  34.111  1.00  0.00     0.001 A 
ATOM     56  C   UNL A   1      45.726  27.024  35.438  1.00  0.00     0.001 A 
ATOM     57  C   UNL A   1      47.024  27.392  35.088  1.00  0.00     0.000 A 
ENDBRANCH  39  52
ENDBRANCH  13  14
ENDBRANCH   6   8
ENDBRANCH   3   4
ENDBRANCH   2   3
ENDBRANCH   1   2
BRANCH   1  58
ATOM     58  C   UNL A   1      32.498  29.416  26.849  1.00  0.00     0.002 C 
BRANCH  58  59
ATOM     59  C   UNL A   1      33.599  28.662  26.111  1.00  0.00     0.021 C 
BRANCH  59  60
ATOM     60  C   UNL A   1      33.390  27.158  25.935  1.00  0.00     0.116 C 
BRANCH  60  61
ATOM     61  N   UNL A   1      32.025  26.835  25.567  1.00  0.00    -0.356 N 
ATOM     62  C   UNL A   1      31.487  26.202  24.487  1.00  0.00     0.228 C 
ATOM     63  H   UNL A   1      31.357  27.131  26.227  1.00  0.00     0.163 HD
ATOM     64  O   UNL A   1      30.252  26.165  24.454  1.00  0.00    -0.274 OA
BRANCH  62  65
ATOM     65  C   UNL A   1      32.337  25.603  23.338  1.00  0.00     0.078 C 
ATOM     66  C   UNL A   1      31.575  25.579  22.008  1.00  0.00     0.048 C 
ATOM     67  C   UNL A   1      33.373  26.681  22.950  1.00  0.00     0.177 C 
ATOM     68  C   UNL A   1      32.642  25.819  20.948  1.00  0.00     0.161 C 
ATOM     69  O   UNL A   1      33.778  26.380  21.610  1.00  0.00    -0.380 OA
BRANCH  65  70
ATOM     70  C   UNL A   1      32.978  24.233  23.792  1.00  0.00     0.012 C 
ATOM     71  C   UNL A   1      32.215  23.374  24.807  1.00  0.00     0.033 C 
ATOM     72  C   UNL A   1      34.448  24.271  24.279  1.00  0.00     0.043 C 
ATOM     73  C   UNL A   1      32.739  21.940  24.747  1.00  0.00     0.161 C 
ATOM     74  C   UNL A   1      34.980  22.877  24.731  1.00  0.00     0.094 C 
ATOM     75  O   UNL A   1      34.104  21.819  24.372  1.00  0.00    -0.372 OA
ATOM     76  C   UNL A   1      36.333  22.539  24.110  1.00  0.00     0.066 C 
ATOM     77  C   UNL A   1      35.411  22.886  26.203  1.00  0.00     0.195 C 
ATOM     78  C   UNL A   1      37.313  23.333  24.932  1.00  0.00     0.163 C 
ATOM     79  O   UNL A   1      36.741  23.447  26.241  1.00  0.00    -0.378 OA
ENDBRANCH  65  70
ENDBRANCH  62  65
ENDBRANCH  60  61
ENDBRANCH  59  60
ENDBRANCH  58  59
ENDBRANCH   1  58
TORSDOF 14
ENDMDL
