MODEL 1
REMARK VINA RESULT:     -10.9      0.000      0.000
REMARK SMILES [NH3+]Cc1c(-c2ccccc2)c(C(=O)NCCCCCCNC(=O)c2ccc(-c3c4nc(c(-c5ccccc5)c5ccc([nH]5)c(-c5ccccc5)c5nc(c(-c6ccccc6)c6ccc3[nH]6)C=C5)C=C4)cc2)c2ccccn12
REMARK SMILES IDX 17 1 16 2 15 3 14 4 12 5 13 6 11 8 3 9 4 10 77 11 72 12
REMARK SMILES IDX 76 13 73 14 75 15 74 16 2 17 1 18 5 22 6 23 10 24 7 25 9 26
REMARK SMILES IDX 8 27 18 28 19 29 20 30 21 31 22 32 23 34 24 35 25 36 71 37
REMARK SMILES IDX 26 38 70 39 27 40 28 41 29 42 64 43 30 44 69 45 63 46 65 47
REMARK SMILES IDX 31 48 68 49 62 50 61 51 32 53 54 54 39 55 53 56 40 57 43 58
REMARK SMILES IDX 52 59 66 60 41 61 42 62 51 64 67 65 44 66 33 67 34 68 38 69
REMARK SMILES IDX 35 70 37 71 36 72 55 73 56 74 60 75 57 76 59 77 58 78 45 79
REMARK SMILES IDX 46 80 50 81 47 82 49 83 48 84
REMARK H PARENT 14 7 1 19 1 20 1 21 21 33 65 52 43 63
REMARK Flexibility Score: inf
ROOT
ATOM      1  C   UNL A   1      36.759  21.580  24.439  1.00  0.00     0.002 C 
ENDROOT
BRANCH   1   2
ATOM      2  C   UNL A   1      37.417  22.669  25.291  1.00  0.00     0.021 C 
BRANCH   2   3
ATOM      3  C   UNL A   1      36.517  23.786  25.806  1.00  0.00     0.116 C 
BRANCH   3   4
ATOM      4  N   UNL A   1      35.646  23.423  26.898  1.00  0.00    -0.352 N 
ATOM      5  C   UNL A   1      34.331  23.011  26.900  1.00  0.00     0.254 C 
ATOM      6  O   UNL A   1      33.880  22.660  27.992  1.00  0.00    -0.269 OA
ATOM      7  H   UNL A   1      36.061  23.478  27.790  1.00  0.00     0.163 HD
BRANCH   5   8
ATOM      8  C   UNL A   1      33.489  23.060  25.697  1.00  0.00     0.073 A 
ATOM      9  C   UNL A   1      32.178  23.938  24.013  1.00  0.00     0.086 A 
ATOM     10  C   UNL A   1      32.864  24.258  25.179  1.00  0.00     0.022 A 
ATOM     11  N   UNL A   1      32.395  22.593  23.772  1.00  0.00    -0.314 N 
ATOM     12  C   UNL A   1      33.016  22.030  24.889  1.00  0.00     0.059 A 
ATOM     13  C   UNL A   1      32.048  21.838  22.643  1.00  0.00     0.092 A 
ATOM     14  C   UNL A   1      33.047  20.601  24.935  1.00  0.00     0.027 A 
ATOM     15  C   UNL A   1      32.245  20.511  22.637  1.00  0.00     0.018 A 
ATOM     16  C   UNL A   1      32.719  19.877  23.849  1.00  0.00     0.004 A 
BRANCH   9  17
ATOM     17  C   UNL A   1      31.352  24.789  23.106  1.00  0.00     0.315 C 
BRANCH  17  18
ATOM     18  N   UNL A   1      29.960  24.784  23.541  1.00  0.00    -0.353 N 
ATOM     19  H   UNL A   1      29.384  24.330  22.833  1.00  0.00     0.344 HD
ATOM     20  H   UNL A   1      29.642  25.743  23.674  1.00  0.00     0.344 HD
ATOM     21  H   UNL A   1      29.880  24.274  24.421  1.00  0.00     0.344 HD
ENDBRANCH  17  18
ENDBRANCH   9  17
BRANCH  10  22
ATOM     22  C   UNL A   1      32.888  25.603  25.740  1.00  0.00    -0.016 A 
ATOM     23  C   UNL A   1      34.016  26.416  25.590  1.00  0.00     0.009 A 
ATOM     24  C   UNL A   1      31.796  26.074  26.482  1.00  0.00     0.009 A 
ATOM     25  C   UNL A   1      34.055  27.681  26.184  1.00  0.00     0.001 A 
ATOM     26  C   UNL A   1      31.834  27.340  27.069  1.00  0.00     0.001 A 
ATOM     27  C   UNL A   1      32.965  28.141  26.924  1.00  0.00     0.000 A 
ENDBRANCH  10  22
ENDBRANCH   5   8
ENDBRANCH   3   4
ENDBRANCH   2   3
ENDBRANCH   1   2
BRANCH   1  28
ATOM     28  C   UNL A   1      36.963  20.126  24.873  1.00  0.00     0.002 C 
BRANCH  28  29
ATOM     29  C   UNL A   1      38.378  19.557  24.753  1.00  0.00     0.021 C 
BRANCH  29  30
ATOM     30  C   UNL A   1      39.201  19.521  26.036  1.00  0.00     0.116 C 
BRANCH  30  31
ATOM     31  N   UNL A   1      40.524  18.952  25.852  1.00  0.00    -0.352 N 
ATOM     32  C   UNL A   1      41.760  19.540  25.977  1.00  0.00     0.251 C 
ATOM     33  H   UNL A   1      40.538  18.001  25.598  1.00  0.00     0.163 HD
ATOM     34  O   UNL A   1      42.769  18.926  25.653  1.00  0.00    -0.269 OA
BRANCH  32  35
ATOM     35  C   UNL A   1      41.876  20.930  26.473  1.00  0.00     0.039 A 
ATOM     36  C   UNL A   1      41.736  21.166  27.844  1.00  0.00     0.014 A 
ATOM     37  C   UNL A   1      42.116  21.994  25.601  1.00  0.00     0.014 A 
ATOM     38  C   UNL A   1      41.911  22.457  28.347  1.00  0.00     0.010 A 
ATOM     39  C   UNL A   1      42.360  23.268  26.112  1.00  0.00     0.010 A 
ATOM     40  C   UNL A   1      42.267  23.511  27.490  1.00  0.00    -0.014 A 
BRANCH  40  41
ATOM     41  C   UNL A   1      42.568  24.865  28.021  1.00  0.00     0.031 A 
ATOM     42  C   UNL A   1      43.959  25.216  28.471  1.00  0.00     0.074 A 
ATOM     43  C   UNL A   1      41.570  25.760  28.163  1.00  0.00     0.049 A 
ATOM     44  N   UNL A   1      44.395  26.321  29.022  1.00  0.00    -0.248 NA
ATOM     45  C   UNL A   1      44.992  24.182  28.301  1.00  0.00     0.031 C 
ATOM     46  C   UNL A   1      40.171  25.534  27.794  1.00  0.00     0.029 A 
ATOM     47  N   UNL A   1      41.579  27.038  28.663  1.00  0.00    -0.354 N 
ATOM     48  C   UNL A   1      45.744  26.110  29.275  1.00  0.00     0.074 A 
ATOM     49  C   UNL A   1      46.044  24.756  28.865  1.00  0.00     0.031 C 
ATOM     50  C   UNL A   1      39.463  26.644  28.056  1.00  0.00     0.029 A 
ATOM     51  C   UNL A   1      40.345  27.642  28.654  1.00  0.00     0.049 A 
ATOM     52  H   UNL A   1      42.393  27.481  28.997  1.00  0.00     0.167 HD
ATOM     53  C   UNL A   1      46.655  26.971  29.788  1.00  0.00     0.031 A 
ATOM     54  C   UNL A   1      39.960  28.856  29.089  1.00  0.00     0.031 A 
ATOM     55  C   UNL A   1      46.356  28.319  30.197  1.00  0.00     0.049 A 
ATOM     56  C   UNL A   1      40.983  29.779  29.691  1.00  0.00     0.074 A 
ATOM     57  C   UNL A   1      47.222  29.284  30.680  1.00  0.00     0.029 A 
ATOM     58  N   UNL A   1      45.093  28.887  30.181  1.00  0.00    -0.354 N 
ATOM     59  N   UNL A   1      42.269  29.588  29.861  1.00  0.00    -0.248 NA
ATOM     60  C   UNL A   1      40.501  31.089  30.153  1.00  0.00     0.031 C 
ATOM     61  C   UNL A   1      46.472  30.417  31.013  1.00  0.00     0.029 A 
ATOM     62  C   UNL A   1      45.150  30.180  30.676  1.00  0.00     0.049 A 
ATOM     63  H   UNL A   1      44.275  28.439  29.863  1.00  0.00     0.167 HD
ATOM     64  C   UNL A   1      42.754  30.761  30.425  1.00  0.00     0.074 A 
ATOM     65  C   UNL A   1      41.627  31.663  30.552  1.00  0.00     0.031 C 
ATOM     66  C   UNL A   1      44.020  31.064  30.803  1.00  0.00     0.031 A 
BRANCH  53  67
ATOM     67  C   UNL A   1      48.065  26.472  29.951  1.00  0.00    -0.014 A 
ATOM     68  C   UNL A   1      48.483  25.836  31.132  1.00  0.00     0.009 A 
ATOM     69  C   UNL A   1      48.981  26.608  28.895  1.00  0.00     0.009 A 
ATOM     70  C   UNL A   1      49.799  25.386  31.266  1.00  0.00     0.001 A 
ATOM     71  C   UNL A   1      50.286  26.129  29.021  1.00  0.00     0.001 A 
ATOM     72  C   UNL A   1      50.697  25.528  30.209  1.00  0.00     0.000 A 
ENDBRANCH  53  67
BRANCH  54  73
ATOM     73  C   UNL A   1      38.539  29.275  28.968  1.00  0.00    -0.014 A 
ATOM     74  C   UNL A   1      37.663  29.151  30.057  1.00  0.00     0.009 A 
ATOM     75  C   UNL A   1      38.048  29.798  27.761  1.00  0.00     0.009 A 
ATOM     76  C   UNL A   1      36.320  29.518  29.933  1.00  0.00     0.001 A 
ATOM     77  C   UNL A   1      36.713  30.193  27.648  1.00  0.00     0.001 A 
ATOM     78  C   UNL A   1      35.849  30.044  28.731  1.00  0.00     0.000 A 
ENDBRANCH  54  73
BRANCH  66  79
ATOM     79  C   UNL A   1      44.262  32.439  31.362  1.00  0.00    -0.014 A 
ATOM     80  C   UNL A   1      44.190  32.690  32.740  1.00  0.00     0.009 A 
ATOM     81  C   UNL A   1      44.612  33.488  30.497  1.00  0.00     0.009 A 
ATOM     82  C   UNL A   1      44.434  33.973  33.238  1.00  0.00     0.001 A 
ATOM     83  C   UNL A   1      44.887  34.760  30.999  1.00  0.00     0.001 A 
ATOM     84  C   UNL A   1      44.788  35.003  32.368  1.00  0.00     0.000 A 
ENDBRANCH  66  79
ENDBRANCH  40  41
ENDBRANCH  32  35
ENDBRANCH  30  31
ENDBRANCH  29  30
ENDBRANCH  28  29
ENDBRANCH   1  28
TORSDOF 16
ENDMDL
MODEL 2
REMARK VINA RESULT:     -10.8      3.965      9.103
REMARK SMILES [NH3+]Cc1c(-c2ccccc2)c(C(=O)NCCCCCCNC(=O)c2ccc(-c3c4nc(c(-c5ccccc5)c5ccc([nH]5)c(-c5ccccc5)c5nc(c(-c6ccccc6)c6ccc3[nH]6)C=C5)C=C4)cc2)c2ccccn12
REMARK SMILES IDX 17 1 16 2 15 3 14 4 12 5 13 6 11 8 3 9 4 10 77 11 72 12
REMARK SMILES IDX 76 13 73 14 75 15 74 16 2 17 1 18 5 22 6 23 10 24 7 25 9 26
REMARK SMILES IDX 8 27 18 28 19 29 20 30 21 31 22 32 23 34 24 35 25 36 71 37
REMARK SMILES IDX 26 38 70 39 27 40 28 41 29 42 64 43 30 44 69 45 63 46 65 47
REMARK SMILES IDX 31 48 68 49 62 50 61 51 32 53 54 54 39 55 53 56 40 57 43 58
REMARK SMILES IDX 52 59 66 60 41 61 42 62 51 64 67 65 44 66 33 67 34 68 38 69
REMARK SMILES IDX 35 70 37 71 36 72 55 73 56 74 60 75 57 76 59 77 58 78 45 79
REMARK SMILES IDX 46 80 50 81 47 82 49 83 48 84
REMARK H PARENT 14 7 1 19 1 20 1 21 21 33 65 52 43 63
REMARK Flexibility Score: inf
ROOT
ATOM      1  C   UNL A   1      31.884  29.636  26.939  1.00  0.00     0.002 C 
ENDROOT
BRANCH   1   2
ATOM      2  C   UNL A   1      33.368  29.344  27.176  1.00  0.00     0.021 C 
BRANCH   2   3
ATOM      3  C   UNL A   1      33.968  28.156  26.432  1.00  0.00     0.116 C 
BRANCH   3   4
ATOM      4  N   UNL A   1      34.340  28.412  25.061  1.00  0.00    -0.352 N 
ATOM      5  C   UNL A   1      33.695  28.105  23.884  1.00  0.00     0.254 C 
ATOM      6  O   UNL A   1      34.210  28.554  22.857  1.00  0.00    -0.269 OA
ATOM      7  H   UNL A   1      35.198  28.884  24.950  1.00  0.00     0.163 HD
BRANCH   5   8
ATOM      8  C   UNL A   1      32.513  27.233  23.836  1.00  0.00     0.073 A 
ATOM      9  C   UNL A   1      31.242  25.311  23.956  1.00  0.00     0.086 A 
ATOM     10  C   UNL A   1      32.542  25.800  24.029  1.00  0.00     0.022 A 
ATOM     11  N   UNL A   1      30.410  26.401  23.767  1.00  0.00    -0.314 N 
ATOM     12  C   UNL A   1      31.195  27.525  23.499  1.00  0.00     0.059 A 
ATOM     13  C   UNL A   1      29.010  26.448  23.788  1.00  0.00     0.092 A 
ATOM     14  C   UNL A   1      30.500  28.667  22.991  1.00  0.00     0.027 A 
ATOM     15  C   UNL A   1      28.372  27.585  23.473  1.00  0.00     0.018 A 
ATOM     16  C   UNL A   1      29.156  28.714  23.016  1.00  0.00     0.004 A 
BRANCH   9  17
ATOM     17  C   UNL A   1      30.721  23.916  24.059  1.00  0.00     0.315 C 
BRANCH  17  18
ATOM     18  N   UNL A   1      30.483  23.570  25.456  1.00  0.00    -0.353 N 
ATOM     19  H   UNL A   1      31.243  22.981  25.795  1.00  0.00     0.344 HD
ATOM     20  H   UNL A   1      29.601  23.065  25.536  1.00  0.00     0.344 HD
ATOM     21  H   UNL A   1      30.438  24.422  26.015  1.00  0.00     0.344 HD
ENDBRANCH  17  18
ENDBRANCH   9  17
BRANCH  10  22
ATOM     22  C   UNL A   1      33.699  24.941  24.247  1.00  0.00    -0.016 A 
ATOM     23  C   UNL A   1      34.215  24.756  25.535  1.00  0.00     0.009 A 
ATOM     24  C   UNL A   1      34.339  24.334  23.158  1.00  0.00     0.009 A 
ATOM     25  C   UNL A   1      35.362  23.981  25.728  1.00  0.00     0.001 A 
ATOM     26  C   UNL A   1      35.480  23.554  23.354  1.00  0.00     0.001 A 
ATOM     27  C   UNL A   1      35.994  23.383  24.638  1.00  0.00     0.000 A 
ENDBRANCH  10  22
ENDBRANCH   5   8
ENDBRANCH   3   4
ENDBRANCH   2   3
ENDBRANCH   1   2
BRANCH   1  28
ATOM     28  C   UNL A   1      31.535  30.775  25.978  1.00  0.00     0.002 C 
BRANCH  28  29
ATOM     29  C   UNL A   1      31.353  32.167  26.587  1.00  0.00     0.021 C 
BRANCH  29  30
ATOM     30  C   UNL A   1      32.569  32.760  27.289  1.00  0.00     0.116 C 
BRANCH  30  31
ATOM     31  N   UNL A   1      32.375  34.138  27.705  1.00  0.00    -0.352 N 
ATOM     32  C   UNL A   1      33.079  34.889  28.615  1.00  0.00     0.251 C 
ATOM     33  H   UNL A   1      31.626  34.603  27.269  1.00  0.00     0.163 HD
ATOM     34  O   UNL A   1      32.682  36.005  28.929  1.00  0.00    -0.269 OA
BRANCH  32  35
ATOM     35  C   UNL A   1      34.302  34.343  29.245  1.00  0.00     0.039 A 
ATOM     36  C   UNL A   1      34.190  33.699  30.480  1.00  0.00     0.014 A 
ATOM     37  C   UNL A   1      35.551  34.464  28.630  1.00  0.00     0.014 A 
ATOM     38  C   UNL A   1      35.315  33.112  31.062  1.00  0.00     0.010 A 
ATOM     39  C   UNL A   1      36.658  33.817  29.177  1.00  0.00     0.010 A 
ATOM     40  C   UNL A   1      36.551  33.130  30.395  1.00  0.00    -0.014 A 
BRANCH  40  41
ATOM     41  C   UNL A   1      37.731  32.415  30.943  1.00  0.00     0.031 A 
ATOM     42  C   UNL A   1      38.465  32.958  32.138  1.00  0.00     0.074 A 
ATOM     43  C   UNL A   1      38.186  31.310  30.320  1.00  0.00     0.049 A 
ATOM     44  N   UNL A   1      39.551  32.509  32.714  1.00  0.00    -0.248 NA
ATOM     45  C   UNL A   1      37.918  34.178  32.753  1.00  0.00     0.031 C 
ATOM     46  C   UNL A   1      37.586  30.698  29.133  1.00  0.00     0.029 A 
ATOM     47  N   UNL A   1      39.267  30.508  30.595  1.00  0.00    -0.354 N 
ATOM     48  C   UNL A   1      39.825  33.396  33.747  1.00  0.00     0.074 A 
ATOM     49  C   UNL A   1      38.821  34.435  33.689  1.00  0.00     0.031 C 
ATOM     50  C   UNL A   1      38.288  29.604  28.799  1.00  0.00     0.029 A 
ATOM     51  C   UNL A   1      39.416  29.464  29.715  1.00  0.00     0.049 A 
ATOM     52  H   UNL A   1      39.877  30.667  31.351  1.00  0.00     0.167 HD
ATOM     53  C   UNL A   1      40.814  33.342  34.671  1.00  0.00     0.031 A 
ATOM     54  C   UNL A   1      40.359  28.506  29.644  1.00  0.00     0.031 A 
ATOM     55  C   UNL A   1      41.814  32.308  34.729  1.00  0.00     0.049 A 
ATOM     56  C   UNL A   1      41.469  28.491  30.659  1.00  0.00     0.074 A 
ATOM     57  C   UNL A   1      42.824  32.139  35.659  1.00  0.00     0.029 A 
ATOM     58  N   UNL A   1      41.935  31.275  33.814  1.00  0.00    -0.354 N 
ATOM     59  N   UNL A   1      41.674  29.299  31.670  1.00  0.00    -0.248 NA
ATOM     60  C   UNL A   1      42.472  27.425  30.524  1.00  0.00     0.031 C 
ATOM     61  C   UNL A   1      43.594  31.037  35.272  1.00  0.00     0.029 A 
ATOM     62  C   UNL A   1      43.024  30.482  34.138  1.00  0.00     0.049 A 
ATOM     63  H   UNL A   1      41.335  31.125  33.047  1.00  0.00     0.167 HD
ATOM     64  C   UNL A   1      42.813  28.825  32.308  1.00  0.00     0.074 A 
ATOM     65  C   UNL A   1      43.244  27.649  31.579  1.00  0.00     0.031 C 
ATOM     66  C   UNL A   1      43.445  29.319  33.401  1.00  0.00     0.031 A 
BRANCH  53  67
ATOM     67  C   UNL A   1      40.870  34.447  35.691  1.00  0.00    -0.014 A 
ATOM     68  C   UNL A   1      41.652  35.596  35.480  1.00  0.00     0.009 A 
ATOM     69  C   UNL A   1      40.104  34.356  36.863  1.00  0.00     0.009 A 
ATOM     70  C   UNL A   1      41.697  36.608  36.441  1.00  0.00     0.001 A 
ATOM     71  C   UNL A   1      40.126  35.384  37.808  1.00  0.00     0.001 A 
ATOM     72  C   UNL A   1      40.930  36.504  37.602  1.00  0.00     0.000 A 
ENDBRANCH  53  67
BRANCH  54  73
ATOM     73  C   UNL A   1      40.295  27.476  28.574  1.00  0.00    -0.014 A 
ATOM     74  C   UNL A   1      40.925  27.691  27.338  1.00  0.00     0.009 A 
ATOM     75  C   UNL A   1      39.602  26.273  28.781  1.00  0.00     0.009 A 
ATOM     76  C   UNL A   1      40.839  26.734  26.323  1.00  0.00     0.001 A 
ATOM     77  C   UNL A   1      39.544  25.305  27.776  1.00  0.00     0.001 A 
ATOM     78  C   UNL A   1      40.154  25.540  26.545  1.00  0.00     0.000 A 
ENDBRANCH  54  73
BRANCH  66  79
ATOM     79  C   UNL A   1      44.653  28.572  33.895  1.00  0.00    -0.014 A 
ATOM     80  C   UNL A   1      44.535  27.512  34.806  1.00  0.00     0.009 A 
ATOM     81  C   UNL A   1      45.924  28.908  33.404  1.00  0.00     0.009 A 
ATOM     82  C   UNL A   1      45.670  26.822  35.239  1.00  0.00     0.001 A 
ATOM     83  C   UNL A   1      47.053  28.197  33.814  1.00  0.00     0.001 A 
ATOM     84  C   UNL A   1      46.926  27.162  34.737  1.00  0.00     0.000 A 
ENDBRANCH  66  79
ENDBRANCH  40  41
ENDBRANCH  32  35
ENDBRANCH  30  31
ENDBRANCH  29  30
ENDBRANCH  28  29
ENDBRANCH   1  28
TORSDOF 16
ENDMDL
MODEL 3
REMARK VINA RESULT:     -10.8      0.467      5.860
REMARK SMILES [NH3+]Cc1c(-c2ccccc2)c(C(=O)NCCCCCCNC(=O)c2ccc(-c3c4nc(c(-c5ccccc5)c5ccc([nH]5)c(-c5ccccc5)c5nc(c(-c6ccccc6)c6ccc3[nH]6)C=C5)C=C4)cc2)c2ccccn12
REMARK SMILES IDX 17 1 16 2 15 3 14 4 12 5 13 6 11 8 3 9 4 10 77 11 72 12
REMARK SMILES IDX 76 13 73 14 75 15 74 16 2 17 1 18 5 22 6 23 10 24 7 25 9 26
REMARK SMILES IDX 8 27 18 28 19 29 20 30 21 31 22 32 23 34 24 35 25 36 71 37
REMARK SMILES IDX 26 38 70 39 27 40 28 41 29 42 64 43 30 44 69 45 63 46 65 47
REMARK SMILES IDX 31 48 68 49 62 50 61 51 32 53 54 54 39 55 53 56 40 57 43 58
REMARK SMILES IDX 52 59 66 60 41 61 42 62 51 64 67 65 44 66 33 67 34 68 38 69
REMARK SMILES IDX 35 70 37 71 36 72 55 73 56 74 60 75 57 76 59 77 58 78 45 79
REMARK SMILES IDX 46 80 50 81 47 82 49 83 48 84
REMARK H PARENT 14 7 1 19 1 20 1 21 21 33 65 52 43 63
REMARK Flexibility Score: inf
ROOT
ATOM      1  C   UNL A   1      36.677  21.504  24.504  1.00  0.00     0.002 C 
ENDROOT
BRANCH   1   2
ATOM      2  C   UNL A   1      37.365  22.658  25.237  1.00  0.00     0.021 C 
BRANCH   2   3
ATOM      3  C   UNL A   1      36.468  23.761  25.790  1.00  0.00     0.116 C 
BRANCH   3   4
ATOM      4  N   UNL A   1      35.606  23.368  26.878  1.00  0.00    -0.352 N 
ATOM      5  C   UNL A   1      34.293  22.950  26.878  1.00  0.00     0.254 C 
ATOM      6  O   UNL A   1      33.850  22.571  27.964  1.00  0.00    -0.269 OA
ATOM      7  H   UNL A   1      36.025  23.405  27.768  1.00  0.00     0.163 HD
BRANCH   5   8
ATOM      8  C   UNL A   1      33.444  23.021  25.681  1.00  0.00     0.073 A 
ATOM      9  C   UNL A   1      32.124  23.931  24.021  1.00  0.00     0.086 A 
ATOM     10  C   UNL A   1      32.817  24.228  25.189  1.00  0.00     0.022 A 
ATOM     11  N   UNL A   1      32.338  22.591  23.754  1.00  0.00    -0.314 N 
ATOM     12  C   UNL A   1      32.965  22.007  24.856  1.00  0.00     0.059 A 
ATOM     13  C   UNL A   1      31.984  21.856  22.613  1.00  0.00     0.092 A 
ATOM     14  C   UNL A   1      32.997  20.577  24.875  1.00  0.00     0.027 A 
ATOM     15  C   UNL A   1      32.181  20.530  22.581  1.00  0.00     0.018 A 
ATOM     16  C   UNL A   1      32.662  19.873  23.778  1.00  0.00     0.004 A 
BRANCH   9  17
ATOM     17  C   UNL A   1      31.293  24.799  23.136  1.00  0.00     0.315 C 
BRANCH  17  18
ATOM     18  N   UNL A   1      29.884  24.686  23.498  1.00  0.00    -0.353 N 
ATOM     19  H   UNL A   1      29.402  24.106  22.813  1.00  0.00     0.344 HD
ATOM     20  H   UNL A   1      29.462  25.614  23.514  1.00  0.00     0.344 HD
ATOM     21  H   UNL A   1      29.804  24.260  24.421  1.00  0.00     0.344 HD
ENDBRANCH  17  18
ENDBRANCH   9  17
BRANCH  10  22
ATOM     22  C   UNL A   1      32.844  25.563  25.775  1.00  0.00    -0.016 A 
ATOM     23  C   UNL A   1      31.741  26.051  26.483  1.00  0.00     0.009 A 
ATOM     24  C   UNL A   1      33.959  26.391  25.586  1.00  0.00     0.009 A 
ATOM     25  C   UNL A   1      31.750  27.355  26.987  1.00  0.00     0.001 A 
ATOM     26  C   UNL A   1      33.970  27.690  26.097  1.00  0.00     0.001 A 
ATOM     27  C   UNL A   1      32.863  28.173  26.793  1.00  0.00     0.000 A 
ENDBRANCH  10  22
ENDBRANCH   5   8
ENDBRANCH   3   4
ENDBRANCH   2   3
ENDBRANCH   1   2
BRANCH   1  28
ATOM     28  C   UNL A   1      36.992  20.081  24.976  1.00  0.00     0.002 C 
BRANCH  28  29
ATOM     29  C   UNL A   1      38.434  19.598  24.813  1.00  0.00     0.021 C 
BRANCH  29  30
ATOM     30  C   UNL A   1      39.318  19.684  26.052  1.00  0.00     0.116 C 
BRANCH  30  31
ATOM     31  N   UNL A   1      40.618  19.063  25.872  1.00  0.00    -0.352 N 
ATOM     32  C   UNL A   1      41.876  19.597  26.019  1.00  0.00     0.251 C 
ATOM     33  H   UNL A   1      40.595  18.117  25.603  1.00  0.00     0.163 HD
ATOM     34  O   UNL A   1      42.862  18.947  25.696  1.00  0.00    -0.269 OA
BRANCH  32  35
ATOM     35  C   UNL A   1      42.044  20.973  26.539  1.00  0.00     0.039 A 
ATOM     36  C   UNL A   1      41.969  21.182  27.919  1.00  0.00     0.014 A 
ATOM     37  C   UNL A   1      42.269  22.051  25.679  1.00  0.00     0.014 A 
ATOM     38  C   UNL A   1      42.194  22.457  28.442  1.00  0.00     0.010 A 
ATOM     39  C   UNL A   1      42.564  23.308  26.206  1.00  0.00     0.010 A 
ATOM     40  C   UNL A   1      42.536  23.523  27.592  1.00  0.00    -0.014 A 
BRANCH  40  41
ATOM     41  C   UNL A   1      42.889  24.858  28.137  1.00  0.00     0.031 A 
ATOM     42  C   UNL A   1      41.828  25.902  28.348  1.00  0.00     0.074 A 
ATOM     43  C   UNL A   1      44.182  25.156  28.378  1.00  0.00     0.049 A 
ATOM     44  N   UNL A   1      41.956  27.141  28.750  1.00  0.00    -0.248 NA
ATOM     45  C   UNL A   1      40.442  25.508  28.046  1.00  0.00     0.031 C 
ATOM     46  C   UNL A   1      45.311  24.244  28.185  1.00  0.00     0.029 A 
ATOM     47  N   UNL A   1      44.764  26.314  28.830  1.00  0.00    -0.354 N 
ATOM     48  C   UNL A   1      40.675  27.677  28.736  1.00  0.00     0.074 A 
ATOM     49  C   UNL A   1      39.791  26.646  28.239  1.00  0.00     0.031 C 
ATOM     50  C   UNL A   1      46.445  24.868  28.542  1.00  0.00     0.029 A 
ATOM     51  C   UNL A   1      46.131  26.236  28.941  1.00  0.00     0.049 A 
ATOM     52  H   UNL A   1      44.250  27.124  29.053  1.00  0.00     0.167 HD
ATOM     53  C   UNL A   1      40.268  28.911  29.117  1.00  0.00     0.031 A 
ATOM     54  C   UNL A   1      47.034  27.164  29.311  1.00  0.00     0.031 A 
ATOM     55  C   UNL A   1      41.148  29.938  29.611  1.00  0.00     0.049 A 
ATOM     56  C   UNL A   1      46.561  28.539  29.693  1.00  0.00     0.074 A 
ATOM     57  C   UNL A   1      40.824  31.202  30.071  1.00  0.00     0.029 A 
ATOM     58  N   UNL A   1      42.526  29.822  29.698  1.00  0.00    -0.354 N 
ATOM     59  N   UNL A   1      45.338  29.008  29.738  1.00  0.00    -0.248 NA
ATOM     60  C   UNL A   1      47.595  29.510  30.081  1.00  0.00     0.031 C 
ATOM     61  C   UNL A   1      42.011  31.873  30.380  1.00  0.00     0.029 A 
ATOM     62  C   UNL A   1      43.070  31.004  30.175  1.00  0.00     0.049 A 
ATOM     63  H   UNL A   1      43.042  29.018  29.459  1.00  0.00     0.167 HD
ATOM     64  C   UNL A   1      45.451  30.319  30.185  1.00  0.00     0.074 A 
ATOM     65  C   UNL A   1      46.862  30.563  30.412  1.00  0.00     0.031 C 
ATOM     66  C   UNL A   1      44.475  31.236  30.390  1.00  0.00     0.031 A 
BRANCH  53  67
ATOM     67  C   UNL A   1      38.801  29.224  29.000  1.00  0.00    -0.014 A 
ATOM     68  C   UNL A   1      38.244  29.673  27.791  1.00  0.00     0.009 A 
ATOM     69  C   UNL A   1      37.956  29.036  30.105  1.00  0.00     0.009 A 
ATOM     70  C   UNL A   1      36.881  29.965  27.703  1.00  0.00     0.001 A 
ATOM     71  C   UNL A   1      36.588  29.298  30.006  1.00  0.00     0.001 A 
ATOM     72  C   UNL A   1      36.054  29.773  28.809  1.00  0.00     0.000 A 
ENDBRANCH  53  67
BRANCH  54  73
ATOM     73  C   UNL A   1      48.480  26.823  29.344  1.00  0.00    -0.014 A 
ATOM     74  C   UNL A   1      49.058  26.280  30.502  1.00  0.00     0.009 A 
ATOM     75  C   UNL A   1      49.293  27.041  28.220  1.00  0.00     0.009 A 
ATOM     76  C   UNL A   1      50.424  25.987  30.542  1.00  0.00     0.001 A 
ATOM     77  C   UNL A   1      50.651  26.718  28.252  1.00  0.00     0.001 A 
ATOM     78  C   UNL A   1      51.218  26.201  29.416  1.00  0.00     0.000 A 
ENDBRANCH  54  73
BRANCH  66  79
ATOM     79  C   UNL A   1      44.894  32.582  30.914  1.00  0.00    -0.014 A 
ATOM     80  C   UNL A   1      44.996  32.831  32.291  1.00  0.00     0.009 A 
ATOM     81  C   UNL A   1      45.234  33.602  30.012  1.00  0.00     0.009 A 
ATOM     82  C   UNL A   1      45.401  34.085  32.754  1.00  0.00     0.001 A 
ATOM     83  C   UNL A   1      45.669  34.844  30.477  1.00  0.00     0.001 A 
ATOM     84  C   UNL A   1      45.743  35.087  31.847  1.00  0.00     0.000 A 
ENDBRANCH  66  79
ENDBRANCH  40  41
ENDBRANCH  32  35
ENDBRANCH  30  31
ENDBRANCH  29  30
ENDBRANCH  28  29
ENDBRANCH   1  28
TORSDOF 16
ENDMDL
