MODEL 1
REMARK VINA RESULT:     -13.3      0.000      0.000
REMARK SMILES COc1ccc(/C=C2/C(=O)N(c3ccccc3)C(=O)[NH+]=C2NCCCCCCNC(=O)c2ccc(-c3c4nc(c(-c5ccccc5)c5ccc([nH]5)c(-c5ccccc5)c5nc(c(-c6ccccc6)c6ccc3[nH]6)C=C5)C=C4)cc2)cc1C(=O)[O-]
REMARK SMILES IDX 26 1 25 2 24 3 23 4 22 5 7 6 8 7 9 8 21 9 10 10 11 11 20 12
REMARK SMILES IDX 18 13 19 16 6 17 3 18 4 19 81 20 5 21 80 22 2 23 1 24 82 25
REMARK SMILES IDX 83 26 84 27 12 28 13 29 17 30 14 31 16 32 15 33 27 34 28 35
REMARK SMILES IDX 29 36 30 37 31 39 32 40 33 41 79 42 34 43 78 44 35 45 36 46
REMARK SMILES IDX 37 47 72 48 38 49 77 50 71 51 73 52 39 53 76 54 70 55 69 56
REMARK SMILES IDX 40 58 62 59 47 60 61 61 48 62 51 63 60 64 74 65 49 66 50 67
REMARK SMILES IDX 59 69 75 70 52 71 41 72 42 73 46 74 43 75 45 76 44 77 63 78
REMARK SMILES IDX 64 79 68 80 65 81 67 82 66 83 53 84 54 85 58 86 55 87 57 88
REMARK SMILES IDX 56 89
REMARK H PARENT 20 14 22 15 29 38 73 57 51 68
REMARK Flexibility Score: inf
ROOT
ATOM      1  C   UNL A   1      39.171  22.441  26.346  1.00  0.00     0.002 C 
ENDROOT
BRANCH   1   2
ATOM      2  C   UNL A   1      37.962  23.416  26.145  1.00  0.00     0.003 C 
BRANCH   2   3
ATOM      3  C   UNL A   1      36.715  23.608  24.867  1.00  0.00     0.037 C 
BRANCH   3   4
ATOM      4  C   UNL A   1      34.707  24.475  24.742  1.00  0.00     0.194 C 
BRANCH   4   5
ATOM      5  N   UNL A   1      34.072  25.502  23.626  1.00  0.00    -0.305 N 
ATOM      6  C   UNL A   1      31.724  25.045  25.477  1.00  0.00     0.030 C 
ATOM      7  C   UNL A   1      31.899  26.155  24.754  1.00  0.00     0.129 C 
ATOM      8  C   UNL A   1      31.073  27.358  24.947  1.00  0.00     0.328 C 
ATOM      9  C   UNL A   1      32.870  26.192  23.636  1.00  0.00     0.236 C 
ATOM     10  O   UNL A   1      30.646  27.660  26.059  1.00  0.00    -0.249 OA
ATOM     11  N   UNL A   1      30.855  28.032  23.762  1.00  0.00    -0.155 N 
ATOM     12  N   UNL A   1      32.534  26.867  22.572  1.00  0.00    -0.209 N 
ATOM     13  C   UNL A   1      31.293  27.485  22.559  1.00  0.00     0.448 C 
ATOM     14  H   UNL A   1      33.144  26.936  21.802  1.00  0.00     0.270 HD
ATOM     15  H   UNL A   1      34.631  25.648  22.829  1.00  0.00     0.256 HD
ATOM     16  O   UNL A   1      30.610  27.505  21.537  1.00  0.00    -0.212 OA
BRANCH   6  17
ATOM     17  C   UNL A   1      32.743  24.022  25.311  1.00  0.00    -0.024 A 
ATOM     18  C   UNL A   1      33.946  20.624  25.296  1.00  0.00     0.127 A 
ATOM     19  C   UNL A   1      34.349  21.706  26.689  1.00  0.00     0.048 A 
ATOM     20  C   UNL A   1      32.875  21.209  23.989  1.00  0.00     0.040 A 
ATOM     21  C   UNL A   1      33.824  23.455  26.662  1.00  0.00     0.012 A 
ATOM     22  C   UNL A   1      32.330  22.902  23.965  1.00  0.00     0.022 A 
BRANCH  18  23
ATOM     23  O   UNL A   1      34.643  19.451  25.156  1.00  0.00    -0.496 OA
ATOM     24  C   UNL A   1      36.022  19.736  24.868  1.00  0.00     0.278 C 
ENDBRANCH  18  23
BRANCH  20  25
ATOM     25  C   UNL A   1      32.314  20.331  22.952  1.00  0.00     0.075 C 
ATOM     26  O   UNL A   1      32.202  19.125  23.045  1.00  0.00    -0.545 OA
ATOM     27  O   UNL A   1      31.990  21.009  21.845  1.00  0.00    -0.545 OA
ENDBRANCH  20  25
ENDBRANCH   6  17
BRANCH  11  28
ATOM     28  C   UNL A   1      29.924  29.095  23.762  1.00  0.00     0.111 A 
ATOM     29  C   UNL A   1      30.293  30.387  24.151  1.00  0.00     0.044 A 
ATOM     30  C   UNL A   1      28.636  28.852  23.272  1.00  0.00     0.044 A 
ATOM     31  C   UNL A   1      29.373  31.431  24.044  1.00  0.00     0.004 A 
ATOM     32  C   UNL A   1      27.720  29.898  23.169  1.00  0.00     0.004 A 
ATOM     33  C   UNL A   1      28.089  31.187  23.551  1.00  0.00     0.000 A 
ENDBRANCH  11  28
ENDBRANCH   4   5
ENDBRANCH   3   4
ENDBRANCH   2   3
ENDBRANCH   1   2
BRANCH   1  34
ATOM     34  C   UNL A   1      39.302  21.099  25.595  1.00  0.00     0.021 C 
BRANCH  34  35
ATOM     35  C   UNL A   1      39.840  19.929  26.411  1.00  0.00     0.116 C 
BRANCH  35  36
ATOM     36  N   UNL A   1      41.041  19.317  25.884  1.00  0.00    -0.352 N 
ATOM     37  C   UNL A   1      42.296  19.884  25.811  1.00  0.00     0.251 C 
ATOM     38  H   UNL A   1      40.952  18.400  25.540  1.00  0.00     0.163 HD
ATOM     39  O   UNL A   1      43.203  19.299  25.226  1.00  0.00    -0.269 OA
BRANCH  37  40
ATOM     40  C   UNL A   1      42.556  21.223  26.408  1.00  0.00     0.039 A 
ATOM     41  C   UNL A   1      42.429  21.372  27.792  1.00  0.00     0.014 A 
ATOM     42  C   UNL A   1      42.870  22.338  25.623  1.00  0.00     0.014 A 
ATOM     43  C   UNL A   1      42.627  22.623  28.386  1.00  0.00     0.010 A 
ATOM     44  C   UNL A   1      43.124  23.578  26.223  1.00  0.00     0.010 A 
ATOM     45  C   UNL A   1      42.981  23.741  27.610  1.00  0.00    -0.014 A 
BRANCH  45  46
ATOM     46  C   UNL A   1      43.147  25.074  28.255  1.00  0.00     0.031 A 
ATOM     47  C   UNL A   1      44.509  25.559  28.678  1.00  0.00     0.074 A 
ATOM     48  C   UNL A   1      42.076  25.874  28.438  1.00  0.00     0.049 A 
ATOM     49  N   UNL A   1      44.860  26.732  29.149  1.00  0.00    -0.248 NA
ATOM     50  C   UNL A   1      45.621  24.602  28.572  1.00  0.00     0.031 C 
ATOM     51  C   UNL A   1      40.694  25.526  28.108  1.00  0.00     0.029 A 
ATOM     52  N   UNL A   1      41.990  27.156  28.926  1.00  0.00    -0.354 N 
ATOM     53  C   UNL A   1      46.226  26.651  29.392  1.00  0.00     0.074 A 
ATOM     54  C   UNL A   1      46.630  25.299  29.073  1.00  0.00     0.031 C 
ATOM     55  C   UNL A   1      39.904  26.583  28.358  1.00  0.00     0.029 A 
ATOM     56  C   UNL A   1      40.718  27.675  28.887  1.00  0.00     0.049 A 
ATOM     57  H   UNL A   1      42.765  27.654  29.271  1.00  0.00     0.167 HD
ATOM     58  C   UNL A   1      47.077  27.617  29.816  1.00  0.00     0.031 A 
ATOM     59  C   UNL A   1      40.256  28.896  29.222  1.00  0.00     0.031 A 
ATOM     60  C   UNL A   1      46.688  28.966  30.134  1.00  0.00     0.049 A 
ATOM     61  C   UNL A   1      41.217  29.947  29.707  1.00  0.00     0.074 A 
ATOM     62  C   UNL A   1      47.490  30.026  30.521  1.00  0.00     0.029 A 
ATOM     63  N   UNL A   1      45.385  29.438  30.111  1.00  0.00    -0.354 N 
ATOM     64  N   UNL A   1      42.517  29.877  29.850  1.00  0.00    -0.248 NA
ATOM     65  C   UNL A   1      40.642  31.253  30.064  1.00  0.00     0.031 C 
ATOM     66  C   UNL A   1      46.665  31.126  30.786  1.00  0.00     0.029 A 
ATOM     67  C   UNL A   1      45.357  30.765  30.507  1.00  0.00     0.049 A 
ATOM     68  H   UNL A   1      44.597  28.908  29.851  1.00  0.00     0.167 HD
ATOM     69  C   UNL A   1      42.919  31.132  30.289  1.00  0.00     0.074 A 
ATOM     70  C   UNL A   1      41.727  31.951  30.369  1.00  0.00     0.031 C 
ATOM     71  C   UNL A   1      44.165  31.569  30.597  1.00  0.00     0.031 A 
BRANCH  58  72
ATOM     72  C   UNL A   1      48.526  27.241  29.970  1.00  0.00    -0.014 A 
ATOM     73  C   UNL A   1      49.429  27.374  28.903  1.00  0.00     0.009 A 
ATOM     74  C   UNL A   1      49.002  26.781  31.208  1.00  0.00     0.009 A 
ATOM     75  C   UNL A   1      50.769  27.011  29.060  1.00  0.00     0.001 A 
ATOM     76  C   UNL A   1      50.349  26.448  31.370  1.00  0.00     0.001 A 
ATOM     77  C   UNL A   1      51.228  26.552  30.293  1.00  0.00     0.000 A 
ENDBRANCH  58  72
BRANCH  59  78
ATOM     78  C   UNL A   1      38.809  29.208  29.081  1.00  0.00    -0.014 A 
ATOM     79  C   UNL A   1      38.292  29.673  27.862  1.00  0.00     0.009 A 
ATOM     80  C   UNL A   1      37.938  29.050  30.171  1.00  0.00     0.009 A 
ATOM     81  C   UNL A   1      36.939  29.997  27.745  1.00  0.00     0.001 A 
ATOM     82  C   UNL A   1      36.581  29.348  30.042  1.00  0.00     0.001 A 
ATOM     83  C   UNL A   1      36.083  29.829  28.832  1.00  0.00     0.000 A 
ENDBRANCH  59  78
BRANCH  71  84
ATOM     84  C   UNL A   1      44.307  33.001  31.032  1.00  0.00    -0.014 A 
ATOM     85  C   UNL A   1      44.253  33.359  32.388  1.00  0.00     0.009 A 
ATOM     86  C   UNL A   1      44.534  34.002  30.074  1.00  0.00     0.009 A 
ATOM     87  C   UNL A   1      44.387  34.695  32.773  1.00  0.00     0.001 A 
ATOM     88  C   UNL A   1      44.697  35.333  30.464  1.00  0.00     0.001 A 
ATOM     89  C   UNL A   1      44.613  35.680  31.812  1.00  0.00     0.000 A 
ENDBRANCH  71  84
ENDBRANCH  45  46
ENDBRANCH  37  40
ENDBRANCH  35  36
ENDBRANCH  34  35
ENDBRANCH   1  34
TORSDOF 16
ENDMDL
MODEL 2
REMARK VINA RESULT:     -13.3      3.280      9.301
REMARK SMILES COc1ccc(/C=C2/C(=O)N(c3ccccc3)C(=O)[NH+]=C2NCCCCCCNC(=O)c2ccc(-c3c4nc(c(-c5ccccc5)c5ccc([nH]5)c(-c5ccccc5)c5nc(c(-c6ccccc6)c6ccc3[nH]6)C=C5)C=C4)cc2)cc1C(=O)[O-]
REMARK SMILES IDX 26 1 25 2 24 3 23 4 22 5 7 6 8 7 9 8 21 9 10 10 11 11 20 12
REMARK SMILES IDX 18 13 19 16 6 17 3 18 4 19 81 20 5 21 80 22 2 23 1 24 82 25
REMARK SMILES IDX 83 26 84 27 12 28 13 29 17 30 14 31 16 32 15 33 27 34 28 35
REMARK SMILES IDX 29 36 30 37 31 39 32 40 33 41 79 42 34 43 78 44 35 45 36 46
REMARK SMILES IDX 37 47 72 48 38 49 77 50 71 51 73 52 39 53 76 54 70 55 69 56
REMARK SMILES IDX 40 58 62 59 47 60 61 61 48 62 51 63 60 64 74 65 49 66 50 67
REMARK SMILES IDX 59 69 75 70 52 71 41 72 42 73 46 74 43 75 45 76 44 77 63 78
REMARK SMILES IDX 64 79 68 80 65 81 67 82 66 83 53 84 54 85 58 86 55 87 57 88
REMARK SMILES IDX 56 89
REMARK H PARENT 20 14 22 15 29 38 73 57 51 68
REMARK Flexibility Score: inf
ROOT
ATOM      1  C   UNL A   1      34.070  30.885  27.762  1.00  0.00     0.002 C 
ENDROOT
BRANCH   1   2
ATOM      2  C   UNL A   1      34.259  29.544  26.974  1.00  0.00     0.003 C 
BRANCH   2   3
ATOM      3  C   UNL A   1      33.609  28.907  25.426  1.00  0.00     0.037 C 
BRANCH   3   4
ATOM      4  C   UNL A   1      32.439  27.162  24.807  1.00  0.00     0.194 C 
BRANCH   4   5
ATOM      5  N   UNL A   1      32.220  25.719  25.565  1.00  0.00    -0.305 N 
ATOM      6  C   UNL A   1      31.942  24.955  22.652  1.00  0.00     0.030 C 
ATOM      7  C   UNL A   1      32.364  24.119  23.605  1.00  0.00     0.129 C 
ATOM      8  C   UNL A   1      32.938  22.800  23.297  1.00  0.00     0.328 C 
ATOM      9  C   UNL A   1      32.171  24.438  25.039  1.00  0.00     0.236 C 
ATOM     10  O   UNL A   1      33.601  22.621  22.278  1.00  0.00    -0.249 OA
ATOM     11  N   UNL A   1      32.622  21.860  24.257  1.00  0.00    -0.155 N 
ATOM     12  N   UNL A   1      31.873  23.451  25.838  1.00  0.00    -0.209 N 
ATOM     13  C   UNL A   1      31.744  22.185  25.288  1.00  0.00     0.448 C 
ATOM     14  H   UNL A   1      31.744  23.601  26.803  1.00  0.00     0.270 HD
ATOM     15  H   UNL A   1      32.106  25.775  26.541  1.00  0.00     0.256 HD
ATOM     16  O   UNL A   1      30.866  21.416  25.675  1.00  0.00    -0.212 OA
BRANCH   6  17
ATOM     17  C   UNL A   1      31.591  26.293  23.101  1.00  0.00    -0.024 A 
ATOM     18  C   UNL A   1      29.815  29.421  22.874  1.00  0.00     0.127 A 
ATOM     19  C   UNL A   1      31.557  29.347  22.387  1.00  0.00     0.048 A 
ATOM     20  C   UNL A   1      28.960  27.930  23.367  1.00  0.00     0.040 A 
ATOM     21  C   UNL A   1      32.490  27.790  22.587  1.00  0.00     0.012 A 
ATOM     22  C   UNL A   1      29.849  26.398  23.535  1.00  0.00     0.022 A 
BRANCH  18  23
ATOM     23  O   UNL A   1      29.242  30.652  23.067  1.00  0.00    -0.496 OA
ATOM     24  C   UNL A   1      28.733  31.154  21.820  1.00  0.00     0.278 C 
ENDBRANCH  18  23
BRANCH  20  25
ATOM     25  C   UNL A   1      27.503  27.860  23.551  1.00  0.00     0.075 C 
ATOM     26  O   UNL A   1      26.711  28.696  23.168  1.00  0.00    -0.545 OA
ATOM     27  O   UNL A   1      27.140  26.781  24.255  1.00  0.00    -0.545 OA
ENDBRANCH  20  25
ENDBRANCH   6  17
BRANCH  11  28
ATOM     28  C   UNL A   1      32.942  20.508  23.998  1.00  0.00     0.111 A 
ATOM     29  C   UNL A   1      33.945  19.847  24.714  1.00  0.00     0.044 A 
ATOM     30  C   UNL A   1      32.168  19.808  23.066  1.00  0.00     0.044 A 
ATOM     31  C   UNL A   1      34.166  18.486  24.498  1.00  0.00     0.004 A 
ATOM     32  C   UNL A   1      32.395  18.448  22.853  1.00  0.00     0.004 A 
ATOM     33  C   UNL A   1      33.390  17.787  23.571  1.00  0.00     0.000 A 
ENDBRANCH  11  28
ENDBRANCH   4   5
ENDBRANCH   3   4
ENDBRANCH   2   3
ENDBRANCH   1   2
BRANCH   1  34
ATOM     34  C   UNL A   1      32.789  31.740  27.672  1.00  0.00     0.021 C 
BRANCH  34  35
ATOM     35  C   UNL A   1      32.947  33.111  27.027  1.00  0.00     0.116 C 
BRANCH  35  36
ATOM     36  N   UNL A   1      32.547  34.227  27.856  1.00  0.00    -0.352 N 
ATOM     37  C   UNL A   1      33.181  34.686  28.991  1.00  0.00     0.251 C 
ATOM     38  H   UNL A   1      31.734  34.710  27.582  1.00  0.00     0.163 HD
ATOM     39  O   UNL A   1      32.666  35.567  29.672  1.00  0.00    -0.269 OA
BRANCH  37  40
ATOM     40  C   UNL A   1      34.478  34.095  29.422  1.00  0.00     0.039 A 
ATOM     41  C   UNL A   1      35.619  34.362  28.660  1.00  0.00     0.014 A 
ATOM     42  C   UNL A   1      34.575  33.243  30.529  1.00  0.00     0.014 A 
ATOM     43  C   UNL A   1      36.848  33.794  29.011  1.00  0.00     0.010 A 
ATOM     44  C   UNL A   1      35.816  32.721  30.913  1.00  0.00     0.010 A 
ATOM     45  C   UNL A   1      36.963  32.969  30.144  1.00  0.00    -0.014 A 
BRANCH  45  46
ATOM     46  C   UNL A   1      38.272  32.338  30.477  1.00  0.00     0.031 A 
ATOM     47  C   UNL A   1      39.171  32.941  31.526  1.00  0.00     0.074 A 
ATOM     48  C   UNL A   1      38.650  31.200  29.861  1.00  0.00     0.049 A 
ATOM     49  N   UNL A   1      40.288  32.472  32.026  1.00  0.00    -0.248 NA
ATOM     50  C   UNL A   1      38.772  34.246  32.075  1.00  0.00     0.031 C 
ATOM     51  C   UNL A   1      37.900  30.520  28.804  1.00  0.00     0.029 A 
ATOM     52  N   UNL A   1      39.752  30.401  30.053  1.00  0.00    -0.354 N 
ATOM     53  C   UNL A   1      40.721  33.420  32.946  1.00  0.00     0.074 A 
ATOM     54  C   UNL A   1      39.779  34.517  32.892  1.00  0.00     0.031 C 
ATOM     55  C   UNL A   1      38.536  29.385  28.475  1.00  0.00     0.029 A 
ATOM     56  C   UNL A   1      39.751  29.267  29.278  1.00  0.00     0.049 A 
ATOM     57  H   UNL A   1      40.473  30.621  30.685  1.00  0.00     0.167 HD
ATOM     58  C   UNL A   1      41.788  33.375  33.780  1.00  0.00     0.031 A 
ATOM     59  C   UNL A   1      40.618  28.236  29.228  1.00  0.00     0.031 A 
ATOM     60  C   UNL A   1      42.730  32.290  33.844  1.00  0.00     0.049 A 
ATOM     61  C   UNL A   1      41.806  28.217  30.151  1.00  0.00     0.074 A 
ATOM     62  C   UNL A   1      43.811  32.134  34.695  1.00  0.00     0.029 A 
ATOM     63  N   UNL A   1      42.709  31.176  33.020  1.00  0.00    -0.354 N 
ATOM     64  N   UNL A   1      42.151  29.082  31.072  1.00  0.00    -0.248 NA
ATOM     65  C   UNL A   1      42.715  27.067  30.035  1.00  0.00     0.031 C 
ATOM     66  C   UNL A   1      44.477  30.953  34.348  1.00  0.00     0.029 A 
ATOM     67  C   UNL A   1      43.776  30.345  33.319  1.00  0.00     0.049 A 
ATOM     68  H   UNL A   1      42.034  31.002  32.324  1.00  0.00     0.167 HD
ATOM     69  C   UNL A   1      43.301  28.571  31.661  1.00  0.00     0.074 A 
ATOM     70  C   UNL A   1      43.583  27.310  31.006  1.00  0.00     0.031 C 
ATOM     71  C   UNL A   1      44.056  29.099  32.655  1.00  0.00     0.031 A 
BRANCH  58  72
ATOM     72  C   UNL A   1      41.999  34.553  34.693  1.00  0.00    -0.014 A 
ATOM     73  C   UNL A   1      41.416  34.597  35.970  1.00  0.00     0.009 A 
ATOM     74  C   UNL A   1      42.819  35.617  34.286  1.00  0.00     0.009 A 
ATOM     75  C   UNL A   1      41.614  35.702  36.802  1.00  0.00     0.001 A 
ATOM     76  C   UNL A   1      43.040  36.707  35.132  1.00  0.00     0.001 A 
ATOM     77  C   UNL A   1      42.427  36.753  36.384  1.00  0.00     0.000 A 
ENDBRANCH  58  72
BRANCH  59  78
ATOM     78  C   UNL A   1      40.382  27.111  28.285  1.00  0.00    -0.014 A 
ATOM     79  C   UNL A   1      40.905  27.145  26.983  1.00  0.00     0.009 A 
ATOM     80  C   UNL A   1      39.622  25.999  28.680  1.00  0.00     0.009 A 
ATOM     81  C   UNL A   1      40.651  26.102  26.090  1.00  0.00     0.001 A 
ATOM     82  C   UNL A   1      39.395  24.944  27.795  1.00  0.00     0.001 A 
ATOM     83  C   UNL A   1      39.902  25.000  26.498  1.00  0.00     0.000 A 
ENDBRANCH  59  78
BRANCH  71  84
ATOM     84  C   UNL A   1      45.251  28.306  33.110  1.00  0.00    -0.014 A 
ATOM     85  C   UNL A   1      46.518  28.506  32.541  1.00  0.00     0.009 A 
ATOM     86  C   UNL A   1      45.112  27.371  34.148  1.00  0.00     0.009 A 
ATOM     87  C   UNL A   1      47.615  27.760  32.977  1.00  0.00     0.001 A 
ATOM     88  C   UNL A   1      46.217  26.647  34.603  1.00  0.00     0.001 A 
ATOM     89  C   UNL A   1      47.465  26.835  34.010  1.00  0.00     0.000 A 
ENDBRANCH  71  84
ENDBRANCH  45  46
ENDBRANCH  37  40
ENDBRANCH  35  36
ENDBRANCH  34  35
ENDBRANCH   1  34
TORSDOF 16
ENDMDL
MODEL 3
REMARK VINA RESULT:     -13.0      0.970      5.654
REMARK SMILES COc1ccc(/C=C2/C(=O)N(c3ccccc3)C(=O)[NH+]=C2NCCCCCCNC(=O)c2ccc(-c3c4nc(c(-c5ccccc5)c5ccc([nH]5)c(-c5ccccc5)c5nc(c(-c6ccccc6)c6ccc3[nH]6)C=C5)C=C4)cc2)cc1C(=O)[O-]
REMARK SMILES IDX 26 1 25 2 24 3 23 4 22 5 7 6 8 7 9 8 21 9 10 10 11 11 20 12
REMARK SMILES IDX 18 13 19 16 6 17 3 18 4 19 81 20 5 21 80 22 2 23 1 24 82 25
REMARK SMILES IDX 83 26 84 27 12 28 13 29 17 30 14 31 16 32 15 33 27 34 28 35
REMARK SMILES IDX 29 36 30 37 31 39 32 40 33 41 79 42 34 43 78 44 35 45 36 46
REMARK SMILES IDX 37 47 72 48 38 49 77 50 71 51 73 52 39 53 76 54 70 55 69 56
REMARK SMILES IDX 40 58 62 59 47 60 61 61 48 62 51 63 60 64 74 65 49 66 50 67
REMARK SMILES IDX 59 69 75 70 52 71 41 72 42 73 46 74 43 75 45 76 44 77 63 78
REMARK SMILES IDX 64 79 68 80 65 81 67 82 66 83 53 84 54 85 58 86 55 87 57 88
REMARK SMILES IDX 56 89
REMARK H PARENT 20 14 22 15 29 38 73 57 51 68
REMARK Flexibility Score: inf
ROOT
ATOM      1  C   UNL A   1      39.351  22.889  26.478  1.00  0.00     0.002 C 
ENDROOT
BRANCH   1   2
ATOM      2  C   UNL A   1      38.075  23.755  26.197  1.00  0.00     0.003 C 
BRANCH   2   3
ATOM      3  C   UNL A   1      36.766  23.681  24.971  1.00  0.00     0.037 C 
BRANCH   3   4
ATOM      4  C   UNL A   1      34.733  24.479  24.786  1.00  0.00     0.194 C 
BRANCH   4   5
ATOM      5  N   UNL A   1      34.099  25.490  23.656  1.00  0.00    -0.305 N 
ATOM      6  C   UNL A   1      31.743  25.035  25.497  1.00  0.00     0.030 C 
ATOM      7  C   UNL A   1      31.914  26.140  24.764  1.00  0.00     0.129 C 
ATOM      8  C   UNL A   1      31.079  27.338  24.940  1.00  0.00     0.328 C 
ATOM      9  C   UNL A   1      32.892  26.172  23.652  1.00  0.00     0.236 C 
ATOM     10  O   UNL A   1      30.644  27.648  26.046  1.00  0.00    -0.249 OA
ATOM     11  N   UNL A   1      30.865  28.000  23.748  1.00  0.00    -0.155 N 
ATOM     12  N   UNL A   1      32.559  26.835  22.579  1.00  0.00    -0.209 N 
ATOM     13  C   UNL A   1      31.314  27.444  22.552  1.00  0.00     0.448 C 
ATOM     14  H   UNL A   1      33.173  26.901  21.813  1.00  0.00     0.270 HD
ATOM     15  H   UNL A   1      34.662  25.632  22.861  1.00  0.00     0.256 HD
ATOM     16  O   UNL A   1      30.637  27.450  21.526  1.00  0.00    -0.212 OA
BRANCH   6  17
ATOM     17  C   UNL A   1      32.770  24.017  25.347  1.00  0.00    -0.024 A 
ATOM     18  C   UNL A   1      33.991  20.626  25.360  1.00  0.00     0.127 A 
ATOM     19  C   UNL A   1      34.372  21.716  26.753  1.00  0.00     0.048 A 
ATOM     20  C   UNL A   1      32.933  21.201  24.037  1.00  0.00     0.040 A 
ATOM     21  C   UNL A   1      33.837  23.462  26.713  1.00  0.00     0.012 A 
ATOM     22  C   UNL A   1      32.379  22.891  24.001  1.00  0.00     0.022 A 
BRANCH  18  23
ATOM     23  O   UNL A   1      34.697  19.457  25.232  1.00  0.00    -0.496 OA
ATOM     24  C   UNL A   1      36.048  19.744  24.835  1.00  0.00     0.278 C 
ENDBRANCH  18  23
BRANCH  20  25
ATOM     25  C   UNL A   1      32.390  20.315  22.997  1.00  0.00     0.075 C 
ATOM     26  O   UNL A   1      31.939  20.684  21.932  1.00  0.00    -0.545 OA
ATOM     27  O   UNL A   1      32.388  19.034  23.383  1.00  0.00    -0.545 OA
ENDBRANCH  20  25
ENDBRANCH   6  17
BRANCH  11  28
ATOM     28  C   UNL A   1      29.927  29.057  23.731  1.00  0.00     0.111 A 
ATOM     29  C   UNL A   1      30.282  30.352  24.121  1.00  0.00     0.044 A 
ATOM     30  C   UNL A   1      28.647  28.803  23.225  1.00  0.00     0.044 A 
ATOM     31  C   UNL A   1      29.356  31.390  23.998  1.00  0.00     0.004 A 
ATOM     32  C   UNL A   1      27.726  29.843  23.106  1.00  0.00     0.004 A 
ATOM     33  C   UNL A   1      28.081  31.136  23.488  1.00  0.00     0.000 A 
ENDBRANCH  11  28
ENDBRANCH   4   5
ENDBRANCH   3   4
ENDBRANCH   2   3
ENDBRANCH   1   2
BRANCH   1  34
ATOM     34  C   UNL A   1      39.490  21.422  26.020  1.00  0.00     0.021 C 
BRANCH  34  35
ATOM     35  C   UNL A   1      40.417  20.548  26.855  1.00  0.00     0.116 C 
BRANCH  35  36
ATOM     36  N   UNL A   1      41.543  19.992  26.137  1.00  0.00    -0.352 N 
ATOM     37  C   UNL A   1      42.684  20.657  25.742  1.00  0.00     0.251 C 
ATOM     38  H   UNL A   1      41.489  19.037  25.905  1.00  0.00     0.163 HD
ATOM     39  O   UNL A   1      43.510  20.094  25.028  1.00  0.00    -0.269 OA
BRANCH  37  40
ATOM     40  C   UNL A   1      42.911  22.073  26.143  1.00  0.00     0.039 A 
ATOM     41  C   UNL A   1      43.053  22.365  27.502  1.00  0.00     0.014 A 
ATOM     42  C   UNL A   1      42.933  23.116  25.210  1.00  0.00     0.014 A 
ATOM     43  C   UNL A   1      43.229  23.688  27.923  1.00  0.00     0.010 A 
ATOM     44  C   UNL A   1      43.166  24.432  25.626  1.00  0.00     0.010 A 
ATOM     45  C   UNL A   1      43.291  24.738  26.990  1.00  0.00    -0.014 A 
BRANCH  45  46
ATOM     46  C   UNL A   1      43.436  26.145  27.460  1.00  0.00     0.031 A 
ATOM     47  C   UNL A   1      42.223  26.965  27.814  1.00  0.00     0.074 A 
ATOM     48  C   UNL A   1      44.662  26.687  27.602  1.00  0.00     0.049 A 
ATOM     49  N   UNL A   1      42.161  28.162  28.346  1.00  0.00    -0.248 NA
ATOM     50  C   UNL A   1      40.908  26.372  27.523  1.00  0.00     0.031 C 
ATOM     51  C   UNL A   1      45.924  26.025  27.267  1.00  0.00     0.029 A 
ATOM     52  N   UNL A   1      45.048  27.913  28.088  1.00  0.00    -0.354 N 
ATOM     53  C   UNL A   1      40.807  28.462  28.452  1.00  0.00     0.074 A 
ATOM     54  C   UNL A   1      40.085  27.348  27.877  1.00  0.00     0.031 C 
ATOM     55  C   UNL A   1      46.944  26.832  27.601  1.00  0.00     0.029 A 
ATOM     56  C   UNL A   1      46.411  28.076  28.151  1.00  0.00     0.049 A 
ATOM     57  H   UNL A   1      44.409  28.609  28.363  1.00  0.00     0.167 HD
ATOM     58  C   UNL A   1      40.214  29.550  29.001  1.00  0.00     0.031 A 
ATOM     59  C   UNL A   1      47.153  29.102  28.613  1.00  0.00     0.031 A 
ATOM     60  C   UNL A   1      40.921  30.662  29.578  1.00  0.00     0.049 A 
ATOM     61  C   UNL A   1      46.472  30.307  29.202  1.00  0.00     0.074 A 
ATOM     62  C   UNL A   1      40.403  31.783  30.204  1.00  0.00     0.029 A 
ATOM     63  N   UNL A   1      42.300  30.800  29.592  1.00  0.00    -0.354 N 
ATOM     64  N   UNL A   1      45.193  30.534  29.371  1.00  0.00    -0.248 NA
ATOM     65  C   UNL A   1      47.343  31.392  29.678  1.00  0.00     0.031 C 
ATOM     66  C   UNL A   1      41.466  32.625  30.547  1.00  0.00     0.029 A 
ATOM     67  C   UNL A   1      42.649  32.001  30.186  1.00  0.00     0.049 A 
ATOM     68  H   UNL A   1      42.936  30.140  29.232  1.00  0.00     0.167 HD
ATOM     69  C   UNL A   1      45.106  31.774  29.992  1.00  0.00     0.074 A 
ATOM     70  C   UNL A   1      46.462  32.240  30.190  1.00  0.00     0.031 C 
ATOM     71  C   UNL A   1      44.001  32.463  30.367  1.00  0.00     0.031 A 
BRANCH  58  72
ATOM     72  C   UNL A   1      38.709  29.591  28.995  1.00  0.00    -0.014 A 
ATOM     73  C   UNL A   1      37.968  29.299  30.152  1.00  0.00     0.009 A 
ATOM     74  C   UNL A   1      38.024  29.960  27.827  1.00  0.00     0.009 A 
ATOM     75  C   UNL A   1      36.572  29.333  30.126  1.00  0.00     0.001 A 
ATOM     76  C   UNL A   1      36.629  30.023  27.812  1.00  0.00     0.001 A 
ATOM     77  C   UNL A   1      35.904  29.698  28.959  1.00  0.00     0.000 A 
ENDBRANCH  58  72
BRANCH  59  78
ATOM     78  C   UNL A   1      48.637  29.025  28.568  1.00  0.00    -0.014 A 
ATOM     79  C   UNL A   1      49.349  29.543  27.475  1.00  0.00     0.009 A 
ATOM     80  C   UNL A   1      49.351  28.424  29.617  1.00  0.00     0.009 A 
ATOM     81  C   UNL A   1      50.740  29.438  27.421  1.00  0.00     0.001 A 
ATOM     82  C   UNL A   1      50.744  28.347  29.574  1.00  0.00     0.001 A 
ATOM     83  C   UNL A   1      51.437  28.846  28.473  1.00  0.00     0.000 A 
ENDBRANCH  59  78
BRANCH  71  84
ATOM     84  C   UNL A   1      44.212  33.789  31.046  1.00  0.00    -0.014 A 
ATOM     85  C   UNL A   1      44.238  34.986  30.314  1.00  0.00     0.009 A 
ATOM     86  C   UNL A   1      44.349  33.844  32.442  1.00  0.00     0.009 A 
ATOM     87  C   UNL A   1      44.435  36.207  30.962  1.00  0.00     0.001 A 
ATOM     88  C   UNL A   1      44.516  35.069  33.091  1.00  0.00     0.001 A 
ATOM     89  C   UNL A   1      44.569  36.248  32.349  1.00  0.00     0.000 A 
ENDBRANCH  71  84
ENDBRANCH  45  46
ENDBRANCH  37  40
ENDBRANCH  35  36
ENDBRANCH  34  35
ENDBRANCH   1  34
TORSDOF 16
ENDMDL
