MODEL 1
REMARK VINA RESULT:     -11.2      0.000      0.000
REMARK SMILES N#Cc1ccc(/C=C/C(=O)N2C[C@@H](O)C[C@H]2C(=O)NCCCCCCNC(=O)c2ccc(-c3c4nc(c(-c5ccccc5)c5ccc([nH]5)c(-c5ccccc5)c5nc(c(-c6ccccc6)c6ccc3[nH]6)C=C5)C=C4)cc2)cc1
REMARK SMILES IDX 21 1 20 2 19 3 17 4 18 5 16 7 11 8 12 9 13 10 15 11 9 12
REMARK SMILES IDX 10 13 8 14 7 15 6 16 3 17 4 18 78 19 5 20 77 21 2 22 1 23
REMARK SMILES IDX 14 24 22 26 23 27 24 28 25 29 26 30 27 31 28 33 29 34 30 35
REMARK SMILES IDX 76 36 31 37 75 38 32 39 33 40 34 41 69 42 35 43 74 44 68 45
REMARK SMILES IDX 70 46 36 47 73 48 67 49 66 50 37 52 59 53 44 54 58 55 45 56
REMARK SMILES IDX 48 57 57 58 71 59 46 60 47 61 56 63 72 64 49 65 38 66 39 67
REMARK SMILES IDX 43 68 40 69 42 70 41 71 60 72 61 73 65 74 62 75 64 76 63 77
REMARK SMILES IDX 50 78 51 79 55 80 52 81 54 82 53 83
REMARK H PARENT 19 6 14 25 26 32 70 51 48 62
REMARK Flexibility Score: inf
ROOT
ATOM      1  C   UNL A   1      33.886  28.697  26.296  1.00  0.00     0.021 C 
ENDROOT
BRANCH   1   2
ATOM      2  C   UNL A   1      33.909  27.255  25.811  1.00  0.00     0.116 C 
BRANCH   2   3
ATOM      3  N   UNL A   1      33.817  27.170  24.377  1.00  0.00    -0.354 N 
ATOM      4  C   UNL A   1      33.305  26.181  23.589  1.00  0.00     0.242 C 
ATOM      5  O   UNL A   1      33.160  26.445  22.391  1.00  0.00    -0.273 OA
ATOM      6  H   UNL A   1      34.178  27.944  23.889  1.00  0.00     0.163 HD
BRANCH   4   7
ATOM      7  C   UNL A   1      32.726  24.878  24.183  1.00  0.00     0.177 C 
ATOM      8  N   UNL A   1      31.265  24.750  24.265  1.00  0.00    -0.324 N 
ATOM      9  C   UNL A   1      30.780  23.595  23.525  1.00  0.00     0.152 C 
ATOM     10  C   UNL A   1      32.007  22.708  23.347  1.00  0.00     0.136 C 
ATOM     11  C   UNL A   1      33.201  23.660  23.380  1.00  0.00     0.069 C 
BRANCH   8  12
ATOM     12  C   UNL A   1      30.591  25.522  25.182  1.00  0.00     0.247 C 
ATOM     13  O   UNL A   1      30.231  25.096  26.276  1.00  0.00    -0.270 OA
BRANCH  12  14
ATOM     14  C   UNL A   1      30.242  26.919  24.826  1.00  0.00     0.072 C 
ATOM     15  C   UNL A   1      29.813  27.209  23.586  1.00  0.00     0.014 C 
BRANCH  15  16
ATOM     16  C   UNL A   1      29.322  28.509  23.121  1.00  0.00    -0.025 A 
ATOM     17  C   UNL A   1      28.446  30.906  21.943  1.00  0.00     0.052 A 
ATOM     18  C   UNL A   1      27.526  30.030  22.529  1.00  0.00     0.020 A 
ATOM     19  C   UNL A   1      29.807  30.597  21.970  1.00  0.00     0.020 A 
ATOM     20  C   UNL A   1      27.962  28.836  23.113  1.00  0.00     0.009 A 
ATOM     21  C   UNL A   1      30.240  29.403  22.552  1.00  0.00     0.009 A 
BRANCH  17  22
ATOM     22  C   UNL A   1      27.991  32.101  21.290  1.00  0.00     0.099 C 
ATOM     23  N   UNL A   1      27.637  33.064  20.755  1.00  0.00    -0.192 NA
ENDBRANCH  17  22
ENDBRANCH  15  16
ENDBRANCH  12  14
ENDBRANCH   8  12
BRANCH  10  24
ATOM     24  O   UNL A   1      31.962  21.969  22.137  1.00  0.00    -0.391 OA
ATOM     25  H   UNL A   1      31.821  21.031  22.336  1.00  0.00     0.211 HD
ENDBRANCH  10  24
ENDBRANCH   4   7
ENDBRANCH   2   3
ENDBRANCH   1   2
BRANCH   1  26
ATOM     26  C   UNL A   1      32.762  29.514  25.652  1.00  0.00     0.002 C 
BRANCH  26  27
ATOM     27  C   UNL A   1      31.775  30.134  26.651  1.00  0.00     0.002 C 
BRANCH  27  28
ATOM     28  C   UNL A   1      31.683  31.659  26.585  1.00  0.00     0.021 C 
BRANCH  28  29
ATOM     29  C   UNL A   1      32.817  32.364  27.316  1.00  0.00     0.116 C 
BRANCH  29  30
ATOM     30  N   UNL A   1      32.508  33.766  27.557  1.00  0.00    -0.352 N 
ATOM     31  C   UNL A   1      33.054  34.613  28.487  1.00  0.00     0.251 C 
ATOM     32  H   UNL A   1      31.814  34.156  26.978  1.00  0.00     0.163 HD
ATOM     33  O   UNL A   1      32.535  35.694  28.740  1.00  0.00    -0.269 OA
BRANCH  31  34
ATOM     34  C   UNL A   1      34.278  34.188  29.191  1.00  0.00     0.039 A 
ATOM     35  C   UNL A   1      34.173  33.473  30.384  1.00  0.00     0.014 A 
ATOM     36  C   UNL A   1      35.528  34.461  28.627  1.00  0.00     0.014 A 
ATOM     37  C   UNL A   1      35.330  32.972  30.983  1.00  0.00     0.010 A 
ATOM     38  C   UNL A   1      36.663  33.884  29.174  1.00  0.00     0.010 A 
ATOM     39  C   UNL A   1      36.579  33.142  30.362  1.00  0.00    -0.014 A 
BRANCH  39  40
ATOM     40  C   UNL A   1      37.827  32.589  30.942  1.00  0.00     0.031 A 
ATOM     41  C   UNL A   1      38.439  31.358  30.329  1.00  0.00     0.074 A 
ATOM     42  C   UNL A   1      38.363  33.134  32.051  1.00  0.00     0.049 A 
ATOM     43  N   UNL A   1      39.434  30.627  30.761  1.00  0.00    -0.248 NA
ATOM     44  C   UNL A   1      37.832  30.867  29.079  1.00  0.00     0.031 C 
ATOM     45  C   UNL A   1      37.861  34.322  32.746  1.00  0.00     0.029 A 
ATOM     46  N   UNL A   1      39.447  32.749  32.798  1.00  0.00    -0.354 N 
ATOM     47  C   UNL A   1      39.565  29.594  29.842  1.00  0.00     0.074 A 
ATOM     48  C   UNL A   1      38.507  29.747  28.871  1.00  0.00     0.031 C 
ATOM     49  C   UNL A   1      38.648  34.579  33.803  1.00  0.00     0.029 A 
ATOM     50  C   UNL A   1      39.673  33.544  33.897  1.00  0.00     0.049 A 
ATOM     51  H   UNL A   1      40.011  31.974  32.569  1.00  0.00     0.167 HD
ATOM     52  C   UNL A   1      40.503  28.619  29.793  1.00  0.00     0.031 A 
ATOM     53  C   UNL A   1      40.589  33.435  34.879  1.00  0.00     0.031 A 
ATOM     54  C   UNL A   1      41.555  28.465  30.758  1.00  0.00     0.049 A 
ATOM     55  C   UNL A   1      41.567  32.288  34.844  1.00  0.00     0.074 A 
ATOM     56  C   UNL A   1      42.561  27.516  30.790  1.00  0.00     0.029 A 
ATOM     57  N   UNL A   1      41.740  29.286  31.859  1.00  0.00    -0.354 N 
ATOM     58  N   UNL A   1      41.700  31.340  33.948  1.00  0.00    -0.248 NA
ATOM     59  C   UNL A   1      42.526  32.201  35.955  1.00  0.00     0.031 C 
ATOM     60  C   UNL A   1      43.321  27.727  31.943  1.00  0.00     0.029 A 
ATOM     61  C   UNL A   1      42.836  28.854  32.585  1.00  0.00     0.049 A 
ATOM     62  H   UNL A   1      41.177  30.060  32.090  1.00  0.00     0.167 HD
ATOM     63  C   UNL A   1      42.791  30.581  34.359  1.00  0.00     0.074 A 
ATOM     64  C   UNL A   1      43.286  31.183  35.578  1.00  0.00     0.031 C 
ATOM     65  C   UNL A   1      43.336  29.486  33.777  1.00  0.00     0.031 A 
BRANCH  52  66
ATOM     66  C   UNL A   1      40.436  27.649  28.647  1.00  0.00    -0.014 A 
ATOM     67  C   UNL A   1      39.686  26.466  28.745  1.00  0.00     0.009 A 
ATOM     68  C   UNL A   1      41.084  27.944  27.437  1.00  0.00     0.009 A 
ATOM     69  C   UNL A   1      39.610  25.584  27.667  1.00  0.00     0.001 A 
ATOM     70  C   UNL A   1      40.977  27.076  26.349  1.00  0.00     0.001 A 
ATOM     71  C   UNL A   1      40.248  25.894  26.467  1.00  0.00     0.000 A 
ENDBRANCH  52  66
BRANCH  53  72
ATOM     72  C   UNL A   1      40.634  34.420  35.996  1.00  0.00    -0.014 A 
ATOM     73  C   UNL A   1      39.826  34.248  37.131  1.00  0.00     0.009 A 
ATOM     74  C   UNL A   1      41.427  35.574  35.903  1.00  0.00     0.009 A 
ATOM     75  C   UNL A   1      39.763  35.235  38.117  1.00  0.00     0.001 A 
ATOM     76  C   UNL A   1      41.395  36.542  36.911  1.00  0.00     0.001 A 
ATOM     77  C   UNL A   1      40.549  36.382  38.006  1.00  0.00     0.000 A 
ENDBRANCH  53  72
BRANCH  65  78
ATOM     78  C   UNL A   1      44.582  28.913  34.394  1.00  0.00    -0.014 A 
ATOM     79  C   UNL A   1      45.860  29.378  34.052  1.00  0.00     0.009 A 
ATOM     80  C   UNL A   1      44.460  27.933  35.394  1.00  0.00     0.009 A 
ATOM     81  C   UNL A   1      46.993  28.851  34.680  1.00  0.00     0.001 A 
ATOM     82  C   UNL A   1      45.589  27.437  36.045  1.00  0.00     0.001 A 
ATOM     83  C   UNL A   1      46.854  27.889  35.680  1.00  0.00     0.000 A 
ENDBRANCH  65  78
ENDBRANCH  39  40
ENDBRANCH  31  34
ENDBRANCH  29  30
ENDBRANCH  28  29
ENDBRANCH  27  28
ENDBRANCH  26  27
ENDBRANCH   1  26
TORSDOF 18
ENDMDL
MODEL 2
REMARK VINA RESULT:     -11.0      1.235      5.896
REMARK SMILES N#Cc1ccc(/C=C/C(=O)N2C[C@@H](O)C[C@H]2C(=O)NCCCCCCNC(=O)c2ccc(-c3c4nc(c(-c5ccccc5)c5ccc([nH]5)c(-c5ccccc5)c5nc(c(-c6ccccc6)c6ccc3[nH]6)C=C5)C=C4)cc2)cc1
REMARK SMILES IDX 21 1 20 2 19 3 17 4 18 5 16 7 11 8 12 9 13 10 15 11 9 12
REMARK SMILES IDX 10 13 8 14 7 15 6 16 3 17 4 18 78 19 5 20 77 21 2 22 1 23
REMARK SMILES IDX 14 24 22 26 23 27 24 28 25 29 26 30 27 31 28 33 29 34 30 35
REMARK SMILES IDX 76 36 31 37 75 38 32 39 33 40 34 41 69 42 35 43 74 44 68 45
REMARK SMILES IDX 70 46 36 47 73 48 67 49 66 50 37 52 59 53 44 54 58 55 45 56
REMARK SMILES IDX 48 57 57 58 71 59 46 60 47 61 56 63 72 64 49 65 38 66 39 67
REMARK SMILES IDX 43 68 40 69 42 70 41 71 60 72 61 73 65 74 62 75 64 76 63 77
REMARK SMILES IDX 50 78 51 79 55 80 52 81 54 82 53 83
REMARK H PARENT 19 6 14 25 26 32 70 51 48 62
REMARK Flexibility Score: inf
ROOT
ATOM      1  C   UNL A   1      33.993  28.662  26.408  1.00  0.00     0.021 C 
ENDROOT
BRANCH   1   2
ATOM      2  C   UNL A   1      33.606  27.276  25.916  1.00  0.00     0.116 C 
BRANCH   2   3
ATOM      3  N   UNL A   1      33.679  27.176  24.481  1.00  0.00    -0.354 N 
ATOM      4  C   UNL A   1      33.285  26.168  23.652  1.00  0.00     0.242 C 
ATOM      5  O   UNL A   1      33.270  26.418  22.442  1.00  0.00    -0.273 OA
ATOM      6  H   UNL A   1      34.073  27.956  24.028  1.00  0.00     0.163 HD
BRANCH   4   7
ATOM      7  C   UNL A   1      32.678  24.854  24.191  1.00  0.00     0.177 C 
ATOM      8  N   UNL A   1      31.214  24.734  24.218  1.00  0.00    -0.324 N 
ATOM      9  C   UNL A   1      30.748  23.603  23.432  1.00  0.00     0.152 C 
ATOM     10  C   UNL A   1      31.975  22.712  23.274  1.00  0.00     0.136 C 
ATOM     11  C   UNL A   1      33.173  23.654  23.374  1.00  0.00     0.069 C 
BRANCH   8  12
ATOM     12  C   UNL A   1      30.513  25.488  25.131  1.00  0.00     0.247 C 
ATOM     13  O   UNL A   1      30.134  25.044  26.211  1.00  0.00    -0.270 OA
BRANCH  12  14
ATOM     14  C   UNL A   1      30.157  26.886  24.786  1.00  0.00     0.072 C 
ATOM     15  C   UNL A   1      29.817  27.201  23.525  1.00  0.00     0.014 C 
BRANCH  15  16
ATOM     16  C   UNL A   1      29.330  28.502  23.057  1.00  0.00    -0.025 A 
ATOM     17  C   UNL A   1      28.445  30.893  21.875  1.00  0.00     0.052 A 
ATOM     18  C   UNL A   1      27.539  30.053  22.531  1.00  0.00     0.020 A 
ATOM     19  C   UNL A   1      29.798  30.552  21.833  1.00  0.00     0.020 A 
ATOM     20  C   UNL A   1      27.980  28.862  23.118  1.00  0.00     0.009 A 
ATOM     21  C   UNL A   1      30.236  29.360  22.418  1.00  0.00     0.009 A 
BRANCH  17  22
ATOM     22  C   UNL A   1      27.982  32.084  21.220  1.00  0.00     0.099 C 
ATOM     23  N   UNL A   1      27.614  33.052  20.704  1.00  0.00    -0.192 NA
ENDBRANCH  17  22
ENDBRANCH  15  16
ENDBRANCH  12  14
ENDBRANCH   8  12
BRANCH  10  24
ATOM     24  O   UNL A   1      31.967  22.005  22.044  1.00  0.00    -0.391 OA
ATOM     25  H   UNL A   1      31.605  21.117  22.184  1.00  0.00     0.211 HD
ENDBRANCH  10  24
ENDBRANCH   4   7
ENDBRANCH   2   3
ENDBRANCH   1   2
BRANCH   1  26
ATOM     26  C   UNL A   1      32.895  29.310  27.258  1.00  0.00     0.002 C 
BRANCH  26  27
ATOM     27  C   UNL A   1      31.719  29.877  26.451  1.00  0.00     0.002 C 
BRANCH  27  28
ATOM     28  C   UNL A   1      31.536  31.390  26.578  1.00  0.00     0.021 C 
BRANCH  28  29
ATOM     29  C   UNL A   1      32.810  32.121  26.973  1.00  0.00     0.116 C 
BRANCH  29  30
ATOM     30  N   UNL A   1      32.532  33.482  27.408  1.00  0.00    -0.352 N 
ATOM     31  C   UNL A   1      33.161  34.213  28.384  1.00  0.00     0.251 C 
ATOM     32  H   UNL A   1      31.796  33.939  26.940  1.00  0.00     0.163 HD
ATOM     33  O   UNL A   1      32.672  35.253  28.809  1.00  0.00    -0.269 OA
BRANCH  31  34
ATOM     34  C   UNL A   1      34.436  33.709  28.927  1.00  0.00     0.039 A 
ATOM     35  C   UNL A   1      34.444  33.018  30.138  1.00  0.00     0.014 A 
ATOM     36  C   UNL A   1      35.614  33.884  28.195  1.00  0.00     0.014 A 
ATOM     37  C   UNL A   1      35.633  32.441  30.587  1.00  0.00     0.010 A 
ATOM     38  C   UNL A   1      36.770  33.233  28.597  1.00  0.00     0.010 A 
ATOM     39  C   UNL A   1      36.795  32.513  29.801  1.00  0.00    -0.014 A 
BRANCH  39  40
ATOM     40  C   UNL A   1      38.068  31.878  30.220  1.00  0.00     0.031 A 
ATOM     41  C   UNL A   1      38.984  32.618  31.158  1.00  0.00     0.074 A 
ATOM     42  C   UNL A   1      38.439  30.690  29.705  1.00  0.00     0.049 A 
ATOM     43  N   UNL A   1      40.202  32.319  31.531  1.00  0.00    -0.248 NA
ATOM     44  C   UNL A   1      38.473  33.877  31.728  1.00  0.00     0.031 C 
ATOM     45  C   UNL A   1      37.646  29.876  28.780  1.00  0.00     0.029 A 
ATOM     46  N   UNL A   1      39.590  29.964  29.879  1.00  0.00    -0.354 N 
ATOM     47  C   UNL A   1      40.599  33.351  32.371  1.00  0.00     0.074 A 
ATOM     48  C   UNL A   1      39.527  34.320  32.396  1.00  0.00     0.031 C 
ATOM     49  C   UNL A   1      38.325  28.755  28.487  1.00  0.00     0.029 A 
ATOM     50  C   UNL A   1      39.623  28.796  29.154  1.00  0.00     0.049 A 
ATOM     51  H   UNL A   1      40.324  30.252  30.469  1.00  0.00     0.167 HD
ATOM     52  C   UNL A   1      41.743  33.470  33.084  1.00  0.00     0.031 A 
ATOM     53  C   UNL A   1      40.600  27.877  29.024  1.00  0.00     0.031 A 
ATOM     54  C   UNL A   1      42.810  32.509  33.059  1.00  0.00     0.049 A 
ATOM     55  C   UNL A   1      41.899  28.080  29.763  1.00  0.00     0.074 A 
ATOM     56  C   UNL A   1      44.006  32.532  33.754  1.00  0.00     0.029 A 
ATOM     57  N   UNL A   1      42.806  31.347  32.303  1.00  0.00    -0.354 N 
ATOM     58  N   UNL A   1      42.244  29.044  30.581  1.00  0.00    -0.248 NA
ATOM     59  C   UNL A   1      42.940  27.062  29.563  1.00  0.00     0.031 C 
ATOM     60  C   UNL A   1      44.752  31.414  33.374  1.00  0.00     0.029 A 
ATOM     61  C   UNL A   1      43.987  30.655  32.503  1.00  0.00     0.049 A 
ATOM     62  H   UNL A   1      42.073  31.058  31.712  1.00  0.00     0.167 HD
ATOM     63  C   UNL A   1      43.517  28.717  31.036  1.00  0.00     0.074 A 
ATOM     64  C   UNL A   1      43.878  27.465  30.408  1.00  0.00     0.031 C 
ATOM     65  C   UNL A   1      44.315  29.391  31.898  1.00  0.00     0.031 A 
BRANCH  52  66
ATOM     66  C   UNL A   1      41.894  34.682  33.960  1.00  0.00    -0.014 A 
ATOM     67  C   UNL A   1      41.479  34.659  35.302  1.00  0.00     0.009 A 
ATOM     68  C   UNL A   1      42.506  35.840  33.459  1.00  0.00     0.009 A 
ATOM     69  C   UNL A   1      41.646  35.781  36.114  1.00  0.00     0.001 A 
ATOM     70  C   UNL A   1      42.704  36.949  34.284  1.00  0.00     0.001 A 
ATOM     71  C   UNL A   1      42.267  36.921  35.608  1.00  0.00     0.000 A 
ENDBRANCH  52  66
BRANCH  53  72
ATOM     72  C   UNL A   1      40.415  26.682  28.154  1.00  0.00    -0.014 A 
ATOM     73  C   UNL A   1      40.873  26.689  26.826  1.00  0.00     0.009 A 
ATOM     74  C   UNL A   1      39.717  25.557  28.619  1.00  0.00     0.009 A 
ATOM     75  C   UNL A   1      40.583  25.626  25.968  1.00  0.00     0.001 A 
ATOM     76  C   UNL A   1      39.464  24.476  27.771  1.00  0.00     0.001 A 
ATOM     77  C   UNL A   1      39.879  24.520  26.441  1.00  0.00     0.000 A 
ENDBRANCH  53  72
BRANCH  65  78
ATOM     78  C   UNL A   1      45.620  28.755  32.288  1.00  0.00    -0.014 A 
ATOM     79  C   UNL A   1      46.812  29.024  31.598  1.00  0.00     0.009 A 
ATOM     80  C   UNL A   1      45.663  27.923  33.420  1.00  0.00     0.009 A 
ATOM     81  C   UNL A   1      48.014  28.449  32.018  1.00  0.00     0.001 A 
ATOM     82  C   UNL A   1      46.871  27.381  33.858  1.00  0.00     0.001 A 
ATOM     83  C   UNL A   1      48.043  27.637  33.151  1.00  0.00     0.000 A 
ENDBRANCH  65  78
ENDBRANCH  39  40
ENDBRANCH  31  34
ENDBRANCH  29  30
ENDBRANCH  28  29
ENDBRANCH  27  28
ENDBRANCH  26  27
ENDBRANCH   1  26
TORSDOF 18
ENDMDL
MODEL 3
REMARK VINA RESULT:     -10.6      1.328      1.899
REMARK SMILES N#Cc1ccc(/C=C/C(=O)N2C[C@@H](O)C[C@H]2C(=O)NCCCCCCNC(=O)c2ccc(-c3c4nc(c(-c5ccccc5)c5ccc([nH]5)c(-c5ccccc5)c5nc(c(-c6ccccc6)c6ccc3[nH]6)C=C5)C=C4)cc2)cc1
REMARK SMILES IDX 21 1 20 2 19 3 17 4 18 5 16 7 11 8 12 9 13 10 15 11 9 12
REMARK SMILES IDX 10 13 8 14 7 15 6 16 3 17 4 18 78 19 5 20 77 21 2 22 1 23
REMARK SMILES IDX 14 24 22 26 23 27 24 28 25 29 26 30 27 31 28 33 29 34 30 35
REMARK SMILES IDX 76 36 31 37 75 38 32 39 33 40 34 41 69 42 35 43 74 44 68 45
REMARK SMILES IDX 70 46 36 47 73 48 67 49 66 50 37 52 59 53 44 54 58 55 45 56
REMARK SMILES IDX 48 57 57 58 71 59 46 60 47 61 56 63 72 64 49 65 38 66 39 67
REMARK SMILES IDX 43 68 40 69 42 70 41 71 60 72 61 73 65 74 62 75 64 76 63 77
REMARK SMILES IDX 50 78 51 79 55 80 52 81 54 82 53 83
REMARK H PARENT 19 6 14 25 26 32 70 51 48 62
REMARK Flexibility Score: inf
ROOT
ATOM      1  C   UNL A   1      34.095  28.450  26.157  1.00  0.00     0.021 C 
ENDROOT
BRANCH   1   2
ATOM      2  C   UNL A   1      33.225  27.541  25.300  1.00  0.00     0.116 C 
BRANCH   2   3
ATOM      3  N   UNL A   1      33.991  26.483  24.692  1.00  0.00    -0.354 N 
ATOM      4  C   UNL A   1      33.830  25.131  24.766  1.00  0.00     0.242 C 
ATOM      5  O   UNL A   1      34.499  24.449  23.984  1.00  0.00    -0.273 OA
ATOM      6  H   UNL A   1      34.747  26.782  24.138  1.00  0.00     0.163 HD
BRANCH   4   7
ATOM      7  C   UNL A   1      32.715  24.485  25.619  1.00  0.00     0.177 C 
ATOM      8  N   UNL A   1      31.872  23.462  24.986  1.00  0.00    -0.324 N 
ATOM      9  C   UNL A   1      31.941  22.191  25.690  1.00  0.00     0.152 C 
ATOM     10  C   UNL A   1      32.487  22.543  27.069  1.00  0.00     0.136 C 
ATOM     11  C   UNL A   1      33.309  23.814  26.865  1.00  0.00     0.069 C 
BRANCH   8  12
ATOM     12  C   UNL A   1      30.971  23.861  24.026  1.00  0.00     0.247 C 
ATOM     13  O   UNL A   1      30.652  23.151  23.076  1.00  0.00    -0.270 OA
BRANCH  12  14
ATOM     14  C   UNL A   1      30.386  25.221  24.110  1.00  0.00     0.072 C 
ATOM     15  C   UNL A   1      30.606  26.108  23.126  1.00  0.00     0.014 C 
BRANCH  15  16
ATOM     16  C   UNL A   1      30.005  27.440  23.010  1.00  0.00    -0.025 A 
ATOM     17  C   UNL A   1      28.774  29.966  23.083  1.00  0.00     0.052 A 
ATOM     18  C   UNL A   1      30.163  29.861  22.958  1.00  0.00     0.020 A 
ATOM     19  C   UNL A   1      27.997  28.808  23.144  1.00  0.00     0.020 A 
ATOM     20  C   UNL A   1      30.775  28.604  22.924  1.00  0.00     0.009 A 
ATOM     21  C   UNL A   1      28.611  27.552  23.111  1.00  0.00     0.009 A 
BRANCH  17  22
ATOM     22  C   UNL A   1      28.152  31.256  23.180  1.00  0.00     0.099 C 
ATOM     23  N   UNL A   1      27.664  32.303  23.256  1.00  0.00    -0.192 NA
ENDBRANCH  17  22
ENDBRANCH  15  16
ENDBRANCH  12  14
ENDBRANCH   8  12
BRANCH  10  24
ATOM     24  O   UNL A   1      33.271  21.495  27.616  1.00  0.00    -0.391 OA
ATOM     25  H   UNL A   1      34.065  21.369  27.074  1.00  0.00     0.211 HD
ENDBRANCH  10  24
ENDBRANCH   4   7
ENDBRANCH   2   3
ENDBRANCH   1   2
BRANCH   1  26
ATOM     26  C   UNL A   1      33.280  29.239  27.187  1.00  0.00     0.002 C 
BRANCH  26  27
ATOM     27  C   UNL A   1      31.899  29.693  26.692  1.00  0.00     0.002 C 
BRANCH  27  28
ATOM     28  C   UNL A   1      31.744  31.208  26.554  1.00  0.00     0.021 C 
BRANCH  28  29
ATOM     29  C   UNL A   1      32.932  31.988  27.096  1.00  0.00     0.116 C 
BRANCH  29  30
ATOM     30  N   UNL A   1      32.559  33.350  27.452  1.00  0.00    -0.352 N 
ATOM     31  C   UNL A   1      33.110  34.164  28.408  1.00  0.00     0.251 C 
ATOM     32  H   UNL A   1      31.813  33.736  26.940  1.00  0.00     0.163 HD
ATOM     33  O   UNL A   1      32.547  35.192  28.764  1.00  0.00    -0.269 OA
BRANCH  31  34
ATOM     34  C   UNL A   1      34.395  33.767  29.014  1.00  0.00     0.039 A 
ATOM     35  C   UNL A   1      34.399  32.979  30.164  1.00  0.00     0.014 A 
ATOM     36  C   UNL A   1      35.592  34.141  28.398  1.00  0.00     0.014 A 
ATOM     37  C   UNL A   1      35.613  32.507  30.664  1.00  0.00     0.010 A 
ATOM     38  C   UNL A   1      36.787  33.597  28.842  1.00  0.00     0.010 A 
ATOM     39  C   UNL A   1      36.812  32.782  29.985  1.00  0.00    -0.014 A 
BRANCH  39  40
ATOM     40  C   UNL A   1      38.120  32.266  30.457  1.00  0.00     0.031 A 
ATOM     41  C   UNL A   1      38.642  30.969  29.901  1.00  0.00     0.074 A 
ATOM     42  C   UNL A   1      38.795  32.909  31.430  1.00  0.00     0.049 A 
ATOM     43  N   UNL A   1      39.679  30.266  30.278  1.00  0.00    -0.248 NA
ATOM     44  C   UNL A   1      37.879  30.367  28.793  1.00  0.00     0.031 C 
ATOM     45  C   UNL A   1      38.392  34.170  32.058  1.00  0.00     0.029 A 
ATOM     46  N   UNL A   1      39.963  32.579  32.072  1.00  0.00    -0.354 N 
ATOM     47  C   UNL A   1      39.687  29.144  29.459  1.00  0.00     0.074 A 
ATOM     48  C   UNL A   1      38.515  29.220  28.617  1.00  0.00     0.031 C 
ATOM     49  C   UNL A   1      39.308  34.516  32.978  1.00  0.00     0.029 A 
ATOM     50  C   UNL A   1      40.331  33.476  33.047  1.00  0.00     0.049 A 
ATOM     51  H   UNL A   1      40.488  31.776  31.853  1.00  0.00     0.167 HD
ATOM     52  C   UNL A   1      40.604  28.151  29.392  1.00  0.00     0.031 A 
ATOM     53  C   UNL A   1      41.362  33.448  33.913  1.00  0.00     0.031 A 
ATOM     54  C   UNL A   1      41.769  28.074  30.229  1.00  0.00     0.049 A 
ATOM     55  C   UNL A   1      42.320  32.285  33.873  1.00  0.00     0.074 A 
ATOM     56  C   UNL A   1      42.765  27.114  30.231  1.00  0.00     0.029 A 
ATOM     57  N   UNL A   1      42.097  28.997  31.210  1.00  0.00    -0.354 N 
ATOM     58  N   UNL A   1      42.333  31.249  33.068  1.00  0.00    -0.248 NA
ATOM     59  C   UNL A   1      43.411  32.291  34.858  1.00  0.00     0.031 C 
ATOM     60  C   UNL A   1      43.665  27.424  31.253  1.00  0.00     0.029 A 
ATOM     61  C   UNL A   1      43.272  28.619  31.833  1.00  0.00     0.049 A 
ATOM     62  H   UNL A   1      41.572  29.801  31.429  1.00  0.00     0.167 HD
ATOM     63  C   UNL A   1      43.462  30.515  33.414  1.00  0.00     0.074 A 
ATOM     64  C   UNL A   1      44.111  31.226  34.495  1.00  0.00     0.031 C 
ATOM     65  C   UNL A   1      43.923  29.357  32.883  1.00  0.00     0.031 A 
BRANCH  52  66
ATOM     66  C   UNL A   1      40.388  27.073  28.368  1.00  0.00    -0.014 A 
ATOM     67  C   UNL A   1      40.972  27.158  27.094  1.00  0.00     0.009 A 
ATOM     68  C   UNL A   1      39.639  25.932  28.696  1.00  0.00     0.009 A 
ATOM     69  C   UNL A   1      40.785  26.139  26.160  1.00  0.00     0.001 A 
ATOM     70  C   UNL A   1      39.483  24.898  27.771  1.00  0.00     0.001 A 
ATOM     71  C   UNL A   1      40.049  25.006  26.502  1.00  0.00     0.000 A 
ENDBRANCH  52  66
BRANCH  53  72
ATOM     72  C   UNL A   1      41.554  34.539  34.910  1.00  0.00    -0.014 A 
ATOM     73  C   UNL A   1      42.313  35.675  34.586  1.00  0.00     0.009 A 
ATOM     74  C   UNL A   1      41.044  34.418  36.212  1.00  0.00     0.009 A 
ATOM     75  C   UNL A   1      42.608  36.634  35.558  1.00  0.00     0.001 A 
ATOM     76  C   UNL A   1      41.305  35.400  37.171  1.00  0.00     0.001 A 
ATOM     77  C   UNL A   1      42.104  36.496  36.850  1.00  0.00     0.000 A 
ENDBRANCH  53  72
BRANCH  65  78
ATOM     78  C   UNL A   1      45.233  28.825  33.394  1.00  0.00    -0.014 A 
ATOM     79  C   UNL A   1      45.296  27.892  34.440  1.00  0.00     0.009 A 
ATOM     80  C   UNL A   1      46.424  29.217  32.760  1.00  0.00     0.009 A 
ATOM     81  C   UNL A   1      46.530  27.385  34.858  1.00  0.00     0.001 A 
ATOM     82  C   UNL A   1      47.649  28.681  33.154  1.00  0.00     0.001 A 
ATOM     83  C   UNL A   1      47.702  27.773  34.209  1.00  0.00     0.000 A 
ENDBRANCH  65  78
ENDBRANCH  39  40
ENDBRANCH  31  34
ENDBRANCH  29  30
ENDBRANCH  28  29
ENDBRANCH  27  28
ENDBRANCH  26  27
ENDBRANCH   1  26
TORSDOF 18
ENDMDL
