MODEL 1
REMARK VINA RESULT:     -10.9      0.000      0.000
REMARK SMILES Cc1cc2c(c(C)c1Br)C=C(C(=O)NCCCCCCNC(=O)c1ccc(-c3c4nc(c(-c5ccccc5)c5ccc([nH]5)c(-c5ccccc5)c5nc(c(-c6ccccc6)c6ccc3[nH]6)C=C5)C=C4)cc1)[C@@H](C(F)(F)F)O2
REMARK SMILES IDX 18 1 17 2 16 3 15 4 14 5 12 6 13 7 11 9 1 10 2 11 3 12 8 13
REMARK SMILES IDX 4 14 6 15 9 16 5 17 77 18 7 19 10 20 72 21 73 22 74 23 75 24
REMARK SMILES IDX 76 25 19 26 20 27 21 28 22 29 23 31 24 32 25 33 71 34 26 35
REMARK SMILES IDX 70 36 27 37 28 38 29 39 64 40 30 41 69 42 63 43 65 44 31 45
REMARK SMILES IDX 68 46 62 47 61 48 32 50 54 51 39 52 53 53 40 54 43 55 52 56
REMARK SMILES IDX 66 57 41 58 42 59 51 61 67 62 44 63 33 64 34 65 38 66 35 67
REMARK SMILES IDX 37 68 36 69 55 70 56 71 60 72 57 73 59 74 58 75 45 76 46 77
REMARK SMILES IDX 50 78 47 79 49 80 48 81
REMARK H PARENT 14 8 21 30 65 49 43 60
REMARK Flexibility Score: inf
ROOT
ATOM      1  C   UNL A   1      34.639  24.162  24.269  1.00  0.00     0.002 C 
ENDROOT
BRANCH   1   2
ATOM      2  C   UNL A   1      33.615  23.032  24.441  1.00  0.00     0.002 C 
BRANCH   2   3
ATOM      3  C   UNL A   1      32.275  23.457  25.047  1.00  0.00     0.021 C 
BRANCH   3   4
ATOM      4  C   UNL A   1      31.127  23.481  24.045  1.00  0.00     0.116 C 
BRANCH   4   5
ATOM      5  N   UNL A   1      31.510  24.115  22.797  1.00  0.00    -0.352 N 
ATOM      6  C   UNL A   1      31.660  25.377  22.331  1.00  0.00     0.251 C 
ATOM      7  O   UNL A   1      32.054  25.461  21.163  1.00  0.00    -0.270 OA
ATOM      8  H   UNL A   1      31.716  23.448  22.102  1.00  0.00     0.163 HD
BRANCH   6   9
ATOM      9  C   UNL A   1      31.386  26.624  23.109  1.00  0.00     0.067 C 
ATOM     10  C   UNL A   1      31.522  32.052  26.692  1.00  0.00     0.046 C 
ATOM     11  C   UNL A   1      31.808  30.709  26.076  1.00  0.00    -0.033 A 
ATOM     12  C   UNL A   1      30.890  30.248  25.129  1.00  0.00     0.051 A 
ATOM     13  C   UNL A   1      32.958  29.933  26.334  1.00  0.00     0.024 A 
ATOM     14  C   UNL A   1      31.089  29.044  24.468  1.00  0.00     0.128 A 
ATOM     15  C   UNL A   1      33.165  28.689  25.679  1.00  0.00    -0.026 A 
ATOM     16  Br  UNL A   1      34.261  30.610  27.563  1.00  0.00    -0.050 Br
ATOM     17  C   UNL A   1      32.216  28.259  24.716  1.00  0.00     0.021 A 
ATOM     18  O   UNL A   1      30.135  28.737  23.546  1.00  0.00    -0.475 OA
ATOM     19  C   UNL A   1      34.370  27.818  25.953  1.00  0.00     0.046 C 
ATOM     20  C   UNL A   1      32.383  27.046  23.908  1.00  0.00     0.026 C 
ATOM     21  C   UNL A   1      30.092  27.377  23.056  1.00  0.00     0.314 C 
BRANCH  21  22
ATOM     22  C   UNL A   1      28.936  26.633  23.746  1.00  0.00     0.429 C 
ATOM     23  F   UNL A   1      27.827  27.414  23.781  1.00  0.00    -0.167 F 
ATOM     24  F   UNL A   1      28.580  25.500  23.097  1.00  0.00    -0.167 F 
ATOM     25  F   UNL A   1      29.228  26.284  25.019  1.00  0.00    -0.167 F 
ENDBRANCH  21  22
ENDBRANCH   6   9
ENDBRANCH   4   5
ENDBRANCH   3   4
ENDBRANCH   2   3
ENDBRANCH   1   2
BRANCH   1  26
ATOM     26  C   UNL A   1      36.106  23.745  24.414  1.00  0.00     0.021 C 
BRANCH  26  27
ATOM     27  C   UNL A   1      36.620  23.724  25.849  1.00  0.00     0.116 C 
BRANCH  27  28
ATOM     28  N   UNL A   1      37.641  22.707  26.043  1.00  0.00    -0.352 N 
ATOM     29  C   UNL A   1      38.945  22.853  26.429  1.00  0.00     0.251 C 
ATOM     30  H   UNL A   1      37.352  21.782  25.872  1.00  0.00     0.163 HD
ATOM     31  O   UNL A   1      39.729  21.907  26.333  1.00  0.00    -0.269 OA
BRANCH  29  32
ATOM     32  C   UNL A   1      39.419  24.147  26.953  1.00  0.00     0.039 A 
ATOM     33  C   UNL A   1      40.073  25.030  26.090  1.00  0.00     0.014 A 
ATOM     34  C   UNL A   1      39.242  24.478  28.301  1.00  0.00     0.014 A 
ATOM     35  C   UNL A   1      40.508  26.266  26.566  1.00  0.00     0.010 A 
ATOM     36  C   UNL A   1      39.621  25.735  28.759  1.00  0.00     0.010 A 
ATOM     37  C   UNL A   1      40.264  26.636  27.898  1.00  0.00    -0.014 A 
BRANCH  37  38
ATOM     38  C   UNL A   1      40.682  27.958  28.420  1.00  0.00     0.031 A 
ATOM     39  C   UNL A   1      42.126  28.212  28.748  1.00  0.00     0.074 A 
ATOM     40  C   UNL A   1      39.755  28.907  28.651  1.00  0.00     0.049 A 
ATOM     41  N   UNL A   1      42.674  29.265  29.298  1.00  0.00    -0.248 NA
ATOM     42  C   UNL A   1      43.076  27.132  28.434  1.00  0.00     0.031 C 
ATOM     43  C   UNL A   1      38.322  28.776  28.378  1.00  0.00     0.029 A 
ATOM     44  N   UNL A   1      39.881  30.168  29.173  1.00  0.00    -0.354 N 
ATOM     45  C   UNL A   1      44.028  28.973  29.402  1.00  0.00     0.074 A 
ATOM     46  C   UNL A   1      44.212  27.627  28.904  1.00  0.00     0.031 C 
ATOM     47  C   UNL A   1      37.707  29.921  28.711  1.00  0.00     0.029 A 
ATOM     48  C   UNL A   1      38.691  30.847  29.264  1.00  0.00     0.049 A 
ATOM     49  H   UNL A   1      40.743  30.551  29.456  1.00  0.00     0.167 HD
ATOM     50  C   UNL A   1      45.030  29.762  29.854  1.00  0.00     0.031 A 
ATOM     51  C   UNL A   1      38.421  32.074  29.747  1.00  0.00     0.031 A 
ATOM     52  C   UNL A   1      44.843  31.100  30.349  1.00  0.00     0.049 A 
ATOM     53  C   UNL A   1      39.544  32.911  30.289  1.00  0.00     0.074 A 
ATOM     54  C   UNL A   1      45.798  31.988  30.811  1.00  0.00     0.029 A 
ATOM     55  N   UNL A   1      43.618  31.743  30.443  1.00  0.00    -0.354 N 
ATOM     56  N   UNL A   1      40.823  32.630  30.362  1.00  0.00    -0.248 NA
ATOM     57  C   UNL A   1      39.188  34.240  30.808  1.00  0.00     0.031 C 
ATOM     58  C   UNL A   1      45.146  33.151  31.232  1.00  0.00     0.029 A 
ATOM     59  C   UNL A   1      43.792  33.011  30.973  1.00  0.00     0.049 A 
ATOM     60  H   UNL A   1      42.755  31.356  30.174  1.00  0.00     0.167 HD
ATOM     61  C   UNL A   1      41.428  33.755  30.909  1.00  0.00     0.074 A 
ATOM     62  C   UNL A   1      40.377  34.727  31.134  1.00  0.00     0.031 C 
ATOM     63  C   UNL A   1      42.736  33.964  31.195  1.00  0.00     0.031 A 
BRANCH  50  64
ATOM     64  C   UNL A   1      46.423  29.197  29.836  1.00  0.00    -0.014 A 
ATOM     65  C   UNL A   1      46.926  28.479  30.932  1.00  0.00     0.009 A 
ATOM     66  C   UNL A   1      47.221  29.334  28.689  1.00  0.00     0.009 A 
ATOM     67  C   UNL A   1      48.211  27.932  30.891  1.00  0.00     0.001 A 
ATOM     68  C   UNL A   1      48.493  28.762  28.640  1.00  0.00     0.001 A 
ATOM     69  C   UNL A   1      48.990  28.067  29.742  1.00  0.00     0.000 A 
ENDBRANCH  50  64
BRANCH  51  70
ATOM     70  C   UNL A   1      37.028  32.591  29.716  1.00  0.00    -0.014 A 
ATOM     71  C   UNL A   1      36.116  32.226  30.719  1.00  0.00     0.009 A 
ATOM     72  C   UNL A   1      36.608  33.467  28.702  1.00  0.00     0.009 A 
ATOM     73  C   UNL A   1      34.808  32.713  30.696  1.00  0.00     0.001 A 
ATOM     74  C   UNL A   1      35.307  33.974  28.699  1.00  0.00     0.001 A 
ATOM     75  C   UNL A   1      34.406  33.592  29.692  1.00  0.00     0.000 A 
ENDBRANCH  51  70
BRANCH  63  76
ATOM     76  C   UNL A   1      43.113  35.308  31.754  1.00  0.00    -0.014 A 
ATOM     77  C   UNL A   1      43.000  35.586  33.124  1.00  0.00     0.009 A 
ATOM     78  C   UNL A   1      43.641  36.290  30.901  1.00  0.00     0.009 A 
ATOM     79  C   UNL A   1      43.380  36.834  33.624  1.00  0.00     0.001 A 
ATOM     80  C   UNL A   1      44.049  37.524  31.407  1.00  0.00     0.001 A 
ATOM     81  C   UNL A   1      43.910  37.798  32.767  1.00  0.00     0.000 A 
ENDBRANCH  63  76
ENDBRANCH  37  38
ENDBRANCH  29  32
ENDBRANCH  27  28
ENDBRANCH  26  27
ENDBRANCH   1  26
TORSDOF 14
ENDMDL
MODEL 2
REMARK VINA RESULT:     -10.7      3.754      5.939
REMARK SMILES Cc1cc2c(c(C)c1Br)C=C(C(=O)NCCCCCCNC(=O)c1ccc(-c3c4nc(c(-c5ccccc5)c5ccc([nH]5)c(-c5ccccc5)c5nc(c(-c6ccccc6)c6ccc3[nH]6)C=C5)C=C4)cc1)[C@@H](C(F)(F)F)O2
REMARK SMILES IDX 18 1 17 2 16 3 15 4 14 5 12 6 13 7 11 9 1 10 2 11 3 12 8 13
REMARK SMILES IDX 4 14 6 15 9 16 5 17 77 18 7 19 10 20 72 21 73 22 74 23 75 24
REMARK SMILES IDX 76 25 19 26 20 27 21 28 22 29 23 31 24 32 25 33 71 34 26 35
REMARK SMILES IDX 70 36 27 37 28 38 29 39 64 40 30 41 69 42 63 43 65 44 31 45
REMARK SMILES IDX 68 46 62 47 61 48 32 50 54 51 39 52 53 53 40 54 43 55 52 56
REMARK SMILES IDX 66 57 41 58 42 59 51 61 67 62 44 63 33 64 34 65 38 66 35 67
REMARK SMILES IDX 37 68 36 69 55 70 56 71 60 72 57 73 59 74 58 75 45 76 46 77
REMARK SMILES IDX 50 78 47 79 49 80 48 81
REMARK H PARENT 14 8 21 30 65 49 43 60
REMARK Flexibility Score: inf
ROOT
ATOM      1  C   UNL A   1      41.501  21.303  26.917  1.00  0.00     0.002 C 
ENDROOT
BRANCH   1   2
ATOM      2  C   UNL A   1      40.173  22.067  26.853  1.00  0.00     0.002 C 
BRANCH   2   3
ATOM      3  C   UNL A   1      39.130  21.481  25.899  1.00  0.00     0.021 C 
BRANCH   3   4
ATOM      4  C   UNL A   1      37.897  22.359  25.720  1.00  0.00     0.116 C 
BRANCH   4   5
ATOM      5  N   UNL A   1      37.566  22.550  24.320  1.00  0.00    -0.352 N 
ATOM      6  C   UNL A   1      36.464  22.847  23.593  1.00  0.00     0.251 C 
ATOM      7  O   UNL A   1      36.651  22.952  22.376  1.00  0.00    -0.270 OA
ATOM      8  H   UNL A   1      38.357  22.433  23.744  1.00  0.00     0.163 HD
BRANCH   6   9
ATOM      9  C   UNL A   1      35.090  23.044  24.148  1.00  0.00     0.067 C 
ATOM     10  C   UNL A   1      29.399  25.209  26.438  1.00  0.00     0.046 C 
ATOM     11  C   UNL A   1      30.845  25.048  26.054  1.00  0.00    -0.033 A 
ATOM     12  C   UNL A   1      31.202  23.835  25.461  1.00  0.00     0.051 A 
ATOM     13  C   UNL A   1      31.829  26.052  26.184  1.00  0.00     0.024 A 
ATOM     14  C   UNL A   1      32.501  23.607  25.026  1.00  0.00     0.128 A 
ATOM     15  C   UNL A   1      33.166  25.825  25.761  1.00  0.00    -0.026 A 
ATOM     16  Br  UNL A   1      31.316  27.747  26.910  1.00  0.00    -0.050 Br
ATOM     17  C   UNL A   1      33.489  24.584  25.155  1.00  0.00     0.021 A 
ATOM     18  O   UNL A   1      32.699  22.397  24.435  1.00  0.00    -0.475 OA
ATOM     19  C   UNL A   1      34.253  26.866  25.912  1.00  0.00     0.046 C 
ATOM     20  C   UNL A   1      34.810  24.284  24.589  1.00  0.00     0.026 C 
ATOM     21  C   UNL A   1      34.064  21.957  24.252  1.00  0.00     0.314 C 
BRANCH  21  22
ATOM     22  C   UNL A   1      34.404  20.913  25.329  1.00  0.00     0.429 C 
ATOM     23  F   UNL A   1      35.362  20.065  24.878  1.00  0.00    -0.167 F 
ATOM     24  F   UNL A   1      34.893  21.468  26.462  1.00  0.00    -0.167 F 
ATOM     25  F   UNL A   1      33.334  20.167  25.685  1.00  0.00    -0.167 F 
ENDBRANCH  21  22
ENDBRANCH   6   9
ENDBRANCH   4   5
ENDBRANCH   3   4
ENDBRANCH   2   3
ENDBRANCH   1   2
BRANCH   1  26
ATOM     26  C   UNL A   1      41.542  19.992  26.124  1.00  0.00     0.021 C 
BRANCH  26  27
ATOM     27  C   UNL A   1      42.671  19.047  26.519  1.00  0.00     0.116 C 
BRANCH  27  28
ATOM     28  N   UNL A   1      43.511  18.704  25.383  1.00  0.00    -0.352 N 
ATOM     29  C   UNL A   1      44.253  19.523  24.578  1.00  0.00     0.251 C 
ATOM     30  H   UNL A   1      43.552  17.745  25.163  1.00  0.00     0.163 HD
ATOM     31  O   UNL A   1      44.734  19.090  23.529  1.00  0.00    -0.269 OA
BRANCH  29  32
ATOM     32  C   UNL A   1      44.472  20.931  24.959  1.00  0.00     0.039 A 
ATOM     33  C   UNL A   1      43.981  21.942  24.128  1.00  0.00     0.014 A 
ATOM     34  C   UNL A   1      45.183  21.252  26.119  1.00  0.00     0.014 A 
ATOM     35  C   UNL A   1      44.162  23.278  24.486  1.00  0.00     0.010 A 
ATOM     36  C   UNL A   1      45.309  22.582  26.506  1.00  0.00     0.010 A 
ATOM     37  C   UNL A   1      44.807  23.606  25.689  1.00  0.00    -0.014 A 
BRANCH  37  38
ATOM     38  C   UNL A   1      44.979  25.015  26.111  1.00  0.00     0.031 A 
ATOM     39  C   UNL A   1      46.330  25.665  26.020  1.00  0.00     0.074 A 
ATOM     40  C   UNL A   1      43.934  25.688  26.629  1.00  0.00     0.049 A 
ATOM     41  N   UNL A   1      46.704  26.852  26.422  1.00  0.00    -0.248 NA
ATOM     42  C   UNL A   1      47.409  24.868  25.412  1.00  0.00     0.031 C 
ATOM     43  C   UNL A   1      42.575  25.162  26.774  1.00  0.00     0.029 A 
ATOM     44  N   UNL A   1      43.855  26.961  27.133  1.00  0.00    -0.354 N 
ATOM     45  C   UNL A   1      48.058  26.942  26.125  1.00  0.00     0.074 A 
ATOM     46  C   UNL A   1      48.452  25.674  25.552  1.00  0.00     0.031 C 
ATOM     47  C   UNL A   1      41.793  26.114  27.306  1.00  0.00     0.029 A 
ATOM     48  C   UNL A   1      42.602  27.297  27.583  1.00  0.00     0.049 A 
ATOM     49  H   UNL A   1      44.624  27.576  27.169  1.00  0.00     0.167 HD
ATOM     50  C   UNL A   1      48.892  27.994  26.296  1.00  0.00     0.031 A 
ATOM     51  C   UNL A   1      42.157  28.427  28.162  1.00  0.00     0.031 A 
ATOM     52  C   UNL A   1      48.496  29.255  26.866  1.00  0.00     0.049 A 
ATOM     53  C   UNL A   1      43.115  29.562  28.386  1.00  0.00     0.074 A 
ATOM     54  C   UNL A   1      49.264  30.389  27.063  1.00  0.00     0.029 A 
ATOM     55  N   UNL A   1      47.222  29.546  27.328  1.00  0.00    -0.354 N 
ATOM     56  N   UNL A   1      44.388  29.641  28.081  1.00  0.00    -0.248 NA
ATOM     57  C   UNL A   1      42.573  30.768  29.028  1.00  0.00     0.031 C 
ATOM     58  C   UNL A   1      48.467  31.351  27.690  1.00  0.00     0.029 A 
ATOM     59  C   UNL A   1      47.187  30.838  27.826  1.00  0.00     0.049 A 
ATOM     60  H   UNL A   1      46.457  28.928  27.305  1.00  0.00     0.167 HD
ATOM     61  C   UNL A   1      44.793  30.912  28.467  1.00  0.00     0.074 A 
ATOM     62  C   UNL A   1      43.626  31.574  29.015  1.00  0.00     0.031 C 
ATOM     63  C   UNL A   1      46.020  31.480  28.372  1.00  0.00     0.031 A 
BRANCH  50  64
ATOM     64  C   UNL A   1      50.321  27.826  25.861  1.00  0.00    -0.014 A 
ATOM     65  C   UNL A   1      51.298  27.355  26.752  1.00  0.00     0.009 A 
ATOM     66  C   UNL A   1      50.685  28.086  24.530  1.00  0.00     0.009 A 
ATOM     67  C   UNL A   1      52.616  27.173  26.327  1.00  0.00     0.001 A 
ATOM     68  C   UNL A   1      51.997  27.877  24.101  1.00  0.00     0.001 A 
ATOM     69  C   UNL A   1      52.962  27.426  25.000  1.00  0.00     0.000 A 
ENDBRANCH  50  64
BRANCH  51  70
ATOM     70  C   UNL A   1      40.727  28.546  28.549  1.00  0.00    -0.014 A 
ATOM     71  C   UNL A   1      39.793  29.084  27.650  1.00  0.00     0.009 A 
ATOM     72  C   UNL A   1      40.283  28.105  29.806  1.00  0.00     0.009 A 
ATOM     73  C   UNL A   1      38.448  29.193  28.009  1.00  0.00     0.001 A 
ATOM     74  C   UNL A   1      38.932  28.190  30.150  1.00  0.00     0.001 A 
ATOM     75  C   UNL A   1      38.018  28.740  29.254  1.00  0.00     0.000 A 
ENDBRANCH  51  70
BRANCH  63  76
ATOM     76  C   UNL A   1      46.159  32.902  28.843  1.00  0.00    -0.014 A 
ATOM     77  C   UNL A   1      46.557  33.201  30.154  1.00  0.00     0.009 A 
ATOM     78  C   UNL A   1      45.942  33.955  27.940  1.00  0.00     0.009 A 
ATOM     79  C   UNL A   1      46.704  34.529  30.561  1.00  0.00     0.001 A 
ATOM     80  C   UNL A   1      46.119  35.279  28.340  1.00  0.00     0.001 A 
ATOM     81  C   UNL A   1      46.491  35.565  29.652  1.00  0.00     0.000 A 
ENDBRANCH  63  76
ENDBRANCH  37  38
ENDBRANCH  29  32
ENDBRANCH  27  28
ENDBRANCH  26  27
ENDBRANCH   1  26
TORSDOF 14
ENDMDL
MODEL 3
REMARK VINA RESULT:     -10.7      2.299      3.575
REMARK SMILES Cc1cc2c(c(C)c1Br)C=C(C(=O)NCCCCCCNC(=O)c1ccc(-c3c4nc(c(-c5ccccc5)c5ccc([nH]5)c(-c5ccccc5)c5nc(c(-c6ccccc6)c6ccc3[nH]6)C=C5)C=C4)cc1)[C@@H](C(F)(F)F)O2
REMARK SMILES IDX 18 1 17 2 16 3 15 4 14 5 12 6 13 7 11 9 1 10 2 11 3 12 8 13
REMARK SMILES IDX 4 14 6 15 9 16 5 17 77 18 7 19 10 20 72 21 73 22 74 23 75 24
REMARK SMILES IDX 76 25 19 26 20 27 21 28 22 29 23 31 24 32 25 33 71 34 26 35
REMARK SMILES IDX 70 36 27 37 28 38 29 39 64 40 30 41 69 42 63 43 65 44 31 45
REMARK SMILES IDX 68 46 62 47 61 48 32 50 54 51 39 52 53 53 40 54 43 55 52 56
REMARK SMILES IDX 66 57 41 58 42 59 51 61 67 62 44 63 33 64 34 65 38 66 35 67
REMARK SMILES IDX 37 68 36 69 55 70 56 71 60 72 57 73 59 74 58 75 45 76 46 77
REMARK SMILES IDX 50 78 47 79 49 80 48 81
REMARK H PARENT 14 8 21 30 65 49 43 60
REMARK Flexibility Score: inf
ROOT
ATOM      1  C   UNL A   1      36.259  20.327  25.000  1.00  0.00     0.002 C 
ENDROOT
BRANCH   1   2
ATOM      2  C   UNL A   1      36.139  21.824  25.312  1.00  0.00     0.002 C 
BRANCH   2   3
ATOM      3  C   UNL A   1      35.042  22.192  26.314  1.00  0.00     0.021 C 
BRANCH   3   4
ATOM      4  C   UNL A   1      34.162  23.353  25.864  1.00  0.00     0.116 C 
BRANCH   4   5
ATOM      5  N   UNL A   1      34.287  23.609  24.442  1.00  0.00    -0.352 N 
ATOM      6  C   UNL A   1      33.917  24.577  23.572  1.00  0.00     0.251 C 
ATOM      7  O   UNL A   1      34.278  24.398  22.403  1.00  0.00    -0.270 OA
ATOM      8  H   UNL A   1      34.772  22.882  23.987  1.00  0.00     0.163 HD
BRANCH   6   9
ATOM      9  C   UNL A   1      33.129  25.797  23.921  1.00  0.00     0.067 C 
ATOM     10  C   UNL A   1      30.881  31.585  25.866  1.00  0.00     0.046 C 
ATOM     11  C   UNL A   1      31.666  30.311  25.698  1.00  0.00    -0.033 A 
ATOM     12  C   UNL A   1      31.176  29.395  24.764  1.00  0.00     0.051 A 
ATOM     13  C   UNL A   1      32.880  30.022  26.355  1.00  0.00     0.024 A 
ATOM     14  C   UNL A   1      31.854  28.212  24.500  1.00  0.00     0.128 A 
ATOM     15  C   UNL A   1      33.575  28.807  26.108  1.00  0.00    -0.026 A 
ATOM     16  Br  UNL A   1      33.599  31.321  27.564  1.00  0.00    -0.050 Br
ATOM     17  C   UNL A   1      33.052  27.905  25.146  1.00  0.00     0.021 A 
ATOM     18  O   UNL A   1      31.283  27.431  23.542  1.00  0.00    -0.475 OA
ATOM     19  C   UNL A   1      34.863  28.450  26.816  1.00  0.00     0.046 C 
ATOM     20  C   UNL A   1      33.740  26.675  24.739  1.00  0.00     0.026 C 
ATOM     21  C   UNL A   1      31.735  26.062  23.440  1.00  0.00     0.314 C 
BRANCH  21  22
ATOM     22  C   UNL A   1      30.690  25.139  24.090  1.00  0.00     0.429 C 
ATOM     23  F   UNL A   1      30.434  24.076  23.286  1.00  0.00    -0.167 F 
ATOM     24  F   UNL A   1      31.106  24.627  25.272  1.00  0.00    -0.167 F 
ATOM     25  F   UNL A   1      29.515  25.766  24.322  1.00  0.00    -0.167 F 
ENDBRANCH  21  22
ENDBRANCH   6   9
ENDBRANCH   4   5
ENDBRANCH   3   4
ENDBRANCH   2   3
ENDBRANCH   1   2
BRANCH   1  26
ATOM     26  C   UNL A   1      37.681  19.827  24.721  1.00  0.00     0.021 C 
BRANCH  26  27
ATOM     27  C   UNL A   1      38.728  20.301  25.722  1.00  0.00     0.116 C 
BRANCH  27  28
ATOM     28  N   UNL A   1      39.807  19.338  25.872  1.00  0.00    -0.352 N 
ATOM     29  C   UNL A   1      41.133  19.557  26.125  1.00  0.00     0.251 C 
ATOM     30  H   UNL A   1      39.545  18.394  25.779  1.00  0.00     0.163 HD
ATOM     31  O   UNL A   1      41.946  18.639  26.006  1.00  0.00    -0.269 OA
BRANCH  29  32
ATOM     32  C   UNL A   1      41.594  20.898  26.532  1.00  0.00     0.039 A 
ATOM     33  C   UNL A   1      41.983  21.809  25.546  1.00  0.00     0.014 A 
ATOM     34  C   UNL A   1      41.669  21.245  27.885  1.00  0.00     0.014 A 
ATOM     35  C   UNL A   1      42.402  23.088  25.915  1.00  0.00     0.010 A 
ATOM     36  C   UNL A   1      42.028  22.539  28.247  1.00  0.00     0.010 A 
ATOM     37  C   UNL A   1      42.404  23.468  27.266  1.00  0.00    -0.014 A 
BRANCH  37  38
ATOM     38  C   UNL A   1      42.809  24.831  27.682  1.00  0.00     0.031 A 
ATOM     39  C   UNL A   1      44.265  25.191  27.756  1.00  0.00     0.074 A 
ATOM     40  C   UNL A   1      41.868  25.723  28.045  1.00  0.00     0.049 A 
ATOM     41  N   UNL A   1      44.822  26.295  28.182  1.00  0.00    -0.248 NA
ATOM     42  C   UNL A   1      45.225  24.167  27.309  1.00  0.00     0.031 C 
ATOM     43  C   UNL A   1      40.423  25.489  28.021  1.00  0.00     0.029 A 
ATOM     44  N   UNL A   1      41.990  27.007  28.512  1.00  0.00    -0.354 N 
ATOM     45  C   UNL A   1      46.192  26.098  28.063  1.00  0.00     0.074 A 
ATOM     46  C   UNL A   1      46.385  24.751  27.570  1.00  0.00     0.031 C 
ATOM     47  C   UNL A   1      39.793  26.601  28.429  1.00  0.00     0.029 A 
ATOM     48  C   UNL A   1      40.787  27.608  28.788  1.00  0.00     0.049 A 
ATOM     49  H   UNL A   1      42.858  27.455  28.637  1.00  0.00     0.167 HD
ATOM     50  C   UNL A   1      47.196  26.966  28.323  1.00  0.00     0.031 A 
ATOM     51  C   UNL A   1      40.515  28.829  29.283  1.00  0.00     0.031 A 
ATOM     52  C   UNL A   1      47.000  28.305  28.814  1.00  0.00     0.049 A 
ATOM     53  C   UNL A   1      41.650  29.757  29.611  1.00  0.00     0.074 A 
ATOM     54  C   UNL A   1      47.953  29.268  29.089  1.00  0.00     0.029 A 
ATOM     55  N   UNL A   1      45.765  28.867  29.100  1.00  0.00    -0.354 N 
ATOM     56  N   UNL A   1      42.940  29.564  29.473  1.00  0.00    -0.248 NA
ATOM     57  C   UNL A   1      41.292  31.075  30.153  1.00  0.00     0.031 C 
ATOM     58  C   UNL A   1      47.300  30.399  29.589  1.00  0.00     0.029 A 
ATOM     59  C   UNL A   1      45.935  30.160  29.565  1.00  0.00     0.049 A 
ATOM     60  H   UNL A   1      44.899  28.415  28.988  1.00  0.00     0.167 HD
ATOM     61  C   UNL A   1      43.546  30.744  29.886  1.00  0.00     0.074 A 
ATOM     62  C   UNL A   1      42.481  31.651  30.264  1.00  0.00     0.031 C 
ATOM     63  C   UNL A   1      44.866  31.048  29.942  1.00  0.00     0.031 A 
BRANCH  50  64
ATOM     64  C   UNL A   1      48.603  26.495  28.082  1.00  0.00    -0.014 A 
ATOM     65  C   UNL A   1      49.321  25.820  29.082  1.00  0.00     0.009 A 
ATOM     66  C   UNL A   1      49.198  26.675  26.823  1.00  0.00     0.009 A 
ATOM     67  C   UNL A   1      50.616  25.359  28.835  1.00  0.00     0.001 A 
ATOM     68  C   UNL A   1      50.482  26.189  26.570  1.00  0.00     0.001 A 
ATOM     69  C   UNL A   1      51.192  25.536  27.577  1.00  0.00     0.000 A 
ENDBRANCH  50  64
BRANCH  51  70
ATOM     70  C   UNL A   1      39.103  29.251  29.477  1.00  0.00    -0.014 A 
ATOM     71  C   UNL A   1      38.449  30.008  28.493  1.00  0.00     0.009 A 
ATOM     72  C   UNL A   1      38.395  28.882  30.632  1.00  0.00     0.009 A 
ATOM     73  C   UNL A   1      37.121  30.402  28.671  1.00  0.00     0.001 A 
ATOM     74  C   UNL A   1      37.059  29.254  30.793  1.00  0.00     0.001 A 
ATOM     75  C   UNL A   1      36.425  30.020  29.815  1.00  0.00     0.000 A 
ENDBRANCH  51  70
BRANCH  63  76
ATOM     76  C   UNL A   1      45.234  32.432  30.401  1.00  0.00    -0.014 A 
ATOM     77  C   UNL A   1      45.323  33.501  29.497  1.00  0.00     0.009 A 
ATOM     78  C   UNL A   1      45.442  32.676  31.768  1.00  0.00     0.009 A 
ATOM     79  C   UNL A   1      45.643  34.783  29.951  1.00  0.00     0.001 A 
ATOM     80  C   UNL A   1      45.732  33.963  32.222  1.00  0.00     0.001 A 
ATOM     81  C   UNL A   1      45.840  35.013  31.312  1.00  0.00     0.000 A 
ENDBRANCH  63  76
ENDBRANCH  37  38
ENDBRANCH  29  32
ENDBRANCH  27  28
ENDBRANCH  26  27
ENDBRANCH   1  26
TORSDOF 14
ENDMDL
