MODEL 1
REMARK VINA RESULT:      -9.7      0.000      0.000
REMARK SMILES CCCSc1nc(=O)cc(CC(=O)NCCCCCCNC(=O)c2ccc(-c3c4nc(c(-c5ccccc5)c5ccc([nH]5)c(-c5ccccc5)c5nc(c(-c6ccccc6)c6ccc3[nH]6)C=C5)C=C4)cc2)[nH]1
REMARK SMILES IDX 16 1 15 2 14 3 12 4 13 5 11 7 10 8 5 9 6 10 72 11 7 12 8 14
REMARK SMILES IDX 9 15 4 16 3 17 2 18 1 19 17 20 18 21 19 22 20 23 21 24 22 25
REMARK SMILES IDX 23 27 24 28 25 29 71 30 26 31 70 32 27 33 28 34 29 35 64 36
REMARK SMILES IDX 30 37 69 38 63 39 65 40 31 41 68 42 62 43 61 44 32 46 54 47
REMARK SMILES IDX 39 48 53 49 40 50 43 51 52 52 66 53 41 54 42 55 51 57 67 58
REMARK SMILES IDX 44 59 33 60 34 61 38 62 35 63 37 64 36 65 55 66 56 67 60 68
REMARK SMILES IDX 57 69 59 70 58 71 45 72 46 73 50 74 47 75 49 76 48 77
REMARK H PARENT 14 6 72 13 21 26 65 45 43 56
REMARK Flexibility Score: inf
ROOT
ATOM      1  C   UNL A   1      34.772  22.760  26.839  1.00  0.00     0.021 C 
ENDROOT
BRANCH   1   2
ATOM      2  C   UNL A   1      33.557  21.969  27.329  1.00  0.00     0.116 C 
BRANCH   2   3
ATOM      3  N   UNL A   1      32.427  22.838  27.609  1.00  0.00    -0.356 N 
ATOM      4  C   UNL A   1      31.412  23.235  26.786  1.00  0.00     0.225 C 
ATOM      5  O   UNL A   1      30.597  24.058  27.204  1.00  0.00    -0.275 OA
ATOM      6  H   UNL A   1      32.387  23.192  28.527  1.00  0.00     0.163 HD
BRANCH   4   7
ATOM      7  C   UNL A   1      31.299  22.654  25.380  1.00  0.00     0.154 C 
BRANCH   7   8
ATOM      8  C   UNL A   1      32.033  23.487  24.364  1.00  0.00     0.032 A 
ATOM      9  C   UNL A   1      32.658  25.671  23.657  1.00  0.00     0.169 A 
ATOM     10  N   UNL A   1      32.957  25.313  22.456  1.00  0.00    -0.185 NA
ATOM     11  N   UNL A   1      32.240  24.819  24.631  1.00  0.00    -0.337 N 
ATOM     12  C   UNL A   1      32.964  23.969  22.159  1.00  0.00     0.273 A 
ATOM     13  H   UNL A   1      32.084  25.161  25.541  1.00  0.00     0.168 HD
ATOM     14  O   UNL A   1      33.375  23.521  21.094  1.00  0.00    -0.267 OA
ATOM     15  C   UNL A   1      32.407  23.019  23.161  1.00  0.00     0.095 A 
BRANCH   9  16
ATOM     16  S   UNL A   1      32.726  27.341  24.156  1.00  0.00    -0.088 SA
BRANCH  16  17
ATOM     17  C   UNL A   1      31.055  27.636  24.808  1.00  0.00     0.078 C 
BRANCH  17  18
ATOM     18  C   UNL A   1      29.944  27.586  23.756  1.00  0.00     0.008 C 
ATOM     19  C   UNL A   1      28.985  26.412  23.889  1.00  0.00     0.005 C 
ENDBRANCH  17  18
ENDBRANCH  16  17
ENDBRANCH   9  16
ENDBRANCH   7   8
ENDBRANCH   4   7
ENDBRANCH   2   3
ENDBRANCH   1   2
BRANCH   1  20
ATOM     20  C   UNL A   1      35.276  22.347  25.451  1.00  0.00     0.002 C 
BRANCH  20  21
ATOM     21  C   UNL A   1      36.009  21.003  25.394  1.00  0.00     0.002 C 
BRANCH  21  22
ATOM     22  C   UNL A   1      37.396  21.051  24.754  1.00  0.00     0.021 C 
BRANCH  22  23
ATOM     23  C   UNL A   1      38.542  21.165  25.750  1.00  0.00     0.116 C 
BRANCH  23  24
ATOM     24  N   UNL A   1      39.418  20.000  25.733  1.00  0.00    -0.352 N 
ATOM     25  C   UNL A   1      40.754  19.917  26.047  1.00  0.00     0.251 C 
ATOM     26  H   UNL A   1      38.993  19.155  25.457  1.00  0.00     0.163 HD
ATOM     27  O   UNL A   1      41.392  18.893  25.829  1.00  0.00    -0.269 OA
BRANCH  25  28
ATOM     28  C   UNL A   1      41.424  21.104  26.614  1.00  0.00     0.039 A 
ATOM     29  C   UNL A   1      41.446  21.299  27.996  1.00  0.00     0.014 A 
ATOM     30  C   UNL A   1      41.949  22.069  25.752  1.00  0.00     0.014 A 
ATOM     31  C   UNL A   1      41.803  22.542  28.503  1.00  0.00     0.010 A 
ATOM     32  C   UNL A   1      42.399  23.284  26.275  1.00  0.00     0.010 A 
ATOM     33  C   UNL A   1      42.269  23.554  27.647  1.00  0.00    -0.014 A 
BRANCH  33  34
ATOM     34  C   UNL A   1      42.593  24.893  28.203  1.00  0.00     0.031 A 
ATOM     35  C   UNL A   1      44.011  25.254  28.562  1.00  0.00     0.074 A 
ATOM     36  C   UNL A   1      41.612  25.805  28.338  1.00  0.00     0.049 A 
ATOM     37  N   UNL A   1      44.472  26.372  29.065  1.00  0.00    -0.248 NA
ATOM     38  C   UNL A   1      45.048  24.235  28.327  1.00  0.00     0.031 C 
ATOM     39  C   UNL A   1      40.207  25.585  27.989  1.00  0.00     0.029 A 
ATOM     40  N   UNL A   1      41.646  27.103  28.782  1.00  0.00    -0.354 N 
ATOM     41  C   UNL A   1      45.840  26.185  29.224  1.00  0.00     0.074 A 
ATOM     42  C   UNL A   1      46.135  24.837  28.792  1.00  0.00     0.031 C 
ATOM     43  C   UNL A   1      39.525  26.722  28.181  1.00  0.00     0.029 A 
ATOM     44  C   UNL A   1      40.421  27.726  28.745  1.00  0.00     0.049 A 
ATOM     45  H   UNL A   1      42.467  27.545  29.096  1.00  0.00     0.167 HD
ATOM     46  C   UNL A   1      46.764  27.062  29.681  1.00  0.00     0.031 A 
ATOM     47  C   UNL A   1      40.049  28.958  29.141  1.00  0.00     0.031 A 
ATOM     48  C   UNL A   1      46.465  28.408  30.094  1.00  0.00     0.049 A 
ATOM     49  C   UNL A   1      41.080  29.885  29.716  1.00  0.00     0.074 A 
ATOM     50  C   UNL A   1      47.343  29.380  30.544  1.00  0.00     0.029 A 
ATOM     51  N   UNL A   1      45.198  28.972  30.113  1.00  0.00    -0.354 N 
ATOM     52  N   UNL A   1      42.371  29.695  29.848  1.00  0.00    -0.248 NA
ATOM     53  C   UNL A   1      40.610  31.189  30.198  1.00  0.00     0.031 C 
ATOM     54  C   UNL A   1      46.599  30.504  30.904  1.00  0.00     0.029 A 
ATOM     55  C   UNL A   1      45.268  30.264  30.604  1.00  0.00     0.049 A 
ATOM     56  H   UNL A   1      44.373  28.520  29.820  1.00  0.00     0.167 HD
ATOM     57  C   UNL A   1      42.868  30.860  30.417  1.00  0.00     0.074 A 
ATOM     58  C   UNL A   1      41.745  31.758  30.585  1.00  0.00     0.031 C 
ATOM     59  C   UNL A   1      44.144  31.151  30.770  1.00  0.00     0.031 A 
BRANCH  46  60
ATOM     60  C   UNL A   1      48.197  26.611  29.775  1.00  0.00    -0.014 A 
ATOM     61  C   UNL A   1      49.036  26.726  28.654  1.00  0.00     0.009 A 
ATOM     62  C   UNL A   1      48.685  25.965  30.921  1.00  0.00     0.009 A 
ATOM     63  C   UNL A   1      50.324  26.185  28.670  1.00  0.00     0.001 A 
ATOM     64  C   UNL A   1      49.984  25.452  30.946  1.00  0.00     0.001 A 
ATOM     65  C   UNL A   1      50.798  25.551  29.816  1.00  0.00     0.000 A 
ENDBRANCH  46  60
BRANCH  47  66
ATOM     66  C   UNL A   1      38.624  29.360  29.007  1.00  0.00    -0.014 A 
ATOM     67  C   UNL A   1      37.742  29.233  30.096  1.00  0.00     0.009 A 
ATOM     68  C   UNL A   1      38.118  29.803  27.777  1.00  0.00     0.009 A 
ATOM     69  C   UNL A   1      36.380  29.498  29.943  1.00  0.00     0.001 A 
ATOM     70  C   UNL A   1      36.760  30.102  27.637  1.00  0.00     0.001 A 
ATOM     71  C   UNL A   1      35.892  29.937  28.715  1.00  0.00     0.000 A 
ENDBRANCH  47  66
BRANCH  59  72
ATOM     72  C   UNL A   1      44.421  32.499  31.373  1.00  0.00    -0.014 A 
ATOM     73  C   UNL A   1      44.297  32.682  32.761  1.00  0.00     0.009 A 
ATOM     74  C   UNL A   1      44.673  33.615  30.561  1.00  0.00     0.009 A 
ATOM     75  C   UNL A   1      44.389  33.957  33.320  1.00  0.00     0.001 A 
ATOM     76  C   UNL A   1      44.796  34.886  31.127  1.00  0.00     0.001 A 
ATOM     77  C   UNL A   1      44.640  35.057  32.502  1.00  0.00     0.000 A 
ENDBRANCH  59  72
ENDBRANCH  33  34
ENDBRANCH  25  28
ENDBRANCH  23  24
ENDBRANCH  22  23
ENDBRANCH  21  22
ENDBRANCH  20  21
ENDBRANCH   1  20
TORSDOF 17
ENDMDL
MODEL 2
REMARK VINA RESULT:      -9.6      3.802      8.964
REMARK SMILES CCCSc1nc(=O)cc(CC(=O)NCCCCCCNC(=O)c2ccc(-c3c4nc(c(-c5ccccc5)c5ccc([nH]5)c(-c5ccccc5)c5nc(c(-c6ccccc6)c6ccc3[nH]6)C=C5)C=C4)cc2)[nH]1
REMARK SMILES IDX 16 1 15 2 14 3 12 4 13 5 11 7 10 8 5 9 6 10 72 11 7 12 8 14
REMARK SMILES IDX 9 15 4 16 3 17 2 18 1 19 17 20 18 21 19 22 20 23 21 24 22 25
REMARK SMILES IDX 23 27 24 28 25 29 71 30 26 31 70 32 27 33 28 34 29 35 64 36
REMARK SMILES IDX 30 37 69 38 63 39 65 40 31 41 68 42 62 43 61 44 32 46 54 47
REMARK SMILES IDX 39 48 53 49 40 50 43 51 52 52 66 53 41 54 42 55 51 57 67 58
REMARK SMILES IDX 44 59 33 60 34 61 38 62 35 63 37 64 36 65 55 66 56 67 60 68
REMARK SMILES IDX 57 69 59 70 58 71 45 72 46 73 50 74 47 75 49 76 48 77
REMARK H PARENT 14 6 72 13 21 26 65 45 43 56
REMARK Flexibility Score: inf
ROOT
ATOM      1  C   UNL A   1      31.862  27.668  25.780  1.00  0.00     0.021 C 
ENDROOT
BRANCH   1   2
ATOM      2  C   UNL A   1      30.788  26.609  26.045  1.00  0.00     0.116 C 
BRANCH   2   3
ATOM      3  N   UNL A   1      31.313  25.492  26.811  1.00  0.00    -0.356 N 
ATOM      4  C   UNL A   1      31.313  24.159  26.514  1.00  0.00     0.225 C 
ATOM      5  O   UNL A   1      31.733  23.364  27.354  1.00  0.00    -0.275 OA
ATOM      6  H   UNL A   1      31.730  25.731  27.670  1.00  0.00     0.163 HD
BRANCH   4   7
ATOM      7  C   UNL A   1      30.806  23.681  25.156  1.00  0.00     0.154 C 
BRANCH   7   8
ATOM      8  C   UNL A   1      31.920  23.547  24.153  1.00  0.00     0.032 A 
ATOM      9  C   UNL A   1      34.181  22.920  23.760  1.00  0.00     0.169 A 
ATOM     10  N   UNL A   1      34.274  23.550  22.641  1.00  0.00    -0.185 NA
ATOM     11  N   UNL A   1      33.052  22.856  24.516  1.00  0.00    -0.337 N 
ATOM     12  C   UNL A   1      33.133  24.105  22.109  1.00  0.00     0.273 A 
ATOM     13  H   UNL A   1      33.045  22.308  25.333  1.00  0.00     0.168 HD
ATOM     14  O   UNL A   1      33.087  24.594  20.985  1.00  0.00    -0.267 OA
ATOM     15  C   UNL A   1      31.908  24.153  22.955  1.00  0.00     0.095 A 
BRANCH   9  16
ATOM     16  S   UNL A   1      35.549  22.092  24.459  1.00  0.00    -0.088 SA
BRANCH  16  17
ATOM     17  C   UNL A   1      36.650  23.460  24.931  1.00  0.00     0.078 C 
BRANCH  17  18
ATOM     18  C   UNL A   1      37.804  23.060  25.853  1.00  0.00     0.008 C 
ATOM     19  C   UNL A   1      38.398  21.687  25.578  1.00  0.00     0.005 C 
ENDBRANCH  17  18
ENDBRANCH  16  17
ENDBRANCH   9  16
ENDBRANCH   7   8
ENDBRANCH   4   7
ENDBRANCH   2   3
ENDBRANCH   1   2
BRANCH   1  20
ATOM     20  C   UNL A   1      31.795  28.882  26.715  1.00  0.00     0.002 C 
BRANCH  20  21
ATOM     21  C   UNL A   1      32.205  30.217  26.084  1.00  0.00     0.002 C 
BRANCH  21  22
ATOM     22  C   UNL A   1      31.779  31.457  26.867  1.00  0.00     0.021 C 
BRANCH  22  23
ATOM     23  C   UNL A   1      32.935  32.334  27.331  1.00  0.00     0.116 C 
BRANCH  23  24
ATOM     24  N   UNL A   1      32.530  33.713  27.575  1.00  0.00    -0.352 N 
ATOM     25  C   UNL A   1      33.059  34.627  28.456  1.00  0.00     0.251 C 
ATOM     26  H   UNL A   1      31.771  34.034  27.034  1.00  0.00     0.163 HD
ATOM     27  O   UNL A   1      32.504  35.701  28.661  1.00  0.00    -0.269 OA
BRANCH  25  28
ATOM     28  C   UNL A   1      34.290  34.273  29.190  1.00  0.00     0.039 A 
ATOM     29  C   UNL A   1      35.539  34.546  28.630  1.00  0.00     0.014 A 
ATOM     30  C   UNL A   1      34.189  33.584  30.400  1.00  0.00     0.014 A 
ATOM     31  C   UNL A   1      36.672  33.952  29.171  1.00  0.00     0.010 A 
ATOM     32  C   UNL A   1      35.344  33.070  30.995  1.00  0.00     0.010 A 
ATOM     33  C   UNL A   1      36.585  33.195  30.351  1.00  0.00    -0.014 A 
BRANCH  33  34
ATOM     34  C   UNL A   1      37.801  32.524  30.881  1.00  0.00     0.031 A 
ATOM     35  C   UNL A   1      38.466  33.020  32.138  1.00  0.00     0.074 A 
ATOM     36  C   UNL A   1      38.275  31.431  30.254  1.00  0.00     0.049 A 
ATOM     37  N   UNL A   1      39.536  32.560  32.737  1.00  0.00    -0.248 NA
ATOM     38  C   UNL A   1      37.858  34.178  32.813  1.00  0.00     0.031 C 
ATOM     39  C   UNL A   1      37.694  30.834  29.051  1.00  0.00     0.029 A 
ATOM     40  N   UNL A   1      39.339  30.616  30.551  1.00  0.00    -0.354 N 
ATOM     41  C   UNL A   1      39.739  33.380  33.841  1.00  0.00     0.074 A 
ATOM     42  C   UNL A   1      38.700  34.385  33.818  1.00  0.00     0.031 C 
ATOM     43  C   UNL A   1      38.372  29.720  28.742  1.00  0.00     0.029 A 
ATOM     44  C   UNL A   1      39.486  29.569  29.672  1.00  0.00     0.049 A 
ATOM     45  H   UNL A   1      39.936  30.765  31.318  1.00  0.00     0.167 HD
ATOM     46  C   UNL A   1      40.699  33.294  34.791  1.00  0.00     0.031 A 
ATOM     47  C   UNL A   1      40.425  28.606  29.602  1.00  0.00     0.031 A 
ATOM     48  C   UNL A   1      41.722  32.280  34.816  1.00  0.00     0.049 A 
ATOM     49  C   UNL A   1      41.524  28.578  30.625  1.00  0.00     0.074 A 
ATOM     50  C   UNL A   1      42.720  32.097  35.758  1.00  0.00     0.029 A 
ATOM     51  N   UNL A   1      41.880  31.286  33.864  1.00  0.00    -0.354 N 
ATOM     52  N   UNL A   1      41.693  29.354  31.668  1.00  0.00    -0.248 NA
ATOM     53  C   UNL A   1      42.561  27.552  30.462  1.00  0.00     0.031 C 
ATOM     54  C   UNL A   1      43.526  31.039  35.335  1.00  0.00     0.029 A 
ATOM     55  C   UNL A   1      42.984  30.511  34.174  1.00  0.00     0.049 A 
ATOM     56  H   UNL A   1      41.294  31.151  33.084  1.00  0.00     0.167 HD
ATOM     57  C   UNL A   1      42.847  28.903  32.293  1.00  0.00     0.074 A 
ATOM     58  C   UNL A   1      43.325  27.772  31.525  1.00  0.00     0.031 C 
ATOM     59  C   UNL A   1      43.454  29.389  33.402  1.00  0.00     0.031 A 
BRANCH  46  60
ATOM     60  C   UNL A   1      40.716  34.322  35.890  1.00  0.00    -0.014 A 
ATOM     61  C   UNL A   1      39.920  34.130  37.032  1.00  0.00     0.009 A 
ATOM     62  C   UNL A   1      41.416  35.530  35.749  1.00  0.00     0.009 A 
ATOM     63  C   UNL A   1      39.806  35.133  37.998  1.00  0.00     0.001 A 
ATOM     64  C   UNL A   1      41.326  36.520  36.732  1.00  0.00     0.001 A 
ATOM     65  C   UNL A   1      40.511  36.326  37.848  1.00  0.00     0.000 A 
ENDBRANCH  46  60
BRANCH  47  66
ATOM     66  C   UNL A   1      40.351  27.602  28.508  1.00  0.00    -0.014 A 
ATOM     67  C   UNL A   1      39.710  26.367  28.716  1.00  0.00     0.009 A 
ATOM     68  C   UNL A   1      40.979  27.838  27.277  1.00  0.00     0.009 A 
ATOM     69  C   UNL A   1      39.739  25.376  27.733  1.00  0.00     0.001 A 
ATOM     70  C   UNL A   1      40.975  26.858  26.281  1.00  0.00     0.001 A 
ATOM     71  C   UNL A   1      40.367  25.624  26.515  1.00  0.00     0.000 A 
ENDBRANCH  47  66
BRANCH  59  72
ATOM     72  C   UNL A   1      44.708  28.710  33.879  1.00  0.00    -0.014 A 
ATOM     73  C   UNL A   1      45.955  29.115  33.376  1.00  0.00     0.009 A 
ATOM     74  C   UNL A   1      44.646  27.587  34.718  1.00  0.00     0.009 A 
ATOM     75  C   UNL A   1      47.110  28.394  33.678  1.00  0.00     0.001 A 
ATOM     76  C   UNL A   1      45.808  26.886  35.044  1.00  0.00     0.001 A 
ATOM     77  C   UNL A   1      47.036  27.281  34.513  1.00  0.00     0.000 A 
ENDBRANCH  59  72
ENDBRANCH  33  34
ENDBRANCH  25  28
ENDBRANCH  23  24
ENDBRANCH  22  23
ENDBRANCH  21  22
ENDBRANCH  20  21
ENDBRANCH   1  20
TORSDOF 17
ENDMDL
MODEL 3
REMARK VINA RESULT:      -9.6      3.307      8.077
REMARK SMILES CCCSc1nc(=O)cc(CC(=O)NCCCCCCNC(=O)c2ccc(-c3c4nc(c(-c5ccccc5)c5ccc([nH]5)c(-c5ccccc5)c5nc(c(-c6ccccc6)c6ccc3[nH]6)C=C5)C=C4)cc2)[nH]1
REMARK SMILES IDX 16 1 15 2 14 3 12 4 13 5 11 7 10 8 5 9 6 10 72 11 7 12 8 14
REMARK SMILES IDX 9 15 4 16 3 17 2 18 1 19 17 20 18 21 19 22 20 23 21 24 22 25
REMARK SMILES IDX 23 27 24 28 25 29 71 30 26 31 70 32 27 33 28 34 29 35 64 36
REMARK SMILES IDX 30 37 69 38 63 39 65 40 31 41 68 42 62 43 61 44 32 46 54 47
REMARK SMILES IDX 39 48 53 49 40 50 43 51 52 52 66 53 41 54 42 55 51 57 67 58
REMARK SMILES IDX 44 59 33 60 34 61 38 62 35 63 37 64 36 65 55 66 56 67 60 68
REMARK SMILES IDX 57 69 59 70 58 71 45 72 46 73 50 74 47 75 49 76 48 77
REMARK H PARENT 14 6 72 13 21 26 65 45 43 56
REMARK Flexibility Score: inf
ROOT
ATOM      1  C   UNL A   1      33.335  27.272  25.980  1.00  0.00     0.021 C 
ENDROOT
BRANCH   1   2
ATOM      2  C   UNL A   1      33.212  25.759  26.182  1.00  0.00     0.116 C 
BRANCH   2   3
ATOM      3  N   UNL A   1      31.932  25.398  26.766  1.00  0.00    -0.356 N 
ATOM      4  C   UNL A   1      30.881  24.728  26.208  1.00  0.00     0.225 C 
ATOM      5  O   UNL A   1      29.843  24.606  26.859  1.00  0.00    -0.275 OA
ATOM      6  H   UNL A   1      31.804  25.676  27.701  1.00  0.00     0.163 HD
BRANCH   4   7
ATOM      7  C   UNL A   1      31.011  24.139  24.807  1.00  0.00     0.154 C 
BRANCH   7   8
ATOM      8  C   UNL A   1      31.227  25.203  23.765  1.00  0.00     0.032 A 
ATOM      9  C   UNL A   1      30.354  27.129  22.675  1.00  0.00     0.169 A 
ATOM     10  N   UNL A   1      31.152  27.054  21.667  1.00  0.00    -0.185 NA
ATOM     11  N   UNL A   1      30.372  26.280  23.736  1.00  0.00    -0.337 N 
ATOM     12  C   UNL A   1      32.167  26.124  21.708  1.00  0.00     0.273 A 
ATOM     13  H   UNL A   1      29.765  26.437  24.495  1.00  0.00     0.168 HD
ATOM     14  O   UNL A   1      33.061  26.072  20.871  1.00  0.00    -0.267 OA
ATOM     15  C   UNL A   1      32.151  25.106  22.795  1.00  0.00     0.095 A 
BRANCH   9  16
ATOM     16  S   UNL A   1      29.106  28.346  22.761  1.00  0.00    -0.088 SA
BRANCH  16  17
ATOM     17  C   UNL A   1      29.956  29.738  23.566  1.00  0.00     0.078 C 
BRANCH  17  18
ATOM     18  C   UNL A   1      29.237  31.082  23.437  1.00  0.00     0.008 C 
ATOM     19  C   UNL A   1      27.721  31.013  23.549  1.00  0.00     0.005 C 
ENDBRANCH  17  18
ENDBRANCH  16  17
ENDBRANCH   9  16
ENDBRANCH   7   8
ENDBRANCH   4   7
ENDBRANCH   2   3
ENDBRANCH   1   2
BRANCH   1  20
ATOM     20  C   UNL A   1      33.053  28.101  27.239  1.00  0.00     0.002 C 
BRANCH  20  21
ATOM     21  C   UNL A   1      31.781  28.953  27.191  1.00  0.00     0.002 C 
BRANCH  21  22
ATOM     22  C   UNL A   1      31.950  30.328  26.548  1.00  0.00     0.021 C 
BRANCH  22  23
ATOM     23  C   UNL A   1      32.986  31.214  27.227  1.00  0.00     0.116 C 
BRANCH  23  24
ATOM     24  N   UNL A   1      32.529  32.589  27.387  1.00  0.00    -0.352 N 
ATOM     25  C   UNL A   1      33.091  33.608  28.121  1.00  0.00     0.251 C 
ATOM     26  H   UNL A   1      31.702  32.820  26.904  1.00  0.00     0.163 HD
ATOM     27  O   UNL A   1      32.499  34.668  28.287  1.00  0.00    -0.269 OA
BRANCH  25  28
ATOM     28  C   UNL A   1      34.409  33.385  28.749  1.00  0.00     0.039 A 
ATOM     29  C   UNL A   1      35.576  33.704  28.052  1.00  0.00     0.014 A 
ATOM     30  C   UNL A   1      34.475  32.771  30.001  1.00  0.00     0.014 A 
ATOM     31  C   UNL A   1      36.796  33.223  28.511  1.00  0.00     0.010 A 
ATOM     32  C   UNL A   1      35.715  32.375  30.506  1.00  0.00     0.010 A 
ATOM     33  C   UNL A   1      36.877  32.540  29.736  1.00  0.00    -0.014 A 
BRANCH  33  34
ATOM     34  C   UNL A   1      38.183  31.988  30.181  1.00  0.00     0.031 A 
ATOM     35  C   UNL A   1      38.685  30.673  29.644  1.00  0.00     0.074 A 
ATOM     36  C   UNL A   1      38.942  32.700  31.035  1.00  0.00     0.049 A 
ATOM     37  N   UNL A   1      39.796  30.040  29.928  1.00  0.00    -0.248 NA
ATOM     38  C   UNL A   1      37.838  29.976  28.661  1.00  0.00     0.031 C 
ATOM     39  C   UNL A   1      38.580  34.004  31.594  1.00  0.00     0.029 A 
ATOM     40  N   UNL A   1      40.182  32.443  31.564  1.00  0.00    -0.354 N 
ATOM     41  C   UNL A   1      39.771  28.869  29.179  1.00  0.00     0.074 A 
ATOM     42  C   UNL A   1      38.524  28.861  28.448  1.00  0.00     0.031 C 
ATOM     43  C   UNL A   1      39.593  34.456  32.344  1.00  0.00     0.029 A 
ATOM     44  C   UNL A   1      40.642  33.442  32.389  1.00  0.00     0.049 A 
ATOM     45  H   UNL A   1      40.691  31.624  31.373  1.00  0.00     0.167 HD
ATOM     46  C   UNL A   1      40.709  27.896  29.104  1.00  0.00     0.031 A 
ATOM     47  C   UNL A   1      41.768  33.528  33.121  1.00  0.00     0.031 A 
ATOM     48  C   UNL A   1      41.956  27.919  29.823  1.00  0.00     0.049 A 
ATOM     49  C   UNL A   1      42.758  32.399  33.079  1.00  0.00     0.074 A 
ATOM     50  C   UNL A   1      42.981  26.990  29.786  1.00  0.00     0.029 A 
ATOM     51  N   UNL A   1      42.347  28.913  30.707  1.00  0.00    -0.354 N 
ATOM     52  N   UNL A   1      42.723  31.306  32.357  1.00  0.00    -0.248 NA
ATOM     53  C   UNL A   1      43.934  32.510  33.950  1.00  0.00     0.031 C 
ATOM     54  C   UNL A   1      43.958  27.383  30.701  1.00  0.00     0.029 A 
ATOM     55  C   UNL A   1      43.581  28.599  31.250  1.00  0.00     0.049 A 
ATOM     56  H   UNL A   1      41.825  29.722  30.916  1.00  0.00     0.167 HD
ATOM     57  C   UNL A   1      43.878  30.604  32.677  1.00  0.00     0.074 A 
ATOM     58  C   UNL A   1      44.602  31.406  33.641  1.00  0.00     0.031 C 
ATOM     59  C   UNL A   1      44.293  29.401  32.212  1.00  0.00     0.031 A 
BRANCH  46  60
ATOM     60  C   UNL A   1      40.439  26.705  28.224  1.00  0.00    -0.014 A 
ATOM     61  C   UNL A   1      40.928  26.691  26.906  1.00  0.00     0.009 A 
ATOM     62  C   UNL A   1      39.607  25.658  28.647  1.00  0.00     0.009 A 
ATOM     63  C   UNL A   1      40.571  25.668  26.025  1.00  0.00     0.001 A 
ATOM     64  C   UNL A   1      39.276  24.619  27.773  1.00  0.00     0.001 A 
ATOM     65  C   UNL A   1      39.748  24.631  26.460  1.00  0.00     0.000 A 
ENDBRANCH  46  60
BRANCH  47  66
ATOM     66  C   UNL A   1      41.996  34.736  33.959  1.00  0.00    -0.014 A 
ATOM     67  C   UNL A   1      42.686  35.845  33.437  1.00  0.00     0.009 A 
ATOM     68  C   UNL A   1      41.592  34.761  35.301  1.00  0.00     0.009 A 
ATOM     69  C   UNL A   1      43.005  36.932  34.253  1.00  0.00     0.001 A 
ATOM     70  C   UNL A   1      41.881  35.867  36.105  1.00  0.00     0.001 A 
ATOM     71  C   UNL A   1      42.598  36.944  35.584  1.00  0.00     0.000 A 
ENDBRANCH  47  66
BRANCH  59  72
ATOM     72  C   UNL A   1      45.598  28.856  32.723  1.00  0.00    -0.014 A 
ATOM     73  C   UNL A   1      46.785  29.112  32.016  1.00  0.00     0.009 A 
ATOM     74  C   UNL A   1      45.635  27.984  33.821  1.00  0.00     0.009 A 
ATOM     75  C   UNL A   1      47.976  28.484  32.379  1.00  0.00     0.001 A 
ATOM     76  C   UNL A   1      46.835  27.380  34.201  1.00  0.00     0.001 A 
ATOM     77  C   UNL A   1      48.000  27.620  33.472  1.00  0.00     0.000 A 
ENDBRANCH  59  72
ENDBRANCH  33  34
ENDBRANCH  25  28
ENDBRANCH  23  24
ENDBRANCH  22  23
ENDBRANCH  21  22
ENDBRANCH  20  21
ENDBRANCH   1  20
TORSDOF 17
ENDMDL
