MODEL 1
REMARK VINA RESULT:     -11.9      0.000      0.000
REMARK SMILES O=C(NCCCCCCNC(=O)c1nnn(-c2cccc(C(F)(F)F)c2)c1[C@@H]1COc2ccccc2O1)c1ccc(-c2c3nc(c(-c4ccccc4)c4ccc([nH]4)c(-c4ccccc4)c4nc(c(-c5ccccc5)c5ccc2[nH]5)C=C4)C=C3)cc1
REMARK SMILES IDX 6 1 5 2 4 3 3 4 1 5 2 6 38 8 39 9 85 10 40 11 84 12 41 13
REMARK SMILES IDX 42 14 43 15 78 16 44 17 83 18 77 19 79 20 45 21 82 22 76 23
REMARK SMILES IDX 75 24 46 26 68 27 53 28 67 29 54 30 57 31 66 32 80 33 55 34
REMARK SMILES IDX 56 35 65 37 81 38 58 39 47 40 48 41 52 42 49 43 51 44 50 45
REMARK SMILES IDX 69 46 70 47 74 48 71 49 73 50 72 51 59 52 60 53 64 54 61 55
REMARK SMILES IDX 63 56 62 57 7 58 8 59 9 60 10 61 11 62 12 64 13 65 14 66
REMARK SMILES IDX 27 67 15 68 16 69 28 70 29 71 37 72 30 73 36 74 31 75 35 76
REMARK SMILES IDX 32 77 34 78 33 79 17 80 18 81 26 82 19 83 21 84 20 85 22 86
REMARK SMILES IDX 23 87 24 88 25 89
REMARK H PARENT 3 7 79 25 57 36 10 63
REMARK Flexibility Score: inf
ROOT
ATOM      1  C   UNL A   1      33.892  28.578  24.482  1.00  0.00     0.002 C 
ENDROOT
BRANCH   1   2
ATOM      2  C   UNL A   1      33.001  29.521  25.307  1.00  0.00     0.021 C 
BRANCH   2   3
ATOM      3  C   UNL A   1      33.197  29.481  26.821  1.00  0.00     0.116 C 
BRANCH   3   4
ATOM      4  N   UNL A   1      33.343  30.780  27.446  1.00  0.00    -0.352 N 
ATOM      5  O   UNL A   1      34.074  32.664  28.321  1.00  0.00    -0.269 OA
ATOM      6  C   UNL A   1      34.371  31.522  27.955  1.00  0.00     0.251 C 
ATOM      7  H   UNL A   1      32.481  31.248  27.523  1.00  0.00     0.163 HD
BRANCH   6   8
ATOM      8  C   UNL A   1      35.781  31.071  28.145  1.00  0.00     0.039 A 
ATOM      9  C   UNL A   1      36.796  31.780  28.785  1.00  0.00     0.014 A 
ATOM     10  C   UNL A   1      36.083  29.786  27.642  1.00  0.00     0.014 A 
ATOM     11  C   UNL A   1      38.082  31.234  28.882  1.00  0.00     0.010 A 
ATOM     12  C   UNL A   1      37.362  29.239  27.736  1.00  0.00     0.010 A 
ATOM     13  C   UNL A   1      38.373  29.970  28.347  1.00  0.00    -0.014 A 
BRANCH  13  14
ATOM     14  C   UNL A   1      39.679  29.367  28.633  1.00  0.00     0.031 A 
ATOM     15  C   UNL A   1      39.904  29.043  30.070  1.00  0.00     0.074 A 
ATOM     16  C   UNL A   1      40.589  28.961  27.722  1.00  0.00     0.049 A 
ATOM     17  N   UNL A   1      40.770  29.567  30.874  1.00  0.00    -0.248 NA
ATOM     18  C   UNL A   1      38.999  28.076  30.711  1.00  0.00     0.031 C 
ATOM     19  C   UNL A   1      40.445  28.886  26.268  1.00  0.00     0.029 A 
ATOM     20  N   UNL A   1      41.835  28.433  27.934  1.00  0.00    -0.354 N 
ATOM     21  C   UNL A   1      40.643  28.884  32.082  1.00  0.00     0.074 A 
ATOM     22  C   UNL A   1      39.456  28.074  31.964  1.00  0.00     0.031 C 
ATOM     23  C   UNL A   1      41.467  28.159  25.752  1.00  0.00     0.029 A 
ATOM     24  C   UNL A   1      42.405  27.835  26.816  1.00  0.00     0.049 A 
ATOM     25  H   UNL A   1      42.290  28.474  28.806  1.00  0.00     0.167 HD
ATOM     26  C   UNL A   1      41.643  28.872  33.006  1.00  0.00     0.031 A 
ATOM     27  C   UNL A   1      43.545  27.098  26.769  1.00  0.00     0.031 A 
ATOM     28  C   UNL A   1      42.610  29.913  32.764  1.00  0.00     0.049 A 
ATOM     29  C   UNL A   1      44.343  27.411  27.973  1.00  0.00     0.074 A 
ATOM     30  C   UNL A   1      42.569  31.289  32.669  1.00  0.00     0.029 A 
ATOM     31  N   UNL A   1      43.814  29.536  32.221  1.00  0.00    -0.354 N 
ATOM     32  N   UNL A   1      44.957  28.540  28.161  1.00  0.00    -0.248 NA
ATOM     33  C   UNL A   1      44.163  26.590  29.158  1.00  0.00     0.031 C 
ATOM     34  C   UNL A   1      43.511  31.615  31.648  1.00  0.00     0.029 A 
ATOM     35  C   UNL A   1      44.109  30.427  31.227  1.00  0.00     0.049 A 
ATOM     36  H   UNL A   1      44.364  28.767  32.497  1.00  0.00     0.167 HD
ATOM     37  C   UNL A   1      44.830  28.782  29.518  1.00  0.00     0.074 A 
ATOM     38  C   UNL A   1      44.445  27.497  30.096  1.00  0.00     0.031 C 
ATOM     39  C   UNL A   1      44.773  30.059  29.998  1.00  0.00     0.031 A 
BRANCH  26  40
ATOM     40  C   UNL A   1      41.982  27.669  33.861  1.00  0.00    -0.014 A 
ATOM     41  C   UNL A   1      41.466  27.610  35.171  1.00  0.00     0.009 A 
ATOM     42  C   UNL A   1      43.018  26.768  33.554  1.00  0.00     0.009 A 
ATOM     43  C   UNL A   1      42.036  26.783  36.146  1.00  0.00     0.001 A 
ATOM     44  C   UNL A   1      43.558  25.907  34.514  1.00  0.00     0.001 A 
ATOM     45  C   UNL A   1      43.092  25.941  35.819  1.00  0.00     0.000 A 
ENDBRANCH  26  40
BRANCH  27  46
ATOM     46  C   UNL A   1      43.936  25.989  25.872  1.00  0.00    -0.014 A 
ATOM     47  C   UNL A   1      45.289  25.761  25.558  1.00  0.00     0.009 A 
ATOM     48  C   UNL A   1      43.017  24.973  25.564  1.00  0.00     0.009 A 
ATOM     49  C   UNL A   1      45.710  24.543  25.005  1.00  0.00     0.001 A 
ATOM     50  C   UNL A   1      43.435  23.758  25.009  1.00  0.00     0.001 A 
ATOM     51  C   UNL A   1      44.783  23.536  24.747  1.00  0.00     0.000 A 
ENDBRANCH  27  46
BRANCH  39  52
ATOM     52  C   UNL A   1      45.176  31.187  29.083  1.00  0.00    -0.014 A 
ATOM     53  C   UNL A   1      44.299  31.802  28.174  1.00  0.00     0.009 A 
ATOM     54  C   UNL A   1      46.461  31.730  29.239  1.00  0.00     0.009 A 
ATOM     55  C   UNL A   1      44.713  32.901  27.414  1.00  0.00     0.001 A 
ATOM     56  C   UNL A   1      46.864  32.844  28.500  1.00  0.00     0.001 A 
ATOM     57  C   UNL A   1      45.993  33.424  27.581  1.00  0.00     0.000 A 
ENDBRANCH  39  52
ENDBRANCH  13  14
ENDBRANCH   6   8
ENDBRANCH   3   4
ENDBRANCH   2   3
ENDBRANCH   1   2
BRANCH   1  58
ATOM     58  C   UNL A   1      33.409  28.170  23.082  1.00  0.00     0.002 C 
BRANCH  58  59
ATOM     59  C   UNL A   1      32.730  26.809  22.951  1.00  0.00     0.021 C 
BRANCH  59  60
ATOM     60  C   UNL A   1      33.210  25.905  21.818  1.00  0.00     0.116 C 
BRANCH  60  61
ATOM     61  N   UNL A   1      32.890  24.501  21.925  1.00  0.00    -0.351 N 
ATOM     62  C   UNL A   1      33.504  23.392  22.478  1.00  0.00     0.273 C 
ATOM     63  H   UNL A   1      32.029  24.281  21.503  1.00  0.00     0.163 HD
ATOM     64  O   UNL A   1      32.836  22.358  22.330  1.00  0.00    -0.267 OA
BRANCH  62  65
ATOM     65  C   UNL A   1      34.810  23.313  23.181  1.00  0.00     0.178 A 
ATOM     66  N   UNL A   1      35.936  23.180  22.374  1.00  0.00    -0.124 NA
ATOM     67  C   UNL A   1      35.270  23.385  24.502  1.00  0.00     0.122 A 
ATOM     68  N   UNL A   1      37.027  23.192  23.119  1.00  0.00    -0.061 NA
ATOM     69  N   UNL A   1      36.642  23.192  24.403  1.00  0.00    -0.213 N 
BRANCH  67  70
ATOM     70  C   UNL A   1      34.602  23.839  25.757  1.00  0.00     0.262 C 
ATOM     71  C   UNL A   1      33.742  22.681  26.313  1.00  0.00     0.281 C 
ATOM     72  O   UNL A   1      33.916  25.089  25.643  1.00  0.00    -0.477 OA
ATOM     73  O   UNL A   1      32.450  22.643  25.710  1.00  0.00    -0.485 OA
ATOM     74  C   UNL A   1      32.599  25.032  26.014  1.00  0.00     0.162 A 
ATOM     75  C   UNL A   1      31.856  23.849  25.966  1.00  0.00     0.161 A 
ATOM     76  C   UNL A   1      31.979  26.220  26.380  1.00  0.00     0.050 A 
ATOM     77  C   UNL A   1      30.484  23.858  26.173  1.00  0.00     0.050 A 
ATOM     78  C   UNL A   1      30.612  26.224  26.655  1.00  0.00     0.004 A 
ATOM     79  C   UNL A   1      29.860  25.052  26.524  1.00  0.00     0.004 A 
ENDBRANCH  67  70
BRANCH  69  80
ATOM     80  C   UNL A   1      37.582  22.985  25.429  1.00  0.00     0.067 A 
ATOM     81  C   UNL A   1      38.249  21.762  25.522  1.00  0.00     0.028 A 
ATOM     82  C   UNL A   1      37.951  24.074  26.228  1.00  0.00     0.041 A 
ATOM     83  C   UNL A   1      39.370  21.667  26.349  1.00  0.00     0.003 A 
ATOM     84  C   UNL A   1      39.058  23.972  27.081  1.00  0.00     0.058 A 
ATOM     85  C   UNL A   1      39.782  22.768  27.109  1.00  0.00     0.013 A 
BRANCH  84  86
ATOM     86  C   UNL A   1      39.517  25.161  27.885  1.00  0.00     0.416 C 
ATOM     87  F   UNL A   1      40.873  25.237  27.990  1.00  0.00    -0.166 F 
ATOM     88  F   UNL A   1      39.116  26.345  27.341  1.00  0.00    -0.166 F 
ATOM     89  F   UNL A   1      39.045  25.164  29.164  1.00  0.00    -0.166 F 
ENDBRANCH  84  86
ENDBRANCH  69  80
ENDBRANCH  62  65
ENDBRANCH  60  61
ENDBRANCH  59  60
ENDBRANCH  58  59
ENDBRANCH   1  58
TORSDOF 16
ENDMDL
MODEL 2
REMARK VINA RESULT:     -11.1      2.517      4.099
REMARK SMILES O=C(NCCCCCCNC(=O)c1nnn(-c2cccc(C(F)(F)F)c2)c1[C@@H]1COc2ccccc2O1)c1ccc(-c2c3nc(c(-c4ccccc4)c4ccc([nH]4)c(-c4ccccc4)c4nc(c(-c5ccccc5)c5ccc2[nH]5)C=C4)C=C3)cc1
REMARK SMILES IDX 6 1 5 2 4 3 3 4 1 5 2 6 38 8 39 9 85 10 40 11 84 12 41 13
REMARK SMILES IDX 42 14 43 15 78 16 44 17 83 18 77 19 79 20 45 21 82 22 76 23
REMARK SMILES IDX 75 24 46 26 68 27 53 28 67 29 54 30 57 31 66 32 80 33 55 34
REMARK SMILES IDX 56 35 65 37 81 38 58 39 47 40 48 41 52 42 49 43 51 44 50 45
REMARK SMILES IDX 69 46 70 47 74 48 71 49 73 50 72 51 59 52 60 53 64 54 61 55
REMARK SMILES IDX 63 56 62 57 7 58 8 59 9 60 10 61 11 62 12 64 13 65 14 66
REMARK SMILES IDX 27 67 15 68 16 69 28 70 29 71 37 72 30 73 36 74 31 75 35 76
REMARK SMILES IDX 32 77 34 78 33 79 17 80 18 81 26 82 19 83 21 84 20 85 22 86
REMARK SMILES IDX 23 87 24 88 25 89
REMARK H PARENT 3 7 79 25 57 36 10 63
REMARK Flexibility Score: inf
ROOT
ATOM      1  C   UNL A   1      34.220  29.776  27.628  1.00  0.00     0.002 C 
ENDROOT
BRANCH   1   2
ATOM      2  C   UNL A   1      33.685  31.215  27.551  1.00  0.00     0.021 C 
BRANCH   2   3
ATOM      3  C   UNL A   1      34.643  32.315  28.005  1.00  0.00     0.116 C 
BRANCH   3   4
ATOM      4  N   UNL A   1      34.726  32.489  29.441  1.00  0.00    -0.352 N 
ATOM      5  O   UNL A   1      35.340  32.584  31.553  1.00  0.00    -0.269 OA
ATOM      6  C   UNL A   1      35.602  32.141  30.430  1.00  0.00     0.251 C 
ATOM      7  H   UNL A   1      33.953  32.986  29.794  1.00  0.00     0.163 HD
BRANCH   6   8
ATOM      8  C   UNL A   1      36.795  31.258  30.287  1.00  0.00     0.039 A 
ATOM      9  C   UNL A   1      38.118  31.674  30.143  1.00  0.00     0.014 A 
ATOM     10  C   UNL A   1      36.536  29.871  30.331  1.00  0.00     0.014 A 
ATOM     11  C   UNL A   1      39.143  30.728  30.008  1.00  0.00     0.010 A 
ATOM     12  C   UNL A   1      37.552  28.926  30.197  1.00  0.00     0.010 A 
ATOM     13  C   UNL A   1      38.862  29.353  30.021  1.00  0.00    -0.014 A 
BRANCH  13  14
ATOM     14  C   UNL A   1      39.982  28.406  30.060  1.00  0.00     0.031 A 
ATOM     15  C   UNL A   1      40.622  28.267  31.399  1.00  0.00     0.074 A 
ATOM     16  C   UNL A   1      40.363  27.576  29.065  1.00  0.00     0.049 A 
ATOM     17  N   UNL A   1      41.823  28.598  31.740  1.00  0.00    -0.248 NA
ATOM     18  C   UNL A   1      39.795  27.776  32.513  1.00  0.00     0.031 C 
ATOM     19  C   UNL A   1      39.687  27.315  27.794  1.00  0.00     0.029 A 
ATOM     20  N   UNL A   1      41.421  26.707  29.034  1.00  0.00    -0.354 N 
ATOM     21  C   UNL A   1      41.973  28.205  33.069  1.00  0.00     0.074 A 
ATOM     22  C   UNL A   1      40.658  27.828  33.528  1.00  0.00     0.031 C 
ATOM     23  C   UNL A   1      40.229  26.216  27.215  1.00  0.00     0.029 A 
ATOM     24  C   UNL A   1      41.372  25.778  28.001  1.00  0.00     0.049 A 
ATOM     25  H   UNL A   1      42.155  26.737  29.689  1.00  0.00     0.167 HD
ATOM     26  C   UNL A   1      43.201  28.014  33.625  1.00  0.00     0.031 A 
ATOM     27  C   UNL A   1      42.188  24.707  27.820  1.00  0.00     0.031 A 
ATOM     28  C   UNL A   1      44.246  28.619  32.839  1.00  0.00     0.049 A 
ATOM     29  C   UNL A   1      43.420  24.930  28.605  1.00  0.00     0.074 A 
ATOM     30  C   UNL A   1      44.528  29.895  32.395  1.00  0.00     0.029 A 
ATOM     31  N   UNL A   1      45.031  27.780  32.088  1.00  0.00    -0.354 N 
ATOM     32  N   UNL A   1      44.328  25.806  28.294  1.00  0.00    -0.248 NA
ATOM     33  C   UNL A   1      43.478  24.423  29.966  1.00  0.00     0.031 C 
ATOM     34  C   UNL A   1      45.084  29.717  31.093  1.00  0.00     0.029 A 
ATOM     35  C   UNL A   1      45.163  28.345  30.850  1.00  0.00     0.049 A 
ATOM     36  H   UNL A   1      45.427  26.928  32.385  1.00  0.00     0.167 HD
ATOM     37  C   UNL A   1      44.768  26.296  29.511  1.00  0.00     0.074 A 
ATOM     38  C   UNL A   1      44.304  25.327  30.500  1.00  0.00     0.031 C 
ATOM     39  C   UNL A   1      45.218  27.580  29.626  1.00  0.00     0.031 A 
BRANCH  26  40
ATOM     40  C   UNL A   1      43.506  26.925  34.632  1.00  0.00    -0.014 A 
ATOM     41  C   UNL A   1      43.698  25.611  34.162  1.00  0.00     0.009 A 
ATOM     42  C   UNL A   1      43.307  27.072  36.016  1.00  0.00     0.009 A 
ATOM     43  C   UNL A   1      43.574  24.504  35.011  1.00  0.00     0.001 A 
ATOM     44  C   UNL A   1      43.230  25.971  36.875  1.00  0.00     0.001 A 
ATOM     45  C   UNL A   1      43.326  24.686  36.366  1.00  0.00     0.000 A 
ENDBRANCH  26  40
BRANCH  27  46
ATOM     46  C   UNL A   1      41.929  23.399  27.180  1.00  0.00    -0.014 A 
ATOM     47  C   UNL A   1      42.913  22.780  26.386  1.00  0.00     0.009 A 
ATOM     48  C   UNL A   1      40.835  22.619  27.587  1.00  0.00     0.009 A 
ATOM     49  C   UNL A   1      42.828  21.419  26.059  1.00  0.00     0.001 A 
ATOM     50  C   UNL A   1      40.747  21.261  27.257  1.00  0.00     0.001 A 
ATOM     51  C   UNL A   1      41.753  20.657  26.509  1.00  0.00     0.000 A 
ENDBRANCH  27  46
BRANCH  39  52
ATOM     52  C   UNL A   1      45.537  28.344  28.365  1.00  0.00    -0.014 A 
ATOM     53  C   UNL A   1      44.576  29.041  27.614  1.00  0.00     0.009 A 
ATOM     54  C   UNL A   1      46.885  28.464  27.995  1.00  0.00     0.009 A 
ATOM     55  C   UNL A   1      44.951  29.800  26.501  1.00  0.00     0.001 A 
ATOM     56  C   UNL A   1      47.262  29.244  26.901  1.00  0.00     0.001 A 
ATOM     57  C   UNL A   1      46.294  29.904  26.148  1.00  0.00     0.000 A 
ENDBRANCH  39  52
ENDBRANCH  13  14
ENDBRANCH   6   8
ENDBRANCH   3   4
ENDBRANCH   2   3
ENDBRANCH   1   2
BRANCH   1  58
ATOM     58  C   UNL A   1      33.914  28.830  26.456  1.00  0.00     0.002 C 
BRANCH  58  59
ATOM     59  C   UNL A   1      33.166  29.421  25.264  1.00  0.00     0.021 C 
BRANCH  59  60
ATOM     60  C   UNL A   1      31.655  29.207  25.220  1.00  0.00     0.116 C 
BRANCH  60  61
ATOM     61  N   UNL A   1      31.055  29.055  23.916  1.00  0.00    -0.351 N 
ATOM     62  C   UNL A   1      30.706  27.985  23.112  1.00  0.00     0.273 C 
ATOM     63  H   UNL A   1      30.842  29.920  23.500  1.00  0.00     0.163 HD
ATOM     64  O   UNL A   1      30.196  28.343  22.041  1.00  0.00    -0.267 OA
BRANCH  62  65
ATOM     65  C   UNL A   1      30.881  26.534  23.378  1.00  0.00     0.178 A 
ATOM     66  N   UNL A   1      29.774  25.726  23.138  1.00  0.00    -0.124 NA
ATOM     67  C   UNL A   1      31.918  25.683  23.782  1.00  0.00     0.122 A 
ATOM     68  N   UNL A   1      30.087  24.460  23.348  1.00  0.00    -0.061 NA
ATOM     69  N   UNL A   1      31.329  24.426  23.850  1.00  0.00    -0.213 N 
BRANCH  67  70
ATOM     70  C   UNL A   1      33.392  25.894  23.869  1.00  0.00     0.262 C 
ATOM     71  C   UNL A   1      34.028  25.553  22.501  1.00  0.00     0.281 C 
ATOM     72  O   UNL A   1      34.016  25.260  24.989  1.00  0.00    -0.477 OA
ATOM     73  O   UNL A   1      34.295  24.159  22.373  1.00  0.00    -0.485 OA
ATOM     74  C   UNL A   1      35.050  24.429  24.649  1.00  0.00     0.162 A 
ATOM     75  C   UNL A   1      35.141  23.821  23.394  1.00  0.00     0.161 A 
ATOM     76  C   UNL A   1      35.992  24.136  25.627  1.00  0.00     0.050 A 
ATOM     77  C   UNL A   1      36.096  22.846  23.140  1.00  0.00     0.050 A 
ATOM     78  C   UNL A   1      36.996  23.206  25.356  1.00  0.00     0.004 A 
ATOM     79  C   UNL A   1      37.031  22.541  24.126  1.00  0.00     0.004 A 
ENDBRANCH  67  70
BRANCH  69  80
ATOM     80  C   UNL A   1      31.854  23.232  24.376  1.00  0.00     0.067 A 
ATOM     81  C   UNL A   1      32.137  22.164  23.522  1.00  0.00     0.028 A 
ATOM     82  C   UNL A   1      32.241  23.205  25.720  1.00  0.00     0.041 A 
ATOM     83  C   UNL A   1      32.914  21.107  23.999  1.00  0.00     0.003 A 
ATOM     84  C   UNL A   1      32.996  22.131  26.210  1.00  0.00     0.058 A 
ATOM     85  C   UNL A   1      33.355  21.099  25.327  1.00  0.00     0.013 A 
BRANCH  84  86
ATOM     86  C   UNL A   1      33.491  22.129  27.634  1.00  0.00     0.416 C 
ATOM     87  F   UNL A   1      34.415  21.156  27.871  1.00  0.00    -0.166 F 
ATOM     88  F   UNL A   1      34.087  23.304  27.981  1.00  0.00    -0.166 F 
ATOM     89  F   UNL A   1      32.501  21.932  28.549  1.00  0.00    -0.166 F 
ENDBRANCH  84  86
ENDBRANCH  69  80
ENDBRANCH  62  65
ENDBRANCH  60  61
ENDBRANCH  59  60
ENDBRANCH  58  59
ENDBRANCH   1  58
TORSDOF 16
ENDMDL
MODEL 3
REMARK VINA RESULT:     -11.1      2.273      7.447
REMARK SMILES O=C(NCCCCCCNC(=O)c1nnn(-c2cccc(C(F)(F)F)c2)c1[C@@H]1COc2ccccc2O1)c1ccc(-c2c3nc(c(-c4ccccc4)c4ccc([nH]4)c(-c4ccccc4)c4nc(c(-c5ccccc5)c5ccc2[nH]5)C=C4)C=C3)cc1
REMARK SMILES IDX 6 1 5 2 4 3 3 4 1 5 2 6 38 8 39 9 85 10 40 11 84 12 41 13
REMARK SMILES IDX 42 14 43 15 78 16 44 17 83 18 77 19 79 20 45 21 82 22 76 23
REMARK SMILES IDX 75 24 46 26 68 27 53 28 67 29 54 30 57 31 66 32 80 33 55 34
REMARK SMILES IDX 56 35 65 37 81 38 58 39 47 40 48 41 52 42 49 43 51 44 50 45
REMARK SMILES IDX 69 46 70 47 74 48 71 49 73 50 72 51 59 52 60 53 64 54 61 55
REMARK SMILES IDX 63 56 62 57 7 58 8 59 9 60 10 61 11 62 12 64 13 65 14 66
REMARK SMILES IDX 27 67 15 68 16 69 28 70 29 71 37 72 30 73 36 74 31 75 35 76
REMARK SMILES IDX 32 77 34 78 33 79 17 80 18 81 26 82 19 83 21 84 20 85 22 86
REMARK SMILES IDX 23 87 24 88 25 89
REMARK H PARENT 3 7 79 25 57 36 10 63
REMARK Flexibility Score: inf
ROOT
ATOM      1  C   UNL A   1      34.623  22.098  26.835  1.00  0.00     0.002 C 
ENDROOT
BRANCH   1   2
ATOM      2  C   UNL A   1      35.423  21.574  25.632  1.00  0.00     0.021 C 
BRANCH   2   3
ATOM      3  C   UNL A   1      36.660  22.381  25.242  1.00  0.00     0.116 C 
BRANCH   3   4
ATOM      4  N   UNL A   1      37.922  21.738  25.550  1.00  0.00    -0.352 N 
ATOM      5  O   UNL A   1      39.892  21.163  26.348  1.00  0.00    -0.269 OA
ATOM      6  C   UNL A   1      39.057  22.067  26.236  1.00  0.00     0.251 C 
ATOM      7  H   UNL A   1      37.974  20.833  25.167  1.00  0.00     0.163 HD
BRANCH   6   8
ATOM      8  C   UNL A   1      39.389  23.402  26.811  1.00  0.00     0.039 A 
ATOM      9  C   UNL A   1      38.588  24.542  26.769  1.00  0.00     0.014 A 
ATOM     10  C   UNL A   1      40.629  23.486  27.481  1.00  0.00     0.014 A 
ATOM     11  C   UNL A   1      39.035  25.738  27.346  1.00  0.00     0.010 A 
ATOM     12  C   UNL A   1      41.078  24.673  28.057  1.00  0.00     0.010 A 
ATOM     13  C   UNL A   1      40.285  25.811  27.980  1.00  0.00    -0.014 A 
BRANCH  13  14
ATOM     14  C   UNL A   1      40.628  27.028  28.724  1.00  0.00     0.031 A 
ATOM     15  C   UNL A   1      41.603  27.918  28.032  1.00  0.00     0.074 A 
ATOM     16  C   UNL A   1      40.043  27.461  29.862  1.00  0.00     0.049 A 
ATOM     17  N   UNL A   1      42.806  28.212  28.401  1.00  0.00    -0.248 NA
ATOM     18  C   UNL A   1      41.221  28.481  26.728  1.00  0.00     0.031 C 
ATOM     19  C   UNL A   1      38.861  26.922  30.534  1.00  0.00     0.029 A 
ATOM     20  N   UNL A   1      40.350  28.561  30.616  1.00  0.00    -0.354 N 
ATOM     21  C   UNL A   1      43.284  29.134  27.471  1.00  0.00     0.074 A 
ATOM     22  C   UNL A   1      42.320  29.160  26.398  1.00  0.00     0.031 C 
ATOM     23  C   UNL A   1      38.432  27.807  31.467  1.00  0.00     0.029 A 
ATOM     24  C   UNL A   1      39.381  28.907  31.552  1.00  0.00     0.049 A 
ATOM     25  H   UNL A   1      41.188  29.066  30.506  1.00  0.00     0.167 HD
ATOM     26  C   UNL A   1      44.325  29.964  27.756  1.00  0.00     0.031 A 
ATOM     27  C   UNL A   1      39.340  30.028  32.316  1.00  0.00     0.031 A 
ATOM     28  C   UNL A   1      45.070  29.516  28.905  1.00  0.00     0.049 A 
ATOM     29  C   UNL A   1      40.700  30.604  32.360  1.00  0.00     0.074 A 
ATOM     30  C   UNL A   1      45.754  28.366  29.246  1.00  0.00     0.029 A 
ATOM     31  N   UNL A   1      44.881  30.202  30.080  1.00  0.00    -0.354 N 
ATOM     32  N   UNL A   1      41.691  30.071  33.011  1.00  0.00    -0.248 NA
ATOM     33  C   UNL A   1      41.065  31.601  31.368  1.00  0.00     0.031 C 
ATOM     34  C   UNL A   1      45.506  28.192  30.641  1.00  0.00     0.029 A 
ATOM     35  C   UNL A   1      44.740  29.274  31.074  1.00  0.00     0.049 A 
ATOM     36  H   UNL A   1      44.854  31.180  30.187  1.00  0.00     0.167 HD
ATOM     37  C   UNL A   1      42.797  30.311  32.213  1.00  0.00     0.074 A 
ATOM     38  C   UNL A   1      42.375  31.357  31.286  1.00  0.00     0.031 C 
ATOM     39  C   UNL A   1      43.850  29.442  32.200  1.00  0.00     0.031 A 
BRANCH  26  40
ATOM     40  C   UNL A   1      44.414  31.396  27.272  1.00  0.00    -0.014 A 
ATOM     41  C   UNL A   1      45.528  31.774  26.497  1.00  0.00     0.009 A 
ATOM     42  C   UNL A   1      43.631  32.440  27.796  1.00  0.00     0.009 A 
ATOM     43  C   UNL A   1      45.902  33.117  26.359  1.00  0.00     0.001 A 
ATOM     44  C   UNL A   1      43.975  33.784  27.620  1.00  0.00     0.001 A 
ATOM     45  C   UNL A   1      45.131  34.120  26.934  1.00  0.00     0.000 A 
ENDBRANCH  26  40
BRANCH  27  46
ATOM     46  C   UNL A   1      38.187  30.774  32.867  1.00  0.00    -0.014 A 
ATOM     47  C   UNL A   1      38.218  31.278  34.181  1.00  0.00     0.009 A 
ATOM     48  C   UNL A   1      37.182  31.251  32.011  1.00  0.00     0.009 A 
ATOM     49  C   UNL A   1      37.309  32.259  34.602  1.00  0.00     0.001 A 
ATOM     50  C   UNL A   1      36.271  32.227  32.431  1.00  0.00     0.001 A 
ATOM     51  C   UNL A   1      36.347  32.745  33.721  1.00  0.00     0.000 A 
ENDBRANCH  27  46
BRANCH  39  52
ATOM     52  C   UNL A   1      43.939  28.407  33.293  1.00  0.00    -0.014 A 
ATOM     53  C   UNL A   1      43.332  27.142  33.217  1.00  0.00     0.009 A 
ATOM     54  C   UNL A   1      44.776  28.678  34.386  1.00  0.00     0.009 A 
ATOM     55  C   UNL A   1      43.524  26.195  34.228  1.00  0.00     0.001 A 
ATOM     56  C   UNL A   1      44.989  27.723  35.381  1.00  0.00     0.001 A 
ATOM     57  C   UNL A   1      44.356  26.485  35.307  1.00  0.00     0.000 A 
ENDBRANCH  39  52
ENDBRANCH  13  14
ENDBRANCH   6   8
ENDBRANCH   3   4
ENDBRANCH   2   3
ENDBRANCH   1   2
BRANCH   1  58
ATOM     58  C   UNL A   1      34.035  23.515  26.748  1.00  0.00     0.002 C 
BRANCH  58  59
ATOM     59  C   UNL A   1      32.517  23.645  26.846  1.00  0.00     0.021 C 
BRANCH  59  60
ATOM     60  C   UNL A   1      31.728  23.512  25.546  1.00  0.00     0.116 C 
BRANCH  60  61
ATOM     61  N   UNL A   1      30.589  24.384  25.382  1.00  0.00    -0.351 N 
ATOM     62  C   UNL A   1      30.325  25.716  25.644  1.00  0.00     0.273 C 
ATOM     63  H   UNL A   1      29.816  23.920  24.988  1.00  0.00     0.163 HD
ATOM     64  O   UNL A   1      29.173  26.043  25.324  1.00  0.00    -0.267 OA
BRANCH  62  65
ATOM     65  C   UNL A   1      31.223  26.735  26.247  1.00  0.00     0.178 A 
ATOM     66  N   UNL A   1      30.933  27.114  27.554  1.00  0.00    -0.124 NA
ATOM     67  C   UNL A   1      32.377  27.434  25.873  1.00  0.00     0.122 A 
ATOM     68  N   UNL A   1      31.845  27.967  27.987  1.00  0.00    -0.061 NA
ATOM     69  N   UNL A   1      32.647  28.263  26.955  1.00  0.00    -0.213 N 
BRANCH  67  70
ATOM     70  C   UNL A   1      33.337  27.227  24.750  1.00  0.00     0.262 C 
ATOM     71  C   UNL A   1      32.971  28.188  23.595  1.00  0.00     0.281 C 
ATOM     72  O   UNL A   1      33.504  25.862  24.359  1.00  0.00    -0.477 OA
ATOM     73  O   UNL A   1      31.959  27.641  22.751  1.00  0.00    -0.485 OA
ATOM     74  C   UNL A   1      33.273  25.636  23.028  1.00  0.00     0.162 A 
ATOM     75  C   UNL A   1      32.446  26.460  22.260  1.00  0.00     0.161 A 
ATOM     76  C   UNL A   1      33.833  24.500  22.458  1.00  0.00     0.050 A 
ATOM     77  C   UNL A   1      32.086  26.107  20.967  1.00  0.00     0.050 A 
ATOM     78  C   UNL A   1      33.528  24.173  21.137  1.00  0.00     0.004 A 
ATOM     79  C   UNL A   1      32.635  24.958  20.401  1.00  0.00     0.004 A 
ENDBRANCH  67  70
BRANCH  69  80
ATOM     80  C   UNL A   1      33.579  29.311  27.055  1.00  0.00     0.067 A 
ATOM     81  C   UNL A   1      33.134  30.634  27.102  1.00  0.00     0.028 A 
ATOM     82  C   UNL A   1      34.924  28.992  27.278  1.00  0.00     0.041 A 
ATOM     83  C   UNL A   1      34.029  31.634  27.487  1.00  0.00     0.003 A 
ATOM     84  C   UNL A   1      35.832  29.998  27.635  1.00  0.00     0.058 A 
ATOM     85  C   UNL A   1      35.363  31.316  27.769  1.00  0.00     0.013 A 
BRANCH  84  86
ATOM     86  C   UNL A   1      37.264  29.657  27.960  1.00  0.00     0.416 C 
ATOM     87  F   UNL A   1      37.759  30.388  28.997  1.00  0.00    -0.166 F 
ATOM     88  F   UNL A   1      37.422  28.351  28.312  1.00  0.00    -0.166 F 
ATOM     89  F   UNL A   1      38.118  29.866  26.918  1.00  0.00    -0.166 F 
ENDBRANCH  84  86
ENDBRANCH  69  80
ENDBRANCH  62  65
ENDBRANCH  60  61
ENDBRANCH  59  60
ENDBRANCH  58  59
ENDBRANCH   1  58
TORSDOF 16
ENDMDL
