MODEL 1
REMARK VINA RESULT:     -10.9      0.000      0.000
REMARK SMILES C=C(C(=O)NCCCCCCNC(=O)c1ccc(-c2c3nc(c(-c4ccccc4)c4ccc([nH]4)c(-c4ccccc4)c4nc(c(-c5ccccc5)c5ccc2[nH]5)C=C4)C=C3)cc1)[C@@H]1CC[C@]2(C)CCCC(=C)[C@H]2[C@H]1O
REMARK SMILES IDX 8 1 7 2 6 3 5 4 3 5 4 6 2 8 1 9 63 10 64 11 74 12 65 13
REMARK SMILES IDX 73 14 66 15 71 16 67 17 68 18 70 19 72 20 69 21 75 22 9 24
REMARK SMILES IDX 10 25 11 26 12 27 13 28 14 30 15 31 16 32 62 33 17 34 61 35
REMARK SMILES IDX 18 36 19 37 20 38 55 39 21 40 60 41 54 42 56 43 22 44 59 45
REMARK SMILES IDX 53 46 52 47 23 49 45 50 30 51 44 52 31 53 34 54 43 55 57 56
REMARK SMILES IDX 32 57 33 58 42 60 58 61 35 62 24 63 25 64 29 65 26 66 28 67
REMARK SMILES IDX 27 68 46 69 47 70 51 71 48 72 50 73 49 74 36 75 37 76 41 77
REMARK SMILES IDX 38 78 40 79 39 80
REMARK H PARENT 5 7 75 23 12 29 56 48 34 59
REMARK Flexibility Score: inf
ROOT
ATOM      1  C   UNL A   1      36.927  22.159  25.024  1.00  0.00     0.002 C 
ENDROOT
BRANCH   1   2
ATOM      2  C   UNL A   1      36.005  23.213  24.400  1.00  0.00     0.021 C 
BRANCH   2   3
ATOM      3  C   UNL A   1      35.331  24.172  25.377  1.00  0.00     0.116 C 
BRANCH   3   4
ATOM      4  N   UNL A   1      34.803  23.509  26.556  1.00  0.00    -0.352 N 
ATOM      5  C   UNL A   1      33.616  22.862  26.738  1.00  0.00     0.246 C 
ATOM      6  O   UNL A   1      33.369  22.340  27.821  1.00  0.00    -0.270 OA
ATOM      7  H   UNL A   1      35.393  23.528  27.345  1.00  0.00     0.163 HD
BRANCH   5   8
ATOM      8  C   UNL A   1      32.629  22.779  25.622  1.00  0.00     0.015 C 
ATOM      9  C   UNL A   1      32.657  21.645  24.893  1.00  0.00     0.019 C 
BRANCH   8  10
ATOM     10  C   UNL A   1      31.484  23.798  25.542  1.00  0.00     0.053 C 
ATOM     11  C   UNL A   1      31.116  24.179  24.086  1.00  0.00     0.012 C 
ATOM     12  C   UNL A   1      31.573  25.121  26.384  1.00  0.00     0.129 C 
ATOM     13  C   UNL A   1      32.132  25.142  23.475  1.00  0.00     0.008 C 
ATOM     14  C   UNL A   1      32.521  26.192  25.756  1.00  0.00     0.050 C 
ATOM     15  C   UNL A   1      32.222  26.481  24.246  1.00  0.00    -0.024 C 
ATOM     16  C   UNL A   1      32.695  27.534  26.482  1.00  0.00    -0.071 C 
ATOM     17  C   UNL A   1      30.911  27.278  24.018  1.00  0.00     0.012 C 
ATOM     18  C   UNL A   1      33.405  27.305  23.660  1.00  0.00     0.008 C 
ATOM     19  C   UNL A   1      33.820  28.382  25.930  1.00  0.00     0.031 C 
ATOM     20  C   UNL A   1      31.935  27.997  27.489  1.00  0.00     0.008 C 
ATOM     21  C   UNL A   1      33.680  28.606  24.424  1.00  0.00     0.005 C 
BRANCH  12  22
ATOM     22  O   UNL A   1      30.251  25.670  26.542  1.00  0.00    -0.392 OA
ATOM     23  H   UNL A   1      30.218  26.206  27.350  1.00  0.00     0.211 HD
ENDBRANCH  12  22
ENDBRANCH   8  10
ENDBRANCH   5   8
ENDBRANCH   3   4
ENDBRANCH   2   3
ENDBRANCH   1   2
BRANCH   1  24
ATOM     24  C   UNL A   1      36.637  20.698  24.666  1.00  0.00     0.002 C 
BRANCH  24  25
ATOM     25  C   UNL A   1      37.733  19.688  25.012  1.00  0.00     0.021 C 
BRANCH  25  26
ATOM     26  C   UNL A   1      38.946  20.249  25.748  1.00  0.00     0.116 C 
BRANCH  26  27
ATOM     27  N   UNL A   1      40.086  19.348  25.739  1.00  0.00    -0.352 N 
ATOM     28  C   UNL A   1      41.397  19.588  26.058  1.00  0.00     0.251 C 
ATOM     29  H   UNL A   1      39.886  18.425  25.460  1.00  0.00     0.163 HD
ATOM     30  O   UNL A   1      42.246  18.717  25.858  1.00  0.00    -0.269 OA
BRANCH  28  31
ATOM     31  C   UNL A   1      41.812  20.894  26.614  1.00  0.00     0.039 A 
ATOM     32  C   UNL A   1      42.266  21.882  25.735  1.00  0.00     0.014 A 
ATOM     33  C   UNL A   1      41.775  21.148  27.988  1.00  0.00     0.014 A 
ATOM     34  C   UNL A   1      42.623  23.140  26.225  1.00  0.00     0.010 A 
ATOM     35  C   UNL A   1      42.063  22.424  28.468  1.00  0.00     0.010 A 
ATOM     36  C   UNL A   1      42.490  23.433  27.592  1.00  0.00    -0.014 A 
BRANCH  36  37
ATOM     37  C   UNL A   1      42.775  24.796  28.109  1.00  0.00     0.031 A 
ATOM     38  C   UNL A   1      44.172  25.197  28.492  1.00  0.00     0.074 A 
ATOM     39  C   UNL A   1      41.757  25.664  28.278  1.00  0.00     0.049 A 
ATOM     40  N   UNL A   1      44.601  26.340  28.965  1.00  0.00    -0.248 NA
ATOM     41  C   UNL A   1      45.218  24.174  28.350  1.00  0.00     0.031 C 
ATOM     42  C   UNL A   1      40.350  25.386  27.984  1.00  0.00     0.029 A 
ATOM     43  N   UNL A   1      41.752  26.957  28.738  1.00  0.00    -0.354 N 
ATOM     44  C   UNL A   1      45.962  26.169  29.187  1.00  0.00     0.074 A 
ATOM     45  C   UNL A   1      46.276  24.799  28.846  1.00  0.00     0.031 C 
ATOM     46  C   UNL A   1      39.624  26.487  28.235  1.00  0.00     0.029 A 
ATOM     47  C   UNL A   1      40.505  27.533  28.740  1.00  0.00     0.049 A 
ATOM     48  H   UNL A   1      42.564  27.426  29.036  1.00  0.00     0.167 HD
ATOM     49  C   UNL A   1      46.872  27.075  29.619  1.00  0.00     0.031 A 
ATOM     50  C   UNL A   1      40.114  28.768  29.108  1.00  0.00     0.031 A 
ATOM     51  C   UNL A   1      46.561  28.440  29.958  1.00  0.00     0.049 A 
ATOM     52  C   UNL A   1      41.139  29.750  29.598  1.00  0.00     0.074 A 
ATOM     53  C   UNL A   1      47.425  29.450  30.344  1.00  0.00     0.029 A 
ATOM     54  N   UNL A   1      45.286  28.981  29.960  1.00  0.00    -0.354 N 
ATOM     55  N   UNL A   1      42.434  29.597  29.728  1.00  0.00    -0.248 NA
ATOM     56  C   UNL A   1      40.646  31.080  29.982  1.00  0.00     0.031 C 
ATOM     57  C   UNL A   1      46.664  30.589  30.633  1.00  0.00     0.029 A 
ATOM     58  C   UNL A   1      45.333  30.303  30.372  1.00  0.00     0.049 A 
ATOM     59  H   UNL A   1      44.467  28.498  29.706  1.00  0.00     0.167 HD
ATOM     60  C   UNL A   1      42.915  30.816  30.187  1.00  0.00     0.074 A 
ATOM     61  C   UNL A   1      41.774  31.703  30.294  1.00  0.00     0.031 C 
ATOM     62  C   UNL A   1      44.188  31.170  30.490  1.00  0.00     0.031 A 
BRANCH  49  63
ATOM     63  C   UNL A   1      48.294  26.607  29.765  1.00  0.00    -0.014 A 
ATOM     64  C   UNL A   1      48.747  26.001  30.949  1.00  0.00     0.009 A 
ATOM     65  C   UNL A   1      49.191  26.754  28.694  1.00  0.00     0.009 A 
ATOM     66  C   UNL A   1      50.078  25.595  31.073  1.00  0.00     0.001 A 
ATOM     67  C   UNL A   1      50.513  26.318  28.810  1.00  0.00     0.001 A 
ATOM     68  C   UNL A   1      50.959  25.751  30.003  1.00  0.00     0.000 A 
ENDBRANCH  49  63
BRANCH  50  69
ATOM     69  C   UNL A   1      38.683  29.154  28.996  1.00  0.00    -0.014 A 
ATOM     70  C   UNL A   1      38.166  29.615  27.776  1.00  0.00     0.009 A 
ATOM     71  C   UNL A   1      37.826  29.053  30.103  1.00  0.00     0.009 A 
ATOM     72  C   UNL A   1      36.824  29.985  27.672  1.00  0.00     0.001 A 
ATOM     73  C   UNL A   1      36.477  29.398  29.989  1.00  0.00     0.001 A 
ATOM     74  C   UNL A   1      35.979  29.871  28.776  1.00  0.00     0.000 A 
ENDBRANCH  50  69
BRANCH  62  75
ATOM     75  C   UNL A   1      44.414  32.583  30.950  1.00  0.00    -0.014 A 
ATOM     76  C   UNL A   1      44.388  32.918  32.313  1.00  0.00     0.009 A 
ATOM     77  C   UNL A   1      44.682  33.587  30.006  1.00  0.00     0.009 A 
ATOM     78  C   UNL A   1      44.589  34.240  32.717  1.00  0.00     0.001 A 
ATOM     79  C   UNL A   1      44.912  34.901  30.416  1.00  0.00     0.001 A 
ATOM     80  C   UNL A   1      44.856  35.229  31.770  1.00  0.00     0.000 A 
ENDBRANCH  62  75
ENDBRANCH  36  37
ENDBRANCH  28  31
ENDBRANCH  26  27
ENDBRANCH  25  26
ENDBRANCH  24  25
ENDBRANCH   1  24
TORSDOF 15
ENDMDL
MODEL 2
REMARK VINA RESULT:     -10.8      3.607      8.862
REMARK SMILES C=C(C(=O)NCCCCCCNC(=O)c1ccc(-c2c3nc(c(-c4ccccc4)c4ccc([nH]4)c(-c4ccccc4)c4nc(c(-c5ccccc5)c5ccc2[nH]5)C=C4)C=C3)cc1)[C@@H]1CC[C@]2(C)CCCC(=C)[C@H]2[C@H]1O
REMARK SMILES IDX 8 1 7 2 6 3 5 4 3 5 4 6 2 8 1 9 63 10 64 11 74 12 65 13
REMARK SMILES IDX 73 14 66 15 71 16 67 17 68 18 70 19 72 20 69 21 75 22 9 24
REMARK SMILES IDX 10 25 11 26 12 27 13 28 14 30 15 31 16 32 62 33 17 34 61 35
REMARK SMILES IDX 18 36 19 37 20 38 55 39 21 40 60 41 54 42 56 43 22 44 59 45
REMARK SMILES IDX 53 46 52 47 23 49 45 50 30 51 44 52 31 53 34 54 43 55 57 56
REMARK SMILES IDX 32 57 33 58 42 60 58 61 35 62 24 63 25 64 29 65 26 66 28 67
REMARK SMILES IDX 27 68 46 69 47 70 51 71 48 72 50 73 49 74 36 75 37 76 41 77
REMARK SMILES IDX 38 78 40 79 39 80
REMARK H PARENT 5 7 75 23 12 29 56 48 34 59
REMARK Flexibility Score: inf
ROOT
ATOM      1  C   UNL A   1      32.118  29.490  26.867  1.00  0.00     0.002 C 
ENDROOT
BRANCH   1   2
ATOM      2  C   UNL A   1      31.809  28.013  26.594  1.00  0.00     0.021 C 
BRANCH   2   3
ATOM      3  C   UNL A   1      32.959  27.186  26.025  1.00  0.00     0.116 C 
BRANCH   3   4
ATOM      4  N   UNL A   1      33.563  27.783  24.846  1.00  0.00    -0.352 N 
ATOM      5  C   UNL A   1      33.220  27.661  23.532  1.00  0.00     0.246 C 
ATOM      6  O   UNL A   1      33.854  28.277  22.680  1.00  0.00    -0.270 OA
ATOM      7  H   UNL A   1      34.337  28.364  25.024  1.00  0.00     0.163 HD
BRANCH   5   8
ATOM      8  C   UNL A   1      32.074  26.793  23.133  1.00  0.00     0.015 C 
ATOM      9  C   UNL A   1      30.892  27.420  22.961  1.00  0.00     0.019 C 
BRANCH   8  10
ATOM     10  C   UNL A   1      32.334  25.355  22.666  1.00  0.00     0.053 C 
ATOM     11  C   UNL A   1      31.320  24.339  23.247  1.00  0.00     0.012 C 
ATOM     12  C   UNL A   1      33.775  24.747  22.820  1.00  0.00     0.129 C 
ATOM     13  C   UNL A   1      31.615  24.009  24.709  1.00  0.00     0.008 C 
ATOM     14  C   UNL A   1      34.103  24.294  24.278  1.00  0.00     0.050 C 
ATOM     15  C   UNL A   1      33.009  23.366  24.905  1.00  0.00    -0.024 C 
ATOM     16  C   UNL A   1      35.482  23.680  24.562  1.00  0.00    -0.071 C 
ATOM     17  C   UNL A   1      32.989  21.938  24.297  1.00  0.00     0.012 C 
ATOM     18  C   UNL A   1      33.283  23.244  26.432  1.00  0.00     0.008 C 
ATOM     19  C   UNL A   1      35.783  23.520  26.037  1.00  0.00     0.031 C 
ATOM     20  C   UNL A   1      36.370  23.262  23.645  1.00  0.00     0.008 C 
ATOM     21  C   UNL A   1      34.690  22.733  26.761  1.00  0.00     0.005 C 
BRANCH  12  22
ATOM     22  O   UNL A   1      33.916  23.633  21.918  1.00  0.00    -0.392 OA
ATOM     23  H   UNL A   1      33.073  23.475  21.464  1.00  0.00     0.211 HD
ENDBRANCH  12  22
ENDBRANCH   8  10
ENDBRANCH   5   8
ENDBRANCH   3   4
ENDBRANCH   2   3
ENDBRANCH   1   2
BRANCH   1  24
ATOM     24  C   UNL A   1      31.453  30.511  25.938  1.00  0.00     0.002 C 
BRANCH  24  25
ATOM     25  C   UNL A   1      31.326  31.936  26.482  1.00  0.00     0.021 C 
BRANCH  25  26
ATOM     26  C   UNL A   1      32.577  32.511  27.140  1.00  0.00     0.116 C 
BRANCH  26  27
ATOM     27  N   UNL A   1      32.398  33.873  27.612  1.00  0.00    -0.352 N 
ATOM     28  C   UNL A   1      33.142  34.596  28.507  1.00  0.00     0.251 C 
ATOM     29  H   UNL A   1      31.623  34.348  27.232  1.00  0.00     0.163 HD
ATOM     30  O   UNL A   1      32.748  35.703  28.880  1.00  0.00    -0.269 OA
BRANCH  28  31
ATOM     31  C   UNL A   1      34.403  34.052  29.055  1.00  0.00     0.039 A 
ATOM     32  C   UNL A   1      34.345  33.253  30.202  1.00  0.00     0.014 A 
ATOM     33  C   UNL A   1      35.638  34.333  28.464  1.00  0.00     0.014 A 
ATOM     34  C   UNL A   1      35.513  32.688  30.717  1.00  0.00     0.010 A 
ATOM     35  C   UNL A   1      36.793  33.712  28.936  1.00  0.00     0.010 A 
ATOM     36  C   UNL A   1      36.743  32.883  30.067  1.00  0.00    -0.014 A 
BRANCH  36  37
ATOM     37  C   UNL A   1      37.975  32.209  30.551  1.00  0.00     0.031 A 
ATOM     38  C   UNL A   1      38.774  32.789  31.684  1.00  0.00     0.074 A 
ATOM     39  C   UNL A   1      38.401  31.090  29.932  1.00  0.00     0.049 A 
ATOM     40  N   UNL A   1      39.875  32.338  32.231  1.00  0.00    -0.248 NA
ATOM     41  C   UNL A   1      38.288  34.050  32.262  1.00  0.00     0.031 C 
ATOM     42  C   UNL A   1      37.741  30.448  28.794  1.00  0.00     0.029 A 
ATOM     43  N   UNL A   1      39.492  30.294  30.176  1.00  0.00    -0.354 N 
ATOM     44  C   UNL A   1      40.219  33.266  33.207  1.00  0.00     0.074 A 
ATOM     45  C   UNL A   1      39.239  34.328  33.142  1.00  0.00     0.031 C 
ATOM     46  C   UNL A   1      38.418  29.337  28.463  1.00  0.00     0.029 A 
ATOM     47  C   UNL A   1      39.578  29.209  29.338  1.00  0.00     0.049 A 
ATOM     48  H   UNL A   1      40.150  30.483  30.884  1.00  0.00     0.167 HD
ATOM     49  C   UNL A   1      41.246  33.229  34.090  1.00  0.00     0.031 A 
ATOM     50  C   UNL A   1      40.489  28.220  29.280  1.00  0.00     0.031 A 
ATOM     51  C   UNL A   1      42.221  32.172  34.156  1.00  0.00     0.049 A 
ATOM     52  C   UNL A   1      41.627  28.208  30.259  1.00  0.00     0.074 A 
ATOM     53  C   UNL A   1      43.260  32.013  35.057  1.00  0.00     0.029 A 
ATOM     54  N   UNL A   1      42.281  31.098  33.283  1.00  0.00    -0.354 N 
ATOM     55  N   UNL A   1      41.894  29.051  31.226  1.00  0.00    -0.248 NA
ATOM     56  C   UNL A   1      42.586  27.100  30.143  1.00  0.00     0.031 C 
ATOM     57  C   UNL A   1      43.984  30.872  34.692  1.00  0.00     0.029 A 
ATOM     58  C   UNL A   1      43.360  30.289  33.601  1.00  0.00     0.049 A 
ATOM     59  H   UNL A   1      41.651  30.934  32.545  1.00  0.00     0.167 HD
ATOM     60  C   UNL A   1      43.036  28.565  31.849  1.00  0.00     0.074 A 
ATOM     61  C   UNL A   1      43.400  27.343  31.161  1.00  0.00     0.031 C 
ATOM     62  C   UNL A   1      43.721  29.084  32.898  1.00  0.00     0.031 A 
BRANCH  49  63
ATOM     63  C   UNL A   1      41.373  34.383  35.046  1.00  0.00    -0.014 A 
ATOM     64  C   UNL A   1      40.697  34.389  36.278  1.00  0.00     0.009 A 
ATOM     65  C   UNL A   1      42.199  35.472  34.722  1.00  0.00     0.009 A 
ATOM     66  C   UNL A   1      40.808  35.481  37.142  1.00  0.00     0.001 A 
ATOM     67  C   UNL A   1      42.333  36.547  35.602  1.00  0.00     0.001 A 
ATOM     68  C   UNL A   1      41.628  36.558  36.805  1.00  0.00     0.000 A 
ENDBRANCH  49  63
BRANCH  50  69
ATOM     69  C   UNL A   1      40.341  27.136  28.273  1.00  0.00    -0.014 A 
ATOM     70  C   UNL A   1      40.938  27.256  27.010  1.00  0.00     0.009 A 
ATOM     71  C   UNL A   1      39.611  25.976  28.573  1.00  0.00     0.009 A 
ATOM     72  C   UNL A   1      40.793  26.243  26.060  1.00  0.00     0.001 A 
ATOM     73  C   UNL A   1      39.490  24.952  27.630  1.00  0.00     0.001 A 
ATOM     74  C   UNL A   1      40.074  25.089  26.373  1.00  0.00     0.000 A 
ENDBRANCH  50  69
BRANCH  62  75
ATOM     75  C   UNL A   1      44.923  28.318  33.375  1.00  0.00    -0.014 A 
ATOM     76  C   UNL A   1      44.805  27.304  34.338  1.00  0.00     0.009 A 
ATOM     77  C   UNL A   1      46.187  28.599  32.833  1.00  0.00     0.009 A 
ATOM     78  C   UNL A   1      45.937  26.612  34.776  1.00  0.00     0.001 A 
ATOM     79  C   UNL A   1      47.311  27.886  33.252  1.00  0.00     0.001 A 
ATOM     80  C   UNL A   1      47.187  26.900  34.229  1.00  0.00     0.000 A 
ENDBRANCH  62  75
ENDBRANCH  36  37
ENDBRANCH  28  31
ENDBRANCH  26  27
ENDBRANCH  25  26
ENDBRANCH  24  25
ENDBRANCH   1  24
TORSDOF 15
ENDMDL
MODEL 3
REMARK VINA RESULT:     -10.7      1.224      6.127
REMARK SMILES C=C(C(=O)NCCCCCCNC(=O)c1ccc(-c2c3nc(c(-c4ccccc4)c4ccc([nH]4)c(-c4ccccc4)c4nc(c(-c5ccccc5)c5ccc2[nH]5)C=C4)C=C3)cc1)[C@@H]1CC[C@]2(C)CCCC(=C)[C@H]2[C@H]1O
REMARK SMILES IDX 8 1 7 2 6 3 5 4 3 5 4 6 2 8 1 9 63 10 64 11 74 12 65 13
REMARK SMILES IDX 73 14 66 15 71 16 67 17 68 18 70 19 72 20 69 21 75 22 9 24
REMARK SMILES IDX 10 25 11 26 12 27 13 28 14 30 15 31 16 32 62 33 17 34 61 35
REMARK SMILES IDX 18 36 19 37 20 38 55 39 21 40 60 41 54 42 56 43 22 44 59 45
REMARK SMILES IDX 53 46 52 47 23 49 45 50 30 51 44 52 31 53 34 54 43 55 57 56
REMARK SMILES IDX 32 57 33 58 42 60 58 61 35 62 24 63 25 64 29 65 26 66 28 67
REMARK SMILES IDX 27 68 46 69 47 70 51 71 48 72 50 73 49 74 36 75 37 76 41 77
REMARK SMILES IDX 38 78 40 79 39 80
REMARK H PARENT 5 7 75 23 12 29 56 48 34 59
REMARK Flexibility Score: inf
ROOT
ATOM      1  C   UNL A   1      36.168  22.147  24.511  1.00  0.00     0.002 C 
ENDROOT
BRANCH   1   2
ATOM      2  C   UNL A   1      35.491  23.145  25.459  1.00  0.00     0.021 C 
BRANCH   2   3
ATOM      3  C   UNL A   1      33.992  23.344  25.258  1.00  0.00     0.116 C 
BRANCH   3   4
ATOM      4  N   UNL A   1      33.449  22.539  24.177  1.00  0.00    -0.352 N 
ATOM      5  C   UNL A   1      32.392  22.784  23.351  1.00  0.00     0.246 C 
ATOM      6  O   UNL A   1      32.109  21.974  22.472  1.00  0.00    -0.270 OA
ATOM      7  H   UNL A   1      33.916  21.687  24.017  1.00  0.00     0.163 HD
BRANCH   5   8
ATOM      8  C   UNL A   1      31.593  24.035  23.505  1.00  0.00     0.015 C 
ATOM      9  C   UNL A   1      30.880  24.141  24.645  1.00  0.00     0.019 C 
BRANCH   8  10
ATOM     10  C   UNL A   1      31.837  25.216  22.557  1.00  0.00     0.053 C 
ATOM     11  C   UNL A   1      33.341  25.531  22.361  1.00  0.00     0.012 C 
ATOM     12  C   UNL A   1      31.085  26.572  22.810  1.00  0.00     0.129 C 
ATOM     13  C   UNL A   1      33.933  26.262  23.564  1.00  0.00     0.008 C 
ATOM     14  C   UNL A   1      31.707  27.418  23.966  1.00  0.00     0.050 C 
ATOM     15  C   UNL A   1      33.252  27.627  23.826  1.00  0.00    -0.024 C 
ATOM     16  C   UNL A   1      31.064  28.770  24.314  1.00  0.00    -0.071 C 
ATOM     17  C   UNL A   1      33.642  28.606  22.687  1.00  0.00     0.012 C 
ATOM     18  C   UNL A   1      33.796  28.197  25.168  1.00  0.00     0.008 C 
ATOM     19  C   UNL A   1      31.580  29.375  25.601  1.00  0.00     0.031 C 
ATOM     20  C   UNL A   1      30.157  29.431  23.575  1.00  0.00     0.008 C 
ATOM     21  C   UNL A   1      33.104  29.493  25.605  1.00  0.00     0.005 C 
BRANCH  12  22
ATOM     22  O   UNL A   1      31.074  27.340  21.592  1.00  0.00    -0.392 OA
ATOM     23  H   UNL A   1      31.926  27.792  21.487  1.00  0.00     0.211 HD
ENDBRANCH  12  22
ENDBRANCH   8  10
ENDBRANCH   5   8
ENDBRANCH   3   4
ENDBRANCH   2   3
ENDBRANCH   1   2
BRANCH   1  24
ATOM     24  C   UNL A   1      36.281  20.702  25.007  1.00  0.00     0.002 C 
BRANCH  24  25
ATOM     25  C   UNL A   1      37.625  20.011  24.769  1.00  0.00     0.021 C 
BRANCH  25  26
ATOM     26  C   UNL A   1      38.763  20.431  25.694  1.00  0.00     0.116 C 
BRANCH  26  27
ATOM     27  N   UNL A   1      39.826  19.444  25.775  1.00  0.00    -0.352 N 
ATOM     28  C   UNL A   1      41.136  19.594  26.147  1.00  0.00     0.251 C 
ATOM     29  H   UNL A   1      39.564  18.528  25.525  1.00  0.00     0.163 HD
ATOM     30  O   UNL A   1      41.921  18.651  26.023  1.00  0.00    -0.269 OA
BRANCH  28  31
ATOM     31  C   UNL A   1      41.630  20.887  26.668  1.00  0.00     0.039 A 
ATOM     32  C   UNL A   1      42.151  21.818  25.765  1.00  0.00     0.014 A 
ATOM     33  C   UNL A   1      41.600  21.182  28.035  1.00  0.00     0.014 A 
ATOM     34  C   UNL A   1      42.584  23.065  26.222  1.00  0.00     0.010 A 
ATOM     35  C   UNL A   1      41.966  22.451  28.481  1.00  0.00     0.010 A 
ATOM     36  C   UNL A   1      42.461  23.405  27.579  1.00  0.00    -0.014 A 
BRANCH  36  37
ATOM     37  C   UNL A   1      42.828  24.762  28.059  1.00  0.00     0.031 A 
ATOM     38  C   UNL A   1      41.774  25.809  28.285  1.00  0.00     0.074 A 
ATOM     39  C   UNL A   1      44.128  25.065  28.249  1.00  0.00     0.049 A 
ATOM     40  N   UNL A   1      41.914  27.045  28.696  1.00  0.00    -0.248 NA
ATOM     41  C   UNL A   1      40.386  25.428  27.986  1.00  0.00     0.031 C 
ATOM     42  C   UNL A   1      45.252  24.154  28.027  1.00  0.00     0.029 A 
ATOM     43  N   UNL A   1      44.722  26.227  28.674  1.00  0.00    -0.354 N 
ATOM     44  C   UNL A   1      40.636  27.591  28.693  1.00  0.00     0.074 A 
ATOM     45  C   UNL A   1      39.743  26.569  28.192  1.00  0.00     0.031 C 
ATOM     46  C   UNL A   1      46.394  24.778  28.354  1.00  0.00     0.029 A 
ATOM     47  C   UNL A   1      46.089  26.141  28.771  1.00  0.00     0.049 A 
ATOM     48  H   UNL A   1      44.215  27.044  28.890  1.00  0.00     0.167 HD
ATOM     49  C   UNL A   1      40.239  28.824  29.089  1.00  0.00     0.031 A 
ATOM     50  C   UNL A   1      46.997  27.058  29.154  1.00  0.00     0.031 A 
ATOM     51  C   UNL A   1      41.127  29.841  29.590  1.00  0.00     0.049 A 
ATOM     52  C   UNL A   1      46.534  28.423  29.575  1.00  0.00     0.074 A 
ATOM     53  C   UNL A   1      40.811  31.098  30.075  1.00  0.00     0.029 A 
ATOM     54  N   UNL A   1      42.506  29.719  29.660  1.00  0.00    -0.354 N 
ATOM     55  N   UNL A   1      45.314  28.898  29.641  1.00  0.00    -0.248 NA
ATOM     56  C   UNL A   1      47.577  29.376  29.982  1.00  0.00     0.031 C 
ATOM     57  C   UNL A   1      42.005  31.759  30.386  1.00  0.00     0.029 A 
ATOM     58  C   UNL A   1      43.059  30.891  30.150  1.00  0.00     0.049 A 
ATOM     59  H   UNL A   1      43.016  28.919  29.400  1.00  0.00     0.167 HD
ATOM     60  C   UNL A   1      45.438  30.196  30.119  1.00  0.00     0.074 A 
ATOM     61  C   UNL A   1      46.851  30.426  30.344  1.00  0.00     0.031 C 
ATOM     62  C   UNL A   1      44.469  31.113  30.353  1.00  0.00     0.031 A 
BRANCH  49  63
ATOM     63  C   UNL A   1      38.773  29.143  28.979  1.00  0.00    -0.014 A 
ATOM     64  C   UNL A   1      37.917  29.040  30.088  1.00  0.00     0.009 A 
ATOM     65  C   UNL A   1      38.243  29.575  27.752  1.00  0.00     0.009 A 
ATOM     66  C   UNL A   1      36.554  29.317  29.959  1.00  0.00     0.001 A 
ATOM     67  C   UNL A   1      36.886  29.881  27.635  1.00  0.00     0.001 A 
ATOM     68  C   UNL A   1      36.040  29.740  28.734  1.00  0.00     0.000 A 
ENDBRANCH  49  63
BRANCH  50  69
ATOM     69  C   UNL A   1      48.440  26.700  29.188  1.00  0.00    -0.014 A 
ATOM     70  C   UNL A   1      49.259  26.949  28.076  1.00  0.00     0.009 A 
ATOM     71  C   UNL A   1      49.006  26.118  30.333  1.00  0.00     0.009 A 
ATOM     72  C   UNL A   1      50.611  26.606  28.104  1.00  0.00     0.001 A 
ATOM     73  C   UNL A   1      50.366  25.801  30.367  1.00  0.00     0.001 A 
ATOM     74  C   UNL A   1      51.166  26.038  29.250  1.00  0.00     0.000 A 
ENDBRANCH  50  69
BRANCH  62  75
ATOM     75  C   UNL A   1      44.905  32.445  30.897  1.00  0.00    -0.014 A 
ATOM     76  C   UNL A   1      45.150  33.534  30.045  1.00  0.00     0.009 A 
ATOM     77  C   UNL A   1      45.047  32.618  32.282  1.00  0.00     0.009 A 
ATOM     78  C   UNL A   1      45.565  34.760  30.571  1.00  0.00     0.001 A 
ATOM     79  C   UNL A   1      45.433  33.853  32.806  1.00  0.00     0.001 A 
ATOM     80  C   UNL A   1      45.702  34.920  31.950  1.00  0.00     0.000 A 
ENDBRANCH  62  75
ENDBRANCH  36  37
ENDBRANCH  28  31
ENDBRANCH  26  27
ENDBRANCH  25  26
ENDBRANCH  24  25
ENDBRANCH   1  24
TORSDOF 15
ENDMDL
