MODEL 1
REMARK VINA RESULT:     -11.0      0.000      0.000
REMARK SMILES O=C(CSc1nnc(C2CC2)n1-c1cccc2ccccc12)NCCCCCCNC(=O)c1ccc(-c2c3nc(c(-c4ccccc4)c4ccc([nH]4)c(-c4ccccc4)c4nc(c(-c5ccccc5)c5ccc2[nH]5)C=C4)C=C3)cc1
REMARK SMILES IDX 26 1 25 2 24 3 23 4 1 5 2 6 3 8 4 9 5 10 6 11 12 12 7 13
REMARK SMILES IDX 8 14 13 15 14 16 22 17 15 18 17 19 21 20 16 21 18 22 20 23
REMARK SMILES IDX 19 24 9 25 10 26 11 27 27 28 28 29 29 30 30 31 31 32 32 34
REMARK SMILES IDX 33 35 34 36 80 37 35 38 79 39 36 40 37 41 38 42 73 43 39 44
REMARK SMILES IDX 78 45 72 46 74 47 40 48 77 49 71 50 70 51 41 53 63 54 48 55
REMARK SMILES IDX 62 56 49 57 52 58 61 59 75 60 50 61 51 62 60 64 76 65 53 66
REMARK SMILES IDX 42 67 43 68 47 69 44 70 46 71 45 72 64 73 65 74 69 75 66 76
REMARK SMILES IDX 68 77 67 78 54 79 55 80 59 81 56 82 58 83 57 84
REMARK H PARENT 23 7 30 33 74 52 52 63
REMARK Flexibility Score: inf
ROOT
ATOM      1  C   UNL A   1      36.664  30.147  31.847  1.00  0.00     0.002 C 
ENDROOT
BRANCH   1   2
ATOM      2  C   UNL A   1      36.177  29.931  30.410  1.00  0.00     0.021 C 
BRANCH   2   3
ATOM      3  C   UNL A   1      35.902  31.201  29.605  1.00  0.00     0.116 C 
BRANCH   3   4
ATOM      4  N   UNL A   1      34.670  31.143  28.841  1.00  0.00    -0.355 N 
ATOM      5  O   UNL A   1      35.544  29.890  27.131  1.00  0.00    -0.274 OA
ATOM      6  C   UNL A   1      34.583  30.462  27.641  1.00  0.00     0.230 C 
ATOM      7  H   UNL A   1      33.871  31.602  29.189  1.00  0.00     0.163 HD
BRANCH   6   8
ATOM      8  C   UNL A   1      33.241  30.551  26.933  1.00  0.00     0.178 C 
BRANCH   8   9
ATOM      9  S   UNL A   1      32.364  28.971  26.881  1.00  0.00    -0.076 SA
BRANCH   9  10
ATOM     10  C   UNL A   1      32.411  28.579  25.192  1.00  0.00     0.196 A 
ATOM     11  N   UNL A   1      32.910  29.332  24.241  1.00  0.00    -0.123 NA
ATOM     12  N   UNL A   1      31.969  27.383  24.662  1.00  0.00    -0.273 N 
ATOM     13  N   UNL A   1      32.746  28.659  23.050  1.00  0.00    -0.134 NA
ATOM     14  C   UNL A   1      32.114  27.523  23.292  1.00  0.00     0.141 A 
BRANCH  12  15
ATOM     15  C   UNL A   1      31.622  26.220  25.377  1.00  0.00     0.057 A 
ATOM     16  C   UNL A   1      30.273  26.034  25.707  1.00  0.00     0.027 A 
ATOM     17  C   UNL A   1      32.620  25.254  25.683  1.00  0.00     0.006 A 
ATOM     18  C   UNL A   1      29.879  24.843  26.299  1.00  0.00     0.003 A 
ATOM     19  C   UNL A   1      32.180  24.021  26.212  1.00  0.00    -0.016 A 
ATOM     20  C   UNL A   1      34.018  25.434  25.492  1.00  0.00     0.011 A 
ATOM     21  C   UNL A   1      30.819  23.836  26.520  1.00  0.00     0.009 A 
ATOM     22  C   UNL A   1      33.112  22.993  26.432  1.00  0.00     0.009 A 
ATOM     23  C   UNL A   1      34.931  24.412  25.749  1.00  0.00     0.001 A 
ATOM     24  C   UNL A   1      34.475  23.186  26.207  1.00  0.00     0.001 A 
ENDBRANCH  12  15
BRANCH  14  25
ATOM     25  C   UNL A   1      31.637  26.639  22.132  1.00  0.00     0.058 C 
ATOM     26  C   UNL A   1      32.531  25.885  21.172  1.00  0.00     0.012 C 
ATOM     27  C   UNL A   1      31.825  25.138  22.245  1.00  0.00     0.012 C 
ENDBRANCH  14  25
ENDBRANCH   9  10
ENDBRANCH   8   9
ENDBRANCH   6   8
ENDBRANCH   3   4
ENDBRANCH   2   3
ENDBRANCH   1   2
BRANCH   1  28
ATOM     28  C   UNL A   1      36.778  31.600  32.322  1.00  0.00     0.002 C 
BRANCH  28  29
ATOM     29  C   UNL A   1      37.775  31.899  33.449  1.00  0.00     0.021 C 
BRANCH  29  30
ATOM     30  C   UNL A   1      39.066  32.557  33.003  1.00  0.00     0.116 C 
BRANCH  30  31
ATOM     31  N   UNL A   1      38.882  33.414  31.829  1.00  0.00    -0.352 N 
ATOM     32  C   UNL A   1      39.567  33.378  30.632  1.00  0.00     0.251 C 
ATOM     33  H   UNL A   1      38.180  34.100  31.903  1.00  0.00     0.163 HD
ATOM     34  O   UNL A   1      39.595  34.360  29.892  1.00  0.00    -0.269 OA
BRANCH  32  35
ATOM     35  C   UNL A   1      40.269  32.143  30.252  1.00  0.00     0.039 A 
ATOM     36  C   UNL A   1      41.658  32.025  30.348  1.00  0.00     0.014 A 
ATOM     37  C   UNL A   1      39.493  31.071  29.823  1.00  0.00     0.014 A 
ATOM     38  C   UNL A   1      42.243  30.786  30.092  1.00  0.00     0.010 A 
ATOM     39  C   UNL A   1      40.043  29.820  29.755  1.00  0.00     0.010 A 
ATOM     40  C   UNL A   1      41.423  29.679  29.822  1.00  0.00    -0.014 A 
BRANCH  40  41
ATOM     41  C   UNL A   1      41.969  28.331  29.731  1.00  0.00     0.031 A 
ATOM     42  C   UNL A   1      42.667  27.871  30.958  1.00  0.00     0.074 A 
ATOM     43  C   UNL A   1      41.673  27.484  28.721  1.00  0.00     0.049 A 
ATOM     44  N   UNL A   1      43.931  27.646  31.093  1.00  0.00    -0.248 NA
ATOM     45  C   UNL A   1      41.908  27.786  32.217  1.00  0.00     0.031 C 
ATOM     46  C   UNL A   1      40.760  27.704  27.592  1.00  0.00     0.029 A 
ATOM     47  N   UNL A   1      42.027  26.179  28.561  1.00  0.00    -0.354 N 
ATOM     48  C   UNL A   1      44.097  27.171  32.387  1.00  0.00     0.074 A 
ATOM     49  C   UNL A   1      42.871  27.467  33.085  1.00  0.00     0.031 C 
ATOM     50  C   UNL A   1      40.439  26.519  27.029  1.00  0.00     0.029 A 
ATOM     51  C   UNL A   1      41.251  25.483  27.639  1.00  0.00     0.049 A 
ATOM     52  H   UNL A   1      42.769  25.763  29.057  1.00  0.00     0.167 HD
ATOM     53  C   UNL A   1      45.114  26.317  32.691  1.00  0.00     0.031 A 
ATOM     54  C   UNL A   1      41.256  24.146  27.409  1.00  0.00     0.031 A 
ATOM     55  C   UNL A   1      46.104  26.279  31.640  1.00  0.00     0.049 A 
ATOM     56  C   UNL A   1      42.535  23.617  27.932  1.00  0.00     0.074 A 
ATOM     57  C   UNL A   1      46.893  27.220  31.009  1.00  0.00     0.029 A 
ATOM     58  N   UNL A   1      46.079  25.185  30.806  1.00  0.00    -0.354 N 
ATOM     59  N   UNL A   1      43.689  23.886  27.392  1.00  0.00    -0.248 NA
ATOM     60  C   UNL A   1      42.582  23.160  29.310  1.00  0.00     0.031 C 
ATOM     61  C   UNL A   1      46.897  26.833  29.635  1.00  0.00     0.029 A 
ATOM     62  C   UNL A   1      46.186  25.637  29.519  1.00  0.00     0.049 A 
ATOM     63  H   UNL A   1      45.999  24.244  31.086  1.00  0.00     0.167 HD
ATOM     64  C   UNL A   1      44.530  24.101  28.472  1.00  0.00     0.074 A 
ATOM     65  C   UNL A   1      43.831  23.519  29.618  1.00  0.00     0.031 C 
ATOM     66  C   UNL A   1      45.563  24.990  28.386  1.00  0.00     0.031 A 
BRANCH  53  67
ATOM     67  C   UNL A   1      44.983  25.185  33.683  1.00  0.00    -0.014 A 
ATOM     68  C   UNL A   1      44.290  24.026  33.285  1.00  0.00     0.009 A 
ATOM     69  C   UNL A   1      45.231  25.329  35.062  1.00  0.00     0.009 A 
ATOM     70  C   UNL A   1      43.784  23.120  34.224  1.00  0.00     0.001 A 
ATOM     71  C   UNL A   1      44.765  24.402  35.998  1.00  0.00     0.001 A 
ATOM     72  C   UNL A   1      44.012  23.316  35.583  1.00  0.00     0.000 A 
ENDBRANCH  53  67
BRANCH  54  73
ATOM     73  C   UNL A   1      40.168  23.252  26.958  1.00  0.00    -0.014 A 
ATOM     74  C   UNL A   1      38.952  23.785  26.497  1.00  0.00     0.009 A 
ATOM     75  C   UNL A   1      40.421  21.891  26.708  1.00  0.00     0.009 A 
ATOM     76  C   UNL A   1      38.051  22.999  25.764  1.00  0.00     0.001 A 
ATOM     77  C   UNL A   1      39.518  21.106  25.980  1.00  0.00     0.001 A 
ATOM     78  C   UNL A   1      38.342  21.666  25.491  1.00  0.00     0.000 A 
ENDBRANCH  54  73
BRANCH  66  79
ATOM     79  C   UNL A   1      45.920  25.530  27.022  1.00  0.00    -0.014 A 
ATOM     80  C   UNL A   1      45.284  26.640  26.437  1.00  0.00     0.009 A 
ATOM     81  C   UNL A   1      47.031  24.982  26.366  1.00  0.00     0.009 A 
ATOM     82  C   UNL A   1      45.727  27.160  25.215  1.00  0.00     0.001 A 
ATOM     83  C   UNL A   1      47.488  25.515  25.159  1.00  0.00     0.001 A 
ATOM     84  C   UNL A   1      46.832  26.599  24.580  1.00  0.00     0.000 A 
ENDBRANCH  66  79
ENDBRANCH  40  41
ENDBRANCH  32  35
ENDBRANCH  30  31
ENDBRANCH  29  30
ENDBRANCH  28  29
ENDBRANCH   1  28
TORSDOF 17
ENDMDL
MODEL 2
REMARK VINA RESULT:     -11.0      3.483      7.743
REMARK SMILES O=C(CSc1nnc(C2CC2)n1-c1cccc2ccccc12)NCCCCCCNC(=O)c1ccc(-c2c3nc(c(-c4ccccc4)c4ccc([nH]4)c(-c4ccccc4)c4nc(c(-c5ccccc5)c5ccc2[nH]5)C=C4)C=C3)cc1
REMARK SMILES IDX 26 1 25 2 24 3 23 4 1 5 2 6 3 8 4 9 5 10 6 11 12 12 7 13
REMARK SMILES IDX 8 14 13 15 14 16 22 17 15 18 17 19 21 20 16 21 18 22 20 23
REMARK SMILES IDX 19 24 9 25 10 26 11 27 27 28 28 29 29 30 30 31 31 32 32 34
REMARK SMILES IDX 33 35 34 36 80 37 35 38 79 39 36 40 37 41 38 42 73 43 39 44
REMARK SMILES IDX 78 45 72 46 74 47 40 48 77 49 71 50 70 51 41 53 63 54 48 55
REMARK SMILES IDX 62 56 49 57 52 58 61 59 75 60 50 61 51 62 60 64 76 65 53 66
REMARK SMILES IDX 42 67 43 68 47 69 44 70 46 71 45 72 64 73 65 74 69 75 66 76
REMARK SMILES IDX 68 77 67 78 54 79 55 80 59 81 56 82 58 83 57 84
REMARK H PARENT 23 7 30 33 74 52 52 63
REMARK Flexibility Score: inf
ROOT
ATOM      1  C   UNL A   1      31.702  30.629  26.641  1.00  0.00     0.002 C 
ENDROOT
BRANCH   1   2
ATOM      2  C   UNL A   1      30.807  31.454  25.709  1.00  0.00     0.021 C 
BRANCH   2   3
ATOM      3  C   UNL A   1      30.363  30.754  24.425  1.00  0.00     0.116 C 
BRANCH   3   4
ATOM      4  N   UNL A   1      31.190  29.614  24.076  1.00  0.00    -0.355 N 
ATOM      5  O   UNL A   1      30.410  29.443  21.927  1.00  0.00    -0.274 OA
ATOM      6  C   UNL A   1      31.156  29.043  22.817  1.00  0.00     0.230 C 
ATOM      7  H   UNL A   1      31.793  29.235  24.756  1.00  0.00     0.163 HD
BRANCH   6   8
ATOM      8  C   UNL A   1      32.033  27.816  22.630  1.00  0.00     0.178 C 
BRANCH   8   9
ATOM      9  S   UNL A   1      33.157  27.534  24.018  1.00  0.00    -0.076 SA
BRANCH   9  10
ATOM     10  C   UNL A   1      32.192  26.560  25.081  1.00  0.00     0.196 A 
ATOM     11  N   UNL A   1      31.258  26.998  25.891  1.00  0.00    -0.123 NA
ATOM     12  N   UNL A   1      32.264  25.183  25.148  1.00  0.00    -0.273 N 
ATOM     13  N   UNL A   1      30.740  25.908  26.556  1.00  0.00    -0.134 NA
ATOM     14  C   UNL A   1      31.395  24.828  26.165  1.00  0.00     0.141 A 
BRANCH  12  15
ATOM     15  C   UNL A   1      32.938  24.329  24.253  1.00  0.00     0.057 A 
ATOM     16  C   UNL A   1      32.247  23.902  23.111  1.00  0.00     0.027 A 
ATOM     17  C   UNL A   1      34.295  23.979  24.495  1.00  0.00     0.006 A 
ATOM     18  C   UNL A   1      32.920  23.163  22.149  1.00  0.00     0.003 A 
ATOM     19  C   UNL A   1      34.976  23.297  23.465  1.00  0.00    -0.016 A 
ATOM     20  C   UNL A   1      35.013  24.270  25.688  1.00  0.00     0.011 A 
ATOM     21  C   UNL A   1      34.279  22.891  22.311  1.00  0.00     0.009 A 
ATOM     22  C   UNL A   1      36.347  23.023  23.607  1.00  0.00     0.009 A 
ATOM     23  C   UNL A   1      36.366  23.959  25.824  1.00  0.00     0.001 A 
ATOM     24  C   UNL A   1      37.036  23.346  24.776  1.00  0.00     0.001 A 
ENDBRANCH  12  15
BRANCH  14  25
ATOM     25  C   UNL A   1      31.153  23.482  26.862  1.00  0.00     0.058 C 
ATOM     26  C   UNL A   1      29.802  22.866  27.149  1.00  0.00     0.012 C 
ATOM     27  C   UNL A   1      30.623  22.327  26.034  1.00  0.00     0.012 C 
ENDBRANCH  14  25
ENDBRANCH   9  10
ENDBRANCH   8   9
ENDBRANCH   6   8
ENDBRANCH   3   4
ENDBRANCH   2   3
ENDBRANCH   1   2
BRANCH   1  28
ATOM     28  C   UNL A   1      33.059  31.239  27.006  1.00  0.00     0.002 C 
BRANCH  28  29
ATOM     29  C   UNL A   1      33.075  32.350  28.063  1.00  0.00     0.021 C 
BRANCH  29  30
ATOM     30  C   UNL A   1      32.954  33.758  27.514  1.00  0.00     0.116 C 
BRANCH  30  31
ATOM     31  N   UNL A   1      32.648  34.742  28.555  1.00  0.00    -0.352 N 
ATOM     32  C   UNL A   1      33.236  34.881  29.795  1.00  0.00     0.251 C 
ATOM     33  H   UNL A   1      31.935  35.385  28.342  1.00  0.00     0.163 HD
ATOM     34  O   UNL A   1      32.655  35.470  30.706  1.00  0.00    -0.269 OA
BRANCH  32  35
ATOM     35  C   UNL A   1      34.574  34.312  30.015  1.00  0.00     0.039 A 
ATOM     36  C   UNL A   1      34.833  33.417  31.056  1.00  0.00     0.014 A 
ATOM     37  C   UNL A   1      35.578  34.671  29.120  1.00  0.00     0.014 A 
ATOM     38  C   UNL A   1      36.090  32.821  31.128  1.00  0.00     0.010 A 
ATOM     39  C   UNL A   1      36.741  33.950  29.082  1.00  0.00     0.010 A 
ATOM     40  C   UNL A   1      37.032  33.073  30.118  1.00  0.00    -0.014 A 
BRANCH  40  41
ATOM     41  C   UNL A   1      38.288  32.336  30.046  1.00  0.00     0.031 A 
ATOM     42  C   UNL A   1      38.161  30.969  29.481  1.00  0.00     0.074 A 
ATOM     43  C   UNL A   1      39.492  32.913  30.250  1.00  0.00     0.049 A 
ATOM     44  N   UNL A   1      38.324  29.853  30.108  1.00  0.00    -0.248 NA
ATOM     45  C   UNL A   1      37.660  30.812  28.105  1.00  0.00     0.031 C 
ATOM     46  C   UNL A   1      39.785  34.325  30.526  1.00  0.00     0.029 A 
ATOM     47  N   UNL A   1      40.736  32.376  30.119  1.00  0.00    -0.354 N 
ATOM     48  C   UNL A   1      38.171  28.854  29.155  1.00  0.00     0.074 A 
ATOM     49  C   UNL A   1      37.573  29.484  28.005  1.00  0.00     0.031 C 
ATOM     50  C   UNL A   1      41.091  34.574  30.287  1.00  0.00     0.029 A 
ATOM     51  C   UNL A   1      41.758  33.315  30.013  1.00  0.00     0.049 A 
ATOM     52  H   UNL A   1      40.899  31.405  30.100  1.00  0.00     0.167 HD
ATOM     53  C   UNL A   1      38.816  27.661  29.286  1.00  0.00     0.031 A 
ATOM     54  C   UNL A   1      43.056  33.080  29.697  1.00  0.00     0.031 A 
ATOM     55  C   UNL A   1      39.339  27.487  30.621  1.00  0.00     0.049 A 
ATOM     56  C   UNL A   1      43.317  31.647  29.959  1.00  0.00     0.074 A 
ATOM     57  C   UNL A   1      38.794  27.493  31.890  1.00  0.00     0.029 A 
ATOM     58  N   UNL A   1      40.689  27.686  30.788  1.00  0.00    -0.354 N 
ATOM     59  N   UNL A   1      43.338  31.136  31.156  1.00  0.00    -0.248 NA
ATOM     60  C   UNL A   1      43.109  30.697  28.879  1.00  0.00     0.031 C 
ATOM     61  C   UNL A   1      39.755  28.171  32.699  1.00  0.00     0.029 A 
ATOM     62  C   UNL A   1      40.864  28.463  31.901  1.00  0.00     0.049 A 
ATOM     63  H   UNL A   1      41.403  27.332  30.210  1.00  0.00     0.167 HD
ATOM     64  C   UNL A   1      42.677  29.925  31.024  1.00  0.00     0.074 A 
ATOM     65  C   UNL A   1      42.672  29.653  29.586  1.00  0.00     0.031 C 
ATOM     66  C   UNL A   1      41.939  29.417  32.054  1.00  0.00     0.031 A 
BRANCH  53  67
ATOM     67  C   UNL A   1      39.381  26.887  28.118  1.00  0.00    -0.014 A 
ATOM     68  C   UNL A   1      39.213  25.490  28.100  1.00  0.00     0.009 A 
ATOM     69  C   UNL A   1      40.320  27.422  27.216  1.00  0.00     0.009 A 
ATOM     70  C   UNL A   1      40.016  24.669  27.300  1.00  0.00     0.001 A 
ATOM     71  C   UNL A   1      41.092  26.608  26.382  1.00  0.00     0.001 A 
ATOM     72  C   UNL A   1      40.965  25.230  26.449  1.00  0.00     0.000 A 
ENDBRANCH  53  67
BRANCH  54  73
ATOM     73  C   UNL A   1      44.038  33.936  28.998  1.00  0.00    -0.014 A 
ATOM     74  C   UNL A   1      43.736  34.490  27.743  1.00  0.00     0.009 A 
ATOM     75  C   UNL A   1      45.155  34.447  29.685  1.00  0.00     0.009 A 
ATOM     76  C   UNL A   1      44.488  35.553  27.222  1.00  0.00     0.001 A 
ATOM     77  C   UNL A   1      45.909  35.504  29.161  1.00  0.00     0.001 A 
ATOM     78  C   UNL A   1      45.562  36.070  27.939  1.00  0.00     0.000 A 
ENDBRANCH  54  73
BRANCH  66  79
ATOM     79  C   UNL A   1      42.073  30.069  33.410  1.00  0.00    -0.014 A 
ATOM     80  C   UNL A   1      41.335  31.199  33.804  1.00  0.00     0.009 A 
ATOM     81  C   UNL A   1      42.873  29.433  34.370  1.00  0.00     0.009 A 
ATOM     82  C   UNL A   1      41.424  31.697  35.109  1.00  0.00     0.001 A 
ATOM     83  C   UNL A   1      42.946  29.915  35.678  1.00  0.00     0.001 A 
ATOM     84  C   UNL A   1      42.228  31.051  36.046  1.00  0.00     0.000 A 
ENDBRANCH  66  79
ENDBRANCH  40  41
ENDBRANCH  32  35
ENDBRANCH  30  31
ENDBRANCH  29  30
ENDBRANCH  28  29
ENDBRANCH   1  28
TORSDOF 17
ENDMDL
MODEL 3
REMARK VINA RESULT:     -11.0      2.651      4.648
REMARK SMILES O=C(CSc1nnc(C2CC2)n1-c1cccc2ccccc12)NCCCCCCNC(=O)c1ccc(-c2c3nc(c(-c4ccccc4)c4ccc([nH]4)c(-c4ccccc4)c4nc(c(-c5ccccc5)c5ccc2[nH]5)C=C4)C=C3)cc1
REMARK SMILES IDX 26 1 25 2 24 3 23 4 1 5 2 6 3 8 4 9 5 10 6 11 12 12 7 13
REMARK SMILES IDX 8 14 13 15 14 16 22 17 15 18 17 19 21 20 16 21 18 22 20 23
REMARK SMILES IDX 19 24 9 25 10 26 11 27 27 28 28 29 29 30 30 31 31 32 32 34
REMARK SMILES IDX 33 35 34 36 80 37 35 38 79 39 36 40 37 41 38 42 73 43 39 44
REMARK SMILES IDX 78 45 72 46 74 47 40 48 77 49 71 50 70 51 41 53 63 54 48 55
REMARK SMILES IDX 62 56 49 57 52 58 61 59 75 60 50 61 51 62 60 64 76 65 53 66
REMARK SMILES IDX 42 67 43 68 47 69 44 70 46 71 45 72 64 73 65 74 69 75 66 76
REMARK SMILES IDX 68 77 67 78 54 79 55 80 59 81 56 82 58 83 57 84
REMARK H PARENT 23 7 30 33 74 52 52 63
REMARK Flexibility Score: inf
ROOT
ATOM      1  C   UNL A   1      33.195  29.090  24.617  1.00  0.00     0.002 C 
ENDROOT
BRANCH   1   2
ATOM      2  C   UNL A   1      33.560  28.011  23.591  1.00  0.00     0.021 C 
BRANCH   2   3
ATOM      3  C   UNL A   1      33.035  26.608  23.888  1.00  0.00     0.116 C 
BRANCH   3   4
ATOM      4  N   UNL A   1      34.021  25.566  23.668  1.00  0.00    -0.355 N 
ATOM      5  O   UNL A   1      34.512  25.272  25.888  1.00  0.00    -0.274 OA
ATOM      6  C   UNL A   1      34.688  24.955  24.714  1.00  0.00     0.230 C 
ATOM      7  H   UNL A   1      34.221  25.285  22.745  1.00  0.00     0.163 HD
BRANCH   6   8
ATOM      8  C   UNL A   1      35.736  23.930  24.314  1.00  0.00     0.178 C 
BRANCH   8   9
ATOM      9  S   UNL A   1      36.323  22.940  25.707  1.00  0.00    -0.076 SA
BRANCH   9  10
ATOM     10  C   UNL A   1      35.759  21.352  25.294  1.00  0.00     0.196 A 
ATOM     11  N   UNL A   1      36.512  20.323  24.986  1.00  0.00    -0.123 NA
ATOM     12  N   UNL A   1      34.430  20.977  25.299  1.00  0.00    -0.273 N 
ATOM     13  N   UNL A   1      35.675  19.261  24.721  1.00  0.00    -0.134 NA
ATOM     14  C   UNL A   1      34.424  19.672  24.836  1.00  0.00     0.141 A 
BRANCH  12  15
ATOM     15  C   UNL A   1      33.349  21.707  25.832  1.00  0.00     0.057 A 
ATOM     16  C   UNL A   1      33.254  21.809  27.227  1.00  0.00     0.027 A 
ATOM     17  C   UNL A   1      32.437  22.360  24.959  1.00  0.00     0.006 A 
ATOM     18  C   UNL A   1      32.277  22.622  27.781  1.00  0.00     0.003 A 
ATOM     19  C   UNL A   1      31.505  23.242  25.546  1.00  0.00    -0.016 A 
ATOM     20  C   UNL A   1      32.399  22.197  23.546  1.00  0.00     0.011 A 
ATOM     21  C   UNL A   1      31.432  23.355  26.947  1.00  0.00     0.009 A 
ATOM     22  C   UNL A   1      30.652  23.994  24.720  1.00  0.00     0.009 A 
ATOM     23  C   UNL A   1      31.522  22.928  22.746  1.00  0.00     0.001 A 
ATOM     24  C   UNL A   1      30.656  23.837  23.334  1.00  0.00     0.001 A 
ENDBRANCH  12  15
BRANCH  14  25
ATOM     25  C   UNL A   1      33.266  18.751  24.432  1.00  0.00     0.058 C 
ATOM     26  C   UNL A   1      33.396  17.309  23.992  1.00  0.00     0.012 C 
ATOM     27  C   UNL A   1      32.895  17.609  25.359  1.00  0.00     0.012 C 
ENDBRANCH  14  25
ENDBRANCH   9  10
ENDBRANCH   8   9
ENDBRANCH   6   8
ENDBRANCH   3   4
ENDBRANCH   2   3
ENDBRANCH   1   2
BRANCH   1  28
ATOM     28  C   UNL A   1      32.659  28.599  25.966  1.00  0.00     0.002 C 
BRANCH  28  29
ATOM     29  C   UNL A   1      33.592  28.704  27.180  1.00  0.00     0.021 C 
BRANCH  29  30
ATOM     30  C   UNL A   1      34.936  29.348  26.899  1.00  0.00     0.116 C 
BRANCH  30  31
ATOM     31  N   UNL A   1      35.020  30.717  27.413  1.00  0.00    -0.352 N 
ATOM     32  C   UNL A   1      35.753  31.181  28.485  1.00  0.00     0.251 C 
ATOM     33  H   UNL A   1      34.487  31.390  26.932  1.00  0.00     0.163 HD
ATOM     34  O   UNL A   1      35.454  32.235  29.045  1.00  0.00    -0.269 OA
BRANCH  32  35
ATOM     35  C   UNL A   1      36.905  30.395  28.951  1.00  0.00     0.039 A 
ATOM     36  C   UNL A   1      36.779  29.425  29.950  1.00  0.00     0.014 A 
ATOM     37  C   UNL A   1      38.131  30.624  28.335  1.00  0.00     0.014 A 
ATOM     38  C   UNL A   1      37.883  28.630  30.253  1.00  0.00     0.010 A 
ATOM     39  C   UNL A   1      39.151  29.728  28.500  1.00  0.00     0.010 A 
ATOM     40  C   UNL A   1      39.061  28.771  29.502  1.00  0.00    -0.014 A 
BRANCH  40  41
ATOM     41  C   UNL A   1      40.175  27.844  29.654  1.00  0.00     0.031 A 
ATOM     42  C   UNL A   1      40.828  27.887  30.986  1.00  0.00     0.074 A 
ATOM     43  C   UNL A   1      40.449  26.870  28.758  1.00  0.00     0.049 A 
ATOM     44  N   UNL A   1      42.019  28.305  31.254  1.00  0.00    -0.248 NA
ATOM     45  C   UNL A   1      40.027  27.566  32.180  1.00  0.00     0.031 C 
ATOM     46  C   UNL A   1      39.706  26.524  27.540  1.00  0.00     0.029 A 
ATOM     47  N   UNL A   1      41.385  25.884  28.820  1.00  0.00    -0.354 N 
ATOM     48  C   UNL A   1      42.204  28.087  32.613  1.00  0.00     0.074 A 
ATOM     49  C   UNL A   1      40.896  27.825  33.159  1.00  0.00     0.031 C 
ATOM     50  C   UNL A   1      40.052  25.284  27.132  1.00  0.00     0.029 A 
ATOM     51  C   UNL A   1      41.157  24.821  27.951  1.00  0.00     0.049 A 
ATOM     52  H   UNL A   1      42.158  25.918  29.429  1.00  0.00     0.167 HD
ATOM     53  C   UNL A   1      43.447  27.853  33.119  1.00  0.00     0.031 A 
ATOM     54  C   UNL A   1      41.811  23.633  27.920  1.00  0.00     0.031 A 
ATOM     55  C   UNL A   1      44.477  28.195  32.167  1.00  0.00     0.049 A 
ATOM     56  C   UNL A   1      43.103  23.828  28.616  1.00  0.00     0.074 A 
ATOM     57  C   UNL A   1      44.821  29.336  31.469  1.00  0.00     0.029 A 
ATOM     58  N   UNL A   1      45.078  27.151  31.503  1.00  0.00    -0.354 N 
ATOM     59  N   UNL A   1      44.064  24.564  28.137  1.00  0.00    -0.248 NA
ATOM     60  C   UNL A   1      43.162  23.576  30.046  1.00  0.00     0.031 C 
ATOM     61  C   UNL A   1      45.196  28.874  30.172  1.00  0.00     0.029 A 
ATOM     62  C   UNL A   1      45.143  27.479  30.176  1.00  0.00     0.049 A 
ATOM     63  H   UNL A   1      45.404  26.316  31.911  1.00  0.00     0.167 HD
ATOM     64  C   UNL A   1      44.550  25.251  29.237  1.00  0.00     0.074 A 
ATOM     65  C   UNL A   1      44.047  24.514  30.396  1.00  0.00     0.031 C 
ATOM     66  C   UNL A   1      45.055  26.513  29.104  1.00  0.00     0.031 A 
BRANCH  53  67
ATOM     67  C   UNL A   1      43.717  26.891  34.252  1.00  0.00    -0.014 A 
ATOM     68  C   UNL A   1      44.359  27.383  35.405  1.00  0.00     0.009 A 
ATOM     69  C   UNL A   1      43.653  25.492  34.114  1.00  0.00     0.009 A 
ATOM     70  C   UNL A   1      44.991  26.522  36.310  1.00  0.00     0.001 A 
ATOM     71  C   UNL A   1      44.245  24.629  35.040  1.00  0.00     0.001 A 
ATOM     72  C   UNL A   1      44.944  25.145  36.119  1.00  0.00     0.000 A 
ENDBRANCH  53  67
BRANCH  54  73
ATOM     73  C   UNL A   1      41.335  22.291  27.520  1.00  0.00    -0.014 A 
ATOM     74  C   UNL A   1      40.040  22.119  27.002  1.00  0.00     0.009 A 
ATOM     75  C   UNL A   1      42.243  21.227  27.375  1.00  0.00     0.009 A 
ATOM     76  C   UNL A   1      39.687  20.950  26.315  1.00  0.00     0.001 A 
ATOM     77  C   UNL A   1      41.887  20.057  26.694  1.00  0.00     0.001 A 
ATOM     78  C   UNL A   1      40.615  19.927  26.146  1.00  0.00     0.000 A 
ENDBRANCH  54  73
BRANCH  66  79
ATOM     79  C   UNL A   1      45.308  27.031  27.709  1.00  0.00    -0.014 A 
ATOM     80  C   UNL A   1      46.593  27.171  27.154  1.00  0.00     0.009 A 
ATOM     81  C   UNL A   1      44.200  27.255  26.879  1.00  0.00     0.009 A 
ATOM     82  C   UNL A   1      46.761  27.557  25.819  1.00  0.00     0.001 A 
ATOM     83  C   UNL A   1      44.367  27.618  25.541  1.00  0.00     0.001 A 
ATOM     84  C   UNL A   1      45.646  27.777  25.013  1.00  0.00     0.000 A 
ENDBRANCH  66  79
ENDBRANCH  40  41
ENDBRANCH  32  35
ENDBRANCH  30  31
ENDBRANCH  29  30
ENDBRANCH  28  29
ENDBRANCH   1  28
TORSDOF 17
ENDMDL
