MODEL 1
REMARK VINA RESULT:     -11.0      0.000      0.000
REMARK SMILES O=C(CCCN1C(=O)/C(=C\c2ccc(O)c(O)c2)SC1=S)NCCCCCCNC(=O)c1ccc(-c2c3nc(c(-c4ccccc4)c4ccc([nH]4)c(-c4ccccc4)c4nc(c(-c5ccccc5)c5ccc2[nH]5)C=C4)C=C3)cc1
REMARK SMILES IDX 24 1 23 2 22 3 1 4 2 5 3 7 4 8 5 9 6 10 7 11 20 12 8 13 9 14
REMARK SMILES IDX 19 15 21 16 10 17 11 18 12 19 18 20 13 21 16 22 14 23 17 24
REMARK SMILES IDX 15 26 25 28 26 29 27 30 28 31 29 32 30 33 31 35 32 36 33 37
REMARK SMILES IDX 79 38 34 39 78 40 35 41 36 42 37 43 72 44 38 45 77 46 71 47
REMARK SMILES IDX 73 48 39 49 76 50 70 51 69 52 40 54 62 55 47 56 61 57 48 58
REMARK SMILES IDX 51 59 60 60 74 61 49 62 50 63 59 65 75 66 52 67 41 68 42 69
REMARK SMILES IDX 46 70 43 71 45 72 44 73 63 74 64 75 68 76 65 77 67 78 66 79
REMARK SMILES IDX 53 80 54 81 58 82 55 83 57 84 56 85
REMARK H PARENT 22 6 17 25 15 27 29 34 73 53 51 64
REMARK Flexibility Score: inf
ROOT
ATOM      1  C   UNL A   1      35.536  22.892  24.462  1.00  0.00     0.021 C 
ENDROOT
BRANCH   1   2
ATOM      2  C   UNL A   1      35.144  24.033  25.406  1.00  0.00     0.116 C 
BRANCH   2   3
ATOM      3  N   UNL A   1      34.699  25.189  24.660  1.00  0.00    -0.356 N 
ATOM      4  O   UNL A   1      33.188  26.002  26.174  1.00  0.00    -0.275 OA
ATOM      5  C   UNL A   1      33.796  26.114  25.118  1.00  0.00     0.220 C 
ATOM      6  H   UNL A   1      35.071  25.322  23.759  1.00  0.00     0.163 HD
BRANCH   5   7
ATOM      7  C   UNL A   1      33.626  27.314  24.192  1.00  0.00     0.102 C 
BRANCH   7   8
ATOM      8  C   UNL A   1      33.671  26.954  22.704  1.00  0.00     0.032 C 
BRANCH   8   9
ATOM      9  C   UNL A   1      32.360  26.545  22.011  1.00  0.00     0.128 C 
BRANCH   9  10
ATOM     10  N   UNL A   1      31.118  26.628  22.804  1.00  0.00    -0.293 N 
ATOM     11  C   UNL A   1      30.383  27.806  22.694  1.00  0.00     0.266 C 
ATOM     12  C   UNL A   1      30.518  25.622  23.534  1.00  0.00     0.148 C 
ATOM     13  O   UNL A   1      30.774  28.824  22.147  1.00  0.00    -0.268 OA
ATOM     14  C   UNL A   1      29.027  27.636  23.296  1.00  0.00     0.081 C 
ATOM     15  S   UNL A   1      28.895  26.084  24.012  1.00  0.00    -0.054 SA
ATOM     16  S   UNL A   1      31.085  24.123  23.978  1.00  0.00    -0.052 S 
ATOM     17  C   UNL A   1      28.006  28.501  23.316  1.00  0.00     0.029 C 
BRANCH  17  18
ATOM     18  C   UNL A   1      28.057  29.858  22.784  1.00  0.00    -0.020 A 
ATOM     19  C   UNL A   1      28.336  30.957  23.609  1.00  0.00     0.012 A 
ATOM     20  C   UNL A   1      27.781  30.048  21.428  1.00  0.00     0.058 A 
ATOM     21  C   UNL A   1      28.297  32.253  23.091  1.00  0.00     0.051 A 
ATOM     22  C   UNL A   1      27.750  31.337  20.923  1.00  0.00     0.157 A 
ATOM     23  C   UNL A   1      27.994  32.433  21.747  1.00  0.00     0.157 A 
BRANCH  22  24
ATOM     24  O   UNL A   1      27.458  31.524  19.603  1.00  0.00    -0.504 OA
ATOM     25  H   UNL A   1      26.630  31.887  19.353  1.00  0.00     0.293 HD
ENDBRANCH  22  24
BRANCH  23  26
ATOM     26  O   UNL A   1      27.914  33.678  21.187  1.00  0.00    -0.504 OA
ATOM     27  H   UNL A   1      27.088  34.007  20.894  1.00  0.00     0.293 HD
ENDBRANCH  23  26
ENDBRANCH  17  18
ENDBRANCH   9  10
ENDBRANCH   8   9
ENDBRANCH   7   8
ENDBRANCH   5   7
ENDBRANCH   2   3
ENDBRANCH   1   2
BRANCH   1  28
ATOM     28  C   UNL A   1      36.831  22.152  24.837  1.00  0.00     0.002 C 
BRANCH  28  29
ATOM     29  C   UNL A   1      36.718  20.633  24.976  1.00  0.00     0.002 C 
BRANCH  29  30
ATOM     30  C   UNL A   1      38.029  19.873  24.801  1.00  0.00     0.021 C 
BRANCH  30  31
ATOM     31  C   UNL A   1      39.119  20.239  25.803  1.00  0.00     0.116 C 
BRANCH  31  32
ATOM     32  N   UNL A   1      40.179  19.244  25.867  1.00  0.00    -0.352 N 
ATOM     33  C   UNL A   1      41.512  19.419  26.151  1.00  0.00     0.251 C 
ATOM     34  H   UNL A   1      39.902  18.317  25.684  1.00  0.00     0.163 HD
ATOM     35  O   UNL A   1      42.305  18.496  25.998  1.00  0.00    -0.269 OA
BRANCH  33  36
ATOM     36  C   UNL A   1      41.994  20.738  26.613  1.00  0.00     0.039 A 
ATOM     37  C   UNL A   1      42.493  21.644  25.676  1.00  0.00     0.014 A 
ATOM     38  C   UNL A   1      41.933  21.087  27.965  1.00  0.00     0.014 A 
ATOM     39  C   UNL A   1      42.865  22.926  26.085  1.00  0.00     0.010 A 
ATOM     40  C   UNL A   1      42.223  22.391  28.356  1.00  0.00     0.010 A 
ATOM     41  C   UNL A   1      42.695  23.324  27.422  1.00  0.00    -0.014 A 
BRANCH  41  42
ATOM     42  C   UNL A   1      43.000  24.711  27.857  1.00  0.00     0.031 A 
ATOM     43  C   UNL A   1      44.423  25.136  28.101  1.00  0.00     0.074 A 
ATOM     44  C   UNL A   1      41.992  25.574  28.090  1.00  0.00     0.049 A 
ATOM     45  N   UNL A   1      44.878  26.289  28.523  1.00  0.00    -0.248 NA
ATOM     46  C   UNL A   1      45.469  24.128  27.866  1.00  0.00     0.031 C 
ATOM     47  C   UNL A   1      40.566  25.276  27.934  1.00  0.00     0.029 A 
ATOM     48  N   UNL A   1      42.012  26.880  28.514  1.00  0.00    -0.354 N 
ATOM     49  C   UNL A   1      46.257  26.138  28.618  1.00  0.00     0.074 A 
ATOM     50  C   UNL A   1      46.558  24.769  28.262  1.00  0.00     0.031 C 
ATOM     51  C   UNL A   1      39.853  26.375  28.225  1.00  0.00     0.029 A 
ATOM     52  C   UNL A   1      40.763  27.440  28.633  1.00  0.00     0.049 A 
ATOM     53  H   UNL A   1      42.843  27.370  28.713  1.00  0.00     0.167 HD
ATOM     54  C   UNL A   1      47.189  27.060  28.955  1.00  0.00     0.031 A 
ATOM     55  C   UNL A   1      40.389  28.671  29.033  1.00  0.00     0.031 A 
ATOM     56  C   UNL A   1      46.891  28.424  29.303  1.00  0.00     0.049 A 
ATOM     57  C   UNL A   1      41.444  29.670  29.418  1.00  0.00     0.074 A 
ATOM     58  C   UNL A   1      47.773  29.448  29.599  1.00  0.00     0.029 A 
ATOM     59  N   UNL A   1      45.613  28.951  29.410  1.00  0.00    -0.354 N 
ATOM     60  N   UNL A   1      42.746  29.533  29.430  1.00  0.00    -0.248 NA
ATOM     61  C   UNL A   1      40.973  31.000  29.832  1.00  0.00     0.031 C 
ATOM     62  C   UNL A   1      47.027  30.579  29.950  1.00  0.00     0.029 A 
ATOM     63  C   UNL A   1      45.683  30.278  29.800  1.00  0.00     0.049 A 
ATOM     64  H   UNL A   1      44.781  28.455  29.237  1.00  0.00     0.167 HD
ATOM     65  C   UNL A   1      43.254  30.766  29.823  1.00  0.00     0.074 A 
ATOM     66  C   UNL A   1      42.117  31.641  30.023  1.00  0.00     0.031 C 
ATOM     67  C   UNL A   1      44.545  31.139  30.001  1.00  0.00     0.031 A 
BRANCH  54  68
ATOM     68  C   UNL A   1      48.628  26.618  28.976  1.00  0.00    -0.014 A 
ATOM     69  C   UNL A   1      49.426  26.669  27.822  1.00  0.00     0.009 A 
ATOM     70  C   UNL A   1      49.205  26.185  30.180  1.00  0.00     0.009 A 
ATOM     71  C   UNL A   1      50.762  26.261  27.866  1.00  0.00     0.001 A 
ATOM     72  C   UNL A   1      50.549  25.809  30.228  1.00  0.00     0.001 A 
ATOM     73  C   UNL A   1      51.323  25.838  29.069  1.00  0.00     0.000 A 
ENDBRANCH  54  68
BRANCH  55  74
ATOM     74  C   UNL A   1      38.946  29.030  29.081  1.00  0.00    -0.014 A 
ATOM     75  C   UNL A   1      38.291  29.510  27.936  1.00  0.00     0.009 A 
ATOM     76  C   UNL A   1      38.218  28.900  30.274  1.00  0.00     0.009 A 
ATOM     77  C   UNL A   1      36.944  29.877  27.994  1.00  0.00     0.001 A 
ATOM     78  C   UNL A   1      36.863  29.238  30.319  1.00  0.00     0.001 A 
ATOM     79  C   UNL A   1      36.230  29.735  29.182  1.00  0.00     0.000 A 
ENDBRANCH  55  74
BRANCH  67  80
ATOM     80  C   UNL A   1      44.803  32.567  30.396  1.00  0.00    -0.014 A 
ATOM     81  C   UNL A   1      44.898  32.950  31.743  1.00  0.00     0.009 A 
ATOM     82  C   UNL A   1      44.995  33.537  29.399  1.00  0.00     0.009 A 
ATOM     83  C   UNL A   1      45.143  34.283  32.082  1.00  0.00     0.001 A 
ATOM     84  C   UNL A   1      45.274  34.861  29.740  1.00  0.00     0.001 A 
ATOM     85  C   UNL A   1      45.336  35.235  31.081  1.00  0.00     0.000 A 
ENDBRANCH  67  80
ENDBRANCH  41  42
ENDBRANCH  33  36
ENDBRANCH  31  32
ENDBRANCH  30  31
ENDBRANCH  29  30
ENDBRANCH  28  29
ENDBRANCH   1  28
TORSDOF 19
ENDMDL
MODEL 2
REMARK VINA RESULT:     -10.9      1.633      2.287
REMARK SMILES O=C(CCCN1C(=O)/C(=C\c2ccc(O)c(O)c2)SC1=S)NCCCCCCNC(=O)c1ccc(-c2c3nc(c(-c4ccccc4)c4ccc([nH]4)c(-c4ccccc4)c4nc(c(-c5ccccc5)c5ccc2[nH]5)C=C4)C=C3)cc1
REMARK SMILES IDX 24 1 23 2 22 3 1 4 2 5 3 7 4 8 5 9 6 10 7 11 20 12 8 13 9 14
REMARK SMILES IDX 19 15 21 16 10 17 11 18 12 19 18 20 13 21 16 22 14 23 17 24
REMARK SMILES IDX 15 26 25 28 26 29 27 30 28 31 29 32 30 33 31 35 32 36 33 37
REMARK SMILES IDX 79 38 34 39 78 40 35 41 36 42 37 43 72 44 38 45 77 46 71 47
REMARK SMILES IDX 73 48 39 49 76 50 70 51 69 52 40 54 62 55 47 56 61 57 48 58
REMARK SMILES IDX 51 59 60 60 74 61 49 62 50 63 59 65 75 66 52 67 41 68 42 69
REMARK SMILES IDX 46 70 43 71 45 72 44 73 63 74 64 75 68 76 65 77 67 78 66 79
REMARK SMILES IDX 53 80 54 81 58 82 55 83 57 84 56 85
REMARK H PARENT 22 6 17 25 15 27 29 34 73 53 51 64
REMARK Flexibility Score: inf
ROOT
ATOM      1  C   UNL A   1      34.264  20.019  24.655  1.00  0.00     0.021 C 
ENDROOT
BRANCH   1   2
ATOM      2  C   UNL A   1      32.944  19.855  25.414  1.00  0.00     0.116 C 
BRANCH   2   3
ATOM      3  N   UNL A   1      32.536  21.106  26.014  1.00  0.00    -0.356 N 
ATOM      4  O   UNL A   1      31.481  22.018  24.200  1.00  0.00    -0.275 OA
ATOM      5  C   UNL A   1      31.793  22.069  25.383  1.00  0.00     0.220 C 
ATOM      6  H   UNL A   1      32.811  21.278  26.943  1.00  0.00     0.163 HD
BRANCH   5   7
ATOM      7  C   UNL A   1      31.372  23.215  26.297  1.00  0.00     0.102 C 
BRANCH   7   8
ATOM      8  C   UNL A   1      32.539  24.092  26.762  1.00  0.00     0.032 C 
BRANCH   8   9
ATOM      9  C   UNL A   1      32.604  25.545  26.264  1.00  0.00     0.128 C 
BRANCH   9  10
ATOM     10  N   UNL A   1      32.487  25.771  24.810  1.00  0.00    -0.293 N 
ATOM     11  C   UNL A   1      31.538  26.703  24.395  1.00  0.00     0.266 C 
ATOM     12  C   UNL A   1      33.305  25.277  23.814  1.00  0.00     0.148 C 
ATOM     13  O   UNL A   1      30.688  27.199  25.114  1.00  0.00    -0.268 OA
ATOM     14  C   UNL A   1      31.737  27.048  22.956  1.00  0.00     0.081 C 
ATOM     15  S   UNL A   1      32.994  26.090  22.292  1.00  0.00    -0.054 SA
ATOM     16  S   UNL A   1      34.481  24.101  23.866  1.00  0.00    -0.052 S 
ATOM     17  C   UNL A   1      31.088  27.956  22.216  1.00  0.00     0.029 C 
BRANCH  17  18
ATOM     18  C   UNL A   1      29.971  28.766  22.687  1.00  0.00    -0.020 A 
ATOM     19  C   UNL A   1      28.652  28.291  22.640  1.00  0.00     0.012 A 
ATOM     20  C   UNL A   1      30.239  30.054  23.157  1.00  0.00     0.058 A 
ATOM     21  C   UNL A   1      27.593  29.118  23.019  1.00  0.00     0.051 A 
ATOM     22  C   UNL A   1      29.182  30.864  23.537  1.00  0.00     0.157 A 
ATOM     23  C   UNL A   1      27.868  30.407  23.460  1.00  0.00     0.157 A 
BRANCH  22  24
ATOM     24  O   UNL A   1      29.443  32.130  23.974  1.00  0.00    -0.504 OA
ATOM     25  H   UNL A   1      30.050  32.671  23.507  1.00  0.00     0.293 HD
ENDBRANCH  22  24
BRANCH  23  26
ATOM     26  O   UNL A   1      26.874  31.274  23.820  1.00  0.00    -0.504 OA
ATOM     27  H   UNL A   1      26.994  31.846  24.552  1.00  0.00     0.293 HD
ENDBRANCH  23  26
ENDBRANCH  17  18
ENDBRANCH   9  10
ENDBRANCH   8   9
ENDBRANCH   7   8
ENDBRANCH   5   7
ENDBRANCH   2   3
ENDBRANCH   1   2
BRANCH   1  28
ATOM     28  C   UNL A   1      35.360  20.787  25.412  1.00  0.00     0.002 C 
BRANCH  28  29
ATOM     29  C   UNL A   1      36.675  20.995  24.660  1.00  0.00     0.002 C 
BRANCH  29  30
ATOM     30  C   UNL A   1      37.738  19.931  24.918  1.00  0.00     0.021 C 
BRANCH  30  31
ATOM     31  C   UNL A   1      38.961  20.423  25.684  1.00  0.00     0.116 C 
BRANCH  31  32
ATOM     32  N   UNL A   1      40.021  19.429  25.748  1.00  0.00    -0.352 N 
ATOM     33  C   UNL A   1      41.342  19.593  26.090  1.00  0.00     0.251 C 
ATOM     34  H   UNL A   1      39.755  18.510  25.515  1.00  0.00     0.163 HD
ATOM     35  O   UNL A   1      42.143  18.679  25.929  1.00  0.00    -0.269 OA
BRANCH  33  36
ATOM     36  C   UNL A   1      41.801  20.893  26.626  1.00  0.00     0.039 A 
ATOM     37  C   UNL A   1      42.267  21.865  25.739  1.00  0.00     0.014 A 
ATOM     38  C   UNL A   1      41.752  21.157  27.998  1.00  0.00     0.014 A 
ATOM     39  C   UNL A   1      42.616  23.129  26.222  1.00  0.00     0.010 A 
ATOM     40  C   UNL A   1      42.019  22.441  28.464  1.00  0.00     0.010 A 
ATOM     41  C   UNL A   1      42.457  23.440  27.583  1.00  0.00    -0.014 A 
BRANCH  41  42
ATOM     42  C   UNL A   1      42.737  24.805  28.098  1.00  0.00     0.031 A 
ATOM     43  C   UNL A   1      44.128  25.185  28.525  1.00  0.00     0.074 A 
ATOM     44  C   UNL A   1      41.727  25.686  28.238  1.00  0.00     0.049 A 
ATOM     45  N   UNL A   1      44.555  26.312  29.038  1.00  0.00    -0.248 NA
ATOM     46  C   UNL A   1      45.173  24.158  28.384  1.00  0.00     0.031 C 
ATOM     47  C   UNL A   1      40.324  25.429  27.901  1.00  0.00     0.029 A 
ATOM     48  N   UNL A   1      41.724  26.977  28.704  1.00  0.00    -0.354 N 
ATOM     49  C   UNL A   1      45.908  26.123  29.293  1.00  0.00     0.074 A 
ATOM     50  C   UNL A   1      46.220  24.758  28.929  1.00  0.00     0.031 C 
ATOM     51  C   UNL A   1      39.605  26.537  28.142  1.00  0.00     0.029 A 
ATOM     52  C   UNL A   1      40.482  27.565  28.692  1.00  0.00     0.049 A 
ATOM     53  H   UNL A   1      42.535  27.438  29.018  1.00  0.00     0.167 HD
ATOM     54  C   UNL A   1      46.813  27.010  29.770  1.00  0.00     0.031 A 
ATOM     55  C   UNL A   1      40.090  28.792  29.086  1.00  0.00     0.031 A 
ATOM     56  C   UNL A   1      46.505  28.369  30.126  1.00  0.00     0.049 A 
ATOM     57  C   UNL A   1      41.112  29.752  29.628  1.00  0.00     0.074 A 
ATOM     58  C   UNL A   1      47.367  29.361  30.560  1.00  0.00     0.029 A 
ATOM     59  N   UNL A   1      45.235  28.925  30.097  1.00  0.00    -0.354 N 
ATOM     60  N   UNL A   1      42.400  29.581  29.791  1.00  0.00    -0.248 NA
ATOM     61  C   UNL A   1      40.624  31.079  30.028  1.00  0.00     0.031 C 
ATOM     62  C   UNL A   1      46.609  30.498  30.857  1.00  0.00     0.029 A 
ATOM     63  C   UNL A   1      45.286  30.238  30.537  1.00  0.00     0.049 A 
ATOM     64  H   UNL A   1      44.419  28.457  29.808  1.00  0.00     0.167 HD
ATOM     65  C   UNL A   1      42.883  30.787  30.284  1.00  0.00     0.074 A 
ATOM     66  C   UNL A   1      41.750  31.685  30.376  1.00  0.00     0.031 C 
ATOM     67  C   UNL A   1      44.151  31.121  30.629  1.00  0.00     0.031 A 
BRANCH  54  68
ATOM     68  C   UNL A   1      48.228  26.530  29.949  1.00  0.00    -0.014 A 
ATOM     69  C   UNL A   1      48.664  25.971  31.161  1.00  0.00     0.009 A 
ATOM     70  C   UNL A   1      49.127  26.597  28.873  1.00  0.00     0.009 A 
ATOM     71  C   UNL A   1      49.981  25.525  31.302  1.00  0.00     0.001 A 
ATOM     72  C   UNL A   1      50.432  26.121  29.006  1.00  0.00     0.001 A 
ATOM     73  C   UNL A   1      50.860  25.594  30.223  1.00  0.00     0.000 A 
ENDBRANCH  54  68
BRANCH  55  74
ATOM     74  C   UNL A   1      38.660  29.187  28.972  1.00  0.00    -0.014 A 
ATOM     75  C   UNL A   1      37.800  29.082  30.077  1.00  0.00     0.009 A 
ATOM     76  C   UNL A   1      38.146  29.666  27.757  1.00  0.00     0.009 A 
ATOM     77  C   UNL A   1      36.451  29.423  29.958  1.00  0.00     0.001 A 
ATOM     78  C   UNL A   1      36.804  30.036  27.651  1.00  0.00     0.001 A 
ATOM     79  C   UNL A   1      35.955  29.905  28.748  1.00  0.00     0.000 A 
ENDBRANCH  55  74
BRANCH  67  80
ATOM     80  C   UNL A   1      44.391  32.529  31.100  1.00  0.00    -0.014 A 
ATOM     81  C   UNL A   1      44.348  32.863  32.463  1.00  0.00     0.009 A 
ATOM     82  C   UNL A   1      44.705  33.527  30.164  1.00  0.00     0.009 A 
ATOM     83  C   UNL A   1      44.580  34.178  32.873  1.00  0.00     0.001 A 
ATOM     84  C   UNL A   1      44.969  34.833  30.581  1.00  0.00     0.001 A 
ATOM     85  C   UNL A   1      44.895  35.160  31.934  1.00  0.00     0.000 A 
ENDBRANCH  67  80
ENDBRANCH  41  42
ENDBRANCH  33  36
ENDBRANCH  31  32
ENDBRANCH  30  31
ENDBRANCH  29  30
ENDBRANCH  28  29
ENDBRANCH   1  28
TORSDOF 19
ENDMDL
MODEL 3
REMARK VINA RESULT:     -10.9      1.730      6.123
REMARK SMILES O=C(CCCN1C(=O)/C(=C\c2ccc(O)c(O)c2)SC1=S)NCCCCCCNC(=O)c1ccc(-c2c3nc(c(-c4ccccc4)c4ccc([nH]4)c(-c4ccccc4)c4nc(c(-c5ccccc5)c5ccc2[nH]5)C=C4)C=C3)cc1
REMARK SMILES IDX 24 1 23 2 22 3 1 4 2 5 3 7 4 8 5 9 6 10 7 11 20 12 8 13 9 14
REMARK SMILES IDX 19 15 21 16 10 17 11 18 12 19 18 20 13 21 16 22 14 23 17 24
REMARK SMILES IDX 15 26 25 28 26 29 27 30 28 31 29 32 30 33 31 35 32 36 33 37
REMARK SMILES IDX 79 38 34 39 78 40 35 41 36 42 37 43 72 44 38 45 77 46 71 47
REMARK SMILES IDX 73 48 39 49 76 50 70 51 69 52 40 54 62 55 47 56 61 57 48 58
REMARK SMILES IDX 51 59 60 60 74 61 49 62 50 63 59 65 75 66 52 67 41 68 42 69
REMARK SMILES IDX 46 70 43 71 45 72 44 73 63 74 64 75 68 76 65 77 67 78 66 79
REMARK SMILES IDX 53 80 54 81 58 82 55 83 57 84 56 85
REMARK H PARENT 22 6 17 25 15 27 29 34 73 53 51 64
REMARK Flexibility Score: inf
ROOT
ATOM      1  C   UNL A   1      34.445  20.063  24.759  1.00  0.00     0.021 C 
ENDROOT
BRANCH   1   2
ATOM      2  C   UNL A   1      33.085  19.989  25.459  1.00  0.00     0.116 C 
BRANCH   2   3
ATOM      3  N   UNL A   1      32.755  21.254  26.077  1.00  0.00    -0.356 N 
ATOM      4  O   UNL A   1      31.407  22.090  24.427  1.00  0.00    -0.275 OA
ATOM      5  C   UNL A   1      31.902  22.186  25.542  1.00  0.00     0.220 C 
ATOM      6  H   UNL A   1      33.171  21.462  26.944  1.00  0.00     0.163 HD
BRANCH   5   7
ATOM      7  C   UNL A   1      31.611  23.357  26.475  1.00  0.00     0.102 C 
BRANCH   7   8
ATOM      8  C   UNL A   1      32.811  24.286  26.689  1.00  0.00     0.032 C 
BRANCH   8   9
ATOM      9  C   UNL A   1      32.740  25.712  26.120  1.00  0.00     0.128 C 
BRANCH   9  10
ATOM     10  N   UNL A   1      32.483  25.855  24.674  1.00  0.00    -0.293 N 
ATOM     11  C   UNL A   1      31.504  26.773  24.300  1.00  0.00     0.266 C 
ATOM     12  C   UNL A   1      33.195  25.293  23.634  1.00  0.00     0.148 C 
ATOM     13  O   UNL A   1      30.732  27.321  25.068  1.00  0.00    -0.268 OA
ATOM     14  C   UNL A   1      31.562  27.032  22.830  1.00  0.00     0.081 C 
ATOM     15  S   UNL A   1      32.741  26.021  22.104  1.00  0.00    -0.054 SA
ATOM     16  S   UNL A   1      34.362  24.108  23.639  1.00  0.00    -0.052 S 
ATOM     17  C   UNL A   1      30.850  27.903  22.105  1.00  0.00     0.029 C 
BRANCH  17  18
ATOM     18  C   UNL A   1      29.791  28.754  22.635  1.00  0.00    -0.020 A 
ATOM     19  C   UNL A   1      28.466  28.303  22.721  1.00  0.00     0.012 A 
ATOM     20  C   UNL A   1      30.118  30.055  23.025  1.00  0.00     0.058 A 
ATOM     21  C   UNL A   1      27.456  29.165  23.154  1.00  0.00     0.051 A 
ATOM     22  C   UNL A   1      29.111  30.900  23.458  1.00  0.00     0.157 A 
ATOM     23  C   UNL A   1      27.788  30.466  23.513  1.00  0.00     0.157 A 
BRANCH  22  24
ATOM     24  O   UNL A   1      29.428  32.178  23.816  1.00  0.00    -0.504 OA
ATOM     25  H   UNL A   1      30.050  32.333  24.500  1.00  0.00     0.293 HD
ENDBRANCH  22  24
BRANCH  23  26
ATOM     26  O   UNL A   1      26.842  31.365  23.919  1.00  0.00    -0.504 OA
ATOM     27  H   UNL A   1      27.005  32.285  23.840  1.00  0.00     0.293 HD
ENDBRANCH  23  26
ENDBRANCH  17  18
ENDBRANCH   9  10
ENDBRANCH   8   9
ENDBRANCH   7   8
ENDBRANCH   5   7
ENDBRANCH   2   3
ENDBRANCH   1   2
BRANCH   1  28
ATOM     28  C   UNL A   1      35.471  20.995  25.423  1.00  0.00     0.002 C 
BRANCH  28  29
ATOM     29  C   UNL A   1      36.828  21.105  24.726  1.00  0.00     0.002 C 
BRANCH  29  30
ATOM     30  C   UNL A   1      37.785  19.948  24.997  1.00  0.00     0.021 C 
BRANCH  30  31
ATOM     31  C   UNL A   1      39.043  20.327  25.771  1.00  0.00     0.116 C 
BRANCH  31  32
ATOM     32  N   UNL A   1      40.000  19.235  25.857  1.00  0.00    -0.352 N 
ATOM     33  C   UNL A   1      41.354  19.288  26.085  1.00  0.00     0.251 C 
ATOM     34  H   UNL A   1      39.625  18.333  25.736  1.00  0.00     0.163 HD
ATOM     35  O   UNL A   1      42.044  18.282  25.959  1.00  0.00    -0.269 OA
BRANCH  33  36
ATOM     36  C   UNL A   1      41.983  20.574  26.456  1.00  0.00     0.039 A 
ATOM     37  C   UNL A   1      42.433  21.424  25.444  1.00  0.00     0.014 A 
ATOM     38  C   UNL A   1      42.107  20.949  27.796  1.00  0.00     0.014 A 
ATOM     39  C   UNL A   1      42.943  22.681  25.775  1.00  0.00     0.010 A 
ATOM     40  C   UNL A   1      42.536  22.233  28.119  1.00  0.00     0.010 A 
ATOM     41  C   UNL A   1      42.962  23.113  27.113  1.00  0.00    -0.014 A 
BRANCH  41  42
ATOM     42  C   UNL A   1      43.417  24.479  27.475  1.00  0.00     0.031 A 
ATOM     43  C   UNL A   1      42.421  25.525  27.894  1.00  0.00     0.074 A 
ATOM     44  C   UNL A   1      44.722  24.798  27.368  1.00  0.00     0.049 A 
ATOM     45  N   UNL A   1      42.625  26.781  28.206  1.00  0.00    -0.248 NA
ATOM     46  C   UNL A   1      41.008  25.117  27.947  1.00  0.00     0.031 C 
ATOM     47  C   UNL A   1      45.785  23.890  26.931  1.00  0.00     0.029 A 
ATOM     48  N   UNL A   1      45.378  25.979  27.616  1.00  0.00    -0.354 N 
ATOM     49  C   UNL A   1      41.370  27.313  28.475  1.00  0.00     0.074 A 
ATOM     50  C   UNL A   1      40.406  26.260  28.239  1.00  0.00     0.031 C 
ATOM     51  C   UNL A   1      46.961  24.536  26.973  1.00  0.00     0.029 A 
ATOM     52  C   UNL A   1      46.732  25.914  27.394  1.00  0.00     0.049 A 
ATOM     53  H   UNL A   1      44.921  26.795  27.924  1.00  0.00     0.167 HD
ATOM     54  C   UNL A   1      41.049  28.559  28.896  1.00  0.00     0.031 A 
ATOM     55  C   UNL A   1      47.685  26.860  27.508  1.00  0.00     0.031 A 
ATOM     56  C   UNL A   1      42.008  29.604  29.137  1.00  0.00     0.049 A 
ATOM     57  C   UNL A   1      47.299  28.241  27.962  1.00  0.00     0.074 A 
ATOM     58  C   UNL A   1      41.784  30.880  29.625  1.00  0.00     0.029 A 
ATOM     59  N   UNL A   1      43.369  29.497  28.901  1.00  0.00    -0.354 N 
ATOM     60  N   UNL A   1      46.117  28.704  28.284  1.00  0.00    -0.248 NA
ATOM     61  C   UNL A   1      48.385  29.223  28.080  1.00  0.00     0.031 C 
ATOM     62  C   UNL A   1      43.003  31.567  29.621  1.00  0.00     0.029 A 
ATOM     63  C   UNL A   1      43.995  30.696  29.202  1.00  0.00     0.049 A 
ATOM     64  H   UNL A   1      43.824  28.690  28.568  1.00  0.00     0.167 HD
ATOM     65  C   UNL A   1      46.320  30.023  28.671  1.00  0.00     0.074 A 
ATOM     66  C   UNL A   1      47.741  30.278  28.560  1.00  0.00     0.031 C 
ATOM     67  C   UNL A   1      45.410  30.940  29.083  1.00  0.00     0.031 A 
BRANCH  54  68
ATOM     68  C   UNL A   1      39.592  28.865  29.112  1.00  0.00    -0.014 A 
ATOM     69  C   UNL A   1      38.775  29.318  28.062  1.00  0.00     0.009 A 
ATOM     70  C   UNL A   1      39.016  28.655  30.375  1.00  0.00     0.009 A 
ATOM     71  C   UNL A   1      37.423  29.589  28.283  1.00  0.00     0.001 A 
ATOM     72  C   UNL A   1      37.657  28.896  30.585  1.00  0.00     0.001 A 
ATOM     73  C   UNL A   1      36.864  29.371  29.541  1.00  0.00     0.000 A 
ENDBRANCH  54  68
BRANCH  55  74
ATOM     74  C   UNL A   1      49.101  26.530  27.195  1.00  0.00    -0.014 A 
ATOM     75  C   UNL A   1      49.615  26.737  25.905  1.00  0.00     0.009 A 
ATOM     76  C   UNL A   1      49.945  26.000  28.184  1.00  0.00     0.009 A 
ATOM     77  C   UNL A   1      50.936  26.395  25.607  1.00  0.00     0.001 A 
ATOM     78  C   UNL A   1      51.275  25.690  27.890  1.00  0.00     0.001 A 
ATOM     79  C   UNL A   1      51.766  25.878  26.600  1.00  0.00     0.000 A 
ENDBRANCH  55  74
BRANCH  67  80
ATOM     80  C   UNL A   1      45.927  32.295  29.483  1.00  0.00    -0.014 A 
ATOM     81  C   UNL A   1      46.008  33.350  28.561  1.00  0.00     0.009 A 
ATOM     82  C   UNL A   1      46.300  32.527  30.816  1.00  0.00     0.009 A 
ATOM     83  C   UNL A   1      46.488  34.600  28.960  1.00  0.00     0.001 A 
ATOM     84  C   UNL A   1      46.746  33.786  31.220  1.00  0.00     0.001 A 
ATOM     85  C   UNL A   1      46.851  34.818  30.289  1.00  0.00     0.000 A 
ENDBRANCH  67  80
ENDBRANCH  41  42
ENDBRANCH  33  36
ENDBRANCH  31  32
ENDBRANCH  30  31
ENDBRANCH  29  30
ENDBRANCH  28  29
ENDBRANCH   1  28
TORSDOF 19
ENDMDL
