MODEL 1
REMARK VINA RESULT:     -11.0      0.000      0.000
REMARK SMILES O=C(NCCCCCCNC(=O)c1ccc(-c2c3nc(c(-c4ccccc4)c4ccc([nH]4)c(-c4ccccc4)c4nc(c(-c5ccccc5)c5ccc2[nH]5)C=C4)C=C3)cc1)c1ccc(Cc2nc3ccccc3s2)cc1
REMARK SMILES IDX 6 1 5 2 4 3 3 4 1 5 2 6 61 8 62 9 76 10 63 11 75 12 64 13
REMARK SMILES IDX 65 14 66 15 67 16 74 17 68 18 73 19 69 20 72 21 70 22 71 23
REMARK SMILES IDX 7 24 8 25 9 26 10 27 11 28 12 30 13 31 14 32 60 33 15 34
REMARK SMILES IDX 59 35 16 36 17 37 18 38 53 39 19 40 58 41 52 42 54 43 20 44
REMARK SMILES IDX 57 45 51 46 50 47 21 49 43 50 28 51 42 52 29 53 32 54 41 55
REMARK SMILES IDX 55 56 30 57 31 58 40 60 56 61 33 62 22 63 23 64 27 65 24 66
REMARK SMILES IDX 26 67 25 68 44 69 45 70 49 71 46 72 48 73 47 74 34 75 35 76
REMARK SMILES IDX 39 77 36 78 38 79 37 80
REMARK H PARENT 3 7 10 29 54 48 32 59
REMARK Flexibility Score: inf
ROOT
ATOM      1  C   UNL A   1      34.352  32.135  28.928  1.00  0.00     0.002 C 
ENDROOT
BRANCH   1   2
ATOM      2  C   UNL A   1      34.896  31.225  27.824  1.00  0.00     0.021 C 
BRANCH   2   3
ATOM      3  C   UNL A   1      33.836  30.597  26.922  1.00  0.00     0.116 C 
BRANCH   3   4
ATOM      4  N   UNL A   1      32.847  29.841  27.673  1.00  0.00    -0.352 N 
ATOM      5  O   UNL A   1      31.284  28.244  28.005  1.00  0.00    -0.269 OA
ATOM      6  C   UNL A   1      32.213  28.672  27.330  1.00  0.00     0.251 C 
ATOM      7  H   UNL A   1      32.598  30.219  28.548  1.00  0.00     0.163 HD
BRANCH   6   8
ATOM      8  C   UNL A   1      32.641  27.946  26.118  1.00  0.00     0.039 A 
ATOM      9  C   UNL A   1      31.952  28.101  24.911  1.00  0.00     0.014 A 
ATOM     10  C   UNL A   1      33.724  27.070  26.208  1.00  0.00     0.014 A 
ATOM     11  C   UNL A   1      32.280  27.296  23.821  1.00  0.00     0.005 A 
ATOM     12  C   UNL A   1      34.058  26.272  25.113  1.00  0.00     0.005 A 
ATOM     13  C   UNL A   1      33.318  26.358  23.922  1.00  0.00    -0.041 A 
BRANCH  13  14
ATOM     14  C   UNL A   1      33.574  25.384  22.790  1.00  0.00     0.103 C 
BRANCH  14  15
ATOM     15  C   UNL A   1      33.555  23.945  23.239  1.00  0.00     0.098 A 
ATOM     16  N   UNL A   1      34.580  23.295  23.753  1.00  0.00    -0.241 NA
ATOM     17  S   UNL A   1      32.113  23.022  23.071  1.00  0.00    -0.118 S 
ATOM     18  C   UNL A   1      34.221  21.994  24.057  1.00  0.00     0.082 A 
ATOM     19  C   UNL A   1      32.904  21.651  23.750  1.00  0.00     0.055 A 
ATOM     20  C   UNL A   1      35.062  21.020  24.633  1.00  0.00     0.030 A 
ATOM     21  C   UNL A   1      32.399  20.363  23.993  1.00  0.00     0.021 A 
ATOM     22  C   UNL A   1      34.569  19.734  24.880  1.00  0.00     0.002 A 
ATOM     23  C   UNL A   1      33.254  19.412  24.562  1.00  0.00     0.002 A 
ENDBRANCH  14  15
ENDBRANCH  13  14
ENDBRANCH   6   8
ENDBRANCH   3   4
ENDBRANCH   2   3
ENDBRANCH   1   2
BRANCH   1  24
ATOM     24  C   UNL A   1      34.497  33.638  28.675  1.00  0.00     0.002 C 
BRANCH  24  25
ATOM     25  C   UNL A   1      33.225  34.465  28.878  1.00  0.00     0.021 C 
BRANCH  25  26
ATOM     26  C   UNL A   1      33.443  35.845  29.491  1.00  0.00     0.116 C 
BRANCH  26  27
ATOM     27  N   UNL A   1      32.567  36.094  30.624  1.00  0.00    -0.352 N 
ATOM     28  C   UNL A   1      32.666  35.653  31.920  1.00  0.00     0.251 C 
ATOM     29  H   UNL A   1      31.788  36.664  30.433  1.00  0.00     0.163 HD
ATOM     30  O   UNL A   1      31.738  35.822  32.702  1.00  0.00    -0.269 OA
BRANCH  28  31
ATOM     31  C   UNL A   1      33.886  34.948  32.369  1.00  0.00     0.039 A 
ATOM     32  C   UNL A   1      33.773  33.632  32.828  1.00  0.00     0.014 A 
ATOM     33  C   UNL A   1      35.134  35.576  32.349  1.00  0.00     0.014 A 
ATOM     34  C   UNL A   1      34.919  32.929  33.206  1.00  0.00     0.010 A 
ATOM     35  C   UNL A   1      36.283  34.850  32.652  1.00  0.00     0.010 A 
ATOM     36  C   UNL A   1      36.188  33.518  33.084  1.00  0.00    -0.014 A 
BRANCH  36  37
ATOM     37  C   UNL A   1      37.423  32.753  33.393  1.00  0.00     0.031 A 
ATOM     38  C   UNL A   1      38.179  33.006  34.667  1.00  0.00     0.074 A 
ATOM     39  C   UNL A   1      37.898  31.869  32.493  1.00  0.00     0.049 A 
ATOM     40  N   UNL A   1      39.302  32.471  35.079  1.00  0.00    -0.248 NA
ATOM     41  C   UNL A   1      37.618  34.007  35.589  1.00  0.00     0.031 C 
ATOM     42  C   UNL A   1      37.280  31.557  31.202  1.00  0.00     0.029 A 
ATOM     43  N   UNL A   1      39.014  31.070  32.527  1.00  0.00    -0.354 N 
ATOM     44  C   UNL A   1      39.587  33.081  36.294  1.00  0.00     0.074 A 
ATOM     45  C   UNL A   1      38.548  34.058  36.532  1.00  0.00     0.031 C 
ATOM     46  C   UNL A   1      38.009  30.617  30.582  1.00  0.00     0.029 A 
ATOM     47  C   UNL A   1      39.168  30.291  31.406  1.00  0.00     0.049 A 
ATOM     48  H   UNL A   1      39.644  31.057  33.284  1.00  0.00     0.167 HD
ATOM     49  C   UNL A   1      40.613  32.837  37.145  1.00  0.00     0.031 A 
ATOM     50  C   UNL A   1      40.137  29.418  31.070  1.00  0.00     0.031 A 
ATOM     51  C   UNL A   1      41.643  31.859  36.913  1.00  0.00     0.049 A 
ATOM     52  C   UNL A   1      41.272  29.176  32.025  1.00  0.00     0.074 A 
ATOM     53  C   UNL A   1      42.689  31.499  37.745  1.00  0.00     0.029 A 
ATOM     54  N   UNL A   1      41.761  31.090  35.766  1.00  0.00    -0.354 N 
ATOM     55  N   UNL A   1      41.491  29.714  33.200  1.00  0.00    -0.248 NA
ATOM     56  C   UNL A   1      42.287  28.197  31.612  1.00  0.00     0.031 C 
ATOM     57  C   UNL A   1      43.477  30.559  37.074  1.00  0.00     0.029 A 
ATOM     58  C   UNL A   1      42.881  30.280  35.855  1.00  0.00     0.049 A 
ATOM     59  H   UNL A   1      41.141  31.116  35.001  1.00  0.00     0.167 HD
ATOM     60  C   UNL A   1      42.653  29.121  33.678  1.00  0.00     0.074 A 
ATOM     61  C   UNL A   1      43.081  28.170  32.673  1.00  0.00     0.031 C 
ATOM     62  C   UNL A   1      43.304  29.343  34.847  1.00  0.00     0.031 A 
BRANCH  49  63
ATOM     63  C   UNL A   1      40.683  33.653  38.407  1.00  0.00    -0.014 A 
ATOM     64  C   UNL A   1      40.067  33.221  39.592  1.00  0.00     0.009 A 
ATOM     65  C   UNL A   1      41.427  34.844  38.424  1.00  0.00     0.009 A 
ATOM     66  C   UNL A   1      40.170  33.979  40.760  1.00  0.00     0.001 A 
ATOM     67  C   UNL A   1      41.553  35.585  39.601  1.00  0.00     0.001 A 
ATOM     68  C   UNL A   1      40.918  35.156  40.766  1.00  0.00     0.000 A 
ENDBRANCH  49  63
BRANCH  50  69
ATOM     69  C   UNL A   1      40.070  28.702  29.770  1.00  0.00    -0.014 A 
ATOM     70  C   UNL A   1      39.447  27.448  29.674  1.00  0.00     0.009 A 
ATOM     71  C   UNL A   1      40.622  29.275  28.612  1.00  0.00     0.009 A 
ATOM     72  C   UNL A   1      39.399  26.774  28.452  1.00  0.00     0.001 A 
ATOM     73  C   UNL A   1      40.543  28.612  27.385  1.00  0.00     0.001 A 
ATOM     74  C   UNL A   1      39.940  27.357  27.308  1.00  0.00     0.000 A 
ENDBRANCH  50  69
BRANCH  62  75
ATOM     75  C   UNL A   1      44.531  28.520  35.121  1.00  0.00    -0.014 A 
ATOM     76  C   UNL A   1      44.453  27.285  35.783  1.00  0.00     0.009 A 
ATOM     77  C   UNL A   1      45.782  28.969  34.666  1.00  0.00     0.009 A 
ATOM     78  C   UNL A   1      45.608  26.532  36.013  1.00  0.00     0.001 A 
ATOM     79  C   UNL A   1      46.928  28.199  34.868  1.00  0.00     0.001 A 
ATOM     80  C   UNL A   1      46.842  26.988  35.550  1.00  0.00     0.000 A 
ENDBRANCH  62  75
ENDBRANCH  36  37
ENDBRANCH  28  31
ENDBRANCH  26  27
ENDBRANCH  25  26
ENDBRANCH  24  25
ENDBRANCH   1  24
TORSDOF 15
ENDMDL
MODEL 2
REMARK VINA RESULT:     -10.9      5.366     10.420
REMARK SMILES O=C(NCCCCCCNC(=O)c1ccc(-c2c3nc(c(-c4ccccc4)c4ccc([nH]4)c(-c4ccccc4)c4nc(c(-c5ccccc5)c5ccc2[nH]5)C=C4)C=C3)cc1)c1ccc(Cc2nc3ccccc3s2)cc1
REMARK SMILES IDX 6 1 5 2 4 3 3 4 1 5 2 6 61 8 62 9 76 10 63 11 75 12 64 13
REMARK SMILES IDX 65 14 66 15 67 16 74 17 68 18 73 19 69 20 72 21 70 22 71 23
REMARK SMILES IDX 7 24 8 25 9 26 10 27 11 28 12 30 13 31 14 32 60 33 15 34
REMARK SMILES IDX 59 35 16 36 17 37 18 38 53 39 19 40 58 41 52 42 54 43 20 44
REMARK SMILES IDX 57 45 51 46 50 47 21 49 43 50 28 51 42 52 29 53 32 54 41 55
REMARK SMILES IDX 55 56 30 57 31 58 40 60 56 61 33 62 22 63 23 64 27 65 24 66
REMARK SMILES IDX 26 67 25 68 44 69 45 70 49 71 46 72 48 73 47 74 34 75 35 76
REMARK SMILES IDX 39 77 36 78 38 79 37 80
REMARK H PARENT 3 7 10 29 54 48 32 59
REMARK Flexibility Score: inf
ROOT
ATOM      1  C   UNL A   1      37.652  22.587  25.601  1.00  0.00     0.002 C 
ENDROOT
BRANCH   1   2
ATOM      2  C   UNL A   1      36.633  21.672  24.916  1.00  0.00     0.021 C 
BRANCH   2   3
ATOM      3  C   UNL A   1      35.422  21.302  25.767  1.00  0.00     0.116 C 
BRANCH   3   4
ATOM      4  N   UNL A   1      34.837  20.029  25.375  1.00  0.00    -0.352 N 
ATOM      5  O   UNL A   1      33.195  18.630  24.702  1.00  0.00    -0.269 OA
ATOM      6  C   UNL A   1      33.601  19.780  24.830  1.00  0.00     0.251 C 
ATOM      7  H   UNL A   1      35.405  19.238  25.519  1.00  0.00     0.163 HD
BRANCH   6   8
ATOM      8  C   UNL A   1      32.747  20.914  24.425  1.00  0.00     0.039 A 
ATOM      9  C   UNL A   1      32.868  21.481  23.152  1.00  0.00     0.014 A 
ATOM     10  C   UNL A   1      31.843  21.437  25.351  1.00  0.00     0.014 A 
ATOM     11  C   UNL A   1      32.161  22.642  22.844  1.00  0.00     0.005 A 
ATOM     12  C   UNL A   1      31.127  22.592  25.037  1.00  0.00     0.005 A 
ATOM     13  C   UNL A   1      31.304  23.220  23.793  1.00  0.00    -0.041 A 
BRANCH  13  14
ATOM     14  C   UNL A   1      30.653  24.559  23.510  1.00  0.00     0.103 C 
BRANCH  14  15
ATOM     15  C   UNL A   1      31.195  25.669  24.374  1.00  0.00     0.098 A 
ATOM     16  N   UNL A   1      32.308  26.337  24.145  1.00  0.00    -0.241 NA
ATOM     17  S   UNL A   1      30.345  26.129  25.798  1.00  0.00    -0.118 S 
ATOM     18  C   UNL A   1      32.511  27.286  25.130  1.00  0.00     0.082 A 
ATOM     19  C   UNL A   1      31.541  27.324  26.132  1.00  0.00     0.055 A 
ATOM     20  C   UNL A   1      33.593  28.188  25.197  1.00  0.00     0.030 A 
ATOM     21  C   UNL A   1      31.618  28.229  27.204  1.00  0.00     0.021 A 
ATOM     22  C   UNL A   1      33.679  29.094  26.259  1.00  0.00     0.002 A 
ATOM     23  C   UNL A   1      32.702  29.111  27.250  1.00  0.00     0.002 A 
ENDBRANCH  14  15
ENDBRANCH  13  14
ENDBRANCH   6   8
ENDBRANCH   3   4
ENDBRANCH   2   3
ENDBRANCH   1   2
BRANCH   1  24
ATOM     24  C   UNL A   1      38.932  21.902  26.088  1.00  0.00     0.002 C 
BRANCH  24  25
ATOM     25  C   UNL A   1      39.285  20.591  25.380  1.00  0.00     0.021 C 
BRANCH  25  26
ATOM     26  C   UNL A   1      39.828  19.493  26.290  1.00  0.00     0.116 C 
BRANCH  26  27
ATOM     27  N   UNL A   1      41.134  19.016  25.867  1.00  0.00    -0.352 N 
ATOM     28  C   UNL A   1      42.320  19.699  25.752  1.00  0.00     0.251 C 
ATOM     29  H   UNL A   1      41.175  18.062  25.628  1.00  0.00     0.163 HD
ATOM     30  O   UNL A   1      43.285  19.172  25.211  1.00  0.00    -0.269 OA
BRANCH  28  31
ATOM     31  C   UNL A   1      42.426  21.085  26.258  1.00  0.00     0.039 A 
ATOM     32  C   UNL A   1      42.285  21.313  27.629  1.00  0.00     0.014 A 
ATOM     33  C   UNL A   1      42.654  22.157  25.390  1.00  0.00     0.014 A 
ATOM     34  C   UNL A   1      42.436  22.606  28.136  1.00  0.00     0.010 A 
ATOM     35  C   UNL A   1      42.881  23.431  25.904  1.00  0.00     0.010 A 
ATOM     36  C   UNL A   1      42.773  23.670  27.283  1.00  0.00    -0.014 A 
BRANCH  36  37
ATOM     37  C   UNL A   1      43.029  25.031  27.818  1.00  0.00     0.031 A 
ATOM     38  C   UNL A   1      44.423  25.459  28.184  1.00  0.00     0.074 A 
ATOM     39  C   UNL A   1      41.992  25.867  28.030  1.00  0.00     0.049 A 
ATOM     40  N   UNL A   1      44.827  26.587  28.712  1.00  0.00    -0.248 NA
ATOM     41  C   UNL A   1      45.502  24.485  27.952  1.00  0.00     0.031 C 
ATOM     42  C   UNL A   1      40.586  25.561  27.753  1.00  0.00     0.029 A 
ATOM     43  N   UNL A   1      41.961  27.144  28.533  1.00  0.00    -0.354 N 
ATOM     44  C   UNL A   1      46.198  26.452  28.889  1.00  0.00     0.074 A 
ATOM     45  C   UNL A   1      46.551  25.118  28.457  1.00  0.00     0.031 C 
ATOM     46  C   UNL A   1      39.836  26.630  28.062  1.00  0.00     0.029 A 
ATOM     47  C   UNL A   1      40.696  27.678  28.602  1.00  0.00     0.049 A 
ATOM     48  H   UNL A   1      42.768  27.631  28.817  1.00  0.00     0.167 HD
ATOM     49  C   UNL A   1      47.087  27.363  29.353  1.00  0.00     0.031 A 
ATOM     50  C   UNL A   1      40.272  28.872  29.056  1.00  0.00     0.031 A 
ATOM     51  C   UNL A   1      46.738  28.694  29.774  1.00  0.00     0.049 A 
ATOM     52  C   UNL A   1      41.277  29.860  29.580  1.00  0.00     0.074 A 
ATOM     53  C   UNL A   1      47.578  29.707  30.202  1.00  0.00     0.029 A 
ATOM     54  N   UNL A   1      45.447  29.195  29.826  1.00  0.00    -0.354 N 
ATOM     55  N   UNL A   1      42.578  29.738  29.679  1.00  0.00    -0.248 NA
ATOM     56  C   UNL A   1      40.754  31.153  30.041  1.00  0.00     0.031 C 
ATOM     57  C   UNL A   1      46.789  30.800  30.575  1.00  0.00     0.029 A 
ATOM     58  C   UNL A   1      45.465  30.493  30.310  1.00  0.00     0.049 A 
ATOM     59  H   UNL A   1      44.637  28.701  29.559  1.00  0.00     0.167 HD
ATOM     60  C   UNL A   1      43.032  30.948  30.189  1.00  0.00     0.074 A 
ATOM     61  C   UNL A   1      41.869  31.793  30.362  1.00  0.00     0.031 C 
ATOM     62  C   UNL A   1      44.301  31.324  30.485  1.00  0.00     0.031 A 
BRANCH  49  63
ATOM     63  C   UNL A   1      48.530  26.947  29.444  1.00  0.00    -0.014 A 
ATOM     64  C   UNL A   1      49.427  27.186  28.391  1.00  0.00     0.009 A 
ATOM     65  C   UNL A   1      49.012  26.360  30.625  1.00  0.00     0.009 A 
ATOM     66  C   UNL A   1      50.770  26.819  28.508  1.00  0.00     0.001 A 
ATOM     67  C   UNL A   1      50.360  26.022  30.750  1.00  0.00     0.001 A 
ATOM     68  C   UNL A   1      51.237  26.244  29.689  1.00  0.00     0.000 A 
ENDBRANCH  49  63
BRANCH  50  69
ATOM     69  C   UNL A   1      38.823  29.201  29.030  1.00  0.00    -0.014 A 
ATOM     70  C   UNL A   1      38.029  29.032  30.175  1.00  0.00     0.009 A 
ATOM     71  C   UNL A   1      38.226  29.699  27.860  1.00  0.00     0.009 A 
ATOM     72  C   UNL A   1      36.665  29.330  30.141  1.00  0.00     0.001 A 
ATOM     73  C   UNL A   1      36.869  30.027  27.839  1.00  0.00     0.001 A 
ATOM     74  C   UNL A   1      36.087  29.833  28.977  1.00  0.00     0.000 A 
ENDBRANCH  50  69
BRANCH  62  75
ATOM     75  C   UNL A   1      44.507  32.722  30.996  1.00  0.00    -0.014 A 
ATOM     76  C   UNL A   1      44.707  33.800  30.119  1.00  0.00     0.009 A 
ATOM     77  C   UNL A   1      44.451  32.971  32.377  1.00  0.00     0.009 A 
ATOM     78  C   UNL A   1      44.881  35.094  30.619  1.00  0.00     0.001 A 
ATOM     79  C   UNL A   1      44.591  34.268  32.871  1.00  0.00     0.001 A 
ATOM     80  C   UNL A   1      44.817  35.327  31.993  1.00  0.00     0.000 A 
ENDBRANCH  62  75
ENDBRANCH  36  37
ENDBRANCH  28  31
ENDBRANCH  26  27
ENDBRANCH  25  26
ENDBRANCH  24  25
ENDBRANCH   1  24
TORSDOF 15
ENDMDL
MODEL 3
REMARK VINA RESULT:     -10.8      4.532      7.849
REMARK SMILES O=C(NCCCCCCNC(=O)c1ccc(-c2c3nc(c(-c4ccccc4)c4ccc([nH]4)c(-c4ccccc4)c4nc(c(-c5ccccc5)c5ccc2[nH]5)C=C4)C=C3)cc1)c1ccc(Cc2nc3ccccc3s2)cc1
REMARK SMILES IDX 6 1 5 2 4 3 3 4 1 5 2 6 61 8 62 9 76 10 63 11 75 12 64 13
REMARK SMILES IDX 65 14 66 15 67 16 74 17 68 18 73 19 69 20 72 21 70 22 71 23
REMARK SMILES IDX 7 24 8 25 9 26 10 27 11 28 12 30 13 31 14 32 60 33 15 34
REMARK SMILES IDX 59 35 16 36 17 37 18 38 53 39 19 40 58 41 52 42 54 43 20 44
REMARK SMILES IDX 57 45 51 46 50 47 21 49 43 50 28 51 42 52 29 53 32 54 41 55
REMARK SMILES IDX 55 56 30 57 31 58 40 60 56 61 33 62 22 63 23 64 27 65 24 66
REMARK SMILES IDX 26 67 25 68 44 69 45 70 49 71 46 72 48 73 47 74 34 75 35 76
REMARK SMILES IDX 39 77 36 78 38 79 37 80
REMARK H PARENT 3 7 10 29 54 48 32 59
REMARK Flexibility Score: inf
ROOT
ATOM      1  C   UNL A   1      35.274  34.445  33.858  1.00  0.00     0.002 C 
ENDROOT
BRANCH   1   2
ATOM      2  C   UNL A   1      36.690  34.504  33.279  1.00  0.00     0.021 C 
BRANCH   2   3
ATOM      3  C   UNL A   1      37.808  34.613  34.312  1.00  0.00     0.116 C 
BRANCH   3   4
ATOM      4  N   UNL A   1      37.518  33.861  35.523  1.00  0.00    -0.352 N 
ATOM      5  O   UNL A   1      37.337  32.016  36.815  1.00  0.00    -0.269 OA
ATOM      6  C   UNL A   1      37.790  32.545  35.806  1.00  0.00     0.251 C 
ATOM      7  H   UNL A   1      37.064  34.364  36.237  1.00  0.00     0.163 HD
BRANCH   6   8
ATOM      8  C   UNL A   1      38.613  31.758  34.866  1.00  0.00     0.039 A 
ATOM      9  C   UNL A   1      38.013  30.933  33.909  1.00  0.00     0.014 A 
ATOM     10  C   UNL A   1      40.003  31.823  34.975  1.00  0.00     0.014 A 
ATOM     11  C   UNL A   1      38.805  30.088  33.133  1.00  0.00     0.005 A 
ATOM     12  C   UNL A   1      40.795  30.984  34.190  1.00  0.00     0.005 A 
ATOM     13  C   UNL A   1      40.200  30.089  33.286  1.00  0.00    -0.041 A 
BRANCH  13  14
ATOM     14  C   UNL A   1      41.044  29.068  32.551  1.00  0.00     0.103 C 
BRANCH  14  15
ATOM     15  C   UNL A   1      41.559  27.975  33.452  1.00  0.00     0.098 A 
ATOM     16  N   UNL A   1      40.833  27.298  34.320  1.00  0.00    -0.241 NA
ATOM     17  S   UNL A   1      43.225  27.547  33.402  1.00  0.00    -0.118 S 
ATOM     18  C   UNL A   1      41.615  26.370  34.982  1.00  0.00     0.082 A 
ATOM     19  C   UNL A   1      42.962  26.357  34.619  1.00  0.00     0.055 A 
ATOM     20  C   UNL A   1      41.167  25.466  35.967  1.00  0.00     0.030 A 
ATOM     21  C   UNL A   1      43.880  25.474  35.212  1.00  0.00     0.021 A 
ATOM     22  C   UNL A   1      42.072  24.582  36.564  1.00  0.00     0.002 A 
ATOM     23  C   UNL A   1      43.412  24.590  36.190  1.00  0.00     0.002 A 
ENDBRANCH  14  15
ENDBRANCH  13  14
ENDBRANCH   6   8
ENDBRANCH   3   4
ENDBRANCH   2   3
ENDBRANCH   1   2
BRANCH   1  24
ATOM     24  C   UNL A   1      34.370  35.631  33.509  1.00  0.00     0.002 C 
BRANCH  24  25
ATOM     25  C   UNL A   1      33.275  35.342  32.478  1.00  0.00     0.021 C 
BRANCH  25  26
ATOM     26  C   UNL A   1      33.519  35.936  31.095  1.00  0.00     0.116 C 
BRANCH  26  27
ATOM     27  N   UNL A   1      32.886  35.164  30.038  1.00  0.00    -0.352 N 
ATOM     28  C   UNL A   1      33.422  34.207  29.212  1.00  0.00     0.251 C 
ATOM     29  H   UNL A   1      31.931  35.354  29.895  1.00  0.00     0.163 HD
ATOM     30  O   UNL A   1      32.779  33.784  28.259  1.00  0.00    -0.269 OA
BRANCH  28  31
ATOM     31  C   UNL A   1      34.792  33.704  29.455  1.00  0.00     0.039 A 
ATOM     32  C   UNL A   1      34.984  32.721  30.430  1.00  0.00     0.014 A 
ATOM     33  C   UNL A   1      35.884  34.200  28.737  1.00  0.00     0.014 A 
ATOM     34  C   UNL A   1      36.260  32.193  30.639  1.00  0.00     0.010 A 
ATOM     35  C   UNL A   1      37.139  33.618  28.892  1.00  0.00     0.010 A 
ATOM     36  C   UNL A   1      37.341  32.609  29.845  1.00  0.00    -0.014 A 
BRANCH  36  37
ATOM     37  C   UNL A   1      38.684  31.990  29.991  1.00  0.00     0.031 A 
ATOM     38  C   UNL A   1      39.802  32.742  30.658  1.00  0.00     0.074 A 
ATOM     39  C   UNL A   1      38.912  30.769  29.468  1.00  0.00     0.049 A 
ATOM     40  N   UNL A   1      41.050  32.382  30.828  1.00  0.00    -0.248 NA
ATOM     41  C   UNL A   1      39.488  34.081  31.180  1.00  0.00     0.031 C 
ATOM     42  C   UNL A   1      37.924  29.950  28.763  1.00  0.00     0.029 A 
ATOM     43  N   UNL A   1      40.052  30.005  29.445  1.00  0.00    -0.354 N 
ATOM     44  C   UNL A   1      41.670  33.453  31.459  1.00  0.00     0.074 A 
ATOM     45  C   UNL A   1      40.675  34.493  31.600  1.00  0.00     0.031 C 
ATOM     46  C   UNL A   1      38.492  28.789  28.402  1.00  0.00     0.029 A 
ATOM     47  C   UNL A   1      39.894  28.798  28.807  1.00  0.00     0.049 A 
ATOM     48  H   UNL A   1      40.903  30.295  29.847  1.00  0.00     0.167 HD
ATOM     49  C   UNL A   1      42.947  33.555  31.898  1.00  0.00     0.031 A 
ATOM     50  C   UNL A   1      40.777  27.811  28.566  1.00  0.00     0.031 A 
ATOM     51  C   UNL A   1      43.935  32.517  31.766  1.00  0.00     0.049 A 
ATOM     52  C   UNL A   1      42.193  27.954  29.050  1.00  0.00     0.074 A 
ATOM     53  C   UNL A   1      45.237  32.506  32.233  1.00  0.00     0.029 A 
ATOM     54  N   UNL A   1      43.732  31.310  31.115  1.00  0.00    -0.354 N 
ATOM     55  N   UNL A   1      42.744  28.948  29.703  1.00  0.00    -0.248 NA
ATOM     56  C   UNL A   1      43.103  26.835  28.775  1.00  0.00     0.031 C 
ATOM     57  C   UNL A   1      45.844  31.319  31.809  1.00  0.00     0.029 A 
ATOM     58  C   UNL A   1      44.896  30.560  31.142  1.00  0.00     0.049 A 
ATOM     59  H   UNL A   1      42.886  31.027  30.697  1.00  0.00     0.167 HD
ATOM     60  C   UNL A   1      44.058  28.563  29.939  1.00  0.00     0.074 A 
ATOM     61  C   UNL A   1      44.214  27.238  29.375  1.00  0.00     0.031 C 
ATOM     62  C   UNL A   1      45.045  29.246  30.571  1.00  0.00     0.031 A 
BRANCH  49  63
ATOM     63  C   UNL A   1      43.359  34.845  32.554  1.00  0.00    -0.014 A 
ATOM     64  C   UNL A   1      43.886  35.910  31.806  1.00  0.00     0.009 A 
ATOM     65  C   UNL A   1      43.164  35.017  33.934  1.00  0.00     0.009 A 
ATOM     66  C   UNL A   1      44.235  37.109  32.431  1.00  0.00     0.001 A 
ATOM     67  C   UNL A   1      43.485  36.227  34.551  1.00  0.00     0.001 A 
ATOM     68  C   UNL A   1      44.028  37.270  33.800  1.00  0.00     0.000 A 
ENDBRANCH  49  63
BRANCH  50  69
ATOM     69  C   UNL A   1      40.343  26.593  27.832  1.00  0.00    -0.014 A 
ATOM     70  C   UNL A   1      40.732  26.383  26.500  1.00  0.00     0.009 A 
ATOM     71  C   UNL A   1      39.545  25.626  28.465  1.00  0.00     0.009 A 
ATOM     72  C   UNL A   1      40.311  25.244  25.811  1.00  0.00     0.001 A 
ATOM     73  C   UNL A   1      39.153  24.472  27.783  1.00  0.00     0.001 A 
ATOM     74  C   UNL A   1      39.529  24.287  26.453  1.00  0.00     0.000 A 
ENDBRANCH  50  69
BRANCH  62  75
ATOM     75  C   UNL A   1      46.375  28.562  30.716  1.00  0.00    -0.014 A 
ATOM     76  C   UNL A   1      47.390  28.723  29.761  1.00  0.00     0.009 A 
ATOM     77  C   UNL A   1      46.631  27.781  31.855  1.00  0.00     0.009 A 
ATOM     78  C   UNL A   1      48.624  28.087  29.927  1.00  0.00     0.001 A 
ATOM     79  C   UNL A   1      47.875  27.175  32.034  1.00  0.00     0.001 A 
ATOM     80  C   UNL A   1      48.866  27.320  31.066  1.00  0.00     0.000 A 
ENDBRANCH  62  75
ENDBRANCH  36  37
ENDBRANCH  28  31
ENDBRANCH  26  27
ENDBRANCH  25  26
ENDBRANCH  24  25
ENDBRANCH   1  24
TORSDOF 15
ENDMDL
