MODEL 1
REMARK VINA RESULT:     -11.1      0.000      0.000
REMARK SMILES O=C(CCn1c(SCc2ccccn2)nc2ccccc2c1=O)NCCCCCCNC(=O)c1ccc(-c2c3nc(c(-c4ccccc4)c4ccc([nH]4)c(-c4ccccc4)c4nc(c(-c5ccccc5)c5ccc2[nH]5)C=C4)C=C3)cc1
REMARK SMILES IDX 26 1 25 2 24 3 1 4 2 5 3 7 4 8 5 9 6 10 22 11 15 12 21 13
REMARK SMILES IDX 23 14 16 15 20 16 17 17 19 18 18 19 7 20 8 21 9 22 10 23
REMARK SMILES IDX 14 24 11 25 13 26 12 27 27 28 28 29 29 30 30 31 31 32 32 33
REMARK SMILES IDX 33 35 34 36 35 37 81 38 36 39 80 40 37 41 38 42 39 43 74 44
REMARK SMILES IDX 40 45 79 46 73 47 75 48 41 49 78 50 72 51 71 52 42 54 64 55
REMARK SMILES IDX 49 56 63 57 50 58 53 59 62 60 76 61 51 62 52 63 61 65 77 66
REMARK SMILES IDX 54 67 43 68 44 69 48 70 45 71 47 72 46 73 65 74 66 75 70 76
REMARK SMILES IDX 67 77 69 78 68 79 55 80 56 81 60 82 57 83 59 84 58 85
REMARK H PARENT 24 6 31 34 75 53 53 64
REMARK Flexibility Score: inf
ROOT
ATOM      1  C   UNL A   1      33.498  22.528  27.552  1.00  0.00     0.021 C 
ENDROOT
BRANCH   1   2
ATOM      2  C   UNL A   1      32.134  22.895  26.967  1.00  0.00     0.116 C 
BRANCH   2   3
ATOM      3  N   UNL A   1      32.176  23.324  25.583  1.00  0.00    -0.356 N 
ATOM      4  O   UNL A   1      30.284  24.606  25.763  1.00  0.00    -0.275 OA
ATOM      5  C   UNL A   1      31.233  24.206  25.093  1.00  0.00     0.221 C 
ATOM      6  H   UNL A   1      32.881  22.984  24.988  1.00  0.00     0.163 HD
BRANCH   5   7
ATOM      7  C   UNL A   1      31.373  24.562  23.625  1.00  0.00     0.122 C 
BRANCH   7   8
ATOM      8  C   UNL A   1      32.339  25.680  23.214  1.00  0.00     0.138 C 
BRANCH   8   9
ATOM      9  N   UNL A   1      32.218  26.957  23.911  1.00  0.00    -0.287 N 
ATOM     10  C   UNL A   1      31.197  27.895  23.810  1.00  0.00     0.171 A 
ATOM     11  C   UNL A   1      33.240  27.140  24.863  1.00  0.00     0.262 A 
ATOM     12  N   UNL A   1      31.176  28.979  24.521  1.00  0.00    -0.224 NA
ATOM     13  C   UNL A   1      33.219  28.360  25.671  1.00  0.00     0.066 A 
ATOM     14  O   UNL A   1      34.137  26.326  25.076  1.00  0.00    -0.269 OA
ATOM     15  C   UNL A   1      32.172  29.237  25.458  1.00  0.00     0.079 A 
ATOM     16  C   UNL A   1      34.222  28.633  26.613  1.00  0.00     0.016 A 
ATOM     17  C   UNL A   1      32.109  30.405  26.224  1.00  0.00     0.029 A 
ATOM     18  C   UNL A   1      34.163  29.810  27.356  1.00  0.00     0.001 A 
ATOM     19  C   UNL A   1      33.101  30.694  27.167  1.00  0.00     0.002 A 
BRANCH  10  20
ATOM     20  S   UNL A   1      29.715  27.766  22.901  1.00  0.00    -0.081 SA
BRANCH  20  21
ATOM     21  C   UNL A   1      28.465  28.972  23.247  1.00  0.00     0.134 C 
BRANCH  21  22
ATOM     22  C   UNL A   1      28.396  30.274  22.488  1.00  0.00     0.051 A 
ATOM     23  C   UNL A   1      28.579  31.451  23.226  1.00  0.00     0.025 A 
ATOM     24  N   UNL A   1      28.103  30.295  21.164  1.00  0.00    -0.260 NA
ATOM     25  C   UNL A   1      28.429  32.685  22.602  1.00  0.00     0.003 A 
ATOM     26  C   UNL A   1      28.014  31.516  20.577  1.00  0.00     0.111 A 
ATOM     27  C   UNL A   1      28.135  32.721  21.248  1.00  0.00     0.020 A 
ENDBRANCH  21  22
ENDBRANCH  20  21
ENDBRANCH  10  20
ENDBRANCH   8   9
ENDBRANCH   7   8
ENDBRANCH   5   7
ENDBRANCH   2   3
ENDBRANCH   1   2
BRANCH   1  28
ATOM     28  C   UNL A   1      34.710  22.994  26.740  1.00  0.00     0.002 C 
BRANCH  28  29
ATOM     29  C   UNL A   1      35.281  21.958  25.772  1.00  0.00     0.002 C 
BRANCH  29  30
ATOM     30  C   UNL A   1      36.187  22.479  24.664  1.00  0.00     0.021 C 
BRANCH  30  31
ATOM     31  C   UNL A   1      37.365  23.312  25.146  1.00  0.00     0.116 C 
BRANCH  31  32
ATOM     32  N   UNL A   1      38.526  22.506  25.501  1.00  0.00    -0.352 N 
ATOM     33  C   UNL A   1      39.664  22.851  26.197  1.00  0.00     0.251 C 
ATOM     34  H   UNL A   1      38.491  21.570  25.197  1.00  0.00     0.163 HD
ATOM     35  O   UNL A   1      40.599  22.066  26.277  1.00  0.00    -0.269 OA
BRANCH  33  36
ATOM     36  C   UNL A   1      39.775  24.194  26.814  1.00  0.00     0.039 A 
ATOM     37  C   UNL A   1      40.424  25.236  26.152  1.00  0.00     0.014 A 
ATOM     38  C   UNL A   1      39.237  24.407  28.087  1.00  0.00     0.014 A 
ATOM     39  C   UNL A   1      40.715  26.411  26.835  1.00  0.00     0.010 A 
ATOM     40  C   UNL A   1      39.438  25.632  28.734  1.00  0.00     0.010 A 
ATOM     41  C   UNL A   1      40.229  26.625  28.136  1.00  0.00    -0.014 A 
BRANCH  41  42
ATOM     42  C   UNL A   1      40.556  27.896  28.835  1.00  0.00     0.031 A 
ATOM     43  C   UNL A   1      39.537  28.998  28.963  1.00  0.00     0.074 A 
ATOM     44  C   UNL A   1      41.764  28.029  29.419  1.00  0.00     0.049 A 
ATOM     45  N   UNL A   1      39.645  30.145  29.588  1.00  0.00    -0.248 NA
ATOM     46  C   UNL A   1      38.235  28.795  28.308  1.00  0.00     0.031 C 
ATOM     47  C   UNL A   1      42.830  27.026  29.381  1.00  0.00     0.029 A 
ATOM     48  N   UNL A   1      42.285  29.039  30.188  1.00  0.00    -0.354 N 
ATOM     49  C   UNL A   1      38.436  30.803  29.388  1.00  0.00     0.074 A 
ATOM     50  C   UNL A   1      37.620  29.944  28.559  1.00  0.00     0.031 C 
ATOM     51  C   UNL A   1      43.848  27.438  30.151  1.00  0.00     0.029 A 
ATOM     52  C   UNL A   1      43.540  28.765  30.676  1.00  0.00     0.049 A 
ATOM     53  H   UNL A   1      41.806  29.880  30.372  1.00  0.00     0.167 HD
ATOM     54  C   UNL A   1      38.041  32.008  29.862  1.00  0.00     0.031 A 
ATOM     55  C   UNL A   1      44.363  29.494  31.453  1.00  0.00     0.031 A 
ATOM     56  C   UNL A   1      38.847  32.855  30.701  1.00  0.00     0.049 A 
ATOM     57  C   UNL A   1      43.917  30.848  31.924  1.00  0.00     0.074 A 
ATOM     58  C   UNL A   1      38.513  34.080  31.255  1.00  0.00     0.029 A 
ATOM     59  N   UNL A   1      40.141  32.571  31.107  1.00  0.00    -0.354 N 
ATOM     60  N   UNL A   1      42.765  31.445  31.738  1.00  0.00    -0.248 NA
ATOM     61  C   UNL A   1      44.884  31.630  32.706  1.00  0.00     0.031 C 
ATOM     62  C   UNL A   1      39.628  34.566  31.941  1.00  0.00     0.029 A 
ATOM     63  C   UNL A   1      40.632  33.614  31.876  1.00  0.00     0.049 A 
ATOM     64  H   UNL A   1      40.638  31.751  30.883  1.00  0.00     0.167 HD
ATOM     65  C   UNL A   1      42.864  32.668  32.386  1.00  0.00     0.074 A 
ATOM     66  C   UNL A   1      44.178  32.717  32.992  1.00  0.00     0.031 C 
ATOM     67  C   UNL A   1      41.945  33.661  32.466  1.00  0.00     0.031 A 
BRANCH  54  68
ATOM     68  C   UNL A   1      36.672  32.507  29.485  1.00  0.00    -0.014 A 
ATOM     69  C   UNL A   1      36.496  33.214  28.284  1.00  0.00     0.009 A 
ATOM     70  C   UNL A   1      35.582  32.379  30.361  1.00  0.00     0.009 A 
ATOM     71  C   UNL A   1      35.266  33.796  27.975  1.00  0.00     0.001 A 
ATOM     72  C   UNL A   1      34.344  32.938  30.036  1.00  0.00     0.001 A 
ATOM     73  C   UNL A   1      34.190  33.655  28.849  1.00  0.00     0.000 A 
ENDBRANCH  54  68
BRANCH  55  74
ATOM     74  C   UNL A   1      45.690  28.940  31.829  1.00  0.00    -0.014 A 
ATOM     75  C   UNL A   1      45.832  28.150  32.981  1.00  0.00     0.009 A 
ATOM     76  C   UNL A   1      46.832  29.250  31.075  1.00  0.00     0.009 A 
ATOM     77  C   UNL A   1      47.091  27.709  33.390  1.00  0.00     0.001 A 
ATOM     78  C   UNL A   1      48.086  28.779  31.469  1.00  0.00     0.001 A 
ATOM     79  C   UNL A   1      48.218  28.021  32.631  1.00  0.00     0.000 A 
ENDBRANCH  55  74
BRANCH  67  80
ATOM     80  C   UNL A   1      42.315  34.897  33.236  1.00  0.00    -0.014 A 
ATOM     81  C   UNL A   1      41.841  35.073  34.546  1.00  0.00     0.009 A 
ATOM     82  C   UNL A   1      43.044  35.933  32.633  1.00  0.00     0.009 A 
ATOM     83  C   UNL A   1      42.074  36.266  35.231  1.00  0.00     0.001 A 
ATOM     84  C   UNL A   1      43.303  37.114  33.331  1.00  0.00     0.001 A 
ATOM     85  C   UNL A   1      42.809  37.284  34.625  1.00  0.00     0.000 A 
ENDBRANCH  67  80
ENDBRANCH  41  42
ENDBRANCH  33  36
ENDBRANCH  31  32
ENDBRANCH  30  31
ENDBRANCH  29  30
ENDBRANCH  28  29
ENDBRANCH   1  28
TORSDOF 18
ENDMDL
MODEL 2
REMARK VINA RESULT:     -11.0      2.980      6.917
REMARK SMILES O=C(CCn1c(SCc2ccccn2)nc2ccccc2c1=O)NCCCCCCNC(=O)c1ccc(-c2c3nc(c(-c4ccccc4)c4ccc([nH]4)c(-c4ccccc4)c4nc(c(-c5ccccc5)c5ccc2[nH]5)C=C4)C=C3)cc1
REMARK SMILES IDX 26 1 25 2 24 3 1 4 2 5 3 7 4 8 5 9 6 10 22 11 15 12 21 13
REMARK SMILES IDX 23 14 16 15 20 16 17 17 19 18 18 19 7 20 8 21 9 22 10 23
REMARK SMILES IDX 14 24 11 25 13 26 12 27 27 28 28 29 29 30 30 31 31 32 32 33
REMARK SMILES IDX 33 35 34 36 35 37 81 38 36 39 80 40 37 41 38 42 39 43 74 44
REMARK SMILES IDX 40 45 79 46 73 47 75 48 41 49 78 50 72 51 71 52 42 54 64 55
REMARK SMILES IDX 49 56 63 57 50 58 53 59 62 60 76 61 51 62 52 63 61 65 77 66
REMARK SMILES IDX 54 67 43 68 44 69 48 70 45 71 47 72 46 73 65 74 66 75 70 76
REMARK SMILES IDX 67 77 69 78 68 79 55 80 56 81 60 82 57 83 59 84 58 85
REMARK H PARENT 24 6 31 34 75 53 53 64
REMARK Flexibility Score: inf
ROOT
ATOM      1  C   UNL A   1      35.194  21.959  26.129  1.00  0.00     0.021 C 
ENDROOT
BRANCH   1   2
ATOM      2  C   UNL A   1      33.682  22.155  26.239  1.00  0.00     0.116 C 
BRANCH   2   3
ATOM      3  N   UNL A   1      33.152  23.188  25.371  1.00  0.00    -0.356 N 
ATOM      4  O   UNL A   1      30.990  22.450  25.556  1.00  0.00    -0.275 OA
ATOM      5  C   UNL A   1      31.795  23.272  25.127  1.00  0.00     0.221 C 
ATOM      6  H   UNL A   1      33.764  23.835  24.953  1.00  0.00     0.163 HD
BRANCH   5   7
ATOM      7  C   UNL A   1      31.369  24.384  24.186  1.00  0.00     0.122 C 
BRANCH   7   8
ATOM      8  C   UNL A   1      32.409  25.408  23.717  1.00  0.00     0.138 C 
BRANCH   8   9
ATOM      9  N   UNL A   1      32.285  26.769  24.231  1.00  0.00    -0.287 N 
ATOM     10  C   UNL A   1      31.372  27.747  23.855  1.00  0.00     0.171 A 
ATOM     11  C   UNL A   1      33.159  27.010  25.310  1.00  0.00     0.262 A 
ATOM     12  N   UNL A   1      31.329  28.913  24.422  1.00  0.00    -0.224 NA
ATOM     13  C   UNL A   1      33.111  28.322  25.956  1.00  0.00     0.066 A 
ATOM     14  O   UNL A   1      33.942  26.175  25.761  1.00  0.00    -0.269 OA
ATOM     15  C   UNL A   1      32.185  29.227  25.473  1.00  0.00     0.079 A 
ATOM     16  C   UNL A   1      33.974  28.651  27.011  1.00  0.00     0.016 A 
ATOM     17  C   UNL A   1      32.098  30.485  26.077  1.00  0.00     0.029 A 
ATOM     18  C   UNL A   1      33.896  29.915  27.592  1.00  0.00     0.001 A 
ATOM     19  C   UNL A   1      32.952  30.831  27.130  1.00  0.00     0.002 A 
BRANCH  10  20
ATOM     20  S   UNL A   1      30.043  27.594  22.737  1.00  0.00    -0.081 SA
BRANCH  20  21
ATOM     21  C   UNL A   1      28.624  28.605  23.049  1.00  0.00     0.134 C 
BRANCH  21  22
ATOM     22  C   UNL A   1      28.521  30.008  22.505  1.00  0.00     0.051 A 
ATOM     23  C   UNL A   1      28.713  31.058  23.414  1.00  0.00     0.025 A 
ATOM     24  N   UNL A   1      28.192  30.232  21.209  1.00  0.00    -0.260 NA
ATOM     25  C   UNL A   1      28.533  32.372  22.995  1.00  0.00     0.003 A 
ATOM     26  C   UNL A   1      28.075  31.528  20.823  1.00  0.00     0.111 A 
ATOM     27  C   UNL A   1      28.202  32.615  21.672  1.00  0.00     0.020 A 
ENDBRANCH  21  22
ENDBRANCH  20  21
ENDBRANCH  10  20
ENDBRANCH   8   9
ENDBRANCH   7   8
ENDBRANCH   5   7
ENDBRANCH   2   3
ENDBRANCH   1   2
BRANCH   1  28
ATOM     28  C   UNL A   1      35.649  20.872  25.151  1.00  0.00     0.002 C 
BRANCH  28  29
ATOM     29  C   UNL A   1      37.096  20.988  24.675  1.00  0.00     0.002 C 
BRANCH  29  30
ATOM     30  C   UNL A   1      38.015  19.812  24.977  1.00  0.00     0.021 C 
BRANCH  30  31
ATOM     31  C   UNL A   1      39.221  20.153  25.839  1.00  0.00     0.116 C 
BRANCH  31  32
ATOM     32  N   UNL A   1      40.234  19.106  25.843  1.00  0.00    -0.352 N 
ATOM     33  C   UNL A   1      41.591  19.187  26.065  1.00  0.00     0.251 C 
ATOM     34  H   UNL A   1      39.896  18.200  25.658  1.00  0.00     0.163 HD
ATOM     35  O   UNL A   1      42.305  18.210  25.889  1.00  0.00    -0.269 OA
BRANCH  33  36
ATOM     36  C   UNL A   1      42.197  20.476  26.479  1.00  0.00     0.039 A 
ATOM     37  C   UNL A   1      42.228  20.856  27.820  1.00  0.00     0.014 A 
ATOM     38  C   UNL A   1      42.724  21.326  25.502  1.00  0.00     0.014 A 
ATOM     39  C   UNL A   1      42.590  22.154  28.161  1.00  0.00     0.010 A 
ATOM     40  C   UNL A   1      43.190  22.597  25.861  1.00  0.00     0.010 A 
ATOM     41  C   UNL A   1      43.073  23.044  27.186  1.00  0.00    -0.014 A 
BRANCH  41  42
ATOM     42  C   UNL A   1      43.455  24.423  27.587  1.00  0.00     0.031 A 
ATOM     43  C   UNL A   1      44.879  24.902  27.469  1.00  0.00     0.074 A 
ATOM     44  C   UNL A   1      42.495  25.276  27.997  1.00  0.00     0.049 A 
ATOM     45  N   UNL A   1      45.368  26.091  27.724  1.00  0.00    -0.248 NA
ATOM     46  C   UNL A   1      45.885  23.928  27.012  1.00  0.00     0.031 C 
ATOM     47  C   UNL A   1      41.076  24.938  28.136  1.00  0.00     0.029 A 
ATOM     48  N   UNL A   1      42.554  26.604  28.334  1.00  0.00    -0.354 N 
ATOM     49  C   UNL A   1      46.733  26.003  27.475  1.00  0.00     0.074 A 
ATOM     50  C   UNL A   1      47.003  24.639  27.079  1.00  0.00     0.031 C 
ATOM     51  C   UNL A   1      40.391  26.043  28.460  1.00  0.00     0.029 A 
ATOM     52  C   UNL A   1      41.328  27.151  28.625  1.00  0.00     0.049 A 
ATOM     53  H   UNL A   1      43.395  27.116  28.366  1.00  0.00     0.167 HD
ATOM     54  C   UNL A   1      47.673  26.975  27.559  1.00  0.00     0.031 A 
ATOM     55  C   UNL A   1      40.984  28.400  28.992  1.00  0.00     0.031 A 
ATOM     56  C   UNL A   1      47.400  28.337  27.937  1.00  0.00     0.049 A 
ATOM     57  C   UNL A   1      42.053  29.446  29.124  1.00  0.00     0.074 A 
ATOM     58  C   UNL A   1      48.287  29.397  28.017  1.00  0.00     0.029 A 
ATOM     59  N   UNL A   1      46.155  28.828  28.297  1.00  0.00    -0.354 N 
ATOM     60  N   UNL A   1      43.335  29.348  28.868  1.00  0.00    -0.248 NA
ATOM     61  C   UNL A   1      41.632  30.770  29.599  1.00  0.00     0.031 C 
ATOM     62  C   UNL A   1      47.592  30.513  28.488  1.00  0.00     0.029 A 
ATOM     63  C   UNL A   1      46.258  30.168  28.634  1.00  0.00     0.049 A 
ATOM     64  H   UNL A   1      45.323  28.303  28.312  1.00  0.00     0.167 HD
ATOM     65  C   UNL A   1      43.873  30.598  29.142  1.00  0.00     0.074 A 
ATOM     66  C   UNL A   1      42.774  31.445  29.559  1.00  0.00     0.031 C 
ATOM     67  C   UNL A   1      45.163  31.002  29.058  1.00  0.00     0.031 A 
BRANCH  54  68
ATOM     68  C   UNL A   1      49.100  26.615  27.246  1.00  0.00    -0.014 A 
ATOM     69  C   UNL A   1      49.603  26.825  25.951  1.00  0.00     0.009 A 
ATOM     70  C   UNL A   1      49.912  25.969  28.192  1.00  0.00     0.009 A 
ATOM     71  C   UNL A   1      50.880  26.381  25.605  1.00  0.00     0.001 A 
ATOM     72  C   UNL A   1      51.200  25.551  27.850  1.00  0.00     0.001 A 
ATOM     73  C   UNL A   1      51.679  25.748  26.555  1.00  0.00     0.000 A 
ENDBRANCH  54  68
BRANCH  55  74
ATOM     74  C   UNL A   1      39.555  28.716  29.253  1.00  0.00    -0.014 A 
ATOM     75  C   UNL A   1      38.745  29.249  28.236  1.00  0.00     0.009 A 
ATOM     76  C   UNL A   1      39.010  28.545  30.534  1.00  0.00     0.009 A 
ATOM     77  C   UNL A   1      37.431  29.635  28.504  1.00  0.00     0.001 A 
ATOM     78  C   UNL A   1      37.684  28.902  30.790  1.00  0.00     0.001 A 
ATOM     79  C   UNL A   1      36.900  29.458  29.780  1.00  0.00     0.000 A 
ENDBRANCH  55  74
BRANCH  67  80
ATOM     80  C   UNL A   1      45.477  32.425  29.421  1.00  0.00    -0.014 A 
ATOM     81  C   UNL A   1      45.321  33.441  28.465  1.00  0.00     0.009 A 
ATOM     82  C   UNL A   1      46.023  32.749  30.673  1.00  0.00     0.009 A 
ATOM     83  C   UNL A   1      45.720  34.749  28.747  1.00  0.00     0.001 A 
ATOM     84  C   UNL A   1      46.392  34.063  30.964  1.00  0.00     0.001 A 
ATOM     85  C   UNL A   1      46.251  35.059  29.997  1.00  0.00     0.000 A 
ENDBRANCH  67  80
ENDBRANCH  41  42
ENDBRANCH  33  36
ENDBRANCH  31  32
ENDBRANCH  30  31
ENDBRANCH  29  30
ENDBRANCH  28  29
ENDBRANCH   1  28
TORSDOF 18
ENDMDL
MODEL 3
REMARK VINA RESULT:     -10.9      2.905      8.711
REMARK SMILES O=C(CCn1c(SCc2ccccn2)nc2ccccc2c1=O)NCCCCCCNC(=O)c1ccc(-c2c3nc(c(-c4ccccc4)c4ccc([nH]4)c(-c4ccccc4)c4nc(c(-c5ccccc5)c5ccc2[nH]5)C=C4)C=C3)cc1
REMARK SMILES IDX 26 1 25 2 24 3 1 4 2 5 3 7 4 8 5 9 6 10 22 11 15 12 21 13
REMARK SMILES IDX 23 14 16 15 20 16 17 17 19 18 18 19 7 20 8 21 9 22 10 23
REMARK SMILES IDX 14 24 11 25 13 26 12 27 27 28 28 29 29 30 30 31 31 32 32 33
REMARK SMILES IDX 33 35 34 36 35 37 81 38 36 39 80 40 37 41 38 42 39 43 74 44
REMARK SMILES IDX 40 45 79 46 73 47 75 48 41 49 78 50 72 51 71 52 42 54 64 55
REMARK SMILES IDX 49 56 63 57 50 58 53 59 62 60 76 61 51 62 52 63 61 65 77 66
REMARK SMILES IDX 54 67 43 68 44 69 48 70 45 71 47 72 46 73 65 74 66 75 70 76
REMARK SMILES IDX 67 77 69 78 68 79 55 80 56 81 60 82 57 83 59 84 58 85
REMARK H PARENT 24 6 31 34 75 53 53 64
REMARK Flexibility Score: inf
ROOT
ATOM      1  C   UNL A   1      33.729  28.965  26.004  1.00  0.00     0.021 C 
ENDROOT
BRANCH   1   2
ATOM      2  C   UNL A   1      32.850  28.400  24.887  1.00  0.00     0.116 C 
BRANCH   2   3
ATOM      3  N   UNL A   1      32.692  26.959  24.926  1.00  0.00    -0.356 N 
ATOM      4  O   UNL A   1      31.504  26.883  22.968  1.00  0.00    -0.275 OA
ATOM      5  C   UNL A   1      32.041  26.297  23.904  1.00  0.00     0.221 C 
ATOM      6  H   UNL A   1      33.051  26.450  25.687  1.00  0.00     0.163 HD
BRANCH   5   7
ATOM      7  C   UNL A   1      31.922  24.794  24.071  1.00  0.00     0.122 C 
BRANCH   7   8
ATOM      8  C   UNL A   1      32.340  24.153  25.401  1.00  0.00     0.138 C 
BRANCH   8   9
ATOM      9  N   UNL A   1      33.475  23.236  25.374  1.00  0.00    -0.287 N 
ATOM     10  C   UNL A   1      33.475  21.883  25.055  1.00  0.00     0.171 A 
ATOM     11  C   UNL A   1      34.697  23.898  25.603  1.00  0.00     0.262 A 
ATOM     12  N   UNL A   1      34.564  21.178  25.018  1.00  0.00    -0.224 NA
ATOM     13  C   UNL A   1      35.928  23.109  25.559  1.00  0.00     0.066 A 
ATOM     14  O   UNL A   1      34.796  25.106  25.813  1.00  0.00    -0.269 OA
ATOM     15  C   UNL A   1      35.802  21.763  25.265  1.00  0.00     0.079 A 
ATOM     16  C   UNL A   1      37.180  23.687  25.814  1.00  0.00     0.016 A 
ATOM     17  C   UNL A   1      36.958  20.980  25.198  1.00  0.00     0.029 A 
ATOM     18  C   UNL A   1      38.324  22.894  25.767  1.00  0.00     0.001 A 
ATOM     19  C   UNL A   1      38.214  21.541  25.450  1.00  0.00     0.002 A 
BRANCH  10  20
ATOM     20  S   UNL A   1      32.138  20.918  24.492  1.00  0.00    -0.081 SA
BRANCH  20  21
ATOM     21  C   UNL A   1      32.543  19.453  23.584  1.00  0.00     0.134 C 
BRANCH  21  22
ATOM     22  C   UNL A   1      32.961  18.183  24.283  1.00  0.00     0.051 A 
ATOM     23  C   UNL A   1      34.226  17.670  23.968  1.00  0.00     0.025 A 
ATOM     24  N   UNL A   1      32.116  17.541  25.127  1.00  0.00    -0.260 NA
ATOM     25  C   UNL A   1      34.628  16.452  24.504  1.00  0.00     0.003 A 
ATOM     26  C   UNL A   1      32.562  16.380  25.672  1.00  0.00     0.111 A 
ATOM     27  C   UNL A   1      33.776  15.787  25.372  1.00  0.00     0.020 A 
ENDBRANCH  21  22
ENDBRANCH  20  21
ENDBRANCH  10  20
ENDBRANCH   8   9
ENDBRANCH   7   8
ENDBRANCH   5   7
ENDBRANCH   2   3
ENDBRANCH   1   2
BRANCH   1  28
ATOM     28  C   UNL A   1      33.039  29.948  26.952  1.00  0.00     0.002 C 
BRANCH  28  29
ATOM     29  C   UNL A   1      31.713  30.517  26.448  1.00  0.00     0.002 C 
BRANCH  29  30
ATOM     30  C   UNL A   1      31.463  31.999  26.695  1.00  0.00     0.021 C 
BRANCH  30  31
ATOM     31  C   UNL A   1      32.670  32.770  27.205  1.00  0.00     0.116 C 
BRANCH  31  32
ATOM     32  N   UNL A   1      32.348  34.133  27.606  1.00  0.00    -0.352 N 
ATOM     33  C   UNL A   1      32.944  34.944  28.548  1.00  0.00     0.251 C 
ATOM     34  H   UNL A   1      31.586  34.537  27.132  1.00  0.00     0.163 HD
ATOM     35  O   UNL A   1      32.441  36.019  28.844  1.00  0.00    -0.269 OA
BRANCH  33  36
ATOM     36  C   UNL A   1      34.177  34.493  29.237  1.00  0.00     0.039 A 
ATOM     37  C   UNL A   1      35.432  34.679  28.658  1.00  0.00     0.014 A 
ATOM     38  C   UNL A   1      34.071  33.856  30.477  1.00  0.00     0.014 A 
ATOM     39  C   UNL A   1      36.544  34.054  29.207  1.00  0.00     0.010 A 
ATOM     40  C   UNL A   1      35.211  33.318  31.085  1.00  0.00     0.010 A 
ATOM     41  C   UNL A   1      36.450  33.362  30.427  1.00  0.00    -0.014 A 
BRANCH  41  42
ATOM     42  C   UNL A   1      37.662  32.708  30.988  1.00  0.00     0.031 A 
ATOM     43  C   UNL A   1      38.252  33.157  32.300  1.00  0.00     0.074 A 
ATOM     44  C   UNL A   1      38.196  31.654  30.339  1.00  0.00     0.049 A 
ATOM     45  N   UNL A   1      39.272  32.657  32.953  1.00  0.00    -0.248 NA
ATOM     46  C   UNL A   1      37.624  34.311  32.964  1.00  0.00     0.031 C 
ATOM     47  C   UNL A   1      37.706  31.113  29.069  1.00  0.00     0.029 A 
ATOM     48  N   UNL A   1      39.239  30.827  30.672  1.00  0.00    -0.354 N 
ATOM     49  C   UNL A   1      39.417  33.443  34.091  1.00  0.00     0.074 A 
ATOM     50  C   UNL A   1      38.402  34.471  34.027  1.00  0.00     0.031 C 
ATOM     51  C   UNL A   1      38.399  30.006  28.767  1.00  0.00     0.029 A 
ATOM     52  C   UNL A   1      39.430  29.799  29.780  1.00  0.00     0.049 A 
ATOM     53  H   UNL A   1      39.797  30.957  31.473  1.00  0.00     0.167 HD
ATOM     54  C   UNL A   1      40.308  33.310  35.102  1.00  0.00     0.031 A 
ATOM     55  C   UNL A   1      40.335  28.803  29.763  1.00  0.00     0.031 A 
ATOM     56  C   UNL A   1      41.308  32.276  35.174  1.00  0.00     0.049 A 
ATOM     57  C   UNL A   1      41.343  28.709  30.872  1.00  0.00     0.074 A 
ATOM     58  C   UNL A   1      42.232  32.047  36.179  1.00  0.00     0.029 A 
ATOM     59  N   UNL A   1      41.514  31.303  34.209  1.00  0.00    -0.354 N 
ATOM     60  N   UNL A   1      41.453  29.451  31.947  1.00  0.00    -0.248 NA
ATOM     61  C   UNL A   1      42.352  27.647  30.765  1.00  0.00     0.031 C 
ATOM     62  C   UNL A   1      43.041  30.977  35.791  1.00  0.00     0.029 A 
ATOM     63  C   UNL A   1      42.575  30.493  34.580  1.00  0.00     0.049 A 
ATOM     64  H   UNL A   1      40.987  31.202  33.384  1.00  0.00     0.167 HD
ATOM     65  C   UNL A   1      42.537  28.941  32.649  1.00  0.00     0.074 A 
ATOM     66  C   UNL A   1      43.034  27.812  31.891  1.00  0.00     0.031 C 
ATOM     67  C   UNL A   1      43.071  29.377  33.815  1.00  0.00     0.031 A 
BRANCH  54  68
ATOM     68  C   UNL A   1      40.265  34.311  36.225  1.00  0.00    -0.014 A 
ATOM     69  C   UNL A   1      39.425  34.084  37.328  1.00  0.00     0.009 A 
ATOM     70  C   UNL A   1      40.964  35.526  36.145  1.00  0.00     0.009 A 
ATOM     71  C   UNL A   1      39.272  35.056  38.317  1.00  0.00     0.001 A 
ATOM     72  C   UNL A   1      40.831  36.485  37.152  1.00  0.00     0.001 A 
ATOM     73  C   UNL A   1      39.978  36.255  38.231  1.00  0.00     0.000 A 
ENDBRANCH  54  68
BRANCH  55  74
ATOM     74  C   UNL A   1      40.312  27.816  28.652  1.00  0.00    -0.014 A 
ATOM     75  C   UNL A   1      39.648  26.587  28.801  1.00  0.00     0.009 A 
ATOM     76  C   UNL A   1      41.006  28.070  27.459  1.00  0.00     0.009 A 
ATOM     77  C   UNL A   1      39.706  25.621  27.797  1.00  0.00     0.001 A 
ATOM     78  C   UNL A   1      41.034  27.114  26.442  1.00  0.00     0.001 A 
ATOM     79  C   UNL A   1      40.396  25.886  26.615  1.00  0.00     0.000 A 
ENDBRANCH  55  74
BRANCH  67  80
ATOM     80  C   UNL A   1      44.261  28.638  34.360  1.00  0.00    -0.014 A 
ATOM     81  C   UNL A   1      45.552  28.966  33.916  1.00  0.00     0.009 A 
ATOM     82  C   UNL A   1      44.098  27.552  35.234  1.00  0.00     0.009 A 
ATOM     83  C   UNL A   1      46.654  28.212  34.320  1.00  0.00     0.001 A 
ATOM     84  C   UNL A   1      45.206  26.819  35.663  1.00  0.00     0.001 A 
ATOM     85  C   UNL A   1      46.481  27.142  35.197  1.00  0.00     0.000 A 
ENDBRANCH  67  80
ENDBRANCH  41  42
ENDBRANCH  33  36
ENDBRANCH  31  32
ENDBRANCH  30  31
ENDBRANCH  29  30
ENDBRANCH  28  29
ENDBRANCH   1  28
TORSDOF 18
ENDMDL
