MODEL 1
REMARK VINA RESULT:     -10.0      0.000      0.000
REMARK SMILES [NH3+]C[C@H]1CC[C@@H](C(=O)N[C@H](CC(=O)NCCCCCCNC(=O)c2ccc(-c3c4nc(c(-c5ccccc5)c5ccc([nH]5)c(-c5ccccc5)c5nc(c(-c6ccccc6)c6ccc3[nH]6)C=C5)C=C4)cc2)c2cccs2)O1
REMARK SMILES IDX 16 1 15 2 14 3 12 4 13 5 11 7 10 8 9 9 7 10 8 11 6 13 3 14
REMARK SMILES IDX 4 15 77 16 5 17 2 18 1 19 72 23 73 24 76 25 74 26 75 27
REMARK SMILES IDX 17 28 18 29 19 30 20 31 21 32 22 33 23 35 24 36 25 37 71 38
REMARK SMILES IDX 26 39 70 40 27 41 28 42 29 43 64 44 30 45 69 46 63 47 65 48
REMARK SMILES IDX 31 49 68 50 62 51 61 52 32 54 54 55 39 56 53 57 40 58 43 59
REMARK SMILES IDX 52 60 66 61 41 62 42 63 51 65 67 66 44 67 33 68 34 69 38 70
REMARK SMILES IDX 35 71 37 72 36 73 55 74 56 75 60 76 57 77 59 78 58 79 45 80
REMARK SMILES IDX 46 81 50 82 47 83 49 84 48 85
REMARK H PARENT 14 6 9 12 1 20 1 21 1 22 21 34 65 53 43 64
REMARK Flexibility Score: inf
ROOT
ATOM      1  C   UNL A   1      39.036  21.596  26.009  1.00  0.00     0.021 C 
ENDROOT
BRANCH   1   2
ATOM      2  C   UNL A   1      37.850  22.524  25.755  1.00  0.00     0.116 C 
BRANCH   2   3
ATOM      3  N   UNL A   1      37.521  22.605  24.343  1.00  0.00    -0.356 N 
ATOM      4  C   UNL A   1      36.428  23.085  23.688  1.00  0.00     0.222 C 
ATOM      5  O   UNL A   1      36.442  23.034  22.455  1.00  0.00    -0.275 OA
ATOM      6  H   UNL A   1      38.218  22.247  23.747  1.00  0.00     0.163 HD
BRANCH   4   7
ATOM      7  C   UNL A   1      35.248  23.722  24.409  1.00  0.00     0.130 C 
BRANCH   7   8
ATOM      8  C   UNL A   1      33.933  24.050  23.643  1.00  0.00     0.132 C 
BRANCH   8   9
ATOM      9  N   UNL A   1      33.378  22.892  22.934  1.00  0.00    -0.346 N 
ATOM     10  C   UNL A   1      32.763  21.727  23.230  1.00  0.00     0.249 C 
ATOM     11  O   UNL A   1      31.979  21.342  22.347  1.00  0.00    -0.272 OA
ATOM     12  H   UNL A   1      33.483  22.994  21.960  1.00  0.00     0.164 HD
BRANCH  10  13
ATOM     13  C   UNL A   1      33.035  20.792  24.407  1.00  0.00     0.207 C 
ATOM     14  C   UNL A   1      32.763  18.455  24.529  1.00  0.00     0.174 C 
ATOM     15  C   UNL A   1      34.169  18.779  25.014  1.00  0.00     0.041 C 
ATOM     16  O   UNL A   1      32.111  19.706  24.287  1.00  0.00    -0.359 OA
ATOM     17  C   UNL A   1      34.405  20.230  24.659  1.00  0.00     0.045 C 
BRANCH  14  18
ATOM     18  C   UNL A   1      32.702  17.562  23.267  1.00  0.00     0.291 C 
BRANCH  18  19
ATOM     19  N   UNL A   1      31.998  18.167  22.132  1.00  0.00    -0.355 N 
ATOM     20  H   UNL A   1      31.113  18.562  22.451  1.00  0.00     0.344 HD
ATOM     21  H   UNL A   1      31.816  17.454  21.425  1.00  0.00     0.344 HD
ATOM     22  H   UNL A   1      32.573  18.906  21.729  1.00  0.00     0.344 HD
ENDBRANCH  18  19
ENDBRANCH  14  18
ENDBRANCH  10  13
ENDBRANCH   8   9
BRANCH   8  23
ATOM     23  C   UNL A   1      32.953  24.779  24.572  1.00  0.00     0.027 A 
ATOM     24  C   UNL A   1      33.213  25.306  25.830  1.00  0.00     0.017 A 
ATOM     25  S   UNL A   1      31.255  24.861  24.266  1.00  0.00    -0.147 S 
ATOM     26  C   UNL A   1      32.057  25.839  26.478  1.00  0.00     0.012 A 
ATOM     27  C   UNL A   1      30.921  25.653  25.731  1.00  0.00     0.065 A 
ENDBRANCH   8  23
ENDBRANCH   7   8
ENDBRANCH   4   7
ENDBRANCH   2   3
ENDBRANCH   1   2
BRANCH   1  28
ATOM     28  C   UNL A   1      40.359  22.326  26.232  1.00  0.00     0.002 C 
BRANCH  28  29
ATOM     29  C   UNL A   1      41.499  21.437  26.734  1.00  0.00     0.002 C 
BRANCH  29  30
ATOM     30  C   UNL A   1      41.659  20.109  25.990  1.00  0.00     0.021 C 
BRANCH  30  31
ATOM     31  C   UNL A   1      42.846  19.265  26.444  1.00  0.00     0.116 C 
BRANCH  31  32
ATOM     32  N   UNL A   1      43.661  18.822  25.322  1.00  0.00    -0.352 N 
ATOM     33  C   UNL A   1      44.447  19.565  24.480  1.00  0.00     0.251 C 
ATOM     34  H   UNL A   1      43.645  17.855  25.143  1.00  0.00     0.163 HD
ATOM     35  O   UNL A   1      44.908  19.074  23.453  1.00  0.00    -0.269 OA
BRANCH  33  36
ATOM     36  C   UNL A   1      44.720  20.976  24.811  1.00  0.00     0.039 A 
ATOM     37  C   UNL A   1      44.304  21.976  23.931  1.00  0.00     0.014 A 
ATOM     38  C   UNL A   1      45.367  21.304  26.006  1.00  0.00     0.014 A 
ATOM     39  C   UNL A   1      44.477  23.316  24.282  1.00  0.00     0.010 A 
ATOM     40  C   UNL A   1      45.475  22.637  26.385  1.00  0.00     0.010 A 
ATOM     41  C   UNL A   1      45.031  23.657  25.527  1.00  0.00    -0.014 A 
BRANCH  41  42
ATOM     42  C   UNL A   1      45.159  25.069  25.961  1.00  0.00     0.031 A 
ATOM     43  C   UNL A   1      46.502  25.746  25.918  1.00  0.00     0.074 A 
ATOM     44  C   UNL A   1      44.092  25.711  26.478  1.00  0.00     0.049 A 
ATOM     45  N   UNL A   1      46.844  26.929  26.362  1.00  0.00    -0.248 NA
ATOM     46  C   UNL A   1      47.612  24.983  25.323  1.00  0.00     0.031 C 
ATOM     47  C   UNL A   1      42.745  25.151  26.609  1.00  0.00     0.029 A 
ATOM     48  N   UNL A   1      43.980  26.972  27.011  1.00  0.00    -0.354 N 
ATOM     49  C   UNL A   1      48.209  27.037  26.128  1.00  0.00     0.074 A 
ATOM     50  C   UNL A   1      48.640  25.791  25.535  1.00  0.00     0.031 C 
ATOM     51  C   UNL A   1      41.942  26.066  27.177  1.00  0.00     0.029 A 
ATOM     52  C   UNL A   1      42.725  27.256  27.494  1.00  0.00     0.049 A 
ATOM     53  H   UNL A   1      44.728  27.611  27.043  1.00  0.00     0.167 HD
ATOM     54  C   UNL A   1      49.028  28.087  26.377  1.00  0.00     0.031 A 
ATOM     55  C   UNL A   1      42.263  28.342  28.142  1.00  0.00     0.031 A 
ATOM     56  C   UNL A   1      48.592  29.333  26.946  1.00  0.00     0.049 A 
ATOM     57  C   UNL A   1      43.198  29.490  28.410  1.00  0.00     0.074 A 
ATOM     58  C   UNL A   1      49.332  30.481  27.164  1.00  0.00     0.029 A 
ATOM     59  N   UNL A   1      47.306  29.590  27.392  1.00  0.00    -0.354 N 
ATOM     60  N   UNL A   1      44.467  29.610  28.106  1.00  0.00    -0.248 NA
ATOM     61  C   UNL A   1      42.634  30.658  29.103  1.00  0.00     0.031 C 
ATOM     62  C   UNL A   1      48.508  31.416  27.797  1.00  0.00     0.029 A 
ATOM     63  C   UNL A   1      47.240  30.871  27.914  1.00  0.00     0.049 A 
ATOM     64  H   UNL A   1      46.553  28.959  27.345  1.00  0.00     0.167 HD
ATOM     65  C   UNL A   1      44.844  30.874  28.540  1.00  0.00     0.074 A 
ATOM     66  C   UNL A   1      43.666  31.490  29.114  1.00  0.00     0.031 C 
ATOM     67  C   UNL A   1      46.057  31.473  28.469  1.00  0.00     0.031 A 
BRANCH  54  68
ATOM     68  C   UNL A   1      50.485  27.935  26.048  1.00  0.00    -0.014 A 
ATOM     69  C   UNL A   1      51.408  27.488  27.005  1.00  0.00     0.009 A 
ATOM     70  C   UNL A   1      50.927  28.171  24.736  1.00  0.00     0.009 A 
ATOM     71  C   UNL A   1      52.751  27.305  26.662  1.00  0.00     0.001 A 
ATOM     72  C   UNL A   1      52.263  27.959  24.388  1.00  0.00     0.001 A 
ATOM     73  C   UNL A   1      53.173  27.532  25.352  1.00  0.00     0.000 A 
ENDBRANCH  54  68
BRANCH  55  74
ATOM     74  C   UNL A   1      40.849  28.399  28.603  1.00  0.00    -0.014 A 
ATOM     75  C   UNL A   1      40.475  27.854  29.840  1.00  0.00     0.009 A 
ATOM     76  C   UNL A   1      39.858  28.969  27.789  1.00  0.00     0.009 A 
ATOM     77  C   UNL A   1      39.134  27.840  30.233  1.00  0.00     0.001 A 
ATOM     78  C   UNL A   1      38.523  28.986  28.199  1.00  0.00     0.001 A 
ATOM     79  C   UNL A   1      38.160  28.409  29.414  1.00  0.00     0.000 A 
ENDBRANCH  55  74
BRANCH  67  80
ATOM     80  C   UNL A   1      46.166  32.883  28.977  1.00  0.00    -0.014 A 
ATOM     81  C   UNL A   1      45.874  33.982  28.156  1.00  0.00     0.009 A 
ATOM     82  C   UNL A   1      46.504  33.107  30.322  1.00  0.00     0.009 A 
ATOM     83  C   UNL A   1      45.946  35.280  28.665  1.00  0.00     0.001 A 
ATOM     84  C   UNL A   1      46.544  34.404  30.835  1.00  0.00     0.001 A 
ATOM     85  C   UNL A   1      46.273  35.489  30.005  1.00  0.00     0.000 A 
ENDBRANCH  67  80
ENDBRANCH  41  42
ENDBRANCH  33  36
ENDBRANCH  31  32
ENDBRANCH  30  31
ENDBRANCH  29  30
ENDBRANCH  28  29
ENDBRANCH   1  28
TORSDOF 19
ENDMDL
MODEL 2
REMARK VINA RESULT:      -9.9      7.092     12.264
REMARK SMILES [NH3+]C[C@H]1CC[C@@H](C(=O)N[C@H](CC(=O)NCCCCCCNC(=O)c2ccc(-c3c4nc(c(-c5ccccc5)c5ccc([nH]5)c(-c5ccccc5)c5nc(c(-c6ccccc6)c6ccc3[nH]6)C=C5)C=C4)cc2)c2cccs2)O1
REMARK SMILES IDX 16 1 15 2 14 3 12 4 13 5 11 7 10 8 9 9 7 10 8 11 6 13 3 14
REMARK SMILES IDX 4 15 77 16 5 17 2 18 1 19 72 23 73 24 76 25 74 26 75 27
REMARK SMILES IDX 17 28 18 29 19 30 20 31 21 32 22 33 23 35 24 36 25 37 71 38
REMARK SMILES IDX 26 39 70 40 27 41 28 42 29 43 64 44 30 45 69 46 63 47 65 48
REMARK SMILES IDX 31 49 68 50 62 51 61 52 32 54 54 55 39 56 53 57 40 58 43 59
REMARK SMILES IDX 52 60 66 61 41 62 42 63 51 65 67 66 44 67 33 68 34 69 38 70
REMARK SMILES IDX 35 71 37 72 36 73 55 74 56 75 60 76 57 77 59 78 58 79 45 80
REMARK SMILES IDX 46 81 50 82 47 83 49 84 48 85
REMARK H PARENT 14 6 9 12 1 20 1 21 1 22 21 34 65 53 43 64
REMARK Flexibility Score: inf
ROOT
ATOM      1  C   UNL A   1      35.188  32.036  27.991  1.00  0.00     0.021 C 
ENDROOT
BRANCH   1   2
ATOM      2  C   UNL A   1      34.074  31.021  27.741  1.00  0.00     0.116 C 
BRANCH   2   3
ATOM      3  N   UNL A   1      34.287  30.277  26.512  1.00  0.00    -0.356 N 
ATOM      4  C   UNL A   1      33.592  29.261  25.930  1.00  0.00     0.222 C 
ATOM      5  O   UNL A   1      34.016  28.833  24.854  1.00  0.00    -0.275 OA
ATOM      6  H   UNL A   1      35.082  30.559  26.005  1.00  0.00     0.163 HD
BRANCH   4   7
ATOM      7  C   UNL A   1      32.307  28.696  26.521  1.00  0.00     0.130 C 
BRANCH   7   8
ATOM      8  C   UNL A   1      31.431  27.699  25.707  1.00  0.00     0.132 C 
BRANCH   8   9
ATOM      9  N   UNL A   1      31.310  28.066  24.292  1.00  0.00    -0.346 N 
ATOM     10  C   UNL A   1      30.611  28.935  23.531  1.00  0.00     0.249 C 
ATOM     11  O   UNL A   1      31.216  29.293  22.506  1.00  0.00    -0.272 OA
ATOM     12  H   UNL A   1      31.912  27.520  23.736  1.00  0.00     0.164 HD
BRANCH  10  13
ATOM     13  C   UNL A   1      29.161  29.382  23.702  1.00  0.00     0.207 C 
ATOM     14  C   UNL A   1      28.159  31.417  23.065  1.00  0.00     0.174 C 
ATOM     15  C   UNL A   1      27.297  30.289  22.514  1.00  0.00     0.041 C 
ATOM     16  O   UNL A   1      29.188  30.805  23.849  1.00  0.00    -0.359 OA
ATOM     17  C   UNL A   1      28.108  29.024  22.693  1.00  0.00     0.045 C 
BRANCH  14  18
ATOM     18  C   UNL A   1      28.778  32.343  21.991  1.00  0.00     0.291 C 
BRANCH  18  19
ATOM     19  N   UNL A   1      28.444  31.978  20.612  1.00  0.00    -0.355 N 
ATOM     20  H   UNL A   1      28.436  30.961  20.521  1.00  0.00     0.344 HD
ATOM     21  H   UNL A   1      29.141  32.370  19.977  1.00  0.00     0.344 HD
ATOM     22  H   UNL A   1      27.523  32.346  20.375  1.00  0.00     0.344 HD
ENDBRANCH  18  19
ENDBRANCH  14  18
ENDBRANCH  10  13
ENDBRANCH   8   9
BRANCH   8  23
ATOM     23  C   UNL A   1      31.891  26.259  25.972  1.00  0.00     0.027 A 
ATOM     24  C   UNL A   1      33.190  25.769  25.950  1.00  0.00     0.017 A 
ATOM     25  S   UNL A   1      30.792  24.937  26.126  1.00  0.00    -0.147 S 
ATOM     26  C   UNL A   1      33.273  24.357  26.144  1.00  0.00     0.012 A 
ATOM     27  C   UNL A   1      32.031  23.781  26.248  1.00  0.00     0.065 A 
ENDBRANCH   8  23
ENDBRANCH   7   8
ENDBRANCH   4   7
ENDBRANCH   2   3
ENDBRANCH   1   2
BRANCH   1  28
ATOM     28  C   UNL A   1      34.848  33.085  29.048  1.00  0.00     0.002 C 
BRANCH  28  29
ATOM     29  C   UNL A   1      35.181  34.522  28.646  1.00  0.00     0.002 C 
BRANCH  29  30
ATOM     30  C   UNL A   1      34.043  35.529  28.836  1.00  0.00     0.021 C 
BRANCH  30  31
ATOM     31  C   UNL A   1      32.838  34.989  29.601  1.00  0.00     0.116 C 
BRANCH  31  32
ATOM     32  N   UNL A   1      32.374  35.924  30.616  1.00  0.00    -0.352 N 
ATOM     33  C   UNL A   1      32.727  36.008  31.937  1.00  0.00     0.251 C 
ATOM     34  H   UNL A   1      31.714  36.586  30.311  1.00  0.00     0.163 HD
ATOM     35  O   UNL A   1      32.092  36.716  32.714  1.00  0.00    -0.269 OA
BRANCH  33  36
ATOM     36  C   UNL A   1      33.873  35.219  32.426  1.00  0.00     0.039 A 
ATOM     37  C   UNL A   1      33.655  33.928  32.911  1.00  0.00     0.014 A 
ATOM     38  C   UNL A   1      35.163  35.752  32.379  1.00  0.00     0.014 A 
ATOM     39  C   UNL A   1      34.745  33.143  33.290  1.00  0.00     0.010 A 
ATOM     40  C   UNL A   1      36.252  34.945  32.689  1.00  0.00     0.010 A 
ATOM     41  C   UNL A   1      36.054  33.632  33.147  1.00  0.00    -0.014 A 
BRANCH  41  42
ATOM     42  C   UNL A   1      37.236  32.796  33.468  1.00  0.00     0.031 A 
ATOM     43  C   UNL A   1      38.015  33.056  34.729  1.00  0.00     0.074 A 
ATOM     44  C   UNL A   1      37.661  31.869  32.587  1.00  0.00     0.049 A 
ATOM     45  N   UNL A   1      39.140  32.518  35.129  1.00  0.00    -0.248 NA
ATOM     46  C   UNL A   1      37.475  34.072  35.647  1.00  0.00     0.031 C 
ATOM     47  C   UNL A   1      37.014  31.548  31.312  1.00  0.00     0.029 A 
ATOM     48  N   UNL A   1      38.755  31.039  32.620  1.00  0.00    -0.354 N 
ATOM     49  C   UNL A   1      39.455  33.152  36.324  1.00  0.00     0.074 A 
ATOM     50  C   UNL A   1      38.424  34.135  36.569  1.00  0.00     0.031 C 
ATOM     51  C   UNL A   1      37.718  30.588  30.691  1.00  0.00     0.029 A 
ATOM     52  C   UNL A   1      38.889  30.259  31.497  1.00  0.00     0.049 A 
ATOM     53  H   UNL A   1      39.383  31.007  33.378  1.00  0.00     0.167 HD
ATOM     54  C   UNL A   1      40.505  32.925  37.149  1.00  0.00     0.031 A 
ATOM     55  C   UNL A   1      39.859  29.394  31.144  1.00  0.00     0.031 A 
ATOM     56  C   UNL A   1      41.516  31.931  36.914  1.00  0.00     0.049 A 
ATOM     57  C   UNL A   1      41.017  29.169  32.078  1.00  0.00     0.074 A 
ATOM     58  C   UNL A   1      42.575  31.575  37.730  1.00  0.00     0.029 A 
ATOM     59  N   UNL A   1      41.597  31.140  35.779  1.00  0.00    -0.354 N 
ATOM     60  N   UNL A   1      41.255  29.715  33.245  1.00  0.00    -0.248 NA
ATOM     61  C   UNL A   1      42.037  28.199  31.650  1.00  0.00     0.031 C 
ATOM     62  C   UNL A   1      43.332  30.609  37.062  1.00  0.00     0.029 A 
ATOM     63  C   UNL A   1      42.708  30.319  35.861  1.00  0.00     0.049 A 
ATOM     64  H   UNL A   1      40.961  31.159  35.029  1.00  0.00     0.167 HD
ATOM     65  C   UNL A   1      42.430  29.133  33.704  1.00  0.00     0.074 A 
ATOM     66  C   UNL A   1      42.848  28.180  32.697  1.00  0.00     0.031 C 
ATOM     67  C   UNL A   1      43.102  29.366  34.857  1.00  0.00     0.031 A 
BRANCH  54  68
ATOM     68  C   UNL A   1      40.626  33.776  38.381  1.00  0.00    -0.014 A 
ATOM     69  C   UNL A   1      40.066  33.376  39.603  1.00  0.00     0.009 A 
ATOM     70  C   UNL A   1      41.379  34.961  38.333  1.00  0.00     0.009 A 
ATOM     71  C   UNL A   1      40.236  34.158  40.749  1.00  0.00     0.001 A 
ATOM     72  C   UNL A   1      41.572  35.726  39.485  1.00  0.00     0.001 A 
ATOM     73  C   UNL A   1      40.996  35.327  40.689  1.00  0.00     0.000 A 
ENDBRANCH  54  68
BRANCH  55  74
ATOM     74  C   UNL A   1      39.796  28.684  29.838  1.00  0.00    -0.014 A 
ATOM     75  C   UNL A   1      39.262  27.390  29.750  1.00  0.00     0.009 A 
ATOM     76  C   UNL A   1      40.307  29.285  28.676  1.00  0.00     0.009 A 
ATOM     77  C   UNL A   1      39.278  26.697  28.537  1.00  0.00     0.001 A 
ATOM     78  C   UNL A   1      40.289  28.603  27.457  1.00  0.00     0.001 A 
ATOM     79  C   UNL A   1      39.789  27.305  27.391  1.00  0.00     0.000 A 
ENDBRANCH  55  74
BRANCH  67  80
ATOM     80  C   UNL A   1      44.333  28.545  35.120  1.00  0.00    -0.014 A 
ATOM     81  C   UNL A   1      45.607  28.992  34.736  1.00  0.00     0.009 A 
ATOM     82  C   UNL A   1      44.219  27.335  35.824  1.00  0.00     0.009 A 
ATOM     83  C   UNL A   1      46.738  28.227  35.028  1.00  0.00     0.001 A 
ATOM     84  C   UNL A   1      45.354  26.590  36.142  1.00  0.00     0.001 A 
ATOM     85  C   UNL A   1      46.612  27.033  35.736  1.00  0.00     0.000 A 
ENDBRANCH  67  80
ENDBRANCH  41  42
ENDBRANCH  33  36
ENDBRANCH  31  32
ENDBRANCH  30  31
ENDBRANCH  29  30
ENDBRANCH  28  29
ENDBRANCH   1  28
TORSDOF 19
ENDMDL
MODEL 3
REMARK VINA RESULT:      -9.9      6.858     11.838
REMARK SMILES [NH3+]C[C@H]1CC[C@@H](C(=O)N[C@H](CC(=O)NCCCCCCNC(=O)c2ccc(-c3c4nc(c(-c5ccccc5)c5ccc([nH]5)c(-c5ccccc5)c5nc(c(-c6ccccc6)c6ccc3[nH]6)C=C5)C=C4)cc2)c2cccs2)O1
REMARK SMILES IDX 16 1 15 2 14 3 12 4 13 5 11 7 10 8 9 9 7 10 8 11 6 13 3 14
REMARK SMILES IDX 4 15 77 16 5 17 2 18 1 19 72 23 73 24 76 25 74 26 75 27
REMARK SMILES IDX 17 28 18 29 19 30 20 31 21 32 22 33 23 35 24 36 25 37 71 38
REMARK SMILES IDX 26 39 70 40 27 41 28 42 29 43 64 44 30 45 69 46 63 47 65 48
REMARK SMILES IDX 31 49 68 50 62 51 61 52 32 54 54 55 39 56 53 57 40 58 43 59
REMARK SMILES IDX 52 60 66 61 41 62 42 63 51 65 67 66 44 67 33 68 34 69 38 70
REMARK SMILES IDX 35 71 37 72 36 73 55 74 56 75 60 76 57 77 59 78 58 79 45 80
REMARK SMILES IDX 46 81 50 82 47 83 49 84 48 85
REMARK H PARENT 14 6 9 12 1 20 1 21 1 22 21 34 65 53 43 64
REMARK Flexibility Score: inf
ROOT
ATOM      1  C   UNL A   1      34.994  31.706  28.001  1.00  0.00     0.021 C 
ENDROOT
BRANCH   1   2
ATOM      2  C   UNL A   1      33.789  30.968  27.420  1.00  0.00     0.116 C 
BRANCH   2   3
ATOM      3  N   UNL A   1      34.181  30.012  26.400  1.00  0.00    -0.356 N 
ATOM      4  C   UNL A   1      33.462  29.320  25.474  1.00  0.00     0.222 C 
ATOM      5  O   UNL A   1      34.088  28.576  24.715  1.00  0.00    -0.275 OA
ATOM      6  H   UNL A   1      35.149  29.830  26.372  1.00  0.00     0.163 HD
BRANCH   4   7
ATOM      7  C   UNL A   1      31.956  29.479  25.313  1.00  0.00     0.130 C 
BRANCH   7   8
ATOM      8  C   UNL A   1      31.161  28.557  24.342  1.00  0.00     0.132 C 
BRANCH   8   9
ATOM      9  N   UNL A   1      30.518  27.427  25.021  1.00  0.00    -0.346 N 
ATOM     10  C   UNL A   1      30.849  26.193  25.460  1.00  0.00     0.249 C 
ATOM     11  O   UNL A   1      30.191  25.827  26.448  1.00  0.00    -0.272 OA
ATOM     12  H   UNL A   1      29.573  27.625  25.213  1.00  0.00     0.164 HD
BRANCH  10  13
ATOM     13  C   UNL A   1      31.787  25.181  24.806  1.00  0.00     0.207 C 
ATOM     14  C   UNL A   1      32.388  24.978  22.538  1.00  0.00     0.174 C 
ATOM     15  C   UNL A   1      33.674  25.001  23.353  1.00  0.00     0.041 C 
ATOM     16  O   UNL A   1      31.306  24.981  23.474  1.00  0.00    -0.359 OA
ATOM     17  C   UNL A   1      33.270  25.412  24.751  1.00  0.00     0.045 C 
BRANCH  14  18
ATOM     18  C   UNL A   1      32.236  26.145  21.533  1.00  0.00     0.291 C 
BRANCH  18  19
ATOM     19  N   UNL A   1      32.023  25.725  20.146  1.00  0.00    -0.355 N 
ATOM     20  H   UNL A   1      32.924  25.590  19.687  1.00  0.00     0.344 HD
ATOM     21  H   UNL A   1      31.493  26.443  19.650  1.00  0.00     0.344 HD
ATOM     22  H   UNL A   1      31.501  24.848  20.132  1.00  0.00     0.344 HD
ENDBRANCH  18  19
ENDBRANCH  14  18
ENDBRANCH  10  13
ENDBRANCH   8   9
BRANCH   8  23
ATOM     23  C   UNL A   1      30.232  29.403  23.460  1.00  0.00     0.027 A 
ATOM     24  C   UNL A   1      29.908  29.190  22.127  1.00  0.00     0.017 A 
ATOM     25  S   UNL A   1      29.602  30.932  23.956  1.00  0.00    -0.147 S 
ATOM     26  C   UNL A   1      29.090  30.217  21.565  1.00  0.00     0.012 A 
ATOM     27  C   UNL A   1      28.855  31.230  22.460  1.00  0.00     0.065 A 
ENDBRANCH   8  23
ENDBRANCH   7   8
ENDBRANCH   4   7
ENDBRANCH   2   3
ENDBRANCH   1   2
BRANCH   1  28
ATOM     28  C   UNL A   1      34.642  32.693  29.112  1.00  0.00     0.002 C 
BRANCH  28  29
ATOM     29  C   UNL A   1      35.243  34.088  28.936  1.00  0.00     0.002 C 
BRANCH  29  30
ATOM     30  C   UNL A   1      34.257  35.246  29.119  1.00  0.00     0.021 C 
BRANCH  30  31
ATOM     31  C   UNL A   1      32.919  34.850  29.736  1.00  0.00     0.116 C 
BRANCH  31  32
ATOM     32  N   UNL A   1      32.482  35.803  30.746  1.00  0.00    -0.352 N 
ATOM     33  C   UNL A   1      32.865  35.907  32.058  1.00  0.00     0.251 C 
ATOM     34  H   UNL A   1      31.818  36.465  30.445  1.00  0.00     0.163 HD
ATOM     35  O   UNL A   1      32.251  36.630  32.837  1.00  0.00    -0.269 OA
BRANCH  33  36
ATOM     36  C   UNL A   1      34.017  35.120  32.534  1.00  0.00     0.039 A 
ATOM     37  C   UNL A   1      33.810  33.820  33.001  1.00  0.00     0.014 A 
ATOM     38  C   UNL A   1      35.304  35.664  32.494  1.00  0.00     0.014 A 
ATOM     39  C   UNL A   1      34.907  33.038  33.367  1.00  0.00     0.010 A 
ATOM     40  C   UNL A   1      36.399  34.860  32.790  1.00  0.00     0.010 A 
ATOM     41  C   UNL A   1      36.211  33.540  33.230  1.00  0.00    -0.014 A 
BRANCH  41  42
ATOM     42  C   UNL A   1      37.401  32.708  33.538  1.00  0.00     0.031 A 
ATOM     43  C   UNL A   1      38.175  32.951  34.805  1.00  0.00     0.074 A 
ATOM     44  C   UNL A   1      37.835  31.803  32.640  1.00  0.00     0.049 A 
ATOM     45  N   UNL A   1      39.303  32.416  35.197  1.00  0.00    -0.248 NA
ATOM     46  C   UNL A   1      37.624  33.944  35.741  1.00  0.00     0.031 C 
ATOM     47  C   UNL A   1      37.194  31.501  31.357  1.00  0.00     0.029 A 
ATOM     48  N   UNL A   1      38.937  30.982  32.660  1.00  0.00    -0.354 N 
ATOM     49  C   UNL A   1      39.610  33.029  36.405  1.00  0.00     0.074 A 
ATOM     50  C   UNL A   1      38.570  33.999  36.667  1.00  0.00     0.031 C 
ATOM     51  C   UNL A   1      37.908  30.559  30.719  1.00  0.00     0.029 A 
ATOM     52  C   UNL A   1      39.080  30.225  31.522  1.00  0.00     0.049 A 
ATOM     53  H   UNL A   1      39.564  30.941  33.418  1.00  0.00     0.167 HD
ATOM     54  C   UNL A   1      40.660  32.796  37.227  1.00  0.00     0.031 A 
ATOM     55  C   UNL A   1      40.059  29.376  31.154  1.00  0.00     0.031 A 
ATOM     56  C   UNL A   1      41.681  31.816  36.976  1.00  0.00     0.049 A 
ATOM     57  C   UNL A   1      41.217  29.143  32.087  1.00  0.00     0.074 A 
ATOM     58  C   UNL A   1      42.741  31.454  37.787  1.00  0.00     0.029 A 
ATOM     59  N   UNL A   1      41.771  31.048  35.827  1.00  0.00    -0.354 N 
ATOM     60  N   UNL A   1      41.448  29.669  33.265  1.00  0.00    -0.248 NA
ATOM     61  C   UNL A   1      42.246  28.191  31.643  1.00  0.00     0.031 C 
ATOM     62  C   UNL A   1      43.509  30.508  37.103  1.00  0.00     0.029 A 
ATOM     63  C   UNL A   1      42.890  30.235  35.895  1.00  0.00     0.049 A 
ATOM     64  H   UNL A   1      41.136  31.076  35.076  1.00  0.00     0.167 HD
ATOM     65  C   UNL A   1      42.627  29.089  33.715  1.00  0.00     0.074 A 
ATOM     66  C   UNL A   1      43.056  28.159  32.691  1.00  0.00     0.031 C 
ATOM     67  C   UNL A   1      43.295  29.306  34.873  1.00  0.00     0.031 A 
BRANCH  54  68
ATOM     68  C   UNL A   1      40.771  33.624  38.476  1.00  0.00    -0.014 A 
ATOM     69  C   UNL A   1      41.447  34.853  38.481  1.00  0.00     0.009 A 
ATOM     70  C   UNL A   1      40.124  33.199  39.648  1.00  0.00     0.009 A 
ATOM     71  C   UNL A   1      41.494  35.630  39.641  1.00  0.00     0.001 A 
ATOM     72  C   UNL A   1      40.147  33.991  40.798  1.00  0.00     0.001 A 
ATOM     73  C   UNL A   1      40.836  35.202  40.795  1.00  0.00     0.000 A 
ENDBRANCH  54  68
BRANCH  55  74
ATOM     74  C   UNL A   1      40.006  28.690  29.835  1.00  0.00    -0.014 A 
ATOM     75  C   UNL A   1      40.487  29.320  28.678  1.00  0.00     0.009 A 
ATOM     76  C   UNL A   1      39.437  27.411  29.721  1.00  0.00     0.009 A 
ATOM     77  C   UNL A   1      40.362  28.705  27.430  1.00  0.00     0.001 A 
ATOM     78  C   UNL A   1      39.346  26.782  28.477  1.00  0.00     0.001 A 
ATOM     79  C   UNL A   1      39.794  27.435  27.331  1.00  0.00     0.000 A 
ENDBRANCH  55  74
BRANCH  67  80
ATOM     80  C   UNL A   1      44.533  28.491  35.124  1.00  0.00    -0.014 A 
ATOM     81  C   UNL A   1      45.803  28.960  34.761  1.00  0.00     0.009 A 
ATOM     82  C   UNL A   1      44.426  27.262  35.795  1.00  0.00     0.009 A 
ATOM     83  C   UNL A   1      46.941  28.201  35.041  1.00  0.00     0.001 A 
ATOM     84  C   UNL A   1      45.567  26.520  36.101  1.00  0.00     0.001 A 
ATOM     85  C   UNL A   1      46.823  26.987  35.716  1.00  0.00     0.000 A 
ENDBRANCH  67  80
ENDBRANCH  41  42
ENDBRANCH  33  36
ENDBRANCH  31  32
ENDBRANCH  30  31
ENDBRANCH  29  30
ENDBRANCH  28  29
ENDBRANCH   1  28
TORSDOF 19
ENDMDL
