MODEL 1
REMARK VINA RESULT:     -10.3      0.000      0.000
REMARK SMILES N#CCNC(=O)Cn1ccc(C(=O)NCCCCCCNC(=O)c2ccc(-c3c4nc(c(-c5ccccc5)c5ccc([nH]5)c(-c5ccccc5)c5nc(c(-c6ccccc6)c6ccc3[nH]6)C=C5)C=C4)cc2)c1
REMARK SMILES IDX 16 1 15 2 14 3 12 4 13 5 11 7 8 8 9 9 72 10 10 11 7 12 5 13
REMARK SMILES IDX 4 14 6 16 3 17 2 18 1 19 17 20 18 21 19 22 20 23 21 24 22 25
REMARK SMILES IDX 23 27 24 28 25 29 71 30 26 31 70 32 27 33 28 34 29 35 64 36
REMARK SMILES IDX 30 37 69 38 63 39 65 40 31 41 68 42 62 43 61 44 32 46 54 47
REMARK SMILES IDX 39 48 53 49 40 50 43 51 52 52 66 53 41 54 42 55 51 57 67 58
REMARK SMILES IDX 44 59 33 60 34 61 38 62 35 63 37 64 36 65 55 66 56 67 60 68
REMARK SMILES IDX 57 69 59 70 58 71 45 72 46 73 50 74 47 75 49 76 48 77
REMARK H PARENT 14 6 4 15 21 26 65 45 43 56
REMARK Flexibility Score: inf
ROOT
ATOM      1  C   UNL A   1      36.450  22.751  23.475  1.00  0.00     0.021 C 
ENDROOT
BRANCH   1   2
ATOM      2  C   UNL A   1      35.525  23.774  24.132  1.00  0.00     0.116 C 
BRANCH   2   3
ATOM      3  N   UNL A   1      34.438  24.108  23.237  1.00  0.00    -0.352 N 
ATOM      4  C   UNL A   1      33.260  23.467  22.950  1.00  0.00     0.252 C 
ATOM      5  O   UNL A   1      32.482  24.019  22.181  1.00  0.00    -0.269 OA
ATOM      6  H   UNL A   1      34.568  24.949  22.743  1.00  0.00     0.163 HD
BRANCH   4   7
ATOM      7  C   UNL A   1      32.917  22.218  23.621  1.00  0.00     0.057 A 
ATOM      8  N   UNL A   1      32.364  20.099  24.074  1.00  0.00    -0.344 N 
ATOM      9  C   UNL A   1      32.813  20.637  25.248  1.00  0.00     0.087 A 
ATOM     10  C   UNL A   1      32.325  21.076  23.115  1.00  0.00     0.100 A 
ATOM     11  C   UNL A   1      33.103  21.961  25.013  1.00  0.00     0.033 A 
BRANCH   8  12
ATOM     12  C   UNL A   1      31.927  18.727  23.869  1.00  0.00     0.221 C 
BRANCH  12  13
ATOM     13  C   UNL A   1      32.710  18.048  22.765  1.00  0.00     0.240 C 
ATOM     14  N   UNL A   1      33.920  17.487  23.052  1.00  0.00    -0.341 N 
ATOM     15  H   UNL A   1      34.361  17.001  22.319  1.00  0.00     0.164 HD
ATOM     16  O   UNL A   1      32.293  18.002  21.608  1.00  0.00    -0.273 OA
BRANCH  14  17
ATOM     17  C   UNL A   1      34.629  17.527  24.313  1.00  0.00     0.236 C 
BRANCH  17  18
ATOM     18  C   UNL A   1      34.963  16.153  24.870  1.00  0.00     0.084 C 
ATOM     19  N   UNL A   1      35.240  15.012  25.332  1.00  0.00    -0.196 NA
ENDBRANCH  17  18
ENDBRANCH  14  17
ENDBRANCH  12  13
ENDBRANCH   8  12
ENDBRANCH   4   7
ENDBRANCH   2   3
ENDBRANCH   1   2
BRANCH   1  20
ATOM     20  C   UNL A   1      37.272  21.957  24.498  1.00  0.00     0.002 C 
BRANCH  20  21
ATOM     21  C   UNL A   1      36.836  20.495  24.667  1.00  0.00     0.002 C 
BRANCH  21  22
ATOM     22  C   UNL A   1      37.973  19.513  24.991  1.00  0.00     0.021 C 
BRANCH  22  23
ATOM     23  C   UNL A   1      39.111  20.166  25.765  1.00  0.00     0.116 C 
BRANCH  23  24
ATOM     24  N   UNL A   1      40.220  19.236  25.901  1.00  0.00    -0.352 N 
ATOM     25  C   UNL A   1      41.556  19.479  26.055  1.00  0.00     0.251 C 
ATOM     26  H   UNL A   1      39.969  18.285  25.881  1.00  0.00     0.163 HD
ATOM     27  O   UNL A   1      42.366  18.592  25.808  1.00  0.00    -0.269 OA
BRANCH  25  28
ATOM     28  C   UNL A   1      42.033  20.797  26.506  1.00  0.00     0.039 A 
ATOM     29  C   UNL A   1      42.341  21.751  25.531  1.00  0.00     0.014 A 
ATOM     30  C   UNL A   1      42.266  21.058  27.861  1.00  0.00     0.014 A 
ATOM     31  C   UNL A   1      42.845  22.984  25.920  1.00  0.00     0.010 A 
ATOM     32  C   UNL A   1      42.729  22.301  28.258  1.00  0.00     0.010 A 
ATOM     33  C   UNL A   1      43.021  23.258  27.284  1.00  0.00    -0.014 A 
BRANCH  33  34
ATOM     34  C   UNL A   1      43.439  24.615  27.678  1.00  0.00     0.031 A 
ATOM     35  C   UNL A   1      42.221  25.532  27.868  1.00  0.00     0.074 A 
ATOM     36  C   UNL A   1      44.788  24.837  27.723  1.00  0.00     0.049 A 
ATOM     37  N   UNL A   1      42.085  26.787  27.582  1.00  0.00    -0.248 NA
ATOM     38  C   UNL A   1      40.937  24.955  28.354  1.00  0.00     0.031 C 
ATOM     39  C   UNL A   1      45.823  23.786  27.557  1.00  0.00     0.029 A 
ATOM     40  N   UNL A   1      45.575  25.955  27.901  1.00  0.00    -0.354 N 
ATOM     41  C   UNL A   1      40.782  27.187  27.957  1.00  0.00     0.074 A 
ATOM     42  C   UNL A   1      40.093  25.993  28.345  1.00  0.00     0.031 C 
ATOM     43  C   UNL A   1      47.065  24.319  27.555  1.00  0.00     0.029 A 
ATOM     44  C   UNL A   1      46.968  25.755  27.700  1.00  0.00     0.049 A 
ATOM     45  H   UNL A   1      45.199  26.830  28.149  1.00  0.00     0.167 HD
ATOM     46  C   UNL A   1      40.404  28.499  28.029  1.00  0.00     0.031 A 
ATOM     47  C   UNL A   1      47.963  26.688  27.578  1.00  0.00     0.031 A 
ATOM     48  C   UNL A   1      41.488  29.333  27.637  1.00  0.00     0.049 A 
ATOM     49  C   UNL A   1      47.312  27.990  27.773  1.00  0.00     0.074 A 
ATOM     50  C   UNL A   1      42.069  29.591  26.423  1.00  0.00     0.029 A 
ATOM     51  N   UNL A   1      42.353  29.699  28.641  1.00  0.00    -0.354 N 
ATOM     52  N   UNL A   1      46.889  28.457  28.907  1.00  0.00    -0.248 NA
ATOM     53  C   UNL A   1      47.011  28.803  26.588  1.00  0.00     0.031 C 
ATOM     54  C   UNL A   1      43.447  29.590  26.732  1.00  0.00     0.029 A 
ATOM     55  C   UNL A   1      43.618  29.599  28.121  1.00  0.00     0.049 A 
ATOM     56  H   UNL A   1      42.112  29.978  29.553  1.00  0.00     0.167 HD
ATOM     57  C   UNL A   1      45.956  29.380  28.508  1.00  0.00     0.074 A 
ATOM     58  C   UNL A   1      46.311  29.776  27.162  1.00  0.00     0.031 C 
ATOM     59  C   UNL A   1      44.705  29.343  29.034  1.00  0.00     0.031 A 
BRANCH  46  60
ATOM     60  C   UNL A   1      39.228  29.190  28.662  1.00  0.00    -0.014 A 
ATOM     61  C   UNL A   1      39.055  29.024  30.061  1.00  0.00     0.009 A 
ATOM     62  C   UNL A   1      38.137  29.677  27.939  1.00  0.00     0.009 A 
ATOM     63  C   UNL A   1      37.818  29.199  30.683  1.00  0.00     0.001 A 
ATOM     64  C   UNL A   1      36.901  29.892  28.571  1.00  0.00     0.001 A 
ATOM     65  C   UNL A   1      36.732  29.615  29.929  1.00  0.00     0.000 A 
ENDBRANCH  46  60
BRANCH  47  66
ATOM     66  C   UNL A   1      49.413  26.730  27.164  1.00  0.00    -0.014 A 
ATOM     67  C   UNL A   1      50.483  27.187  27.937  1.00  0.00     0.009 A 
ATOM     68  C   UNL A   1      49.767  26.215  25.884  1.00  0.00     0.009 A 
ATOM     69  C   UNL A   1      51.818  27.033  27.498  1.00  0.00     0.001 A 
ATOM     70  C   UNL A   1      51.084  26.017  25.463  1.00  0.00     0.001 A 
ATOM     71  C   UNL A   1      52.118  26.415  26.284  1.00  0.00     0.000 A 
ENDBRANCH  47  66
BRANCH  59  72
ATOM     72  C   UNL A   1      44.586  28.643  30.381  1.00  0.00    -0.014 A 
ATOM     73  C   UNL A   1      44.020  27.360  30.449  1.00  0.00     0.009 A 
ATOM     74  C   UNL A   1      44.906  29.262  31.603  1.00  0.00     0.009 A 
ATOM     75  C   UNL A   1      43.762  26.735  31.677  1.00  0.00     0.001 A 
ATOM     76  C   UNL A   1      44.649  28.642  32.837  1.00  0.00     0.001 A 
ATOM     77  C   UNL A   1      44.072  27.376  32.872  1.00  0.00     0.000 A 
ENDBRANCH  59  72
ENDBRANCH  33  34
ENDBRANCH  25  28
ENDBRANCH  23  24
ENDBRANCH  22  23
ENDBRANCH  21  22
ENDBRANCH  20  21
ENDBRANCH   1  20
TORSDOF 17
ENDMDL
MODEL 2
REMARK VINA RESULT:     -10.2      1.588      3.210
REMARK SMILES N#CCNC(=O)Cn1ccc(C(=O)NCCCCCCNC(=O)c2ccc(-c3c4nc(c(-c5ccccc5)c5ccc([nH]5)c(-c5ccccc5)c5nc(c(-c6ccccc6)c6ccc3[nH]6)C=C5)C=C4)cc2)c1
REMARK SMILES IDX 16 1 15 2 14 3 12 4 13 5 11 7 8 8 9 9 72 10 10 11 7 12 5 13
REMARK SMILES IDX 4 14 6 16 3 17 2 18 1 19 17 20 18 21 19 22 20 23 21 24 22 25
REMARK SMILES IDX 23 27 24 28 25 29 71 30 26 31 70 32 27 33 28 34 29 35 64 36
REMARK SMILES IDX 30 37 69 38 63 39 65 40 31 41 68 42 62 43 61 44 32 46 54 47
REMARK SMILES IDX 39 48 53 49 40 50 43 51 52 52 66 53 41 54 42 55 51 57 67 58
REMARK SMILES IDX 44 59 33 60 34 61 38 62 35 63 37 64 36 65 55 66 56 67 60 68
REMARK SMILES IDX 57 69 59 70 58 71 45 72 46 73 50 74 47 75 49 76 48 77
REMARK H PARENT 14 6 4 15 21 26 65 45 43 56
REMARK Flexibility Score: inf
ROOT
ATOM      1  C   UNL A   1      35.448  21.858  26.111  1.00  0.00     0.021 C 
ENDROOT
BRANCH   1   2
ATOM      2  C   UNL A   1      34.252  21.443  26.966  1.00  0.00     0.116 C 
BRANCH   2   3
ATOM      3  N   UNL A   1      33.528  20.371  26.318  1.00  0.00    -0.352 N 
ATOM      4  C   UNL A   1      32.570  20.378  25.337  1.00  0.00     0.252 C 
ATOM      5  O   UNL A   1      32.165  19.296  24.926  1.00  0.00    -0.269 OA
ATOM      6  H   UNL A   1      33.766  19.472  26.640  1.00  0.00     0.163 HD
BRANCH   4   7
ATOM      7  C   UNL A   1      32.130  21.635  24.744  1.00  0.00     0.057 A 
ATOM      8  N   UNL A   1      31.240  23.658  24.400  1.00  0.00    -0.344 N 
ATOM      9  C   UNL A   1      32.075  23.423  23.343  1.00  0.00     0.087 A 
ATOM     10  C   UNL A   1      31.188  22.543  25.193  1.00  0.00     0.100 A 
ATOM     11  C   UNL A   1      32.590  22.156  23.497  1.00  0.00     0.033 A 
BRANCH   8  12
ATOM     12  C   UNL A   1      30.467  24.868  24.631  1.00  0.00     0.221 C 
BRANCH  12  13
ATOM     13  C   UNL A   1      30.406  25.223  26.102  1.00  0.00     0.240 C 
ATOM     14  N   UNL A   1      31.273  26.149  26.603  1.00  0.00    -0.341 N 
ATOM     15  H   UNL A   1      31.152  26.394  27.548  1.00  0.00     0.164 HD
ATOM     16  O   UNL A   1      29.604  24.685  26.866  1.00  0.00    -0.273 OA
BRANCH  14  17
ATOM     17  C   UNL A   1      32.353  26.811  25.902  1.00  0.00     0.236 C 
BRANCH  17  18
ATOM     18  C   UNL A   1      33.571  25.928  25.681  1.00  0.00     0.084 C 
ATOM     19  N   UNL A   1      34.581  25.196  25.498  1.00  0.00    -0.196 NA
ENDBRANCH  17  18
ENDBRANCH  14  17
ENDBRANCH  12  13
ENDBRANCH   8  12
ENDBRANCH   4   7
ENDBRANCH   2   3
ENDBRANCH   1   2
BRANCH   1  20
ATOM     20  C   UNL A   1      35.940  20.728  25.198  1.00  0.00     0.002 C 
BRANCH  20  21
ATOM     21  C   UNL A   1      37.313  20.979  24.559  1.00  0.00     0.002 C 
BRANCH  21  22
ATOM     22  C   UNL A   1      38.327  19.837  24.730  1.00  0.00     0.021 C 
BRANCH  22  23
ATOM     23  C   UNL A   1      39.071  19.905  26.058  1.00  0.00     0.116 C 
BRANCH  23  24
ATOM     24  N   UNL A   1      40.237  19.038  26.021  1.00  0.00    -0.352 N 
ATOM     25  C   UNL A   1      41.566  19.355  26.013  1.00  0.00     0.251 C 
ATOM     26  H   UNL A   1      40.038  18.075  25.999  1.00  0.00     0.163 HD
ATOM     27  O   UNL A   1      42.386  18.524  25.636  1.00  0.00    -0.269 OA
BRANCH  25  28
ATOM     28  C   UNL A   1      42.024  20.685  26.447  1.00  0.00     0.039 A 
ATOM     29  C   UNL A   1      42.347  21.621  25.459  1.00  0.00     0.014 A 
ATOM     30  C   UNL A   1      42.226  20.976  27.801  1.00  0.00     0.014 A 
ATOM     31  C   UNL A   1      42.833  22.866  25.832  1.00  0.00     0.010 A 
ATOM     32  C   UNL A   1      42.671  22.232  28.181  1.00  0.00     0.010 A 
ATOM     33  C   UNL A   1      42.978  23.170  27.194  1.00  0.00    -0.014 A 
BRANCH  33  34
ATOM     34  C   UNL A   1      43.377  24.538  27.568  1.00  0.00     0.031 A 
ATOM     35  C   UNL A   1      42.146  25.434  27.769  1.00  0.00     0.074 A 
ATOM     36  C   UNL A   1      44.723  24.784  27.589  1.00  0.00     0.049 A 
ATOM     37  N   UNL A   1      41.983  26.684  27.474  1.00  0.00    -0.248 NA
ATOM     38  C   UNL A   1      40.881  24.839  28.283  1.00  0.00     0.031 C 
ATOM     39  C   UNL A   1      45.774  23.751  27.415  1.00  0.00     0.029 A 
ATOM     40  N   UNL A   1      45.492  25.918  27.743  1.00  0.00    -0.354 N 
ATOM     41  C   UNL A   1      40.679  27.064  27.866  1.00  0.00     0.074 A 
ATOM     42  C   UNL A   1      40.018  25.862  28.277  1.00  0.00     0.031 C 
ATOM     43  C   UNL A   1      47.005  24.306  27.388  1.00  0.00     0.029 A 
ATOM     44  C   UNL A   1      46.884  25.742  27.520  1.00  0.00     0.049 A 
ATOM     45  H   UNL A   1      45.104  26.789  27.988  1.00  0.00     0.167 HD
ATOM     46  C   UNL A   1      40.278  28.370  27.933  1.00  0.00     0.031 A 
ATOM     47  C   UNL A   1      47.860  26.691  27.373  1.00  0.00     0.031 A 
ATOM     48  C   UNL A   1      41.340  29.220  27.514  1.00  0.00     0.049 A 
ATOM     49  C   UNL A   1      47.189  27.983  27.566  1.00  0.00     0.074 A 
ATOM     50  C   UNL A   1      41.896  29.476  26.288  1.00  0.00     0.029 A 
ATOM     51  N   UNL A   1      42.215  29.610  28.500  1.00  0.00    -0.354 N 
ATOM     52  N   UNL A   1      46.777  28.453  28.703  1.00  0.00    -0.248 NA
ATOM     53  C   UNL A   1      46.854  28.778  26.378  1.00  0.00     0.031 C 
ATOM     54  C   UNL A   1      43.279  29.503  26.575  1.00  0.00     0.029 A 
ATOM     55  C   UNL A   1      43.473  29.528  27.961  1.00  0.00     0.049 A 
ATOM     56  H   UNL A   1      41.983  29.894  29.413  1.00  0.00     0.167 HD
ATOM     57  C   UNL A   1      45.821  29.355  28.310  1.00  0.00     0.074 A 
ATOM     58  C   UNL A   1      46.146  29.745  26.955  1.00  0.00     0.031 C 
ATOM     59  C   UNL A   1      44.579  29.300  28.857  1.00  0.00     0.031 A 
BRANCH  46  60
ATOM     60  C   UNL A   1      39.100  29.045  28.578  1.00  0.00    -0.014 A 
ATOM     61  C   UNL A   1      38.918  28.839  29.971  1.00  0.00     0.009 A 
ATOM     62  C   UNL A   1      38.016  29.558  27.863  1.00  0.00     0.009 A 
ATOM     63  C   UNL A   1      37.678  29.000  30.590  1.00  0.00     0.001 A 
ATOM     64  C   UNL A   1      36.777  29.757  28.494  1.00  0.00     0.001 A 
ATOM     65  C   UNL A   1      36.598  29.441  29.842  1.00  0.00     0.000 A 
ENDBRANCH  46  60
BRANCH  47  66
ATOM     66  C   UNL A   1      49.303  26.755  26.934  1.00  0.00    -0.014 A 
ATOM     67  C   UNL A   1      49.797  26.445  25.666  1.00  0.00     0.009 A 
ATOM     68  C   UNL A   1      50.273  27.223  27.866  1.00  0.00     0.009 A 
ATOM     69  C   UNL A   1      51.148  26.693  25.329  1.00  0.00     0.001 A 
ATOM     70  C   UNL A   1      51.597  27.514  27.529  1.00  0.00     0.001 A 
ATOM     71  C   UNL A   1      52.034  27.261  26.245  1.00  0.00     0.000 A 
ENDBRANCH  47  66
BRANCH  59  72
ATOM     72  C   UNL A   1      44.495  28.612  30.213  1.00  0.00    -0.014 A 
ATOM     73  C   UNL A   1      43.896  27.346  30.312  1.00  0.00     0.009 A 
ATOM     74  C   UNL A   1      44.881  29.229  31.417  1.00  0.00     0.009 A 
ATOM     75  C   UNL A   1      43.670  26.735  31.554  1.00  0.00     0.001 A 
ATOM     76  C   UNL A   1      44.658  28.623  32.664  1.00  0.00     0.001 A 
ATOM     77  C   UNL A   1      44.047  27.374  32.731  1.00  0.00     0.000 A 
ENDBRANCH  59  72
ENDBRANCH  33  34
ENDBRANCH  25  28
ENDBRANCH  23  24
ENDBRANCH  22  23
ENDBRANCH  21  22
ENDBRANCH  20  21
ENDBRANCH   1  20
TORSDOF 17
ENDMDL
MODEL 3
REMARK VINA RESULT:     -10.1      4.934      9.889
REMARK SMILES N#CCNC(=O)Cn1ccc(C(=O)NCCCCCCNC(=O)c2ccc(-c3c4nc(c(-c5ccccc5)c5ccc([nH]5)c(-c5ccccc5)c5nc(c(-c6ccccc6)c6ccc3[nH]6)C=C5)C=C4)cc2)c1
REMARK SMILES IDX 16 1 15 2 14 3 12 4 13 5 11 7 8 8 9 9 72 10 10 11 7 12 5 13
REMARK SMILES IDX 4 14 6 16 3 17 2 18 1 19 17 20 18 21 19 22 20 23 21 24 22 25
REMARK SMILES IDX 23 27 24 28 25 29 71 30 26 31 70 32 27 33 28 34 29 35 64 36
REMARK SMILES IDX 30 37 69 38 63 39 65 40 31 41 68 42 62 43 61 44 32 46 54 47
REMARK SMILES IDX 39 48 53 49 40 50 43 51 52 52 66 53 41 54 42 55 51 57 67 58
REMARK SMILES IDX 44 59 33 60 34 61 38 62 35 63 37 64 36 65 55 66 56 67 60 68
REMARK SMILES IDX 57 69 59 70 58 71 45 72 46 73 50 74 47 75 49 76 48 77
REMARK H PARENT 14 6 4 15 21 26 65 45 43 56
REMARK Flexibility Score: inf
ROOT
ATOM      1  C   UNL A   1      32.811  28.386  26.054  1.00  0.00     0.021 C 
ENDROOT
BRANCH   1   2
ATOM      2  C   UNL A   1      32.637  27.001  26.674  1.00  0.00     0.116 C 
BRANCH   2   3
ATOM      3  N   UNL A   1      31.259  26.575  26.561  1.00  0.00    -0.352 N 
ATOM      4  C   UNL A   1      30.699  25.350  26.303  1.00  0.00     0.252 C 
ATOM      5  O   UNL A   1      29.477  25.264  26.326  1.00  0.00    -0.269 OA
ATOM      6  H   UNL A   1      30.603  27.296  26.693  1.00  0.00     0.163 HD
BRANCH   4   7
ATOM      7  C   UNL A   1      31.545  24.178  26.108  1.00  0.00     0.057 A 
ATOM      8  N   UNL A   1      32.838  22.579  25.229  1.00  0.00    -0.344 N 
ATOM      9  C   UNL A   1      33.012  22.510  26.583  1.00  0.00     0.087 A 
ATOM     10  C   UNL A   1      31.876  23.512  24.943  1.00  0.00     0.100 A 
ATOM     11  C   UNL A   1      32.179  23.444  27.155  1.00  0.00     0.033 A 
BRANCH   8  12
ATOM     12  C   UNL A   1      33.507  21.756  24.234  1.00  0.00     0.221 C 
BRANCH  12  13
ATOM     13  C   UNL A   1      34.446  20.755  24.874  1.00  0.00     0.240 C 
ATOM     14  N   UNL A   1      34.027  19.469  25.057  1.00  0.00    -0.341 N 
ATOM     15  H   UNL A   1      34.693  18.840  25.416  1.00  0.00     0.164 HD
ATOM     16  O   UNL A   1      35.574  21.072  25.251  1.00  0.00    -0.273 OA
BRANCH  14  17
ATOM     17  C   UNL A   1      32.713  18.926  24.784  1.00  0.00     0.236 C 
BRANCH  17  18
ATOM     18  C   UNL A   1      32.568  18.353  23.384  1.00  0.00     0.084 C 
ATOM     19  N   UNL A   1      32.447  17.878  22.222  1.00  0.00    -0.196 NA
ENDBRANCH  17  18
ENDBRANCH  14  17
ENDBRANCH  12  13
ENDBRANCH   8  12
ENDBRANCH   4   7
ENDBRANCH   2   3
ENDBRANCH   1   2
BRANCH   1  20
ATOM     20  C   UNL A   1      32.042  29.473  26.816  1.00  0.00     0.002 C 
BRANCH  20  21
ATOM     21  C   UNL A   1      31.443  30.570  25.926  1.00  0.00     0.002 C 
BRANCH  21  22
ATOM     22  C   UNL A   1      31.321  31.950  26.592  1.00  0.00     0.021 C 
BRANCH  22  23
ATOM     23  C   UNL A   1      32.650  32.460  27.136  1.00  0.00     0.116 C 
BRANCH  23  24
ATOM     24  N   UNL A   1      32.515  33.840  27.570  1.00  0.00    -0.352 N 
ATOM     25  C   UNL A   1      33.143  34.508  28.583  1.00  0.00     0.251 C 
ATOM     26  H   UNL A   1      31.872  34.377  27.053  1.00  0.00     0.163 HD
ATOM     27  O   UNL A   1      32.659  35.548  29.017  1.00  0.00    -0.269 OA
BRANCH  25  28
ATOM     28  C   UNL A   1      34.392  33.987  29.164  1.00  0.00     0.039 A 
ATOM     29  C   UNL A   1      34.296  33.152  30.282  1.00  0.00     0.014 A 
ATOM     30  C   UNL A   1      35.641  34.392  28.678  1.00  0.00     0.014 A 
ATOM     31  C   UNL A   1      35.455  32.688  30.887  1.00  0.00     0.010 A 
ATOM     32  C   UNL A   1      36.801  33.898  29.252  1.00  0.00     0.010 A 
ATOM     33  C   UNL A   1      36.703  33.052  30.358  1.00  0.00    -0.014 A 
BRANCH  33  34
ATOM     34  C   UNL A   1      37.914  32.448  30.941  1.00  0.00     0.031 A 
ATOM     35  C   UNL A   1      38.264  31.128  30.237  1.00  0.00     0.074 A 
ATOM     36  C   UNL A   1      38.447  33.098  32.020  1.00  0.00     0.049 A 
ATOM     37  N   UNL A   1      38.746  30.035  30.733  1.00  0.00    -0.248 NA
ATOM     38  C   UNL A   1      37.945  30.961  28.791  1.00  0.00     0.031 C 
ATOM     39  C   UNL A   1      37.987  34.415  32.526  1.00  0.00     0.029 A 
ATOM     40  N   UNL A   1      39.454  32.810  32.917  1.00  0.00    -0.354 N 
ATOM     41  C   UNL A   1      38.910  29.106  29.680  1.00  0.00     0.074 A 
ATOM     42  C   UNL A   1      38.316  29.704  28.522  1.00  0.00     0.031 C 
ATOM     43  C   UNL A   1      38.637  34.759  33.658  1.00  0.00     0.029 A 
ATOM     44  C   UNL A   1      39.564  33.707  34.014  1.00  0.00     0.049 A 
ATOM     45  H   UNL A   1      40.054  32.038  32.806  1.00  0.00     0.167 HD
ATOM     46  C   UNL A   1      39.633  27.953  29.818  1.00  0.00     0.031 A 
ATOM     47  C   UNL A   1      40.291  33.572  35.167  1.00  0.00     0.031 A 
ATOM     48  C   UNL A   1      40.120  27.848  31.151  1.00  0.00     0.049 A 
ATOM     49  C   UNL A   1      41.026  32.308  35.027  1.00  0.00     0.074 A 
ATOM     50  C   UNL A   1      39.505  27.579  32.345  1.00  0.00     0.029 A 
ATOM     51  N   UNL A   1      41.336  28.443  31.390  1.00  0.00    -0.354 N 
ATOM     52  N   UNL A   1      42.049  32.116  34.252  1.00  0.00    -0.248 NA
ATOM     53  C   UNL A   1      40.518  31.125  35.732  1.00  0.00     0.031 C 
ATOM     54  C   UNL A   1      40.116  28.500  33.223  1.00  0.00     0.029 A 
ATOM     55  C   UNL A   1      41.227  29.080  32.599  1.00  0.00     0.049 A 
ATOM     56  H   UNL A   1      42.129  28.416  30.808  1.00  0.00     0.167 HD
ATOM     57  C   UNL A   1      42.032  30.754  34.088  1.00  0.00     0.074 A 
ATOM     58  C   UNL A   1      41.336  30.204  35.231  1.00  0.00     0.031 C 
ATOM     59  C   UNL A   1      42.069  30.227  32.837  1.00  0.00     0.031 A 
BRANCH  46  60
ATOM     60  C   UNL A   1      40.199  26.977  28.823  1.00  0.00    -0.014 A 
ATOM     61  C   UNL A   1      41.153  27.476  27.898  1.00  0.00     0.009 A 
ATOM     62  C   UNL A   1      39.613  25.744  28.532  1.00  0.00     0.009 A 
ATOM     63  C   UNL A   1      41.405  26.847  26.678  1.00  0.00     0.001 A 
ATOM     64  C   UNL A   1      39.896  25.090  27.321  1.00  0.00     0.001 A 
ATOM     65  C   UNL A   1      40.757  25.658  26.381  1.00  0.00     0.000 A 
ENDBRANCH  46  60
BRANCH  47  66
ATOM     66  C   UNL A   1      40.397  34.252  36.510  1.00  0.00    -0.014 A 
ATOM     67  C   UNL A   1      41.552  34.794  37.075  1.00  0.00     0.009 A 
ATOM     68  C   UNL A   1      39.210  34.418  37.280  1.00  0.00     0.009 A 
ATOM     69  C   UNL A   1      41.496  35.544  38.273  1.00  0.00     0.001 A 
ATOM     70  C   UNL A   1      39.137  35.195  38.438  1.00  0.00     0.001 A 
ATOM     71  C   UNL A   1      40.287  35.776  38.930  1.00  0.00     0.000 A 
ENDBRANCH  47  66
BRANCH  59  72
ATOM     72  C   UNL A   1      42.652  31.137  31.764  1.00  0.00    -0.014 A 
ATOM     73  C   UNL A   1      41.790  31.828  30.897  1.00  0.00     0.009 A 
ATOM     74  C   UNL A   1      44.031  31.240  31.505  1.00  0.00     0.009 A 
ATOM     75  C   UNL A   1      42.279  32.564  29.809  1.00  0.00     0.001 A 
ATOM     76  C   UNL A   1      44.527  31.976  30.417  1.00  0.00     0.001 A 
ATOM     77  C   UNL A   1      43.647  32.636  29.565  1.00  0.00     0.000 A 
ENDBRANCH  59  72
ENDBRANCH  33  34
ENDBRANCH  25  28
ENDBRANCH  23  24
ENDBRANCH  22  23
ENDBRANCH  21  22
ENDBRANCH  20  21
ENDBRANCH   1  20
TORSDOF 17
ENDMDL
