MODEL 1
REMARK VINA RESULT:     -11.8      0.000      0.000
REMARK SMILES CC(C)[C@H](NC(=O)[C@H]1CC(=O)N(c2ccc(F)cc2)C1)C(=O)N1CCC[C@@H]1C(=O)NCCCCCCNC(=O)c1ccc(-c2c3nc(c(-c4ccccc4)c4ccc([nH]4)c(-c4ccccc4)c4nc(c(-c5ccccc5)c5ccc2[nH]5)C=C4)C=C3)cc1
REMARK SMILES IDX 32 1 31 2 30 3 28 4 29 5 27 7 23 8 24 9 25 10 26 11 21 12
REMARK SMILES IDX 22 13 4 14 2 15 1 16 3 17 5 18 6 19 7 21 8 22 9 23 20 24
REMARK SMILES IDX 10 25 12 26 11 27 13 28 14 29 19 30 15 31 18 32 16 33 17 34
REMARK SMILES IDX 33 35 34 36 35 37 36 38 37 39 38 40 39 42 40 43 41 44 87 45
REMARK SMILES IDX 42 46 86 47 43 48 44 49 45 50 80 51 46 52 85 53 79 54 81 55
REMARK SMILES IDX 47 56 84 57 78 58 77 59 48 61 70 62 55 63 69 64 56 65 59 66
REMARK SMILES IDX 68 67 82 68 57 69 58 70 67 72 83 73 60 74 49 75 50 76 54 77
REMARK SMILES IDX 51 78 53 79 52 80 71 81 72 82 76 83 73 84 75 85 74 86 61 87
REMARK SMILES IDX 62 88 66 89 63 90 65 91 64 92
REMARK H PARENT 30 6 5 20 37 41 81 60 59 71
REMARK Flexibility Score: inf
ROOT
ATOM      1  C   UNL A   1      37.427  23.371  25.580  1.00  0.00     0.021 C 
ENDROOT
BRANCH   1   2
ATOM      2  C   UNL A   1      36.153  23.977  26.146  1.00  0.00     0.116 C 
BRANCH   2   3
ATOM      3  N   UNL A   1      35.468  23.100  27.062  1.00  0.00    -0.354 N 
ATOM      4  C   UNL A   1      34.261  22.476  26.924  1.00  0.00     0.242 C 
ATOM      5  O   UNL A   1      33.805  21.917  27.927  1.00  0.00    -0.273 OA
ATOM      6  H   UNL A   1      35.937  22.927  27.909  1.00  0.00     0.163 HD
BRANCH   4   7
ATOM      7  C   UNL A   1      33.439  22.562  25.616  1.00  0.00     0.174 C 
ATOM      8  N   UNL A   1      32.018  22.832  25.836  1.00  0.00    -0.329 N 
ATOM      9  C   UNL A   1      31.175  21.748  25.373  1.00  0.00     0.120 C 
ATOM     10  C   UNL A   1      32.076  20.796  24.602  1.00  0.00     0.024 C 
ATOM     11  C   UNL A   1      33.508  21.298  24.767  1.00  0.00     0.037 C 
BRANCH   8  12
ATOM     12  C   UNL A   1      31.667  24.092  26.265  1.00  0.00     0.246 C 
ATOM     13  O   UNL A   1      30.923  24.232  27.245  1.00  0.00    -0.272 OA
BRANCH  12  14
ATOM     14  C   UNL A   1      32.093  25.376  25.511  1.00  0.00     0.174 C 
BRANCH  14  15
ATOM     15  C   UNL A   1      32.343  25.091  23.990  1.00  0.00     0.015 C 
ATOM     16  C   UNL A   1      31.211  25.534  23.055  1.00  0.00     0.010 C 
ATOM     17  C   UNL A   1      33.682  25.632  23.470  1.00  0.00     0.010 C 
ENDBRANCH  14  15
BRANCH  14  18
ATOM     18  N   UNL A   1      33.146  26.201  26.119  1.00  0.00    -0.344 N 
ATOM     19  C   UNL A   1      33.264  27.563  26.132  1.00  0.00     0.226 C 
ATOM     20  H   UNL A   1      33.862  25.707  26.579  1.00  0.00     0.164 HD
ATOM     21  O   UNL A   1      34.381  28.042  26.322  1.00  0.00    -0.275 OA
BRANCH  19  22
ATOM     22  C   UNL A   1      32.036  28.435  26.025  1.00  0.00     0.107 C 
ATOM     23  C   UNL A   1      32.287  29.835  26.587  1.00  0.00     0.116 C 
ATOM     24  C   UNL A   1      31.636  28.702  24.594  1.00  0.00     0.139 C 
ATOM     25  C   UNL A   1      31.324  30.686  25.808  1.00  0.00     0.227 C 
ATOM     26  N   UNL A   1      30.925  29.956  24.689  1.00  0.00    -0.312 N 
ATOM     27  O   UNL A   1      30.964  31.802  26.167  1.00  0.00    -0.274 OA
BRANCH  26  28
ATOM     28  C   UNL A   1      30.026  30.405  23.705  1.00  0.00     0.044 A 
ATOM     29  C   UNL A   1      30.054  29.853  22.419  1.00  0.00     0.029 A 
ATOM     30  C   UNL A   1      29.099  31.415  23.997  1.00  0.00     0.029 A 
ATOM     31  C   UNL A   1      29.142  30.273  21.450  1.00  0.00     0.041 A 
ATOM     32  C   UNL A   1      28.215  31.865  23.014  1.00  0.00     0.041 A 
ATOM     33  C   UNL A   1      28.235  31.279  21.755  1.00  0.00     0.123 A 
ATOM     34  F   UNL A   1      27.369  31.693  20.821  1.00  0.00    -0.207 F 
ENDBRANCH  26  28
ENDBRANCH  19  22
ENDBRANCH  14  18
ENDBRANCH  12  14
ENDBRANCH   8  12
ENDBRANCH   4   7
ENDBRANCH   2   3
ENDBRANCH   1   2
BRANCH   1  35
ATOM     35  C   UNL A   1      37.219  22.369  24.446  1.00  0.00     0.002 C 
BRANCH  35  36
ATOM     36  C   UNL A   1      36.939  20.926  24.871  1.00  0.00     0.002 C 
BRANCH  36  37
ATOM     37  C   UNL A   1      38.135  19.973  24.847  1.00  0.00     0.021 C 
BRANCH  37  38
ATOM     38  C   UNL A   1      39.158  20.180  25.956  1.00  0.00     0.116 C 
BRANCH  38  39
ATOM     39  N   UNL A   1      40.302  19.293  25.843  1.00  0.00    -0.352 N 
ATOM     40  C   UNL A   1      41.630  19.558  26.062  1.00  0.00     0.251 C 
ATOM     41  H   UNL A   1      40.095  18.370  25.571  1.00  0.00     0.163 HD
ATOM     42  O   UNL A   1      42.481  18.715  25.797  1.00  0.00    -0.269 OA
BRANCH  40  43
ATOM     43  C   UNL A   1      42.036  20.877  26.588  1.00  0.00     0.039 A 
ATOM     44  C   UNL A   1      42.420  21.868  25.681  1.00  0.00     0.014 A 
ATOM     45  C   UNL A   1      42.030  21.142  27.960  1.00  0.00     0.014 A 
ATOM     46  C   UNL A   1      42.743  23.142  26.148  1.00  0.00     0.010 A 
ATOM     47  C   UNL A   1      42.274  22.434  28.416  1.00  0.00     0.010 A 
ATOM     48  C   UNL A   1      42.638  23.446  27.515  1.00  0.00    -0.014 A 
BRANCH  48  49
ATOM     49  C   UNL A   1      42.908  24.815  28.018  1.00  0.00     0.031 A 
ATOM     50  C   UNL A   1      44.306  25.221  28.394  1.00  0.00     0.074 A 
ATOM     51  C   UNL A   1      41.886  25.676  28.184  1.00  0.00     0.049 A 
ATOM     52  N   UNL A   1      44.731  26.355  28.892  1.00  0.00    -0.248 NA
ATOM     53  C   UNL A   1      45.363  24.213  28.210  1.00  0.00     0.031 C 
ATOM     54  C   UNL A   1      40.479  25.392  27.889  1.00  0.00     0.029 A 
ATOM     55  N   UNL A   1      41.872  26.968  28.647  1.00  0.00    -0.354 N 
ATOM     56  C   UNL A   1      46.096  26.191  29.091  1.00  0.00     0.074 A 
ATOM     57  C   UNL A   1      46.420  24.833  28.716  1.00  0.00     0.031 C 
ATOM     58  C   UNL A   1      39.747  26.487  28.145  1.00  0.00     0.029 A 
ATOM     59  C   UNL A   1      40.619  27.533  28.665  1.00  0.00     0.049 A 
ATOM     60  H   UNL A   1      42.683  27.445  28.936  1.00  0.00     0.167 HD
ATOM     61  C   UNL A   1      47.003  27.097  29.528  1.00  0.00     0.031 A 
ATOM     62  C   UNL A   1      40.219  28.756  29.062  1.00  0.00     0.031 A 
ATOM     63  C   UNL A   1      46.680  28.450  29.897  1.00  0.00     0.049 A 
ATOM     64  C   UNL A   1      41.242  29.733  29.571  1.00  0.00     0.074 A 
ATOM     65  C   UNL A   1      47.535  29.459  30.303  1.00  0.00     0.029 A 
ATOM     66  N   UNL A   1      45.399  28.980  29.907  1.00  0.00    -0.354 N 
ATOM     67  N   UNL A   1      42.539  29.584  29.690  1.00  0.00    -0.248 NA
ATOM     68  C   UNL A   1      40.745  31.050  29.991  1.00  0.00     0.031 C 
ATOM     69  C   UNL A   1      46.764  30.581  30.620  1.00  0.00     0.029 A 
ATOM     70  C   UNL A   1      45.438  30.294  30.344  1.00  0.00     0.049 A 
ATOM     71  H   UNL A   1      44.585  28.494  29.646  1.00  0.00     0.167 HD
ATOM     72  C   UNL A   1      43.016  30.797  30.168  1.00  0.00     0.074 A 
ATOM     73  C   UNL A   1      41.872  31.676  30.300  1.00  0.00     0.031 C 
ATOM     74  C   UNL A   1      44.289  31.153  30.471  1.00  0.00     0.031 A 
BRANCH  61  75
ATOM     75  C   UNL A   1      48.434  26.646  29.640  1.00  0.00    -0.014 A 
ATOM     76  C   UNL A   1      48.891  25.941  30.767  1.00  0.00     0.009 A 
ATOM     77  C   UNL A   1      49.330  26.897  28.590  1.00  0.00     0.009 A 
ATOM     78  C   UNL A   1      50.224  25.532  30.853  1.00  0.00     0.001 A 
ATOM     79  C   UNL A   1      50.653  26.458  28.665  1.00  0.00     0.001 A 
ATOM     80  C   UNL A   1      51.102  25.786  29.801  1.00  0.00     0.000 A 
ENDBRANCH  61  75
BRANCH  62  81
ATOM     81  C   UNL A   1      38.781  29.132  28.986  1.00  0.00    -0.014 A 
ATOM     82  C   UNL A   1      37.946  28.989  30.106  1.00  0.00     0.009 A 
ATOM     83  C   UNL A   1      38.234  29.624  27.791  1.00  0.00     0.009 A 
ATOM     84  C   UNL A   1      36.588  29.303  30.021  1.00  0.00     0.001 A 
ATOM     85  C   UNL A   1      36.881  29.967  27.718  1.00  0.00     0.001 A 
ATOM     86  C   UNL A   1      36.058  29.796  28.829  1.00  0.00     0.000 A 
ENDBRANCH  62  81
BRANCH  74  87
ATOM     87  C   UNL A   1      44.517  32.565  30.936  1.00  0.00    -0.014 A 
ATOM     88  C   UNL A   1      44.763  33.606  30.028  1.00  0.00     0.009 A 
ATOM     89  C   UNL A   1      44.442  32.862  32.307  1.00  0.00     0.009 A 
ATOM     90  C   UNL A   1      44.964  34.909  30.486  1.00  0.00     0.001 A 
ATOM     91  C   UNL A   1      44.610  34.172  32.759  1.00  0.00     0.001 A 
ATOM     92  C   UNL A   1      44.883  35.192  31.850  1.00  0.00     0.000 A 
ENDBRANCH  74  87
ENDBRANCH  48  49
ENDBRANCH  40  43
ENDBRANCH  38  39
ENDBRANCH  37  38
ENDBRANCH  36  37
ENDBRANCH  35  36
ENDBRANCH   1  35
TORSDOF 19
ENDMDL
MODEL 2
REMARK VINA RESULT:     -11.5      2.632      4.947
REMARK SMILES CC(C)[C@H](NC(=O)[C@H]1CC(=O)N(c2ccc(F)cc2)C1)C(=O)N1CCC[C@@H]1C(=O)NCCCCCCNC(=O)c1ccc(-c2c3nc(c(-c4ccccc4)c4ccc([nH]4)c(-c4ccccc4)c4nc(c(-c5ccccc5)c5ccc2[nH]5)C=C4)C=C3)cc1
REMARK SMILES IDX 32 1 31 2 30 3 28 4 29 5 27 7 23 8 24 9 25 10 26 11 21 12
REMARK SMILES IDX 22 13 4 14 2 15 1 16 3 17 5 18 6 19 7 21 8 22 9 23 20 24
REMARK SMILES IDX 10 25 12 26 11 27 13 28 14 29 19 30 15 31 18 32 16 33 17 34
REMARK SMILES IDX 33 35 34 36 35 37 36 38 37 39 38 40 39 42 40 43 41 44 87 45
REMARK SMILES IDX 42 46 86 47 43 48 44 49 45 50 80 51 46 52 85 53 79 54 81 55
REMARK SMILES IDX 47 56 84 57 78 58 77 59 48 61 70 62 55 63 69 64 56 65 59 66
REMARK SMILES IDX 68 67 82 68 57 69 58 70 67 72 83 73 60 74 49 75 50 76 54 77
REMARK SMILES IDX 51 78 53 79 52 80 71 81 72 82 76 83 73 84 75 85 74 86 61 87
REMARK SMILES IDX 62 88 66 89 63 90 65 91 64 92
REMARK H PARENT 30 6 5 20 37 41 81 60 59 71
REMARK Flexibility Score: inf
ROOT
ATOM      1  C   UNL A   1      36.928  23.233  24.681  1.00  0.00     0.021 C 
ENDROOT
BRANCH   1   2
ATOM      2  C   UNL A   1      35.562  23.897  24.640  1.00  0.00     0.116 C 
BRANCH   2   3
ATOM      3  N   UNL A   1      34.628  23.220  23.776  1.00  0.00    -0.354 N 
ATOM      4  C   UNL A   1      33.510  23.704  23.161  1.00  0.00     0.242 C 
ATOM      5  O   UNL A   1      32.772  22.878  22.614  1.00  0.00    -0.273 OA
ATOM      6  H   UNL A   1      34.825  22.271  23.605  1.00  0.00     0.163 HD
BRANCH   4   7
ATOM      7  C   UNL A   1      33.110  25.198  23.243  1.00  0.00     0.174 C 
ATOM      8  N   UNL A   1      31.712  25.447  22.894  1.00  0.00    -0.329 N 
ATOM      9  C   UNL A   1      31.581  26.285  21.719  1.00  0.00     0.120 C 
ATOM     10  C   UNL A   1      32.975  26.801  21.395  1.00  0.00     0.024 C 
ATOM     11  C   UNL A   1      33.945  26.104  22.345  1.00  0.00     0.037 C 
BRANCH   8  12
ATOM     12  C   UNL A   1      30.747  25.030  23.784  1.00  0.00     0.246 C 
ATOM     13  O   UNL A   1      30.073  24.021  23.543  1.00  0.00    -0.272 OA
BRANCH  12  14
ATOM     14  C   UNL A   1      30.392  25.831  25.060  1.00  0.00     0.174 C 
BRANCH  14  15
ATOM     15  C   UNL A   1      31.486  26.905  25.387  1.00  0.00     0.015 C 
ATOM     16  C   UNL A   1      31.215  28.301  24.811  1.00  0.00     0.010 C 
ATOM     17  C   UNL A   1      31.816  27.020  26.882  1.00  0.00     0.010 C 
ENDBRANCH  14  15
BRANCH  14  18
ATOM     18  N   UNL A   1      29.968  25.069  26.243  1.00  0.00    -0.344 N 
ATOM     19  C   UNL A   1      30.311  23.796  26.608  1.00  0.00     0.226 C 
ATOM     20  H   UNL A   1      29.355  25.537  26.854  1.00  0.00     0.164 HD
ATOM     21  O   UNL A   1      29.565  23.198  27.381  1.00  0.00    -0.275 OA
BRANCH  19  22
ATOM     22  C   UNL A   1      31.622  23.201  26.154  1.00  0.00     0.107 C 
ATOM     23  C   UNL A   1      32.631  23.118  27.300  1.00  0.00     0.116 C 
ATOM     24  C   UNL A   1      31.485  21.765  25.709  1.00  0.00     0.139 C 
ATOM     25  C   UNL A   1      33.497  21.957  26.901  1.00  0.00     0.227 C 
ATOM     26  N   UNL A   1      32.811  21.234  25.925  1.00  0.00    -0.312 N 
ATOM     27  O   UNL A   1      34.615  21.757  27.362  1.00  0.00    -0.274 OA
BRANCH  26  28
ATOM     28  C   UNL A   1      33.285  20.070  25.294  1.00  0.00     0.044 A 
ATOM     29  C   UNL A   1      34.650  19.916  25.029  1.00  0.00     0.029 A 
ATOM     30  C   UNL A   1      32.395  19.055  24.918  1.00  0.00     0.029 A 
ATOM     31  C   UNL A   1      35.126  18.748  24.433  1.00  0.00     0.041 A 
ATOM     32  C   UNL A   1      32.868  17.904  24.283  1.00  0.00     0.041 A 
ATOM     33  C   UNL A   1      34.230  17.756  24.061  1.00  0.00     0.123 A 
ATOM     34  F   UNL A   1      34.686  16.640  23.476  1.00  0.00    -0.207 F 
ENDBRANCH  26  28
ENDBRANCH  19  22
ENDBRANCH  14  18
ENDBRANCH  12  14
ENDBRANCH   8  12
ENDBRANCH   4   7
ENDBRANCH   2   3
ENDBRANCH   1   2
BRANCH   1  35
ATOM     35  C   UNL A   1      37.666  23.351  26.013  1.00  0.00     0.002 C 
BRANCH  35  36
ATOM     36  C   UNL A   1      38.958  22.540  26.137  1.00  0.00     0.002 C 
BRANCH  36  37
ATOM     37  C   UNL A   1      38.937  21.141  25.520  1.00  0.00     0.021 C 
BRANCH  37  38
ATOM     38  C   UNL A   1      39.432  20.019  26.423  1.00  0.00     0.116 C 
BRANCH  38  39
ATOM     39  N   UNL A   1      40.604  19.344  25.896  1.00  0.00    -0.352 N 
ATOM     40  C   UNL A   1      41.897  19.792  25.807  1.00  0.00     0.251 C 
ATOM     41  H   UNL A   1      40.448  18.434  25.553  1.00  0.00     0.163 HD
ATOM     42  O   UNL A   1      42.743  19.130  25.216  1.00  0.00    -0.269 OA
BRANCH  40  43
ATOM     43  C   UNL A   1      42.262  21.096  26.399  1.00  0.00     0.039 A 
ATOM     44  C   UNL A   1      42.603  22.145  25.543  1.00  0.00     0.014 A 
ATOM     45  C   UNL A   1      42.258  21.288  27.784  1.00  0.00     0.014 A 
ATOM     46  C   UNL A   1      42.886  23.404  26.075  1.00  0.00     0.010 A 
ATOM     47  C   UNL A   1      42.461  22.562  28.305  1.00  0.00     0.010 A 
ATOM     48  C   UNL A   1      42.783  23.631  27.457  1.00  0.00    -0.014 A 
BRANCH  48  49
ATOM     49  C   UNL A   1      43.009  24.981  28.030  1.00  0.00     0.031 A 
ATOM     50  C   UNL A   1      44.383  25.390  28.480  1.00  0.00     0.074 A 
ATOM     51  C   UNL A   1      41.967  25.819  28.191  1.00  0.00     0.049 A 
ATOM     52  N   UNL A   1      44.769  26.508  29.045  1.00  0.00    -0.248 NA
ATOM     53  C   UNL A   1      45.463  24.407  28.297  1.00  0.00     0.031 C 
ATOM     54  C   UNL A   1      40.578  25.527  27.825  1.00  0.00     0.029 A 
ATOM     55  N   UNL A   1      41.912  27.089  28.707  1.00  0.00    -0.354 N 
ATOM     56  C   UNL A   1      46.127  26.356  29.293  1.00  0.00     0.074 A 
ATOM     57  C   UNL A   1      46.488  25.020  28.873  1.00  0.00     0.031 C 
ATOM     58  C   UNL A   1      39.818  26.600  28.097  1.00  0.00     0.029 A 
ATOM     59  C   UNL A   1      40.651  27.635  28.699  1.00  0.00     0.049 A 
ATOM     60  H   UNL A   1      42.703  27.565  29.051  1.00  0.00     0.167 HD
ATOM     61  C   UNL A   1      47.001  27.254  29.806  1.00  0.00     0.031 A 
ATOM     62  C   UNL A   1      40.215  28.832  29.131  1.00  0.00     0.031 A 
ATOM     63  C   UNL A   1      46.641  28.584  30.220  1.00  0.00     0.049 A 
ATOM     64  C   UNL A   1      41.200  29.801  29.724  1.00  0.00     0.074 A 
ATOM     65  C   UNL A   1      47.461  29.587  30.705  1.00  0.00     0.029 A 
ATOM     66  N   UNL A   1      45.352  29.095  30.200  1.00  0.00    -0.354 N 
ATOM     67  N   UNL A   1      42.493  29.666  29.891  1.00  0.00    -0.248 NA
ATOM     68  C   UNL A   1      40.665  31.091  30.179  1.00  0.00     0.031 C 
ATOM     69  C   UNL A   1      46.660  30.683  31.038  1.00  0.00     0.029 A 
ATOM     70  C   UNL A   1      45.351  30.389  30.694  1.00  0.00     0.049 A 
ATOM     71  H   UNL A   1      44.557  28.609  29.884  1.00  0.00     0.167 HD
ATOM     72  C   UNL A   1      42.931  30.864  30.440  1.00  0.00     0.074 A 
ATOM     73  C   UNL A   1      41.768  31.719  30.562  1.00  0.00     0.031 C 
ATOM     74  C   UNL A   1      44.184  31.225  30.810  1.00  0.00     0.031 A 
BRANCH  61  75
ATOM     75  C   UNL A   1      48.433  26.819  29.958  1.00  0.00    -0.014 A 
ATOM     76  C   UNL A   1      49.373  27.031  28.935  1.00  0.00     0.009 A 
ATOM     77  C   UNL A   1      48.859  26.223  31.154  1.00  0.00     0.009 A 
ATOM     78  C   UNL A   1      50.698  26.619  29.094  1.00  0.00     0.001 A 
ATOM     79  C   UNL A   1      50.191  25.842  31.323  1.00  0.00     0.001 A 
ATOM     80  C   UNL A   1      51.107  26.029  30.289  1.00  0.00     0.000 A 
ENDBRANCH  61  75
BRANCH  62  81
ATOM     81  C   UNL A   1      38.776  29.190  29.012  1.00  0.00    -0.014 A 
ATOM     82  C   UNL A   1      38.269  29.722  27.816  1.00  0.00     0.009 A 
ATOM     83  C   UNL A   1      37.903  29.012  30.097  1.00  0.00     0.009 A 
ATOM     84  C   UNL A   1      36.927  30.097  27.719  1.00  0.00     0.001 A 
ATOM     85  C   UNL A   1      36.554  29.357  29.986  1.00  0.00     0.001 A 
ATOM     86  C   UNL A   1      36.070  29.909  28.803  1.00  0.00     0.000 A 
ENDBRANCH  62  81
BRANCH  74  87
ATOM     87  C   UNL A   1      44.369  32.618  31.346  1.00  0.00    -0.014 A 
ATOM     88  C   UNL A   1      44.625  33.703  30.494  1.00  0.00     0.009 A 
ATOM     89  C   UNL A   1      44.243  32.851  32.725  1.00  0.00     0.009 A 
ATOM     90  C   UNL A   1      44.787  34.988  31.017  1.00  0.00     0.001 A 
ATOM     91  C   UNL A   1      44.371  34.142  33.241  1.00  0.00     0.001 A 
ATOM     92  C   UNL A   1      44.654  35.207  32.388  1.00  0.00     0.000 A 
ENDBRANCH  74  87
ENDBRANCH  48  49
ENDBRANCH  40  43
ENDBRANCH  38  39
ENDBRANCH  37  38
ENDBRANCH  36  37
ENDBRANCH  35  36
ENDBRANCH   1  35
TORSDOF 19
ENDMDL
MODEL 3
REMARK VINA RESULT:     -11.2      2.775      4.194
REMARK SMILES CC(C)[C@H](NC(=O)[C@H]1CC(=O)N(c2ccc(F)cc2)C1)C(=O)N1CCC[C@@H]1C(=O)NCCCCCCNC(=O)c1ccc(-c2c3nc(c(-c4ccccc4)c4ccc([nH]4)c(-c4ccccc4)c4nc(c(-c5ccccc5)c5ccc2[nH]5)C=C4)C=C3)cc1
REMARK SMILES IDX 32 1 31 2 30 3 28 4 29 5 27 7 23 8 24 9 25 10 26 11 21 12
REMARK SMILES IDX 22 13 4 14 2 15 1 16 3 17 5 18 6 19 7 21 8 22 9 23 20 24
REMARK SMILES IDX 10 25 12 26 11 27 13 28 14 29 19 30 15 31 18 32 16 33 17 34
REMARK SMILES IDX 33 35 34 36 35 37 36 38 37 39 38 40 39 42 40 43 41 44 87 45
REMARK SMILES IDX 42 46 86 47 43 48 44 49 45 50 80 51 46 52 85 53 79 54 81 55
REMARK SMILES IDX 47 56 84 57 78 58 77 59 48 61 70 62 55 63 69 64 56 65 59 66
REMARK SMILES IDX 68 67 82 68 57 69 58 70 67 72 83 73 60 74 49 75 50 76 54 77
REMARK SMILES IDX 51 78 53 79 52 80 71 81 72 82 76 83 73 84 75 85 74 86 61 87
REMARK SMILES IDX 62 88 66 89 63 90 65 91 64 92
REMARK H PARENT 30 6 5 20 37 41 81 60 59 71
REMARK Flexibility Score: inf
ROOT
ATOM      1  C   UNL A   1      40.767  22.320  27.618  1.00  0.00     0.021 C 
ENDROOT
BRANCH   1   2
ATOM      2  C   UNL A   1      39.780  22.112  26.480  1.00  0.00     0.116 C 
BRANCH   2   3
ATOM      3  N   UNL A   1      38.595  22.922  26.603  1.00  0.00    -0.354 N 
ATOM      4  C   UNL A   1      37.456  22.909  25.850  1.00  0.00     0.242 C 
ATOM      5  O   UNL A   1      36.651  23.827  26.041  1.00  0.00    -0.273 OA
ATOM      6  H   UNL A   1      38.609  23.580  27.334  1.00  0.00     0.163 HD
BRANCH   4   7
ATOM      7  C   UNL A   1      37.229  21.871  24.724  1.00  0.00     0.174 C 
ATOM      8  N   UNL A   1      35.818  21.572  24.483  1.00  0.00    -0.329 N 
ATOM      9  C   UNL A   1      35.497  20.185  24.755  1.00  0.00     0.120 C 
ATOM     10  C   UNL A   1      36.820  19.469  24.982  1.00  0.00     0.024 C 
ATOM     11  C   UNL A   1      37.914  20.533  24.980  1.00  0.00     0.037 C 
BRANCH   8  12
ATOM     12  C   UNL A   1      35.051  22.547  23.885  1.00  0.00     0.246 C 
ATOM     13  O   UNL A   1      35.446  23.102  22.851  1.00  0.00    -0.272 OA
BRANCH  12  14
ATOM     14  C   UNL A   1      33.729  23.061  24.504  1.00  0.00     0.174 C 
BRANCH  14  15
ATOM     15  C   UNL A   1      33.182  22.073  25.591  1.00  0.00     0.015 C 
ATOM     16  C   UNL A   1      33.366  22.541  27.041  1.00  0.00     0.010 C 
ATOM     17  C   UNL A   1      31.723  21.650  25.367  1.00  0.00     0.010 C 
ENDBRANCH  14  15
BRANCH  14  18
ATOM     18  N   UNL A   1      32.685  23.530  23.581  1.00  0.00    -0.344 N 
ATOM     19  C   UNL A   1      32.220  24.801  23.391  1.00  0.00     0.226 C 
ATOM     20  H   UNL A   1      32.265  22.835  23.025  1.00  0.00     0.164 HD
ATOM     21  O   UNL A   1      31.103  24.938  22.895  1.00  0.00    -0.275 OA
BRANCH  19  22
ATOM     22  C   UNL A   1      33.107  25.988  23.683  1.00  0.00     0.107 C 
ATOM     23  C   UNL A   1      32.999  27.056  22.594  1.00  0.00     0.116 C 
ATOM     24  C   UNL A   1      32.697  26.726  24.934  1.00  0.00     0.139 C 
ATOM     25  C   UNL A   1      33.323  28.323  23.333  1.00  0.00     0.227 C 
ATOM     26  N   UNL A   1      33.195  28.061  24.697  1.00  0.00    -0.312 N 
ATOM     27  O   UNL A   1      33.671  29.360  22.779  1.00  0.00    -0.274 OA
BRANCH  26  28
ATOM     28  C   UNL A   1      33.412  28.994  25.727  1.00  0.00     0.044 A 
ATOM     29  C   UNL A   1      34.562  28.913  26.521  1.00  0.00     0.029 A 
ATOM     30  C   UNL A   1      32.477  30.008  25.975  1.00  0.00     0.029 A 
ATOM     31  C   UNL A   1      34.795  29.857  27.522  1.00  0.00     0.041 A 
ATOM     32  C   UNL A   1      32.692  30.927  27.005  1.00  0.00     0.041 A 
ATOM     33  C   UNL A   1      33.856  30.851  27.758  1.00  0.00     0.123 A 
ATOM     34  F   UNL A   1      34.073  31.749  28.728  1.00  0.00    -0.207 F 
ENDBRANCH  26  28
ENDBRANCH  19  22
ENDBRANCH  14  18
ENDBRANCH  12  14
ENDBRANCH   8  12
ENDBRANCH   4   7
ENDBRANCH   2   3
ENDBRANCH   1   2
BRANCH   1  35
ATOM     35  C   UNL A   1      41.997  21.415  27.583  1.00  0.00     0.002 C 
BRANCH  35  36
ATOM     36  C   UNL A   1      41.732  19.918  27.759  1.00  0.00     0.002 C 
BRANCH  36  37
ATOM     37  C   UNL A   1      42.431  18.989  26.765  1.00  0.00     0.021 C 
BRANCH  37  38
ATOM     38  C   UNL A   1      42.554  19.524  25.345  1.00  0.00     0.116 C 
BRANCH  38  39
ATOM     39  N   UNL A   1      43.713  19.004  24.643  1.00  0.00    -0.352 N 
ATOM     40  C   UNL A   1      44.874  19.645  24.290  1.00  0.00     0.251 C 
ATOM     41  H   UNL A   1      43.659  18.056  24.383  1.00  0.00     0.163 HD
ATOM     42  O   UNL A   1      45.703  19.080  23.584  1.00  0.00    -0.269 OA
BRANCH  40  43
ATOM     43  C   UNL A   1      45.106  21.035  24.734  1.00  0.00     0.039 A 
ATOM     44  C   UNL A   1      44.847  22.074  23.838  1.00  0.00     0.014 A 
ATOM     45  C   UNL A   1      45.566  21.314  26.024  1.00  0.00     0.014 A 
ATOM     46  C   UNL A   1      44.994  23.398  24.256  1.00  0.00     0.010 A 
ATOM     47  C   UNL A   1      45.634  22.633  26.463  1.00  0.00     0.010 A 
ATOM     48  C   UNL A   1      45.355  23.688  25.582  1.00  0.00    -0.014 A 
BRANCH  48  49
ATOM     49  C   UNL A   1      45.445  25.089  26.061  1.00  0.00     0.031 A 
ATOM     50  C   UNL A   1      46.764  25.809  26.046  1.00  0.00     0.074 A 
ATOM     51  C   UNL A   1      44.349  25.695  26.557  1.00  0.00     0.049 A 
ATOM     52  N   UNL A   1      47.050  27.017  26.464  1.00  0.00    -0.248 NA
ATOM     53  C   UNL A   1      47.921  25.069  25.516  1.00  0.00     0.031 C 
ATOM     54  C   UNL A   1      43.018  25.091  26.658  1.00  0.00     0.029 A 
ATOM     55  N   UNL A   1      44.180  26.955  27.074  1.00  0.00    -0.354 N 
ATOM     56  C   UNL A   1      48.415  27.174  26.259  1.00  0.00     0.074 A 
ATOM     57  C   UNL A   1      48.912  25.921  25.733  1.00  0.00     0.031 C 
ATOM     58  C   UNL A   1      42.165  25.992  27.171  1.00  0.00     0.029 A 
ATOM     59  C   UNL A   1      42.894  27.217  27.478  1.00  0.00     0.049 A 
ATOM     60  H   UNL A   1      44.913  27.609  27.147  1.00  0.00     0.167 HD
ATOM     61  C   UNL A   1      49.184  28.269  26.469  1.00  0.00     0.031 A 
ATOM     62  C   UNL A   1      42.362  28.320  28.038  1.00  0.00     0.031 A 
ATOM     63  C   UNL A   1      48.687  29.516  26.987  1.00  0.00     0.049 A 
ATOM     64  C   UNL A   1      43.243  29.512  28.288  1.00  0.00     0.074 A 
ATOM     65  C   UNL A   1      49.375  30.700  27.188  1.00  0.00     0.029 A 
ATOM     66  N   UNL A   1      47.379  29.738  27.389  1.00  0.00    -0.354 N 
ATOM     67  N   UNL A   1      44.518  29.667  28.026  1.00  0.00    -0.248 NA
ATOM     68  C   UNL A   1      42.607  30.686  28.902  1.00  0.00     0.031 C 
ATOM     69  C   UNL A   1      48.498  31.619  27.771  1.00  0.00     0.029 A 
ATOM     70  C   UNL A   1      47.247  31.031  27.868  1.00  0.00     0.049 A 
ATOM     71  H   UNL A   1      46.654  29.075  27.343  1.00  0.00     0.167 HD
ATOM     72  C   UNL A   1      44.830  30.963  28.414  1.00  0.00     0.074 A 
ATOM     73  C   UNL A   1      43.606  31.558  28.912  1.00  0.00     0.031 C 
ATOM     74  C   UNL A   1      46.022  31.606  28.362  1.00  0.00     0.031 A 
BRANCH  61  75
ATOM     75  C   UNL A   1      50.649  28.160  26.146  1.00  0.00    -0.014 A 
ATOM     76  C   UNL A   1      51.582  27.753  27.114  1.00  0.00     0.009 A 
ATOM     77  C   UNL A   1      51.100  28.433  24.845  1.00  0.00     0.009 A 
ATOM     78  C   UNL A   1      52.939  27.659  26.795  1.00  0.00     0.001 A 
ATOM     79  C   UNL A   1      52.452  28.307  24.521  1.00  0.00     0.001 A 
ATOM     80  C   UNL A   1      53.372  27.931  25.498  1.00  0.00     0.000 A 
ENDBRANCH  61  75
BRANCH  62  81
ATOM     81  C   UNL A   1      40.918  28.355  28.393  1.00  0.00    -0.014 A 
ATOM     82  C   UNL A   1      39.980  28.921  27.516  1.00  0.00     0.009 A 
ATOM     83  C   UNL A   1      40.471  27.831  29.617  1.00  0.00     0.009 A 
ATOM     84  C   UNL A   1      38.631  28.991  27.870  1.00  0.00     0.001 A 
ATOM     85  C   UNL A   1      39.116  27.873  29.954  1.00  0.00     0.001 A 
ATOM     86  C   UNL A   1      38.199  28.463  29.086  1.00  0.00     0.000 A 
ENDBRANCH  62  81
BRANCH  74  87
ATOM     87  C   UNL A   1      46.053  33.038  28.819  1.00  0.00    -0.014 A 
ATOM     88  C   UNL A   1      46.364  33.378  30.145  1.00  0.00     0.009 A 
ATOM     89  C   UNL A   1      45.807  34.065  27.894  1.00  0.00     0.009 A 
ATOM     90  C   UNL A   1      46.392  34.716  30.543  1.00  0.00     0.001 A 
ATOM     91  C   UNL A   1      45.869  35.403  28.287  1.00  0.00     0.001 A 
ATOM     92  C   UNL A   1      46.151  35.727  29.613  1.00  0.00     0.000 A 
ENDBRANCH  74  87
ENDBRANCH  48  49
ENDBRANCH  40  43
ENDBRANCH  38  39
ENDBRANCH  37  38
ENDBRANCH  36  37
ENDBRANCH  35  36
ENDBRANCH   1  35
TORSDOF 19
ENDMDL
