MODEL 1
REMARK VINA RESULT:     -10.7      0.000      0.000
REMARK SMILES O=C(CC[N@H+]1CCC[C@H](c2nccn2Cc2cscn2)C1)NCCCCCCNC(=O)c1ccc(-c2c3nc(c(-c4ccccc4)c4ccc([nH]4)c(-c4ccccc4)c4nc(c(-c5ccccc5)c5ccc2[nH]5)C=C4)C=C3)cc1
REMARK SMILES IDX 24 1 23 2 22 3 1 4 2 5 3 7 4 8 5 9 6 10 21 11 7 13 9 14 8 15
REMARK SMILES IDX 10 16 11 17 14 18 12 19 13 20 15 21 16 22 17 23 20 24 18 25
REMARK SMILES IDX 19 26 25 27 26 28 27 29 28 30 29 31 30 32 31 34 32 35 33 36
REMARK SMILES IDX 79 37 34 38 78 39 35 40 36 41 37 42 72 43 38 44 77 45 71 46
REMARK SMILES IDX 73 47 39 48 76 49 70 50 69 51 40 53 62 54 47 55 61 56 48 57
REMARK SMILES IDX 51 58 60 59 74 60 49 61 50 62 59 64 75 65 52 66 41 67 42 68
REMARK SMILES IDX 46 69 43 70 45 71 44 72 63 73 64 74 68 75 65 76 67 77 66 78
REMARK SMILES IDX 53 79 54 80 58 81 55 82 57 83 56 84
REMARK H PARENT 22 6 5 12 29 33 73 52 51 63
REMARK Flexibility Score: inf
ROOT
ATOM      1  C   UNL A   1      40.458  21.442  26.288  1.00  0.00     0.021 C 
ENDROOT
BRANCH   1   2
ATOM      2  C   UNL A   1      39.258  22.375  26.488  1.00  0.00     0.116 C 
BRANCH   2   3
ATOM      3  N   UNL A   1      38.318  22.411  25.380  1.00  0.00    -0.356 N 
ATOM      4  O   UNL A   1      38.047  20.135  25.335  1.00  0.00    -0.275 OA
ATOM      5  C   UNL A   1      37.682  21.250  24.974  1.00  0.00     0.225 C 
ATOM      6  H   UNL A   1      38.134  23.261  24.918  1.00  0.00     0.163 HD
BRANCH   5   7
ATOM      7  C   UNL A   1      36.446  21.441  24.116  1.00  0.00     0.161 C 
BRANCH   7   8
ATOM      8  C   UNL A   1      36.268  22.906  23.652  1.00  0.00     0.272 C 
BRANCH   8   9
ATOM      9  N   UNL A   1      35.031  23.607  24.068  1.00  0.00    -0.334 N 
ATOM     10  C   UNL A   1      33.989  22.650  24.487  1.00  0.00     0.262 C 
ATOM     11  C   UNL A   1      35.235  24.622  25.101  1.00  0.00     0.273 C 
ATOM     12  H   UNL A   1      34.716  24.108  23.237  1.00  0.00     0.348 HD
ATOM     13  C   UNL A   1      32.671  23.332  24.883  1.00  0.00     0.062 C 
ATOM     14  C   UNL A   1      33.965  25.399  25.443  1.00  0.00     0.111 C 
ATOM     15  C   UNL A   1      32.879  24.435  25.906  1.00  0.00     0.023 C 
BRANCH  14  16
ATOM     16  C   UNL A   1      33.444  26.460  24.475  1.00  0.00     0.117 A 
ATOM     17  N   UNL A   1      33.622  26.279  23.171  1.00  0.00    -0.241 NA
ATOM     18  N   UNL A   1      32.726  27.634  24.674  1.00  0.00    -0.328 N 
ATOM     19  C   UNL A   1      33.021  27.315  22.525  1.00  0.00     0.131 A 
ATOM     20  C   UNL A   1      32.445  28.161  23.429  1.00  0.00     0.108 A 
BRANCH  18  21
ATOM     21  C   UNL A   1      32.080  28.184  25.856  1.00  0.00     0.180 C 
BRANCH  21  22
ATOM     22  C   UNL A   1      32.881  29.222  26.574  1.00  0.00     0.071 A 
ATOM     23  C   UNL A   1      34.214  29.129  26.939  1.00  0.00     0.092 A 
ATOM     24  N   UNL A   1      32.324  30.473  26.811  1.00  0.00    -0.248 NA
ATOM     25  S   UNL A   1      34.748  30.591  27.658  1.00  0.00    -0.130 S 
ATOM     26  C   UNL A   1      33.193  31.258  27.405  1.00  0.00     0.175 A 
ENDBRANCH  21  22
ENDBRANCH  18  21
ENDBRANCH  14  16
ENDBRANCH   8   9
ENDBRANCH   7   8
ENDBRANCH   5   7
ENDBRANCH   2   3
ENDBRANCH   1   2
BRANCH   1  27
ATOM     27  C   UNL A   1      41.033  20.779  27.548  1.00  0.00     0.002 C 
BRANCH  27  28
ATOM     28  C   UNL A   1      41.786  19.451  27.367  1.00  0.00     0.002 C 
BRANCH  28  29
ATOM     29  C   UNL A   1      42.418  19.132  26.009  1.00  0.00     0.021 C 
BRANCH  29  30
ATOM     30  C   UNL A   1      43.918  18.895  26.043  1.00  0.00     0.116 C 
BRANCH  30  31
ATOM     31  N   UNL A   1      44.543  18.715  24.728  1.00  0.00    -0.352 N 
ATOM     32  C   UNL A   1      44.795  19.706  23.785  1.00  0.00     0.251 C 
ATOM     33  H   UNL A   1      44.812  17.799  24.490  1.00  0.00     0.163 HD
ATOM     34  O   UNL A   1      44.961  19.463  22.606  1.00  0.00    -0.269 OA
BRANCH  32  35
ATOM     35  C   UNL A   1      44.880  21.093  24.283  1.00  0.00     0.039 A 
ATOM     36  C   UNL A   1      44.018  22.104  23.853  1.00  0.00     0.014 A 
ATOM     37  C   UNL A   1      45.804  21.317  25.297  1.00  0.00     0.014 A 
ATOM     38  C   UNL A   1      44.023  23.317  24.541  1.00  0.00     0.010 A 
ATOM     39  C   UNL A   1      45.671  22.425  26.086  1.00  0.00     0.010 A 
ATOM     40  C   UNL A   1      44.832  23.457  25.682  1.00  0.00    -0.014 A 
BRANCH  40  41
ATOM     41  C   UNL A   1      44.734  24.619  26.560  1.00  0.00     0.031 A 
ATOM     42  C   UNL A   1      45.808  25.629  26.370  1.00  0.00     0.074 A 
ATOM     43  C   UNL A   1      43.636  24.874  27.307  1.00  0.00     0.049 A 
ATOM     44  N   UNL A   1      46.756  25.922  27.197  1.00  0.00    -0.248 NA
ATOM     45  C   UNL A   1      45.933  26.297  25.064  1.00  0.00     0.031 C 
ATOM     46  C   UNL A   1      42.372  24.122  27.355  1.00  0.00     0.029 A 
ATOM     47  N   UNL A   1      43.365  25.945  28.101  1.00  0.00    -0.354 N 
ATOM     48  C   UNL A   1      47.470  26.963  26.612  1.00  0.00     0.074 A 
ATOM     49  C   UNL A   1      47.042  27.020  25.238  1.00  0.00     0.031 C 
ATOM     50  C   UNL A   1      41.410  24.877  27.931  1.00  0.00     0.029 A 
ATOM     51  C   UNL A   1      42.027  26.077  28.459  1.00  0.00     0.049 A 
ATOM     52  H   UNL A   1      44.061  26.575  28.398  1.00  0.00     0.167 HD
ATOM     53  C   UNL A   1      48.150  27.861  27.379  1.00  0.00     0.031 A 
ATOM     54  C   UNL A   1      41.463  27.102  29.146  1.00  0.00     0.031 A 
ATOM     55  C   UNL A   1      48.270  27.399  28.740  1.00  0.00     0.049 A 
ATOM     56  C   UNL A   1      42.554  27.799  29.855  1.00  0.00     0.074 A 
ATOM     57  C   UNL A   1      48.850  26.313  29.362  1.00  0.00     0.029 A 
ATOM     58  N   UNL A   1      47.360  27.913  29.633  1.00  0.00    -0.354 N 
ATOM     59  N   UNL A   1      43.222  27.263  30.835  1.00  0.00    -0.248 NA
ATOM     60  C   UNL A   1      43.200  28.921  29.197  1.00  0.00     0.031 C 
ATOM     61  C   UNL A   1      47.944  25.960  30.406  1.00  0.00     0.029 A 
ATOM     62  C   UNL A   1      46.903  26.892  30.421  1.00  0.00     0.049 A 
ATOM     63  H   UNL A   1      47.085  28.856  29.695  1.00  0.00     0.167 HD
ATOM     64  C   UNL A   1      44.533  27.653  30.612  1.00  0.00     0.074 A 
ATOM     65  C   UNL A   1      44.438  28.773  29.677  1.00  0.00     0.031 C 
ATOM     66  C   UNL A   1      45.570  26.843  30.980  1.00  0.00     0.031 A 
BRANCH  53  67
ATOM     67  C   UNL A   1      48.289  29.329  27.040  1.00  0.00    -0.014 A 
ATOM     68  C   UNL A   1      49.552  29.933  27.197  1.00  0.00     0.009 A 
ATOM     69  C   UNL A   1      47.195  30.196  26.870  1.00  0.00     0.009 A 
ATOM     70  C   UNL A   1      49.693  31.324  27.276  1.00  0.00     0.001 A 
ATOM     71  C   UNL A   1      47.338  31.587  26.908  1.00  0.00     0.001 A 
ATOM     72  C   UNL A   1      48.583  32.150  27.144  1.00  0.00     0.000 A 
ENDBRANCH  53  67
BRANCH  54  73
ATOM     73  C   UNL A   1      40.098  27.663  29.093  1.00  0.00    -0.014 A 
ATOM     74  C   UNL A   1      39.293  27.693  30.244  1.00  0.00     0.009 A 
ATOM     75  C   UNL A   1      39.704  28.449  27.995  1.00  0.00     0.009 A 
ATOM     76  C   UNL A   1      38.167  28.523  30.315  1.00  0.00     0.001 A 
ATOM     77  C   UNL A   1      38.579  29.279  28.067  1.00  0.00     0.001 A 
ATOM     78  C   UNL A   1      37.822  29.331  29.234  1.00  0.00     0.000 A 
ENDBRANCH  54  73
BRANCH  66  79
ATOM     79  C   UNL A   1      45.252  25.664  31.868  1.00  0.00    -0.014 A 
ATOM     80  C   UNL A   1      45.402  25.678  33.268  1.00  0.00     0.009 A 
ATOM     81  C   UNL A   1      44.663  24.538  31.277  1.00  0.00     0.009 A 
ATOM     82  C   UNL A   1      45.006  24.582  34.043  1.00  0.00     0.001 A 
ATOM     83  C   UNL A   1      44.247  23.453  32.053  1.00  0.00     0.001 A 
ATOM     84  C   UNL A   1      44.426  23.471  33.434  1.00  0.00     0.000 A 
ENDBRANCH  66  79
ENDBRANCH  40  41
ENDBRANCH  32  35
ENDBRANCH  30  31
ENDBRANCH  29  30
ENDBRANCH  28  29
ENDBRANCH  27  28
ENDBRANCH   1  27
TORSDOF 18
ENDMDL
MODEL 2
REMARK VINA RESULT:     -10.4      5.373     11.007
REMARK SMILES O=C(CC[N@H+]1CCC[C@H](c2nccn2Cc2cscn2)C1)NCCCCCCNC(=O)c1ccc(-c2c3nc(c(-c4ccccc4)c4ccc([nH]4)c(-c4ccccc4)c4nc(c(-c5ccccc5)c5ccc2[nH]5)C=C4)C=C3)cc1
REMARK SMILES IDX 24 1 23 2 22 3 1 4 2 5 3 7 4 8 5 9 6 10 21 11 7 13 9 14 8 15
REMARK SMILES IDX 10 16 11 17 14 18 12 19 13 20 15 21 16 22 17 23 20 24 18 25
REMARK SMILES IDX 19 26 25 27 26 28 27 29 28 30 29 31 30 32 31 34 32 35 33 36
REMARK SMILES IDX 79 37 34 38 78 39 35 40 36 41 37 42 72 43 38 44 77 45 71 46
REMARK SMILES IDX 73 47 39 48 76 49 70 50 69 51 40 53 62 54 47 55 61 56 48 57
REMARK SMILES IDX 51 58 60 59 74 60 49 61 50 62 59 64 75 65 52 66 41 67 42 68
REMARK SMILES IDX 46 69 43 70 45 71 44 72 63 73 64 74 68 75 65 76 67 77 66 78
REMARK SMILES IDX 53 79 54 80 58 81 55 82 57 83 56 84
REMARK H PARENT 22 6 5 12 29 33 73 52 51 63
REMARK Flexibility Score: inf
ROOT
ATOM      1  C   UNL A   1      34.005  32.133  28.453  1.00  0.00     0.021 C 
ENDROOT
BRANCH   1   2
ATOM      2  C   UNL A   1      34.443  30.742  27.979  1.00  0.00     0.116 C 
BRANCH   2   3
ATOM      3  N   UNL A   1      34.106  30.431  26.599  1.00  0.00    -0.356 N 
ATOM      4  O   UNL A   1      32.658  28.748  27.172  1.00  0.00    -0.275 OA
ATOM      5  C   UNL A   1      33.111  29.509  26.322  1.00  0.00     0.225 C 
ATOM      6  H   UNL A   1      34.585  30.876  25.863  1.00  0.00     0.163 HD
BRANCH   5   7
ATOM      7  C   UNL A   1      32.550  29.548  24.913  1.00  0.00     0.161 C 
BRANCH   7   8
ATOM      8  C   UNL A   1      32.948  28.305  24.082  1.00  0.00     0.272 C 
BRANCH   8   9
ATOM      9  N   UNL A   1      32.152  27.071  24.277  1.00  0.00    -0.334 N 
ATOM     10  C   UNL A   1      30.715  27.322  24.063  1.00  0.00     0.262 C 
ATOM     11  C   UNL A   1      32.597  25.937  23.469  1.00  0.00     0.273 C 
ATOM     12  H   UNL A   1      32.309  26.805  25.249  1.00  0.00     0.348 HD
ATOM     13  C   UNL A   1      29.845  26.079  24.301  1.00  0.00     0.062 C 
ATOM     14  C   UNL A   1      31.827  24.649  23.758  1.00  0.00     0.111 C 
ATOM     15  C   UNL A   1      30.338  24.874  23.518  1.00  0.00     0.023 C 
BRANCH  14  16
ATOM     16  C   UNL A   1      32.110  23.872  25.042  1.00  0.00     0.117 A 
ATOM     17  N   UNL A   1      31.563  24.290  26.178  1.00  0.00    -0.241 NA
ATOM     18  N   UNL A   1      32.828  22.706  25.290  1.00  0.00    -0.328 N 
ATOM     19  C   UNL A   1      31.908  23.406  27.153  1.00  0.00     0.131 A 
ATOM     20  C   UNL A   1      32.679  22.407  26.630  1.00  0.00     0.108 A 
BRANCH  18  21
ATOM     21  C   UNL A   1      33.427  21.731  24.392  1.00  0.00     0.180 C 
BRANCH  21  22
ATOM     22  C   UNL A   1      34.915  21.633  24.487  1.00  0.00     0.071 A 
ATOM     23  C   UNL A   1      35.639  20.586  25.034  1.00  0.00     0.092 A 
ATOM     24  N   UNL A   1      35.706  22.596  23.870  1.00  0.00    -0.248 NA
ATOM     25  S   UNL A   1      37.323  20.852  24.846  1.00  0.00    -0.130 S 
ATOM     26  C   UNL A   1      36.979  22.312  24.023  1.00  0.00     0.175 A 
ENDBRANCH  21  22
ENDBRANCH  18  21
ENDBRANCH  14  16
ENDBRANCH   8   9
ENDBRANCH   7   8
ENDBRANCH   5   7
ENDBRANCH   2   3
ENDBRANCH   1   2
BRANCH   1  27
ATOM     27  C   UNL A   1      34.646  33.335  27.746  1.00  0.00     0.002 C 
BRANCH  27  28
ATOM     28  C   UNL A   1      35.166  34.480  28.630  1.00  0.00     0.002 C 
BRANCH  28  29
ATOM     29  C   UNL A   1      34.227  35.637  28.980  1.00  0.00     0.021 C 
BRANCH  29  30
ATOM     30  C   UNL A   1      32.945  35.229  29.686  1.00  0.00     0.116 C 
BRANCH  30  31
ATOM     31  N   UNL A   1      32.608  36.033  30.865  1.00  0.00    -0.352 N 
ATOM     32  C   UNL A   1      32.955  35.762  32.185  1.00  0.00     0.251 C 
ATOM     33  H   UNL A   1      32.081  36.850  30.706  1.00  0.00     0.163 HD
ATOM     34  O   UNL A   1      32.358  36.234  33.131  1.00  0.00    -0.269 OA
BRANCH  32  35
ATOM     35  C   UNL A   1      34.119  34.880  32.398  1.00  0.00     0.039 A 
ATOM     36  C   UNL A   1      34.086  33.509  32.133  1.00  0.00     0.014 A 
ATOM     37  C   UNL A   1      35.298  35.512  32.777  1.00  0.00     0.014 A 
ATOM     38  C   UNL A   1      35.288  32.802  32.146  1.00  0.00     0.010 A 
ATOM     39  C   UNL A   1      36.488  34.864  32.598  1.00  0.00     0.010 A 
ATOM     40  C   UNL A   1      36.493  33.497  32.346  1.00  0.00    -0.014 A 
BRANCH  40  41
ATOM     41  C   UNL A   1      37.793  32.857  32.171  1.00  0.00     0.031 A 
ATOM     42  C   UNL A   1      38.590  32.724  33.419  1.00  0.00     0.074 A 
ATOM     43  C   UNL A   1      38.141  32.221  31.028  1.00  0.00     0.049 A 
ATOM     44  N   UNL A   1      39.684  33.343  33.712  1.00  0.00    -0.248 NA
ATOM     45  C   UNL A   1      38.048  31.919  34.526  1.00  0.00     0.031 C 
ATOM     46  C   UNL A   1      37.327  32.006  29.822  1.00  0.00     0.029 A 
ATOM     47  N   UNL A   1      39.269  31.516  30.746  1.00  0.00    -0.354 N 
ATOM     48  C   UNL A   1      40.088  32.848  34.948  1.00  0.00     0.074 A 
ATOM     49  C   UNL A   1      38.960  32.127  35.479  1.00  0.00     0.031 C 
ATOM     50  C   UNL A   1      37.884  31.040  29.059  1.00  0.00     0.029 A 
ATOM     51  C   UNL A   1      39.178  30.704  29.618  1.00  0.00     0.049 A 
ATOM     52  H   UNL A   1      40.084  31.574  31.295  1.00  0.00     0.167 HD
ATOM     53  C   UNL A   1      41.405  32.844  35.303  1.00  0.00     0.031 A 
ATOM     54  C   UNL A   1      40.103  29.819  29.173  1.00  0.00     0.031 A 
ATOM     55  C   UNL A   1      42.186  33.666  34.412  1.00  0.00     0.049 A 
ATOM     56  C   UNL A   1      41.393  30.197  29.785  1.00  0.00     0.074 A 
ATOM     57  C   UNL A   1      42.204  35.002  34.068  1.00  0.00     0.029 A 
ATOM     58  N   UNL A   1      42.856  33.003  33.412  1.00  0.00    -0.354 N 
ATOM     59  N   UNL A   1      42.026  31.295  29.488  1.00  0.00    -0.248 NA
ATOM     60  C   UNL A   1      41.768  29.578  31.044  1.00  0.00     0.031 C 
ATOM     61  C   UNL A   1      42.480  35.018  32.668  1.00  0.00     0.029 A 
ATOM     62  C   UNL A   1      42.697  33.704  32.247  1.00  0.00     0.049 A 
ATOM     63  H   UNL A   1      43.363  32.165  33.515  1.00  0.00     0.167 HD
ATOM     64  C   UNL A   1      42.514  31.750  30.704  1.00  0.00     0.074 A 
ATOM     65  C   UNL A   1      42.441  30.592  31.595  1.00  0.00     0.031 C 
ATOM     66  C   UNL A   1      42.651  33.088  30.938  1.00  0.00     0.031 A 
BRANCH  53  67
ATOM     67  C   UNL A   1      42.054  31.759  36.132  1.00  0.00    -0.014 A 
ATOM     68  C   UNL A   1      42.756  32.136  37.293  1.00  0.00     0.009 A 
ATOM     69  C   UNL A   1      42.262  30.445  35.671  1.00  0.00     0.009 A 
ATOM     70  C   UNL A   1      43.685  31.279  37.897  1.00  0.00     0.001 A 
ATOM     71  C   UNL A   1      43.158  29.573  36.296  1.00  0.00     0.001 A 
ATOM     72  C   UNL A   1      43.894  30.003  37.391  1.00  0.00     0.000 A 
ENDBRANCH  53  67
BRANCH  54  73
ATOM     73  C   UNL A   1      39.948  28.556  28.425  1.00  0.00    -0.014 A 
ATOM     74  C   UNL A   1      40.565  28.385  27.175  1.00  0.00     0.009 A 
ATOM     75  C   UNL A   1      39.456  27.410  29.077  1.00  0.00     0.009 A 
ATOM     76  C   UNL A   1      40.736  27.108  26.623  1.00  0.00     0.001 A 
ATOM     77  C   UNL A   1      39.628  26.135  28.525  1.00  0.00     0.001 A 
ATOM     78  C   UNL A   1      40.285  25.982  27.307  1.00  0.00     0.000 A 
ENDBRANCH  54  73
BRANCH  66  79
ATOM     79  C   UNL A   1      42.521  34.020  29.757  1.00  0.00    -0.014 A 
ATOM     80  C   UNL A   1      41.334  34.700  29.427  1.00  0.00     0.009 A 
ATOM     81  C   UNL A   1      43.678  34.314  29.023  1.00  0.00     0.009 A 
ATOM     82  C   UNL A   1      41.302  35.618  28.371  1.00  0.00     0.001 A 
ATOM     83  C   UNL A   1      43.653  35.246  27.983  1.00  0.00     0.001 A 
ATOM     84  C   UNL A   1      42.465  35.892  27.652  1.00  0.00     0.000 A 
ENDBRANCH  66  79
ENDBRANCH  40  41
ENDBRANCH  32  35
ENDBRANCH  30  31
ENDBRANCH  29  30
ENDBRANCH  28  29
ENDBRANCH  27  28
ENDBRANCH   1  27
TORSDOF 18
ENDMDL
MODEL 3
REMARK VINA RESULT:     -10.4      1.687      2.407
REMARK SMILES O=C(CC[N@H+]1CCC[C@H](c2nccn2Cc2cscn2)C1)NCCCCCCNC(=O)c1ccc(-c2c3nc(c(-c4ccccc4)c4ccc([nH]4)c(-c4ccccc4)c4nc(c(-c5ccccc5)c5ccc2[nH]5)C=C4)C=C3)cc1
REMARK SMILES IDX 24 1 23 2 22 3 1 4 2 5 3 7 4 8 5 9 6 10 21 11 7 13 9 14 8 15
REMARK SMILES IDX 10 16 11 17 14 18 12 19 13 20 15 21 16 22 17 23 20 24 18 25
REMARK SMILES IDX 19 26 25 27 26 28 27 29 28 30 29 31 30 32 31 34 32 35 33 36
REMARK SMILES IDX 79 37 34 38 78 39 35 40 36 41 37 42 72 43 38 44 77 45 71 46
REMARK SMILES IDX 73 47 39 48 76 49 70 50 69 51 40 53 62 54 47 55 61 56 48 57
REMARK SMILES IDX 51 58 60 59 74 60 49 61 50 62 59 64 75 65 52 66 41 67 42 68
REMARK SMILES IDX 46 69 43 70 45 71 44 72 63 73 64 74 68 75 65 76 67 77 66 78
REMARK SMILES IDX 53 79 54 80 58 81 55 82 57 83 56 84
REMARK H PARENT 22 6 5 12 29 33 73 52 51 63
REMARK Flexibility Score: inf
ROOT
ATOM      1  C   UNL A   1      40.620  21.111  27.484  1.00  0.00     0.021 C 
ENDROOT
BRANCH   1   2
ATOM      2  C   UNL A   1      40.233  22.252  26.537  1.00  0.00     0.116 C 
BRANCH   2   3
ATOM      3  N   UNL A   1      39.001  22.042  25.794  1.00  0.00    -0.356 N 
ATOM      4  O   UNL A   1      38.057  24.006  26.508  1.00  0.00    -0.275 OA
ATOM      5  C   UNL A   1      38.041  23.040  25.751  1.00  0.00     0.225 C 
ATOM      6  H   UNL A   1      38.849  21.192  25.323  1.00  0.00     0.163 HD
BRANCH   5   7
ATOM      7  C   UNL A   1      37.006  22.911  24.651  1.00  0.00     0.161 C 
BRANCH   7   8
ATOM      8  C   UNL A   1      36.213  21.585  24.735  1.00  0.00     0.272 C 
BRANCH   8   9
ATOM      9  N   UNL A   1      34.736  21.668  24.669  1.00  0.00    -0.334 N 
ATOM     10  C   UNL A   1      34.123  20.327  24.697  1.00  0.00     0.262 C 
ATOM     11  C   UNL A   1      34.137  22.523  25.694  1.00  0.00     0.273 C 
ATOM     12  H   UNL A   1      34.534  22.115  23.775  1.00  0.00     0.348 HD
ATOM     13  C   UNL A   1      32.591  20.364  24.584  1.00  0.00     0.062 C 
ATOM     14  C   UNL A   1      32.624  22.674  25.547  1.00  0.00     0.111 C 
ATOM     15  C   UNL A   1      31.962  21.301  25.600  1.00  0.00     0.023 C 
BRANCH  14  16
ATOM     16  C   UNL A   1      32.057  23.564  24.444  1.00  0.00     0.117 A 
ATOM     17  N   UNL A   1      30.790  23.402  24.077  1.00  0.00    -0.241 NA
ATOM     18  N   UNL A   1      32.603  24.621  23.722  1.00  0.00    -0.328 N 
ATOM     19  C   UNL A   1      30.508  24.344  23.136  1.00  0.00     0.131 A 
ATOM     20  C   UNL A   1      31.607  25.122  22.907  1.00  0.00     0.108 A 
BRANCH  18  21
ATOM     21  C   UNL A   1      33.851  25.352  23.875  1.00  0.00     0.180 C 
BRANCH  21  22
ATOM     22  C   UNL A   1      33.747  26.591  24.704  1.00  0.00     0.071 A 
ATOM     23  C   UNL A   1      33.732  26.658  26.088  1.00  0.00     0.092 A 
ATOM     24  N   UNL A   1      33.793  27.835  24.086  1.00  0.00    -0.248 NA
ATOM     25  S   UNL A   1      33.695  28.290  26.613  1.00  0.00    -0.130 S 
ATOM     26  C   UNL A   1      33.737  28.795  24.979  1.00  0.00     0.175 A 
ENDBRANCH  21  22
ENDBRANCH  18  21
ENDBRANCH  14  16
ENDBRANCH   8   9
ENDBRANCH   7   8
ENDBRANCH   5   7
ENDBRANCH   2   3
ENDBRANCH   1   2
BRANCH   1  27
ATOM     27  C   UNL A   1      41.921  20.362  27.163  1.00  0.00     0.002 C 
BRANCH  27  28
ATOM     28  C   UNL A   1      41.937  19.480  25.904  1.00  0.00     0.002 C 
BRANCH  28  29
ATOM     29  C   UNL A   1      43.143  18.573  25.644  1.00  0.00     0.021 C 
BRANCH  29  30
ATOM     30  C   UNL A   1      44.493  19.266  25.728  1.00  0.00     0.116 C 
BRANCH  30  31
ATOM     31  N   UNL A   1      44.949  19.878  24.476  1.00  0.00    -0.352 N 
ATOM     32  C   UNL A   1      44.709  21.181  24.051  1.00  0.00     0.251 C 
ATOM     33  H   UNL A   1      45.481  19.308  23.874  1.00  0.00     0.163 HD
ATOM     34  O   UNL A   1      44.781  21.515  22.885  1.00  0.00    -0.269 OA
BRANCH  32  35
ATOM     35  C   UNL A   1      44.381  22.171  25.095  1.00  0.00     0.039 A 
ATOM     36  C   UNL A   1      45.222  22.435  26.178  1.00  0.00     0.014 A 
ATOM     37  C   UNL A   1      43.226  22.915  24.883  1.00  0.00     0.014 A 
ATOM     38  C   UNL A   1      44.942  23.538  26.983  1.00  0.00     0.010 A 
ATOM     39  C   UNL A   1      43.065  24.099  25.548  1.00  0.00     0.010 A 
ATOM     40  C   UNL A   1      43.876  24.387  26.639  1.00  0.00    -0.014 A 
BRANCH  40  41
ATOM     41  C   UNL A   1      43.655  25.662  27.315  1.00  0.00     0.031 A 
ATOM     42  C   UNL A   1      44.603  26.740  26.928  1.00  0.00     0.074 A 
ATOM     43  C   UNL A   1      42.543  25.914  28.043  1.00  0.00     0.049 A 
ATOM     44  N   UNL A   1      45.519  27.272  27.665  1.00  0.00    -0.248 NA
ATOM     45  C   UNL A   1      44.633  27.188  25.526  1.00  0.00     0.031 C 
ATOM     46  C   UNL A   1      41.376  25.044  28.254  1.00  0.00     0.029 A 
ATOM     47  N   UNL A   1      42.160  27.066  28.657  1.00  0.00    -0.354 N 
ATOM     48  C   UNL A   1      46.102  28.273  26.894  1.00  0.00     0.074 A 
ATOM     49  C   UNL A   1      45.654  28.051  25.544  1.00  0.00     0.031 C 
ATOM     50  C   UNL A   1      40.340  25.772  28.727  1.00  0.00     0.029 A 
ATOM     51  C   UNL A   1      40.819  27.106  29.030  1.00  0.00     0.049 A 
ATOM     52  H   UNL A   1      42.781  27.811  28.824  1.00  0.00     0.167 HD
ATOM     53  C   UNL A   1      46.682  29.358  27.481  1.00  0.00     0.031 A 
ATOM     54  C   UNL A   1      40.149  28.161  29.555  1.00  0.00     0.031 A 
ATOM     55  C   UNL A   1      46.871  29.147  28.895  1.00  0.00     0.049 A 
ATOM     56  C   UNL A   1      41.161  29.085  30.105  1.00  0.00     0.074 A 
ATOM     57  C   UNL A   1      47.580  28.252  29.670  1.00  0.00     0.029 A 
ATOM     58  N   UNL A   1      45.919  29.698  29.718  1.00  0.00    -0.354 N 
ATOM     59  N   UNL A   1      41.897  28.800  31.139  1.00  0.00    -0.248 NA
ATOM     60  C   UNL A   1      41.665  30.146  29.251  1.00  0.00     0.031 C 
ATOM     61  C   UNL A   1      46.733  27.980  30.785  1.00  0.00     0.029 A 
ATOM     62  C   UNL A   1      45.592  28.779  30.678  1.00  0.00     0.049 A 
ATOM     63  H   UNL A   1      45.536  30.601  29.633  1.00  0.00     0.167 HD
ATOM     64  C   UNL A   1      43.152  29.291  30.814  1.00  0.00     0.074 A 
ATOM     65  C   UNL A   1      42.917  30.221  29.710  1.00  0.00     0.031 C 
ATOM     66  C   UNL A   1      44.280  28.675  31.278  1.00  0.00     0.031 A 
BRANCH  53  67
ATOM     67  C   UNL A   1      46.647  30.754  26.900  1.00  0.00    -0.014 A 
ATOM     68  C   UNL A   1      47.823  31.528  26.951  1.00  0.00     0.009 A 
ATOM     69  C   UNL A   1      45.458  31.438  26.587  1.00  0.00     0.009 A 
ATOM     70  C   UNL A   1      47.790  32.919  26.796  1.00  0.00     0.001 A 
ATOM     71  C   UNL A   1      45.428  32.822  26.391  1.00  0.00     0.001 A 
ATOM     72  C   UNL A   1      46.590  33.567  26.528  1.00  0.00     0.000 A 
ENDBRANCH  53  67
BRANCH  54  73
ATOM     73  C   UNL A   1      38.728  28.549  29.453  1.00  0.00    -0.014 A 
ATOM     74  C   UNL A   1      37.958  28.754  30.609  1.00  0.00     0.009 A 
ATOM     75  C   UNL A   1      38.215  29.019  28.230  1.00  0.00     0.009 A 
ATOM     76  C   UNL A   1      36.747  29.456  30.555  1.00  0.00     0.001 A 
ATOM     77  C   UNL A   1      37.005  29.722  28.176  1.00  0.00     0.001 A 
ATOM     78  C   UNL A   1      36.280  29.957  29.342  1.00  0.00     0.000 A 
ENDBRANCH  54  73
BRANCH  66  79
ATOM     79  C   UNL A   1      44.111  27.634  32.359  1.00  0.00    -0.014 A 
ATOM     80  C   UNL A   1      44.104  26.248  32.113  1.00  0.00     0.009 A 
ATOM     81  C   UNL A   1      44.079  28.069  33.691  1.00  0.00     0.009 A 
ATOM     82  C   UNL A   1      44.031  25.332  33.169  1.00  0.00     0.001 A 
ATOM     83  C   UNL A   1      44.029  27.156  34.745  1.00  0.00     0.001 A 
ATOM     84  C   UNL A   1      43.997  25.788  34.485  1.00  0.00     0.000 A 
ENDBRANCH  66  79
ENDBRANCH  40  41
ENDBRANCH  32  35
ENDBRANCH  30  31
ENDBRANCH  29  30
ENDBRANCH  28  29
ENDBRANCH  27  28
ENDBRANCH   1  27
TORSDOF 18
ENDMDL
