MODEL 1
REMARK VINA RESULT:     -12.4      0.000      0.000
REMARK SMILES Cc1cc(C)c2c(CCCC(=O)NCCCCCCNC(=O)c3ccc(-c4c5nc(c(-c6ccccc6)c6ccc([nH]6)c(-c6ccccc6)c6nc(c(-c7ccccc7)c7ccc4[nH]7)C=C6)C=C5)cc3)c(-c3ccccn3)[nH]c2c1
REMARK SMILES IDX 15 1 14 2 13 3 11 4 12 5 10 7 9 8 8 9 7 10 1 11 2 12 3 13
REMARK SMILES IDX 80 14 4 15 79 16 5 17 6 18 78 19 71 20 72 22 73 23 77 24
REMARK SMILES IDX 74 25 76 26 75 27 16 28 17 29 18 30 19 31 20 32 21 33 22 35
REMARK SMILES IDX 23 36 24 37 70 38 25 39 69 40 26 41 27 42 28 43 63 44 29 45
REMARK SMILES IDX 68 46 62 47 64 48 30 49 67 50 61 51 60 52 31 54 53 55 38 56
REMARK SMILES IDX 52 57 39 58 42 59 51 60 65 61 40 62 41 63 50 65 66 66 43 67
REMARK SMILES IDX 32 68 33 69 37 70 34 71 36 72 35 73 54 74 55 75 59 76 56 77
REMARK SMILES IDX 58 78 57 79 44 80 45 81 49 82 46 83 48 84 47 85
REMARK H PARENT 13 6 78 21 20 34 64 53 42 64
REMARK Flexibility Score: inf
ROOT
ATOM      1  C   UNL A   1      30.398  26.347  25.014  1.00  0.00     0.021 C 
ENDROOT
BRANCH   1   2
ATOM      2  C   UNL A   1      31.026  25.663  26.223  1.00  0.00     0.116 C 
BRANCH   2   3
ATOM      3  N   UNL A   1      30.177  24.652  26.795  1.00  0.00    -0.356 N 
ATOM      4  C   UNL A   1      30.284  23.303  26.833  1.00  0.00     0.220 C 
ATOM      5  O   UNL A   1      29.453  22.716  27.537  1.00  0.00    -0.275 OA
ATOM      6  H   UNL A   1      29.373  25.004  27.240  1.00  0.00     0.163 HD
BRANCH   4   7
ATOM      7  C   UNL A   1      31.405  22.505  26.189  1.00  0.00     0.100 C 
BRANCH   7   8
ATOM      8  C   UNL A   1      31.435  22.069  24.741  1.00  0.00     0.015 C 
BRANCH   8   9
ATOM      9  C   UNL A   1      32.720  21.925  23.942  1.00  0.00     0.039 C 
BRANCH   9  10
ATOM     10  C   UNL A   1      34.030  21.308  24.418  1.00  0.00    -0.013 A 
ATOM     11  C   UNL A   1      38.839  23.804  26.395  1.00  0.00     0.044 C 
ATOM     12  C   UNL A   1      37.541  23.233  25.909  1.00  0.00    -0.049 A 
ATOM     13  C   UNL A   1      36.480  24.081  25.592  1.00  0.00     0.007 A 
ATOM     14  C   UNL A   1      37.369  21.851  25.815  1.00  0.00     0.030 A 
ATOM     15  C   UNL A   1      35.239  23.595  25.123  1.00  0.00    -0.041 A 
ATOM     16  C   UNL A   1      36.156  21.370  25.311  1.00  0.00     0.047 A 
ATOM     17  C   UNL A   1      34.161  24.621  24.867  1.00  0.00     0.045 C 
ATOM     18  C   UNL A   1      35.096  22.185  24.926  1.00  0.00     0.006 A 
ATOM     19  N   UNL A   1      35.765  20.076  25.110  1.00  0.00    -0.353 N 
ATOM     20  C   UNL A   1      34.468  19.992  24.660  1.00  0.00     0.068 A 
ATOM     21  H   UNL A   1      36.344  19.295  25.268  1.00  0.00     0.167 HD
BRANCH  20  22
ATOM     22  C   UNL A   1      33.859  18.657  24.663  1.00  0.00     0.087 A 
ATOM     23  C   UNL A   1      34.241  17.699  23.722  1.00  0.00     0.030 A 
ATOM     24  N   UNL A   1      32.931  18.415  25.607  1.00  0.00    -0.255 NA
ATOM     25  C   UNL A   1      33.787  16.389  23.867  1.00  0.00     0.004 A 
ATOM     26  C   UNL A   1      32.512  17.127  25.731  1.00  0.00     0.112 A 
ATOM     27  C   UNL A   1      32.935  16.086  24.919  1.00  0.00     0.020 A 
ENDBRANCH  20  22
ENDBRANCH   9  10
ENDBRANCH   8   9
ENDBRANCH   7   8
ENDBRANCH   4   7
ENDBRANCH   2   3
ENDBRANCH   1   2
BRANCH   1  28
ATOM     28  C   UNL A   1      31.082  27.673  24.674  1.00  0.00     0.002 C 
BRANCH  28  29
ATOM     29  C   UNL A   1      32.324  28.007  25.523  1.00  0.00     0.002 C 
BRANCH  29  30
ATOM     30  C   UNL A   1      32.715  29.489  25.615  1.00  0.00     0.021 C 
BRANCH  30  31
ATOM     31  C   UNL A   1      33.807  29.753  26.636  1.00  0.00     0.116 C 
BRANCH  31  32
ATOM     32  N   UNL A   1      33.926  31.175  26.974  1.00  0.00    -0.352 N 
ATOM     33  C   UNL A   1      34.814  31.777  27.849  1.00  0.00     0.251 C 
ATOM     34  H   UNL A   1      33.294  31.778  26.522  1.00  0.00     0.163 HD
ATOM     35  O   UNL A   1      34.642  32.904  28.274  1.00  0.00    -0.269 OA
BRANCH  33  36
ATOM     36  C   UNL A   1      36.007  31.005  28.224  1.00  0.00     0.039 A 
ATOM     37  C   UNL A   1      36.256  29.720  27.737  1.00  0.00     0.014 A 
ATOM     38  C   UNL A   1      36.921  31.663  29.036  1.00  0.00     0.014 A 
ATOM     39  C   UNL A   1      37.479  29.126  28.037  1.00  0.00     0.010 A 
ATOM     40  C   UNL A   1      38.191  31.184  29.121  1.00  0.00     0.010 A 
ATOM     41  C   UNL A   1      38.441  29.875  28.730  1.00  0.00    -0.014 A 
BRANCH  41  42
ATOM     42  C   UNL A   1      39.759  29.354  29.048  1.00  0.00     0.031 A 
ATOM     43  C   UNL A   1      39.979  29.005  30.477  1.00  0.00     0.074 A 
ATOM     44  C   UNL A   1      40.598  28.969  28.058  1.00  0.00     0.049 A 
ATOM     45  N   UNL A   1      40.876  29.481  31.274  1.00  0.00    -0.248 NA
ATOM     46  C   UNL A   1      39.030  28.087  31.132  1.00  0.00     0.031 C 
ATOM     47  C   UNL A   1      40.363  28.951  26.603  1.00  0.00     0.029 A 
ATOM     48  N   UNL A   1      41.798  28.353  28.157  1.00  0.00    -0.354 N 
ATOM     49  C   UNL A   1      40.718  28.814  32.485  1.00  0.00     0.074 A 
ATOM     50  C   UNL A   1      39.485  28.073  32.386  1.00  0.00     0.031 C 
ATOM     51  C   UNL A   1      41.238  28.109  26.012  1.00  0.00     0.029 A 
ATOM     52  C   UNL A   1      42.209  27.694  27.003  1.00  0.00     0.049 A 
ATOM     53  H   UNL A   1      42.338  28.368  28.981  1.00  0.00     0.167 HD
ATOM     54  C   UNL A   1      41.717  28.754  33.408  1.00  0.00     0.031 A 
ATOM     55  C   UNL A   1      43.253  26.835  26.898  1.00  0.00     0.031 A 
ATOM     56  C   UNL A   1      42.767  29.695  33.123  1.00  0.00     0.049 A 
ATOM     57  C   UNL A   1      44.127  27.075  28.071  1.00  0.00     0.074 A 
ATOM     58  C   UNL A   1      42.838  31.072  33.052  1.00  0.00     0.029 A 
ATOM     59  N   UNL A   1      43.861  29.226  32.432  1.00  0.00    -0.354 N 
ATOM     60  N   UNL A   1      44.764  28.195  28.266  1.00  0.00    -0.248 NA
ATOM     61  C   UNL A   1      43.892  26.271  29.261  1.00  0.00     0.031 C 
ATOM     62  C   UNL A   1      43.656  31.333  31.913  1.00  0.00     0.029 A 
ATOM     63  C   UNL A   1      44.103  30.109  31.410  1.00  0.00     0.049 A 
ATOM     64  H   UNL A   1      44.373  28.410  32.634  1.00  0.00     0.167 HD
ATOM     65  C   UNL A   1      44.623  28.450  29.623  1.00  0.00     0.074 A 
ATOM     66  C   UNL A   1      44.149  27.189  30.198  1.00  0.00     0.031 C 
ATOM     67  C   UNL A   1      44.612  29.727  30.110  1.00  0.00     0.031 A 
BRANCH  54  68
ATOM     68  C   UNL A   1      41.918  27.602  34.351  1.00  0.00    -0.014 A 
ATOM     69  C   UNL A   1      41.646  27.778  35.718  1.00  0.00     0.009 A 
ATOM     70  C   UNL A   1      42.619  26.438  33.982  1.00  0.00     0.009 A 
ATOM     71  C   UNL A   1      42.097  26.855  36.670  1.00  0.00     0.001 A 
ATOM     72  C   UNL A   1      43.037  25.497  34.926  1.00  0.00     0.001 A 
ATOM     73  C   UNL A   1      42.795  25.718  36.274  1.00  0.00     0.000 A 
ENDBRANCH  54  68
BRANCH  55  74
ATOM     74  C   UNL A   1      43.348  25.606  26.079  1.00  0.00    -0.014 A 
ATOM     75  C   UNL A   1      44.497  25.339  25.318  1.00  0.00     0.009 A 
ATOM     76  C   UNL A   1      42.434  24.552  26.276  1.00  0.00     0.009 A 
ATOM     77  C   UNL A   1      44.746  24.054  24.814  1.00  0.00     0.001 A 
ATOM     78  C   UNL A   1      42.684  23.270  25.774  1.00  0.00     0.001 A 
ATOM     79  C   UNL A   1      43.848  23.016  25.056  1.00  0.00     0.000 A 
ENDBRANCH  55  74
BRANCH  67  80
ATOM     80  C   UNL A   1      44.917  30.856  29.150  1.00  0.00    -0.014 A 
ATOM     81  C   UNL A   1      43.967  31.394  28.262  1.00  0.00     0.009 A 
ATOM     82  C   UNL A   1      46.149  31.512  29.271  1.00  0.00     0.009 A 
ATOM     83  C   UNL A   1      44.253  32.536  27.502  1.00  0.00     0.001 A 
ATOM     84  C   UNL A   1      46.429  32.662  28.529  1.00  0.00     0.001 A 
ATOM     85  C   UNL A   1      45.484  33.172  27.642  1.00  0.00     0.000 A 
ENDBRANCH  67  80
ENDBRANCH  41  42
ENDBRANCH  33  36
ENDBRANCH  31  32
ENDBRANCH  30  31
ENDBRANCH  29  30
ENDBRANCH  28  29
ENDBRANCH   1  28
TORSDOF 17
ENDMDL
MODEL 2
REMARK VINA RESULT:     -12.3      1.631      2.269
REMARK SMILES Cc1cc(C)c2c(CCCC(=O)NCCCCCCNC(=O)c3ccc(-c4c5nc(c(-c6ccccc6)c6ccc([nH]6)c(-c6ccccc6)c6nc(c(-c7ccccc7)c7ccc4[nH]7)C=C6)C=C5)cc3)c(-c3ccccn3)[nH]c2c1
REMARK SMILES IDX 15 1 14 2 13 3 11 4 12 5 10 7 9 8 8 9 7 10 1 11 2 12 3 13
REMARK SMILES IDX 80 14 4 15 79 16 5 17 6 18 78 19 71 20 72 22 73 23 77 24
REMARK SMILES IDX 74 25 76 26 75 27 16 28 17 29 18 30 19 31 20 32 21 33 22 35
REMARK SMILES IDX 23 36 24 37 70 38 25 39 69 40 26 41 27 42 28 43 63 44 29 45
REMARK SMILES IDX 68 46 62 47 64 48 30 49 67 50 61 51 60 52 31 54 53 55 38 56
REMARK SMILES IDX 52 57 39 58 42 59 51 60 65 61 40 62 41 63 50 65 66 66 43 67
REMARK SMILES IDX 32 68 33 69 37 70 34 71 36 72 35 73 54 74 55 75 59 76 56 77
REMARK SMILES IDX 58 78 57 79 44 80 45 81 49 82 46 83 48 84 47 85
REMARK H PARENT 13 6 78 21 20 34 64 53 42 64
REMARK Flexibility Score: inf
ROOT
ATOM      1  C   UNL A   1      31.350  26.996  26.596  1.00  0.00     0.021 C 
ENDROOT
BRANCH   1   2
ATOM      2  C   UNL A   1      30.990  25.745  25.804  1.00  0.00     0.116 C 
BRANCH   2   3
ATOM      3  N   UNL A   1      30.257  24.783  26.584  1.00  0.00    -0.356 N 
ATOM      4  C   UNL A   1      30.434  23.453  26.769  1.00  0.00     0.220 C 
ATOM      5  O   UNL A   1      29.712  22.929  27.627  1.00  0.00    -0.275 OA
ATOM      6  H   UNL A   1      29.490  25.159  27.071  1.00  0.00     0.163 HD
BRANCH   4   7
ATOM      7  C   UNL A   1      31.517  22.622  26.103  1.00  0.00     0.100 C 
BRANCH   7   8
ATOM      8  C   UNL A   1      31.446  22.080  24.693  1.00  0.00     0.015 C 
BRANCH   8   9
ATOM      9  C   UNL A   1      32.678  21.786  23.853  1.00  0.00     0.039 C 
BRANCH   9  10
ATOM     10  C   UNL A   1      34.009  21.228  24.343  1.00  0.00    -0.013 A 
ATOM     11  C   UNL A   1      38.739  23.944  26.220  1.00  0.00     0.044 C 
ATOM     12  C   UNL A   1      37.459  23.315  25.757  1.00  0.00    -0.049 A 
ATOM     13  C   UNL A   1      36.369  24.117  25.417  1.00  0.00     0.007 A 
ATOM     14  C   UNL A   1      37.333  21.926  25.709  1.00  0.00     0.030 A 
ATOM     15  C   UNL A   1      35.143  23.575  24.969  1.00  0.00    -0.041 A 
ATOM     16  C   UNL A   1      36.135  21.389  25.225  1.00  0.00     0.047 A 
ATOM     17  C   UNL A   1      34.032  24.556  24.685  1.00  0.00     0.045 C 
ATOM     18  C   UNL A   1      35.047  22.156  24.818  1.00  0.00     0.006 A 
ATOM     19  N   UNL A   1      35.787  20.077  25.067  1.00  0.00    -0.353 N 
ATOM     20  C   UNL A   1      34.491  19.935  24.626  1.00  0.00     0.068 A 
ATOM     21  H   UNL A   1      36.392  19.322  25.248  1.00  0.00     0.167 HD
BRANCH  20  22
ATOM     22  C   UNL A   1      33.928  18.582  24.673  1.00  0.00     0.087 A 
ATOM     23  C   UNL A   1      34.724  17.469  24.396  1.00  0.00     0.030 A 
ATOM     24  N   UNL A   1      32.625  18.478  24.995  1.00  0.00    -0.255 NA
ATOM     25  C   UNL A   1      34.212  16.195  24.633  1.00  0.00     0.004 A 
ATOM     26  C   UNL A   1      32.155  17.224  25.229  1.00  0.00     0.112 A 
ATOM     27  C   UNL A   1      32.911  16.069  25.098  1.00  0.00     0.020 A 
ENDBRANCH  20  22
ENDBRANCH   9  10
ENDBRANCH   8   9
ENDBRANCH   7   8
ENDBRANCH   4   7
ENDBRANCH   2   3
ENDBRANCH   1   2
BRANCH   1  28
ATOM     28  C   UNL A   1      32.543  27.743  25.995  1.00  0.00     0.002 C 
BRANCH  28  29
ATOM     29  C   UNL A   1      33.569  28.270  27.016  1.00  0.00     0.002 C 
BRANCH  29  30
ATOM     30  C   UNL A   1      33.835  29.782  27.007  1.00  0.00     0.021 C 
BRANCH  30  31
ATOM     31  C   UNL A   1      35.195  30.151  27.570  1.00  0.00     0.116 C 
BRANCH  31  32
ATOM     32  N   UNL A   1      35.104  31.120  28.667  1.00  0.00    -0.352 N 
ATOM     33  C   UNL A   1      35.915  31.229  29.784  1.00  0.00     0.251 C 
ATOM     34  H   UNL A   1      34.373  31.775  28.602  1.00  0.00     0.163 HD
ATOM     35  O   UNL A   1      35.585  31.868  30.765  1.00  0.00    -0.269 OA
BRANCH  33  36
ATOM     36  C   UNL A   1      37.223  30.561  29.726  1.00  0.00     0.039 A 
ATOM     37  C   UNL A   1      38.421  31.265  29.579  1.00  0.00     0.014 A 
ATOM     38  C   UNL A   1      37.207  29.185  29.908  1.00  0.00     0.014 A 
ATOM     39  C   UNL A   1      39.617  30.559  29.676  1.00  0.00     0.010 A 
ATOM     40  C   UNL A   1      38.364  28.550  30.239  1.00  0.00     0.010 A 
ATOM     41  C   UNL A   1      39.572  29.198  30.011  1.00  0.00    -0.014 A 
BRANCH  41  42
ATOM     42  C   UNL A   1      40.769  28.391  30.177  1.00  0.00     0.031 A 
ATOM     43  C   UNL A   1      41.276  28.282  31.571  1.00  0.00     0.074 A 
ATOM     44  C   UNL A   1      41.199  27.594  29.171  1.00  0.00     0.049 A 
ATOM     45  N   UNL A   1      42.438  28.624  32.014  1.00  0.00    -0.248 NA
ATOM     46  C   UNL A   1      40.350  27.824  32.623  1.00  0.00     0.031 C 
ATOM     47  C   UNL A   1      40.586  27.359  27.852  1.00  0.00     0.029 A 
ATOM     48  N   UNL A   1      42.205  26.689  29.180  1.00  0.00    -0.354 N 
ATOM     49  C   UNL A   1      42.459  28.284  33.364  1.00  0.00     0.074 A 
ATOM     50  C   UNL A   1      41.108  27.926  33.716  1.00  0.00     0.031 C 
ATOM     51  C   UNL A   1      41.050  26.200  27.335  1.00  0.00     0.029 A 
ATOM     52  C   UNL A   1      42.128  25.726  28.179  1.00  0.00     0.049 A 
ATOM     53  H   UNL A   1      42.934  26.709  29.843  1.00  0.00     0.167 HD
ATOM     54  C   UNL A   1      43.627  28.121  34.045  1.00  0.00     0.031 A 
ATOM     55  C   UNL A   1      42.876  24.599  28.090  1.00  0.00     0.031 A 
ATOM     56  C   UNL A   1      44.751  28.642  33.315  1.00  0.00     0.049 A 
ATOM     57  C   UNL A   1      44.063  24.802  28.954  1.00  0.00     0.074 A 
ATOM     58  C   UNL A   1      45.118  29.898  32.874  1.00  0.00     0.029 A 
ATOM     59  N   UNL A   1      45.480  27.751  32.562  1.00  0.00    -0.354 N 
ATOM     60  N   UNL A   1      44.971  25.706  28.716  1.00  0.00    -0.248 NA
ATOM     61  C   UNL A   1      43.975  24.350  30.335  1.00  0.00     0.031 C 
ATOM     62  C   UNL A   1      45.638  29.683  31.564  1.00  0.00     0.029 A 
ATOM     63  C   UNL A   1      45.638  28.308  31.317  1.00  0.00     0.049 A 
ATOM     64  H   UNL A   1      45.823  26.878  32.860  1.00  0.00     0.167 HD
ATOM     65  C   UNL A   1      45.261  26.253  29.959  1.00  0.00     0.074 A 
ATOM     66  C   UNL A   1      44.679  25.321  30.927  1.00  0.00     0.031 C 
ATOM     67  C   UNL A   1      45.677  27.548  30.086  1.00  0.00     0.031 A 
BRANCH  54  68
ATOM     68  C   UNL A   1      43.799  27.168  35.194  1.00  0.00    -0.014 A 
ATOM     69  C   UNL A   1      43.550  25.800  34.994  1.00  0.00     0.009 A 
ATOM     70  C   UNL A   1      43.934  27.606  36.525  1.00  0.00     0.009 A 
ATOM     71  C   UNL A   1      43.398  24.925  36.078  1.00  0.00     0.001 A 
ATOM     72  C   UNL A   1      43.820  26.730  37.606  1.00  0.00     0.001 A 
ATOM     73  C   UNL A   1      43.529  25.392  37.383  1.00  0.00     0.000 A 
ENDBRANCH  54  68
BRANCH  55  74
ATOM     74  C   UNL A   1      42.461  23.259  27.619  1.00  0.00    -0.014 A 
ATOM     75  C   UNL A   1      41.419  22.566  28.256  1.00  0.00     0.009 A 
ATOM     76  C   UNL A   1      42.888  22.787  26.362  1.00  0.00     0.009 A 
ATOM     77  C   UNL A   1      40.797  21.472  27.638  1.00  0.00     0.001 A 
ATOM     78  C   UNL A   1      42.265  21.696  25.746  1.00  0.00     0.001 A 
ATOM     79  C   UNL A   1      41.208  21.048  26.376  1.00  0.00     0.000 A 
ENDBRANCH  55  74
BRANCH  67  80
ATOM     80  C   UNL A   1      45.968  28.329  28.824  1.00  0.00    -0.014 A 
ATOM     81  C   UNL A   1      47.240  28.385  28.225  1.00  0.00     0.009 A 
ATOM     82  C   UNL A   1      44.887  28.881  28.123  1.00  0.00     0.009 A 
ATOM     83  C   UNL A   1      47.426  28.995  26.978  1.00  0.00     0.001 A 
ATOM     84  C   UNL A   1      45.066  29.473  26.871  1.00  0.00     0.001 A 
ATOM     85  C   UNL A   1      46.335  29.534  26.299  1.00  0.00     0.000 A 
ENDBRANCH  67  80
ENDBRANCH  41  42
ENDBRANCH  33  36
ENDBRANCH  31  32
ENDBRANCH  30  31
ENDBRANCH  29  30
ENDBRANCH  28  29
ENDBRANCH   1  28
TORSDOF 17
ENDMDL
MODEL 3
REMARK VINA RESULT:     -12.2      3.377      8.804
REMARK SMILES Cc1cc(C)c2c(CCCC(=O)NCCCCCCNC(=O)c3ccc(-c4c5nc(c(-c6ccccc6)c6ccc([nH]6)c(-c6ccccc6)c6nc(c(-c7ccccc7)c7ccc4[nH]7)C=C6)C=C5)cc3)c(-c3ccccn3)[nH]c2c1
REMARK SMILES IDX 15 1 14 2 13 3 11 4 12 5 10 7 9 8 8 9 7 10 1 11 2 12 3 13
REMARK SMILES IDX 80 14 4 15 79 16 5 17 6 18 78 19 71 20 72 22 73 23 77 24
REMARK SMILES IDX 74 25 76 26 75 27 16 28 17 29 18 30 19 31 20 32 21 33 22 35
REMARK SMILES IDX 23 36 24 37 70 38 25 39 69 40 26 41 27 42 28 43 63 44 29 45
REMARK SMILES IDX 68 46 62 47 64 48 30 49 67 50 61 51 60 52 31 54 53 55 38 56
REMARK SMILES IDX 52 57 39 58 42 59 51 60 65 61 40 62 41 63 50 65 66 66 43 67
REMARK SMILES IDX 32 68 33 69 37 70 34 71 36 72 35 73 54 74 55 75 59 76 56 77
REMARK SMILES IDX 58 78 57 79 44 80 45 81 49 82 46 83 48 84 47 85
REMARK H PARENT 13 6 78 21 20 34 64 53 42 64
REMARK Flexibility Score: inf
ROOT
ATOM      1  C   UNL A   1      40.476  21.339  26.097  1.00  0.00     0.021 C 
ENDROOT
BRANCH   1   2
ATOM      2  C   UNL A   1      39.177  22.133  26.173  1.00  0.00     0.116 C 
BRANCH   2   3
ATOM      3  N   UNL A   1      38.244  21.777  25.138  1.00  0.00    -0.356 N 
ATOM      4  C   UNL A   1      37.176  22.431  24.625  1.00  0.00     0.220 C 
ATOM      5  O   UNL A   1      36.656  21.915  23.628  1.00  0.00    -0.275 OA
ATOM      6  H   UNL A   1      38.413  20.898  24.728  1.00  0.00     0.163 HD
BRANCH   4   7
ATOM      7  C   UNL A   1      36.676  23.783  25.106  1.00  0.00     0.100 C 
BRANCH   7   8
ATOM      8  C   UNL A   1      35.613  23.985  26.163  1.00  0.00     0.015 C 
BRANCH   8   9
ATOM      9  C   UNL A   1      34.133  24.113  25.841  1.00  0.00     0.039 C 
BRANCH   9  10
ATOM     10  C   UNL A   1      33.439  23.699  24.549  1.00  0.00    -0.013 A 
ATOM     11  C   UNL A   1      32.155  18.461  22.503  1.00  0.00     0.044 C 
ATOM     12  C   UNL A   1      32.489  19.785  23.122  1.00  0.00    -0.049 A 
ATOM     13  C   UNL A   1      33.095  19.837  24.377  1.00  0.00     0.007 A 
ATOM     14  C   UNL A   1      32.153  20.974  22.471  1.00  0.00     0.030 A 
ATOM     15  C   UNL A   1      33.437  21.057  25.002  1.00  0.00    -0.041 A 
ATOM     16  C   UNL A   1      32.529  22.182  23.069  1.00  0.00     0.047 A 
ATOM     17  C   UNL A   1      34.041  20.967  26.383  1.00  0.00     0.045 C 
ATOM     18  C   UNL A   1      33.189  22.273  24.290  1.00  0.00     0.006 A 
ATOM     19  N   UNL A   1      32.332  23.457  22.619  1.00  0.00    -0.353 N 
ATOM     20  C   UNL A   1      32.782  24.397  23.517  1.00  0.00     0.068 A 
ATOM     21  H   UNL A   1      31.916  23.677  21.754  1.00  0.00     0.167 HD
BRANCH  20  22
ATOM     22  C   UNL A   1      32.386  25.787  23.263  1.00  0.00     0.087 A 
ATOM     23  C   UNL A   1      33.348  26.795  23.170  1.00  0.00     0.030 A 
ATOM     24  N   UNL A   1      31.069  26.028  23.126  1.00  0.00    -0.255 NA
ATOM     25  C   UNL A   1      32.960  28.063  22.743  1.00  0.00     0.004 A 
ATOM     26  C   UNL A   1      30.720  27.271  22.701  1.00  0.00     0.112 A 
ATOM     27  C   UNL A   1      31.622  28.298  22.463  1.00  0.00     0.020 A 
ENDBRANCH  20  22
ENDBRANCH   9  10
ENDBRANCH   8   9
ENDBRANCH   7   8
ENDBRANCH   4   7
ENDBRANCH   2   3
ENDBRANCH   1   2
BRANCH   1  28
ATOM     28  C   UNL A   1      40.862  20.722  27.443  1.00  0.00     0.002 C 
BRANCH  28  29
ATOM     29  C   UNL A   1      41.951  19.635  27.379  1.00  0.00     0.002 C 
BRANCH  29  30
ATOM     30  C   UNL A   1      42.424  19.216  25.980  1.00  0.00     0.021 C 
BRANCH  30  31
ATOM     31  C   UNL A   1      43.859  18.723  25.960  1.00  0.00     0.116 C 
BRANCH  31  32
ATOM     32  N   UNL A   1      44.458  18.794  24.623  1.00  0.00    -0.352 N 
ATOM     33  C   UNL A   1      44.655  19.911  23.829  1.00  0.00     0.251 C 
ATOM     34  H   UNL A   1      44.758  17.938  24.241  1.00  0.00     0.163 HD
ATOM     35  O   UNL A   1      44.887  19.827  22.638  1.00  0.00    -0.269 OA
BRANCH  33  36
ATOM     36  C   UNL A   1      44.605  21.220  24.495  1.00  0.00     0.039 A 
ATOM     37  C   UNL A   1      43.653  22.192  24.177  1.00  0.00     0.014 A 
ATOM     38  C   UNL A   1      45.516  21.407  25.526  1.00  0.00     0.014 A 
ATOM     39  C   UNL A   1      43.597  23.342  24.958  1.00  0.00     0.010 A 
ATOM     40  C   UNL A   1      45.300  22.407  26.423  1.00  0.00     0.010 A 
ATOM     41  C   UNL A   1      44.429  23.434  26.084  1.00  0.00    -0.014 A 
BRANCH  41  42
ATOM     42  C   UNL A   1      44.408  24.576  26.982  1.00  0.00     0.031 A 
ATOM     43  C   UNL A   1      45.511  25.556  26.792  1.00  0.00     0.074 A 
ATOM     44  C   UNL A   1      43.309  24.838  27.727  1.00  0.00     0.049 A 
ATOM     45  N   UNL A   1      46.389  25.930  27.661  1.00  0.00    -0.248 NA
ATOM     46  C   UNL A   1      45.727  26.122  25.448  1.00  0.00     0.031 C 
ATOM     47  C   UNL A   1      42.018  24.128  27.751  1.00  0.00     0.029 A 
ATOM     48  N   UNL A   1      43.057  25.909  28.515  1.00  0.00    -0.354 N 
ATOM     49  C   UNL A   1      47.174  26.894  27.036  1.00  0.00     0.074 A 
ATOM     50  C   UNL A   1      46.814  26.872  25.640  1.00  0.00     0.031 C 
ATOM     51  C   UNL A   1      41.065  24.935  28.268  1.00  0.00     0.029 A 
ATOM     52  C   UNL A   1      41.711  26.121  28.791  1.00  0.00     0.049 A 
ATOM     53  H   UNL A   1      43.770  26.492  28.866  1.00  0.00     0.167 HD
ATOM     54  C   UNL A   1      47.917  27.786  27.746  1.00  0.00     0.031 A 
ATOM     55  C   UNL A   1      41.174  27.224  29.370  1.00  0.00     0.031 A 
ATOM     56  C   UNL A   1      48.035  27.406  29.128  1.00  0.00     0.049 A 
ATOM     57  C   UNL A   1      42.282  27.931  30.056  1.00  0.00     0.074 A 
ATOM     58  C   UNL A   1      48.592  26.330  29.790  1.00  0.00     0.029 A 
ATOM     59  N   UNL A   1      47.151  27.977  30.015  1.00  0.00    -0.354 N 
ATOM     60  N   UNL A   1      42.930  27.426  31.068  1.00  0.00    -0.248 NA
ATOM     61  C   UNL A   1      42.989  28.959  29.307  1.00  0.00     0.031 C 
ATOM     62  C   UNL A   1      47.654  26.013  30.817  1.00  0.00     0.029 A 
ATOM     63  C   UNL A   1      46.629  26.961  30.776  1.00  0.00     0.049 A 
ATOM     64  H   UNL A   1      46.935  28.934  30.089  1.00  0.00     0.167 HD
ATOM     65  C   UNL A   1      44.261  27.738  30.826  1.00  0.00     0.074 A 
ATOM     66  C   UNL A   1      44.226  28.755  29.773  1.00  0.00     0.031 C 
ATOM     67  C   UNL A   1      45.272  26.940  31.280  1.00  0.00     0.031 A 
BRANCH  54  68
ATOM     68  C   UNL A   1      48.224  29.181  27.277  1.00  0.00    -0.014 A 
ATOM     69  C   UNL A   1      49.555  29.632  27.291  1.00  0.00     0.009 A 
ATOM     70  C   UNL A   1      47.222  30.149  27.081  1.00  0.00     0.009 A 
ATOM     71  C   UNL A   1      49.859  30.993  27.160  1.00  0.00     0.001 A 
ATOM     72  C   UNL A   1      47.525  31.502  26.913  1.00  0.00     0.001 A 
ATOM     73  C   UNL A   1      48.844  31.927  26.975  1.00  0.00     0.000 A 
ENDBRANCH  54  68
BRANCH  55  74
ATOM     74  C   UNL A   1      39.884  27.882  29.066  1.00  0.00    -0.014 A 
ATOM     75  C   UNL A   1      38.923  28.075  30.072  1.00  0.00     0.009 A 
ATOM     76  C   UNL A   1      39.716  28.587  27.858  1.00  0.00     0.009 A 
ATOM     77  C   UNL A   1      37.861  28.973  29.892  1.00  0.00     0.001 A 
ATOM     78  C   UNL A   1      38.658  29.484  27.680  1.00  0.00     0.001 A 
ATOM     79  C   UNL A   1      37.739  29.690  28.704  1.00  0.00     0.000 A 
ENDBRANCH  55  74
BRANCH  67  80
ATOM     80  C   UNL A   1      44.914  25.787  32.192  1.00  0.00    -0.014 A 
ATOM     81  C   UNL A   1      44.713  25.930  33.578  1.00  0.00     0.009 A 
ATOM     82  C   UNL A   1      44.597  24.553  31.606  1.00  0.00     0.009 A 
ATOM     83  C   UNL A   1      44.235  24.865  34.353  1.00  0.00     0.001 A 
ATOM     84  C   UNL A   1      44.103  23.497  32.374  1.00  0.00     0.001 A 
ATOM     85  C   UNL A   1      43.925  23.650  33.747  1.00  0.00     0.000 A 
ENDBRANCH  67  80
ENDBRANCH  41  42
ENDBRANCH  33  36
ENDBRANCH  31  32
ENDBRANCH  30  31
ENDBRANCH  29  30
ENDBRANCH  28  29
ENDBRANCH   1  28
TORSDOF 17
ENDMDL
