MODEL 1
REMARK VINA RESULT:     -11.8      0.000      0.000
REMARK SMILES C[C@@H](Oc1ccc(-c2ccccc2)cc1)C(=O)N1CCC[C@H](C(=O)NCCCCCCNC(=O)c2ccc(-c3c4nc(c(-c5ccccc5)c5ccc([nH]5)c(-c5ccccc5)c5nc(c(-c6ccccc6)c6ccc3[nH]6)C=C5)C=C4)cc2)C1
REMARK SMILES IDX 27 1 26 2 25 3 23 4 24 5 22 7 18 8 19 9 83 10 20 11 21 12
REMARK SMILES IDX 16 13 17 14 2 15 1 16 3 17 4 18 5 19 15 20 6 21 14 22 7 23
REMARK SMILES IDX 8 24 9 25 13 26 10 27 12 28 11 29 28 30 29 31 30 32 31 33
REMARK SMILES IDX 32 34 33 35 34 37 35 38 36 39 82 40 37 41 81 42 38 43 39 44
REMARK SMILES IDX 40 45 75 46 41 47 80 48 74 49 76 50 42 51 79 52 73 53 72 54
REMARK SMILES IDX 43 56 65 57 50 58 64 59 51 60 54 61 63 62 77 63 52 64 53 65
REMARK SMILES IDX 62 67 78 68 55 69 44 70 45 71 49 72 46 73 48 74 47 75 66 76
REMARK SMILES IDX 67 77 71 78 68 79 70 80 69 81 56 82 57 83 61 84 58 85 60 86
REMARK SMILES IDX 59 87
REMARK H PARENT 25 6 32 36 76 55 54 66
REMARK Flexibility Score: inf
ROOT
ATOM      1  C   UNL A   1      32.597  28.389  26.818  1.00  0.00     0.021 C 
ENDROOT
BRANCH   1   2
ATOM      2  C   UNL A   1      31.875  27.541  25.774  1.00  0.00     0.116 C 
BRANCH   2   3
ATOM      3  N   UNL A   1      31.039  26.511  26.347  1.00  0.00    -0.356 N 
ATOM      4  C   UNL A   1      30.188  25.621  25.777  1.00  0.00     0.224 C 
ATOM      5  O   UNL A   1      29.770  24.724  26.521  1.00  0.00    -0.275 OA
ATOM      6  H   UNL A   1      31.096  26.443  27.327  1.00  0.00     0.163 HD
BRANCH   4   7
ATOM      7  C   UNL A   1      29.716  25.656  24.316  1.00  0.00     0.098 C 
ATOM      8  N   UNL A   1      31.576  25.192  22.728  1.00  0.00    -0.339 N 
ATOM      9  C   UNL A   1      31.365  26.447  22.005  1.00  0.00     0.119 C 
ATOM     10  C   UNL A   1      30.397  24.648  23.387  1.00  0.00     0.133 C 
ATOM     11  C   UNL A   1      30.706  27.540  22.845  1.00  0.00     0.022 C 
ATOM     12  C   UNL A   1      29.550  27.051  23.710  1.00  0.00     0.017 C 
BRANCH   8  13
ATOM     13  C   UNL A   1      32.831  24.589  22.678  1.00  0.00     0.263 C 
ATOM     14  O   UNL A   1      33.146  23.882  21.712  1.00  0.00    -0.271 OA
BRANCH  13  15
ATOM     15  C   UNL A   1      33.819  24.727  23.859  1.00  0.00     0.259 C 
ATOM     16  C   UNL A   1      34.364  26.128  24.116  1.00  0.00     0.064 C 
BRANCH  15  17
ATOM     17  O   UNL A   1      33.119  24.215  25.000  1.00  0.00    -0.481 OA
BRANCH  17  18
ATOM     18  C   UNL A   1      33.252  22.864  25.149  1.00  0.00     0.120 A 
ATOM     19  C   UNL A   1      34.468  22.230  24.906  1.00  0.00     0.047 A 
ATOM     20  C   UNL A   1      32.102  22.120  25.377  1.00  0.00     0.047 A 
ATOM     21  C   UNL A   1      34.523  20.829  24.864  1.00  0.00     0.012 A 
ATOM     22  C   UNL A   1      32.163  20.729  25.345  1.00  0.00     0.012 A 
ATOM     23  C   UNL A   1      33.362  20.058  25.049  1.00  0.00    -0.018 A 
BRANCH  23  24
ATOM     24  C   UNL A   1      33.351  18.598  24.859  1.00  0.00    -0.018 A 
ATOM     25  C   UNL A   1      34.073  17.968  23.835  1.00  0.00     0.009 A 
ATOM     26  C   UNL A   1      32.608  17.785  25.738  1.00  0.00     0.009 A 
ATOM     27  C   UNL A   1      34.067  16.573  23.711  1.00  0.00     0.001 A 
ATOM     28  C   UNL A   1      32.602  16.395  25.616  1.00  0.00     0.001 A 
ATOM     29  C   UNL A   1      33.337  15.789  24.603  1.00  0.00     0.000 A 
ENDBRANCH  23  24
ENDBRANCH  17  18
ENDBRANCH  15  17
ENDBRANCH  13  15
ENDBRANCH   8  13
ENDBRANCH   4   7
ENDBRANCH   2   3
ENDBRANCH   1   2
BRANCH   1  30
ATOM     30  C   UNL A   1      31.819  29.628  27.268  1.00  0.00     0.002 C 
BRANCH  30  31
ATOM     31  C   UNL A   1      31.426  30.607  26.153  1.00  0.00     0.002 C 
BRANCH  31  32
ATOM     32  C   UNL A   1      31.367  32.087  26.545  1.00  0.00     0.021 C 
BRANCH  32  33
ATOM     33  C   UNL A   1      32.691  32.698  26.997  1.00  0.00     0.116 C 
BRANCH  33  34
ATOM     34  N   UNL A   1      32.512  33.994  27.634  1.00  0.00    -0.352 N 
ATOM     35  C   UNL A   1      33.198  34.576  28.669  1.00  0.00     0.251 C 
ATOM     36  H   UNL A   1      31.784  34.541  27.261  1.00  0.00     0.163 HD
ATOM     37  O   UNL A   1      32.771  35.604  29.185  1.00  0.00    -0.269 OA
BRANCH  35  38
ATOM     38  C   UNL A   1      34.447  33.969  29.176  1.00  0.00     0.039 A 
ATOM     39  C   UNL A   1      34.370  33.055  30.231  1.00  0.00     0.014 A 
ATOM     40  C   UNL A   1      35.691  34.327  28.649  1.00  0.00     0.014 A 
ATOM     41  C   UNL A   1      35.533  32.459  30.721  1.00  0.00     0.010 A 
ATOM     42  C   UNL A   1      36.844  33.686  29.096  1.00  0.00     0.010 A 
ATOM     43  C   UNL A   1      36.776  32.749  30.138  1.00  0.00    -0.014 A 
BRANCH  43  44
ATOM     44  C   UNL A   1      38.017  32.079  30.600  1.00  0.00     0.031 A 
ATOM     45  C   UNL A   1      38.864  32.707  31.671  1.00  0.00     0.074 A 
ATOM     46  C   UNL A   1      38.414  30.937  30.007  1.00  0.00     0.049 A 
ATOM     47  N   UNL A   1      40.015  32.307  32.154  1.00  0.00    -0.248 NA
ATOM     48  C   UNL A   1      38.366  33.959  32.262  1.00  0.00     0.031 C 
ATOM     49  C   UNL A   1      37.697  30.245  28.934  1.00  0.00     0.029 A 
ATOM     50  N   UNL A   1      39.526  30.162  30.219  1.00  0.00    -0.354 N 
ATOM     51  C   UNL A   1      40.384  33.267  33.088  1.00  0.00     0.074 A 
ATOM     52  C   UNL A   1      39.360  34.288  33.074  1.00  0.00     0.031 C 
ATOM     53  C   UNL A   1      38.377  29.138  28.595  1.00  0.00     0.029 A 
ATOM     54  C   UNL A   1      39.594  29.063  29.397  1.00  0.00     0.049 A 
ATOM     55  H   UNL A   1      40.210  30.372  30.895  1.00  0.00     0.167 HD
ATOM     56  C   UNL A   1      41.472  33.288  33.895  1.00  0.00     0.031 A 
ATOM     57  C   UNL A   1      40.535  28.106  29.293  1.00  0.00     0.031 A 
ATOM     58  C   UNL A   1      42.487  32.268  33.914  1.00  0.00     0.049 A 
ATOM     59  C   UNL A   1      41.740  28.161  30.190  1.00  0.00     0.074 A 
ATOM     60  C   UNL A   1      43.598  32.172  34.734  1.00  0.00     0.029 A 
ATOM     61  N   UNL A   1      42.515  31.168  33.071  1.00  0.00    -0.354 N 
ATOM     62  N   UNL A   1      42.044  29.042  31.111  1.00  0.00    -0.248 NA
ATOM     63  C   UNL A   1      42.727  27.083  30.036  1.00  0.00     0.031 C 
ATOM     64  C   UNL A   1      44.324  31.039  34.354  1.00  0.00     0.029 A 
ATOM     65  C   UNL A   1      43.636  30.400  33.335  1.00  0.00     0.049 A 
ATOM     66  H   UNL A   1      41.838  30.963  32.387  1.00  0.00     0.167 HD
ATOM     67  C   UNL A   1      43.243  28.612  31.665  1.00  0.00     0.074 A 
ATOM     68  C   UNL A   1      43.600  27.382  30.987  1.00  0.00     0.031 C 
ATOM     69  C   UNL A   1      43.980  29.182  32.648  1.00  0.00     0.031 A 
BRANCH  56  70
ATOM     70  C   UNL A   1      41.623  34.463  34.821  1.00  0.00    -0.014 A 
ATOM     71  C   UNL A   1      41.099  34.435  36.124  1.00  0.00     0.009 A 
ATOM     72  C   UNL A   1      42.328  35.600  34.397  1.00  0.00     0.009 A 
ATOM     73  C   UNL A   1      41.246  35.538  36.968  1.00  0.00     0.001 A 
ATOM     74  C   UNL A   1      42.499  36.690  35.254  1.00  0.00     0.001 A 
ATOM     75  C   UNL A   1      41.949  36.661  36.535  1.00  0.00     0.000 A 
ENDBRANCH  56  70
BRANCH  57  76
ATOM     76  C   UNL A   1      40.370  27.005  28.310  1.00  0.00    -0.014 A 
ATOM     77  C   UNL A   1      40.912  27.116  27.021  1.00  0.00     0.009 A 
ATOM     78  C   UNL A   1      39.667  25.840  28.652  1.00  0.00     0.009 A 
ATOM     79  C   UNL A   1      40.732  26.094  26.087  1.00  0.00     0.001 A 
ATOM     80  C   UNL A   1      39.512  24.807  27.725  1.00  0.00     0.001 A 
ATOM     81  C   UNL A   1      40.037  24.939  26.440  1.00  0.00     0.000 A 
ENDBRANCH  57  76
BRANCH  69  82
ATOM     82  C   UNL A   1      45.231  28.464  33.070  1.00  0.00    -0.014 A 
ATOM     83  C   UNL A   1      46.469  28.749  32.476  1.00  0.00     0.009 A 
ATOM     84  C   UNL A   1      45.172  27.516  34.105  1.00  0.00     0.009 A 
ATOM     85  C   UNL A   1      47.619  28.073  32.887  1.00  0.00     0.001 A 
ATOM     86  C   UNL A   1      46.327  26.864  34.532  1.00  0.00     0.001 A 
ATOM     87  C   UNL A   1      47.549  27.135  33.917  1.00  0.00     0.000 A 
ENDBRANCH  69  82
ENDBRANCH  43  44
ENDBRANCH  35  38
ENDBRANCH  33  34
ENDBRANCH  32  33
ENDBRANCH  31  32
ENDBRANCH  30  31
ENDBRANCH   1  30
TORSDOF 18
ENDMDL
MODEL 2
REMARK VINA RESULT:     -11.7      1.439      7.439
REMARK SMILES C[C@@H](Oc1ccc(-c2ccccc2)cc1)C(=O)N1CCC[C@H](C(=O)NCCCCCCNC(=O)c2ccc(-c3c4nc(c(-c5ccccc5)c5ccc([nH]5)c(-c5ccccc5)c5nc(c(-c6ccccc6)c6ccc3[nH]6)C=C5)C=C4)cc2)C1
REMARK SMILES IDX 27 1 26 2 25 3 23 4 24 5 22 7 18 8 19 9 83 10 20 11 21 12
REMARK SMILES IDX 16 13 17 14 2 15 1 16 3 17 4 18 5 19 15 20 6 21 14 22 7 23
REMARK SMILES IDX 8 24 9 25 13 26 10 27 12 28 11 29 28 30 29 31 30 32 31 33
REMARK SMILES IDX 32 34 33 35 34 37 35 38 36 39 82 40 37 41 81 42 38 43 39 44
REMARK SMILES IDX 40 45 75 46 41 47 80 48 74 49 76 50 42 51 79 52 73 53 72 54
REMARK SMILES IDX 43 56 65 57 50 58 64 59 51 60 54 61 63 62 77 63 52 64 53 65
REMARK SMILES IDX 62 67 78 68 55 69 44 70 45 71 49 72 46 73 48 74 47 75 66 76
REMARK SMILES IDX 67 77 71 78 68 79 70 80 69 81 56 82 57 83 61 84 58 85 60 86
REMARK SMILES IDX 59 87
REMARK H PARENT 25 6 32 36 76 55 54 66
REMARK Flexibility Score: inf
ROOT
ATOM      1  C   UNL A   1      31.235  27.570  26.790  1.00  0.00     0.021 C 
ENDROOT
BRANCH   1   2
ATOM      2  C   UNL A   1      32.013  26.310  26.416  1.00  0.00     0.116 C 
BRANCH   2   3
ATOM      3  N   UNL A   1      31.333  25.086  26.772  1.00  0.00    -0.356 N 
ATOM      4  C   UNL A   1      31.797  23.831  26.999  1.00  0.00     0.224 C 
ATOM      5  O   UNL A   1      30.984  23.038  27.492  1.00  0.00    -0.275 OA
ATOM      6  H   UNL A   1      30.358  25.178  26.867  1.00  0.00     0.163 HD
BRANCH   4   7
ATOM      7  C   UNL A   1      33.219  23.342  26.688  1.00  0.00     0.098 C 
ATOM      8  N   UNL A   1      33.505  22.789  24.278  1.00  0.00    -0.339 N 
ATOM      9  C   UNL A   1      33.942  21.424  24.572  1.00  0.00     0.119 C 
ATOM     10  C   UNL A   1      33.771  23.765  25.326  1.00  0.00     0.133 C 
ATOM     11  C   UNL A   1      33.430  20.885  25.906  1.00  0.00     0.022 C 
ATOM     12  C   UNL A   1      33.509  21.885  27.055  1.00  0.00     0.017 C 
BRANCH   8  13
ATOM     13  C   UNL A   1      32.948  23.065  23.031  1.00  0.00     0.263 C 
ATOM     14  O   UNL A   1      32.841  22.170  22.183  1.00  0.00    -0.271 OA
BRANCH  13  15
ATOM     15  C   UNL A   1      32.526  24.504  22.658  1.00  0.00     0.259 C 
ATOM     16  C   UNL A   1      32.748  24.912  21.205  1.00  0.00     0.064 C 
BRANCH  15  17
ATOM     17  O   UNL A   1      31.144  24.602  23.027  1.00  0.00    -0.481 OA
BRANCH  17  18
ATOM     18  C   UNL A   1      30.717  25.891  23.171  1.00  0.00     0.120 A 
ATOM     19  C   UNL A   1      29.403  26.177  23.534  1.00  0.00     0.047 A 
ATOM     20  C   UNL A   1      31.576  26.907  22.775  1.00  0.00     0.047 A 
ATOM     21  C   UNL A   1      28.940  27.499  23.473  1.00  0.00     0.012 A 
ATOM     22  C   UNL A   1      31.115  28.220  22.725  1.00  0.00     0.012 A 
ATOM     23  C   UNL A   1      29.781  28.536  23.034  1.00  0.00    -0.018 A 
BRANCH  23  24
ATOM     24  C   UNL A   1      29.287  29.906  22.808  1.00  0.00    -0.018 A 
ATOM     25  C   UNL A   1      29.422  30.921  23.765  1.00  0.00     0.009 A 
ATOM     26  C   UNL A   1      28.668  30.231  21.585  1.00  0.00     0.009 A 
ATOM     27  C   UNL A   1      28.974  32.220  23.497  1.00  0.00     0.001 A 
ATOM     28  C   UNL A   1      28.222  31.525  21.316  1.00  0.00     0.001 A 
ATOM     29  C   UNL A   1      28.380  32.522  22.273  1.00  0.00     0.000 A 
ENDBRANCH  23  24
ENDBRANCH  17  18
ENDBRANCH  15  17
ENDBRANCH  13  15
ENDBRANCH   8  13
ENDBRANCH   4   7
ENDBRANCH   2   3
ENDBRANCH   1   2
BRANCH   1  30
ATOM     30  C   UNL A   1      31.843  28.866  26.252  1.00  0.00     0.002 C 
BRANCH  30  31
ATOM     31  C   UNL A   1      32.169  29.934  27.304  1.00  0.00     0.002 C 
BRANCH  31  32
ATOM     32  C   UNL A   1      31.732  31.365  26.972  1.00  0.00     0.021 C 
BRANCH  32  33
ATOM     33  C   UNL A   1      32.864  32.380  26.833  1.00  0.00     0.116 C 
BRANCH  33  34
ATOM     34  N   UNL A   1      32.554  33.644  27.485  1.00  0.00    -0.352 N 
ATOM     35  C   UNL A   1      33.170  34.274  28.535  1.00  0.00     0.251 C 
ATOM     36  H   UNL A   1      31.781  34.124  27.111  1.00  0.00     0.163 HD
ATOM     37  O   UNL A   1      32.641  35.249  29.059  1.00  0.00    -0.269 OA
BRANCH  35  38
ATOM     38  C   UNL A   1      34.467  33.783  29.049  1.00  0.00     0.039 A 
ATOM     39  C   UNL A   1      34.469  32.914  30.144  1.00  0.00     0.014 A 
ATOM     40  C   UNL A   1      35.674  34.208  28.489  1.00  0.00     0.014 A 
ATOM     41  C   UNL A   1      35.679  32.427  30.641  1.00  0.00     0.010 A 
ATOM     42  C   UNL A   1      36.876  33.673  28.945  1.00  0.00     0.010 A 
ATOM     43  C   UNL A   1      36.890  32.781  30.027  1.00  0.00    -0.014 A 
BRANCH  43  44
ATOM     44  C   UNL A   1      38.183  32.224  30.499  1.00  0.00     0.031 A 
ATOM     45  C   UNL A   1      38.713  30.942  29.923  1.00  0.00     0.074 A 
ATOM     46  C   UNL A   1      38.846  32.843  31.495  1.00  0.00     0.049 A 
ATOM     47  N   UNL A   1      39.785  30.267  30.256  1.00  0.00    -0.248 NA
ATOM     48  C   UNL A   1      37.925  30.324  28.844  1.00  0.00     0.031 C 
ATOM     49  C   UNL A   1      38.420  34.075  32.161  1.00  0.00     0.029 A 
ATOM     50  N   UNL A   1      40.017  32.510  32.128  1.00  0.00    -0.354 N 
ATOM     51  C   UNL A   1      39.788  29.140  29.445  1.00  0.00     0.074 A 
ATOM     52  C   UNL A   1      38.592  29.199  28.633  1.00  0.00     0.031 C 
ATOM     53  C   UNL A   1      39.326  34.406  33.094  1.00  0.00     0.029 A 
ATOM     54  C   UNL A   1      40.375  33.391  33.120  1.00  0.00     0.049 A 
ATOM     55  H   UNL A   1      40.551  31.717  31.893  1.00  0.00     0.167 HD
ATOM     56  C   UNL A   1      40.712  28.152  29.371  1.00  0.00     0.031 A 
ATOM     57  C   UNL A   1      41.424  33.378  33.964  1.00  0.00     0.031 A 
ATOM     58  C   UNL A   1      41.906  28.098  30.173  1.00  0.00     0.049 A 
ATOM     59  C   UNL A   1      42.426  32.262  33.872  1.00  0.00     0.074 A 
ATOM     60  C   UNL A   1      42.930  27.167  30.133  1.00  0.00     0.029 A 
ATOM     61  N   UNL A   1      42.234  29.013  31.161  1.00  0.00    -0.354 N 
ATOM     62  N   UNL A   1      42.447  31.236  33.057  1.00  0.00    -0.248 NA
ATOM     63  C   UNL A   1      43.554  32.309  34.813  1.00  0.00     0.031 C 
ATOM     64  C   UNL A   1      43.854  27.492  31.132  1.00  0.00     0.029 A 
ATOM     65  C   UNL A   1      43.432  28.656  31.755  1.00  0.00     0.049 A 
ATOM     66  H   UNL A   1      41.695  29.799  31.405  1.00  0.00     0.167 HD
ATOM     67  C   UNL A   1      43.602  30.529  33.368  1.00  0.00     0.074 A 
ATOM     68  C   UNL A   1      44.261  31.254  34.435  1.00  0.00     0.031 C 
ATOM     69  C   UNL A   1      44.074  29.385  32.818  1.00  0.00     0.031 A 
BRANCH  56  70
ATOM     70  C   UNL A   1      40.459  27.040  28.392  1.00  0.00    -0.014 A 
ATOM     71  C   UNL A   1      39.757  25.884  28.769  1.00  0.00     0.009 A 
ATOM     72  C   UNL A   1      40.901  27.163  27.065  1.00  0.00     0.009 A 
ATOM     73  C   UNL A   1      39.534  24.859  27.846  1.00  0.00     0.001 A 
ATOM     74  C   UNL A   1      40.651  26.150  26.137  1.00  0.00     0.001 A 
ATOM     75  C   UNL A   1      39.977  24.995  26.531  1.00  0.00     0.000 A 
ENDBRANCH  56  70
BRANCH  57  76
ATOM     76  C   UNL A   1      41.587  34.466  34.962  1.00  0.00    -0.014 A 
ATOM     77  C   UNL A   1      40.950  34.387  36.210  1.00  0.00     0.009 A 
ATOM     78  C   UNL A   1      42.377  35.589  34.673  1.00  0.00     0.009 A 
ATOM     79  C   UNL A   1      41.080  35.423  37.137  1.00  0.00     0.001 A 
ATOM     80  C   UNL A   1      42.528  36.611  35.613  1.00  0.00     0.001 A 
ATOM     81  C   UNL A   1      41.872  36.531  36.840  1.00  0.00     0.000 A 
ENDBRANCH  57  76
BRANCH  69  82
ATOM     82  C   UNL A   1      45.383  28.863  33.341  1.00  0.00    -0.014 A 
ATOM     83  C   UNL A   1      45.433  27.995  34.441  1.00  0.00     0.009 A 
ATOM     84  C   UNL A   1      46.578  29.219  32.696  1.00  0.00     0.009 A 
ATOM     85  C   UNL A   1      46.661  27.519  34.907  1.00  0.00     0.001 A 
ATOM     86  C   UNL A   1      47.800  28.719  33.146  1.00  0.00     0.001 A 
ATOM     87  C   UNL A   1      47.841  27.877  34.257  1.00  0.00     0.000 A 
ENDBRANCH  69  82
ENDBRANCH  43  44
ENDBRANCH  35  38
ENDBRANCH  33  34
ENDBRANCH  32  33
ENDBRANCH  31  32
ENDBRANCH  30  31
ENDBRANCH   1  30
TORSDOF 18
ENDMDL
MODEL 3
REMARK VINA RESULT:     -11.7      5.170     10.756
REMARK SMILES C[C@@H](Oc1ccc(-c2ccccc2)cc1)C(=O)N1CCC[C@H](C(=O)NCCCCCCNC(=O)c2ccc(-c3c4nc(c(-c5ccccc5)c5ccc([nH]5)c(-c5ccccc5)c5nc(c(-c6ccccc6)c6ccc3[nH]6)C=C5)C=C4)cc2)C1
REMARK SMILES IDX 27 1 26 2 25 3 23 4 24 5 22 7 18 8 19 9 83 10 20 11 21 12
REMARK SMILES IDX 16 13 17 14 2 15 1 16 3 17 4 18 5 19 15 20 6 21 14 22 7 23
REMARK SMILES IDX 8 24 9 25 13 26 10 27 12 28 11 29 28 30 29 31 30 32 31 33
REMARK SMILES IDX 32 34 33 35 34 37 35 38 36 39 82 40 37 41 81 42 38 43 39 44
REMARK SMILES IDX 40 45 75 46 41 47 80 48 74 49 76 50 42 51 79 52 73 53 72 54
REMARK SMILES IDX 43 56 65 57 50 58 64 59 51 60 54 61 63 62 77 63 52 64 53 65
REMARK SMILES IDX 62 67 78 68 55 69 44 70 45 71 49 72 46 73 48 74 47 75 66 76
REMARK SMILES IDX 67 77 71 78 68 79 70 80 69 81 56 82 57 83 61 84 58 85 60 86
REMARK SMILES IDX 59 87
REMARK H PARENT 25 6 32 36 76 55 54 66
REMARK Flexibility Score: inf
ROOT
ATOM      1  C   UNL A   1      39.827  22.333  26.517  1.00  0.00     0.021 C 
ENDROOT
BRANCH   1   2
ATOM      2  C   UNL A   1      38.553  21.966  25.760  1.00  0.00     0.116 C 
BRANCH   2   3
ATOM      3  N   UNL A   1      37.368  22.607  26.282  1.00  0.00    -0.356 N 
ATOM      4  C   UNL A   1      36.059  22.490  25.947  1.00  0.00     0.224 C 
ATOM      5  O   UNL A   1      35.254  23.022  26.723  1.00  0.00    -0.275 OA
ATOM      6  H   UNL A   1      37.542  23.243  27.012  1.00  0.00     0.163 HD
BRANCH   4   7
ATOM      7  C   UNL A   1      35.524  21.771  24.700  1.00  0.00     0.098 C 
ATOM      8  N   UNL A   1      33.074  22.104  24.415  1.00  0.00    -0.339 N 
ATOM      9  C   UNL A   1      32.809  20.665  24.397  1.00  0.00     0.119 C 
ATOM     10  C   UNL A   1      34.399  22.498  23.960  1.00  0.00     0.133 C 
ATOM     11  C   UNL A   1      33.862  19.835  25.129  1.00  0.00     0.022 C 
ATOM     12  C   UNL A   1      35.299  20.265  24.854  1.00  0.00     0.017 C 
BRANCH   8  13
ATOM     13  C   UNL A   1      32.049  22.973  24.787  1.00  0.00     0.263 C 
ATOM     14  O   UNL A   1      31.097  22.562  25.462  1.00  0.00    -0.271 OA
BRANCH  13  15
ATOM     15  C   UNL A   1      32.044  24.439  24.299  1.00  0.00     0.259 C 
ATOM     16  C   UNL A   1      31.616  24.663  22.852  1.00  0.00     0.064 C 
BRANCH  15  17
ATOM     17  O   UNL A   1      31.192  25.140  25.215  1.00  0.00    -0.481 OA
BRANCH  17  18
ATOM     18  C   UNL A   1      31.837  26.135  25.893  1.00  0.00     0.120 A 
ATOM     19  C   UNL A   1      31.125  27.101  26.599  1.00  0.00     0.047 A 
ATOM     20  C   UNL A   1      33.208  26.258  25.715  1.00  0.00     0.047 A 
ATOM     21  C   UNL A   1      31.797  28.222  27.109  1.00  0.00     0.012 A 
ATOM     22  C   UNL A   1      33.873  27.366  26.231  1.00  0.00     0.012 A 
ATOM     23  C   UNL A   1      33.178  28.387  26.902  1.00  0.00    -0.018 A 
BRANCH  23  24
ATOM     24  C   UNL A   1      33.887  29.620  27.286  1.00  0.00    -0.018 A 
ATOM     25  C   UNL A   1      35.258  29.638  27.580  1.00  0.00     0.009 A 
ATOM     26  C   UNL A   1      33.183  30.839  27.349  1.00  0.00     0.009 A 
ATOM     27  C   UNL A   1      35.903  30.838  27.904  1.00  0.00     0.001 A 
ATOM     28  C   UNL A   1      33.826  32.035  27.669  1.00  0.00     0.001 A 
ATOM     29  C   UNL A   1      35.189  32.033  27.943  1.00  0.00     0.000 A 
ENDBRANCH  23  24
ENDBRANCH  17  18
ENDBRANCH  15  17
ENDBRANCH  13  15
ENDBRANCH   8  13
ENDBRANCH   4   7
ENDBRANCH   2   3
ENDBRANCH   1   2
BRANCH   1  30
ATOM     30  C   UNL A   1      40.589  21.132  27.083  1.00  0.00     0.002 C 
BRANCH  30  31
ATOM     31  C   UNL A   1      41.958  20.854  26.446  1.00  0.00     0.002 C 
BRANCH  31  32
ATOM     32  C   UNL A   1      42.087  19.538  25.673  1.00  0.00     0.021 C 
BRANCH  32  33
ATOM     33  C   UNL A   1      43.333  18.714  25.987  1.00  0.00     0.116 C 
BRANCH  33  34
ATOM     34  N   UNL A   1      44.206  18.571  24.831  1.00  0.00    -0.352 N 
ATOM     35  C   UNL A   1      44.882  19.521  24.107  1.00  0.00     0.251 C 
ATOM     36  H   UNL A   1      44.333  17.646  24.520  1.00  0.00     0.163 HD
ATOM     37  O   UNL A   1      45.420  19.214  23.048  1.00  0.00    -0.269 OA
BRANCH  35  38
ATOM     38  C   UNL A   1      44.961  20.916  24.590  1.00  0.00     0.039 A 
ATOM     39  C   UNL A   1      45.529  21.161  25.843  1.00  0.00     0.014 A 
ATOM     40  C   UNL A   1      44.440  21.971  23.838  1.00  0.00     0.014 A 
ATOM     41  C   UNL A   1      45.626  22.471  26.318  1.00  0.00     0.010 A 
ATOM     42  C   UNL A   1      44.594  23.282  24.284  1.00  0.00     0.010 A 
ATOM     43  C   UNL A   1      45.185  23.543  25.529  1.00  0.00    -0.014 A 
BRANCH  43  44
ATOM     44  C   UNL A   1      45.336  24.947  25.986  1.00  0.00     0.031 A 
ATOM     45  C   UNL A   1      46.671  25.632  25.903  1.00  0.00     0.074 A 
ATOM     46  C   UNL A   1      44.284  25.582  26.536  1.00  0.00     0.049 A 
ATOM     47  N   UNL A   1      47.013  26.827  26.316  1.00  0.00    -0.248 NA
ATOM     48  C   UNL A   1      47.773  24.867  25.297  1.00  0.00     0.031 C 
ATOM     49  C   UNL A   1      42.944  25.015  26.704  1.00  0.00     0.029 A 
ATOM     50  N   UNL A   1      44.180  26.844  27.067  1.00  0.00    -0.354 N 
ATOM     51  C   UNL A   1      48.368  26.948  26.038  1.00  0.00     0.074 A 
ATOM     52  C   UNL A   1      48.796  25.693  25.461  1.00  0.00     0.031 C 
ATOM     53  C   UNL A   1      42.148  25.932  27.278  1.00  0.00     0.029 A 
ATOM     54  C   UNL A   1      42.929  27.134  27.553  1.00  0.00     0.049 A 
ATOM     55  H   UNL A   1      44.931  27.480  27.095  1.00  0.00     0.167 HD
ATOM     56  C   UNL A   1      49.181  28.015  26.232  1.00  0.00     0.031 A 
ATOM     57  C   UNL A   1      42.464  28.240  28.164  1.00  0.00     0.031 A 
ATOM     58  C   UNL A   1      48.754  29.266  26.799  1.00  0.00     0.049 A 
ATOM     59  C   UNL A   1      43.389  29.403  28.381  1.00  0.00     0.074 A 
ATOM     60  C   UNL A   1      49.489  30.425  26.985  1.00  0.00     0.029 A 
ATOM     61  N   UNL A   1      47.477  29.522  27.273  1.00  0.00    -0.354 N 
ATOM     62  N   UNL A   1      44.653  29.524  28.056  1.00  0.00    -0.248 NA
ATOM     63  C   UNL A   1      42.820  30.586  29.043  1.00  0.00     0.031 C 
ATOM     64  C   UNL A   1      48.669  31.365  27.617  1.00  0.00     0.029 A 
ATOM     65  C   UNL A   1      47.408  30.811  27.774  1.00  0.00     0.049 A 
ATOM     66  H   UNL A   1      46.729  28.882  27.256  1.00  0.00     0.167 HD
ATOM     67  C   UNL A   1      45.024  30.804  28.449  1.00  0.00     0.074 A 
ATOM     68  C   UNL A   1      43.846  31.424  29.021  1.00  0.00     0.031 C 
ATOM     69  C   UNL A   1      46.230  31.411  28.343  1.00  0.00     0.031 A 
BRANCH  56  70
ATOM     70  C   UNL A   1      50.624  27.867  25.834  1.00  0.00    -0.014 A 
ATOM     71  C   UNL A   1      51.578  27.359  26.731  1.00  0.00     0.009 A 
ATOM     72  C   UNL A   1      51.029  28.210  24.535  1.00  0.00     0.009 A 
ATOM     73  C   UNL A   1      52.914  27.232  26.345  1.00  0.00     0.001 A 
ATOM     74  C   UNL A   1      52.360  28.055  24.143  1.00  0.00     0.001 A 
ATOM     75  C   UNL A   1      53.303  27.575  25.051  1.00  0.00     0.000 A 
ENDBRANCH  56  70
BRANCH  57  76
ATOM     76  C   UNL A   1      41.045  28.306  28.602  1.00  0.00    -0.014 A 
ATOM     77  C   UNL A   1      40.062  28.829  27.749  1.00  0.00     0.009 A 
ATOM     78  C   UNL A   1      40.669  27.850  29.874  1.00  0.00     0.009 A 
ATOM     79  C   UNL A   1      38.734  28.918  28.171  1.00  0.00     0.001 A 
ATOM     80  C   UNL A   1      39.335  27.914  30.283  1.00  0.00     0.001 A 
ATOM     81  C   UNL A   1      38.370  28.456  29.435  1.00  0.00     0.000 A 
ENDBRANCH  57  76
BRANCH  69  82
ATOM     82  C   UNL A   1      46.328  32.830  28.830  1.00  0.00    -0.014 A 
ATOM     83  C   UNL A   1      46.744  33.125  30.136  1.00  0.00     0.009 A 
ATOM     84  C   UNL A   1      46.033  33.886  27.953  1.00  0.00     0.009 A 
ATOM     85  C   UNL A   1      46.832  34.451  30.565  1.00  0.00     0.001 A 
ATOM     86  C   UNL A   1      46.148  35.210  28.375  1.00  0.00     0.001 A 
ATOM     87  C   UNL A   1      46.539  35.491  29.684  1.00  0.00     0.000 A 
ENDBRANCH  69  82
ENDBRANCH  43  44
ENDBRANCH  35  38
ENDBRANCH  33  34
ENDBRANCH  32  33
ENDBRANCH  31  32
ENDBRANCH  30  31
ENDBRANCH   1  30
TORSDOF 18
ENDMDL
