MODEL 1
REMARK VINA RESULT:     -11.5      0.000      0.000
REMARK SMILES CC(=O)N/C(=C/c1c[nH]c(-c2ccccc2)n1)C(=O)NCCCCCCNC(=O)c1ccc(-c2c3nc(c(-c4ccccc4)c4ccc([nH]4)c(-c4ccccc4)c4nc(c(-c5ccccc5)c5ccc2[nH]5)C=C4)C=C3)cc1
REMARK SMILES IDX 23 1 22 2 21 3 20 4 18 5 19 6 5 8 6 9 4 10 1 11 2 12 3 13
REMARK SMILES IDX 7 15 8 16 17 17 9 18 10 19 11 21 12 22 16 23 13 24 15 25
REMARK SMILES IDX 14 26 24 27 25 28 26 29 27 30 28 31 29 33 30 34 31 35 77 36
REMARK SMILES IDX 32 37 76 38 33 39 34 40 35 41 70 42 36 43 75 44 69 45 71 46
REMARK SMILES IDX 37 47 74 48 68 49 67 50 38 52 60 53 45 54 59 55 46 56 49 57
REMARK SMILES IDX 58 58 72 59 47 60 48 61 57 63 73 64 50 65 39 66 40 67 44 68
REMARK SMILES IDX 41 69 43 70 42 71 61 72 62 73 66 74 63 75 65 76 64 77 51 78
REMARK SMILES IDX 52 79 56 80 53 81 55 82 54 83
REMARK H PARENT 20 7 4 14 9 20 27 32 71 51 49 62
REMARK Flexibility Score: inf
ROOT
ATOM      1  C   UNL A   1      36.324  21.681  25.554  1.00  0.00     0.002 C 
ENDROOT
BRANCH   1   2
ATOM      2  C   UNL A   1      35.558  22.779  24.801  1.00  0.00     0.021 C 
BRANCH   2   3
ATOM      3  C   UNL A   1      34.749  23.754  25.651  1.00  0.00     0.116 C 
BRANCH   3   4
ATOM      4  N   UNL A   1      34.224  23.238  26.896  1.00  0.00    -0.351 N 
ATOM      5  C   UNL A   1      32.902  23.044  27.227  1.00  0.00     0.267 C 
ATOM      6  O   UNL A   1      32.624  22.399  28.237  1.00  0.00    -0.268 OA
ATOM      7  H   UNL A   1      34.886  22.998  27.584  1.00  0.00     0.163 HD
BRANCH   5   8
ATOM      8  C   UNL A   1      31.827  23.725  26.423  1.00  0.00     0.109 C 
ATOM      9  C   UNL A   1      31.386  23.196  25.261  1.00  0.00     0.062 C 
BRANCH   8  10
ATOM     10  N   UNL A   1      31.261  24.924  26.835  1.00  0.00    -0.322 N 
ATOM     11  C   UNL A   1      32.740  26.715  25.875  1.00  0.00     0.114 C 
ATOM     12  C   UNL A   1      31.536  26.242  26.630  1.00  0.00     0.221 C 
ATOM     13  O   UNL A   1      30.748  27.061  27.118  1.00  0.00    -0.275 OA
ATOM     14  H   UNL A   1      30.475  24.790  27.412  1.00  0.00     0.170 HD
ENDBRANCH   8  10
BRANCH   9  15
ATOM     15  C   UNL A   1      31.799  22.008  24.605  1.00  0.00     0.084 A 
ATOM     16  C   UNL A   1      31.990  21.873  23.251  1.00  0.00     0.112 A 
ATOM     17  N   UNL A   1      32.124  20.859  25.270  1.00  0.00    -0.229 NA
ATOM     18  N   UNL A   1      32.475  20.605  23.100  1.00  0.00    -0.344 N 
ATOM     19  C   UNL A   1      32.511  20.004  24.340  1.00  0.00     0.138 A 
ATOM     20  H   UNL A   1      32.752  20.190  22.251  1.00  0.00     0.168 HD
BRANCH  19  21
ATOM     21  C   UNL A   1      32.910  18.611  24.505  1.00  0.00     0.017 A 
ATOM     22  C   UNL A   1      33.601  17.930  23.498  1.00  0.00     0.012 A 
ATOM     23  C   UNL A   1      32.542  17.907  25.654  1.00  0.00     0.012 A 
ATOM     24  C   UNL A   1      33.857  16.563  23.588  1.00  0.00     0.001 A 
ATOM     25  C   UNL A   1      32.825  16.543  25.765  1.00  0.00     0.001 A 
ATOM     26  C   UNL A   1      33.464  15.867  24.724  1.00  0.00     0.000 A 
ENDBRANCH  19  21
ENDBRANCH   9  15
ENDBRANCH   5   8
ENDBRANCH   3   4
ENDBRANCH   2   3
ENDBRANCH   1   2
BRANCH   1  27
ATOM     27  C   UNL A   1      36.253  20.272  24.961  1.00  0.00     0.002 C 
BRANCH  27  28
ATOM     28  C   UNL A   1      37.583  19.516  24.900  1.00  0.00     0.021 C 
BRANCH  28  29
ATOM     29  C   UNL A   1      38.759  20.179  25.608  1.00  0.00     0.116 C 
BRANCH  29  30
ATOM     30  N   UNL A   1      39.942  19.333  25.707  1.00  0.00    -0.352 N 
ATOM     31  C   UNL A   1      41.237  19.556  26.103  1.00  0.00     0.251 C 
ATOM     32  H   UNL A   1      39.777  18.403  25.429  1.00  0.00     0.163 HD
ATOM     33  O   UNL A   1      42.043  18.627  25.991  1.00  0.00    -0.269 OA
BRANCH  31  34
ATOM     34  C   UNL A   1      41.717  20.858  26.629  1.00  0.00     0.039 A 
ATOM     35  C   UNL A   1      42.056  21.868  25.716  1.00  0.00     0.014 A 
ATOM     36  C   UNL A   1      41.889  21.107  27.988  1.00  0.00     0.014 A 
ATOM     37  C   UNL A   1      42.497  23.117  26.166  1.00  0.00     0.010 A 
ATOM     38  C   UNL A   1      42.187  22.390  28.440  1.00  0.00     0.010 A 
ATOM     39  C   UNL A   1      42.523  23.406  27.538  1.00  0.00    -0.014 A 
BRANCH  39  40
ATOM     40  C   UNL A   1      42.941  24.735  28.063  1.00  0.00     0.031 A 
ATOM     41  C   UNL A   1      41.903  25.794  28.347  1.00  0.00     0.074 A 
ATOM     42  C   UNL A   1      44.249  25.023  28.208  1.00  0.00     0.049 A 
ATOM     43  N   UNL A   1      42.070  27.046  28.694  1.00  0.00    -0.248 NA
ATOM     44  C   UNL A   1      40.492  25.408  28.177  1.00  0.00     0.031 C 
ATOM     45  C   UNL A   1      45.359  24.108  27.927  1.00  0.00     0.029 A 
ATOM     46  N   UNL A   1      44.870  26.176  28.622  1.00  0.00    -0.354 N 
ATOM     47  C   UNL A   1      40.794  27.597  28.745  1.00  0.00     0.074 A 
ATOM     48  C   UNL A   1      39.870  26.566  28.331  1.00  0.00     0.031 C 
ATOM     49  C   UNL A   1      46.519  24.722  28.213  1.00  0.00     0.029 A 
ATOM     50  C   UNL A   1      46.241  26.086  28.646  1.00  0.00     0.049 A 
ATOM     51  H   UNL A   1      44.378  26.989  28.879  1.00  0.00     0.167 HD
ATOM     52  C   UNL A   1      40.417  28.840  29.129  1.00  0.00     0.031 A 
ATOM     53  C   UNL A   1      47.172  27.003  28.972  1.00  0.00     0.031 A 
ATOM     54  C   UNL A   1      41.333  29.855  29.576  1.00  0.00     0.049 A 
ATOM     55  C   UNL A   1      46.730  28.375  29.399  1.00  0.00     0.074 A 
ATOM     56  C   UNL A   1      41.049  31.122  30.054  1.00  0.00     0.029 A 
ATOM     57  N   UNL A   1      42.712  29.714  29.605  1.00  0.00    -0.354 N 
ATOM     58  N   UNL A   1      45.516  28.858  29.502  1.00  0.00    -0.248 NA
ATOM     59  C   UNL A   1      47.790  29.325  29.765  1.00  0.00     0.031 C 
ATOM     60  C   UNL A   1      42.260  31.768  30.318  1.00  0.00     0.029 A 
ATOM     61  C   UNL A   1      43.294  30.880  30.068  1.00  0.00     0.049 A 
ATOM     62  H   UNL A   1      43.202  28.904  29.335  1.00  0.00     0.167 HD
ATOM     63  C   UNL A   1      45.664  30.156  29.976  1.00  0.00     0.074 A 
ATOM     64  C   UNL A   1      47.083  30.376  30.155  1.00  0.00     0.031 C 
ATOM     65  C   UNL A   1      44.709  31.083  30.239  1.00  0.00     0.031 A 
BRANCH  52  66
ATOM     66  C   UNL A   1      38.949  29.170  29.078  1.00  0.00    -0.014 A 
ATOM     67  C   UNL A   1      38.122  29.009  30.202  1.00  0.00     0.009 A 
ATOM     68  C   UNL A   1      38.388  29.675  27.895  1.00  0.00     0.009 A 
ATOM     69  C   UNL A   1      36.758  29.304  30.129  1.00  0.00     0.001 A 
ATOM     70  C   UNL A   1      37.031  30.004  27.835  1.00  0.00     0.001 A 
ATOM     71  C   UNL A   1      36.216  29.806  28.947  1.00  0.00     0.000 A 
ENDBRANCH  52  66
BRANCH  53  72
ATOM     72  C   UNL A   1      48.617  26.648  28.924  1.00  0.00    -0.014 A 
ATOM     73  C   UNL A   1      49.360  26.847  27.751  1.00  0.00     0.009 A 
ATOM     74  C   UNL A   1      49.259  26.105  30.048  1.00  0.00     0.009 A 
ATOM     75  C   UNL A   1      50.707  26.483  27.694  1.00  0.00     0.001 A 
ATOM     76  C   UNL A   1      50.615  25.772  29.999  1.00  0.00     0.001 A 
ATOM     77  C   UNL A   1      51.335  25.951  28.819  1.00  0.00     0.000 A 
ENDBRANCH  53  72
BRANCH  65  78
ATOM     78  C   UNL A   1      45.167  32.404  30.788  1.00  0.00    -0.014 A 
ATOM     79  C   UNL A   1      45.306  32.617  32.168  1.00  0.00     0.009 A 
ATOM     80  C   UNL A   1      45.504  33.441  29.903  1.00  0.00     0.009 A 
ATOM     81  C   UNL A   1      45.736  33.854  32.651  1.00  0.00     0.001 A 
ATOM     82  C   UNL A   1      45.966  34.665  30.387  1.00  0.00     0.001 A 
ATOM     83  C   UNL A   1      46.070  34.874  31.761  1.00  0.00     0.000 A 
ENDBRANCH  65  78
ENDBRANCH  39  40
ENDBRANCH  31  34
ENDBRANCH  29  30
ENDBRANCH  28  29
ENDBRANCH  27  28
ENDBRANCH   1  27
TORSDOF 16
ENDMDL
MODEL 2
REMARK VINA RESULT:     -11.4      2.008      4.350
REMARK SMILES CC(=O)N/C(=C/c1c[nH]c(-c2ccccc2)n1)C(=O)NCCCCCCNC(=O)c1ccc(-c2c3nc(c(-c4ccccc4)c4ccc([nH]4)c(-c4ccccc4)c4nc(c(-c5ccccc5)c5ccc2[nH]5)C=C4)C=C3)cc1
REMARK SMILES IDX 23 1 22 2 21 3 20 4 18 5 19 6 5 8 6 9 4 10 1 11 2 12 3 13
REMARK SMILES IDX 7 15 8 16 17 17 9 18 10 19 11 21 12 22 16 23 13 24 15 25
REMARK SMILES IDX 14 26 24 27 25 28 26 29 27 30 28 31 29 33 30 34 31 35 77 36
REMARK SMILES IDX 32 37 76 38 33 39 34 40 35 41 70 42 36 43 75 44 69 45 71 46
REMARK SMILES IDX 37 47 74 48 68 49 67 50 38 52 60 53 45 54 59 55 46 56 49 57
REMARK SMILES IDX 58 58 72 59 47 60 48 61 57 63 73 64 50 65 39 66 40 67 44 68
REMARK SMILES IDX 41 69 43 70 42 71 61 72 62 73 66 74 63 75 65 76 64 77 51 78
REMARK SMILES IDX 52 79 56 80 53 81 55 82 54 83
REMARK H PARENT 20 7 4 14 9 20 27 32 71 51 49 62
REMARK Flexibility Score: inf
ROOT
ATOM      1  C   UNL A   1      37.112  23.731  25.722  1.00  0.00     0.002 C 
ENDROOT
BRANCH   1   2
ATOM      2  C   UNL A   1      35.706  23.308  26.174  1.00  0.00     0.021 C 
BRANCH   2   3
ATOM      3  C   UNL A   1      34.531  23.948  25.443  1.00  0.00     0.116 C 
BRANCH   3   4
ATOM      4  N   UNL A   1      33.456  24.450  26.271  1.00  0.00    -0.351 N 
ATOM      5  C   UNL A   1      32.155  24.002  26.310  1.00  0.00     0.267 C 
ATOM      6  O   UNL A   1      31.415  24.383  27.216  1.00  0.00    -0.268 OA
ATOM      7  H   UNL A   1      33.680  25.194  26.875  1.00  0.00     0.163 HD
BRANCH   5   8
ATOM      8  C   UNL A   1      31.625  23.158  25.181  1.00  0.00     0.109 C 
ATOM      9  C   UNL A   1      31.184  23.723  24.036  1.00  0.00     0.062 C 
BRANCH   8  10
ATOM     10  N   UNL A   1      31.556  21.775  25.280  1.00  0.00    -0.322 N 
ATOM     11  C   UNL A   1      33.644  20.929  24.167  1.00  0.00     0.114 C 
ATOM     12  C   UNL A   1      32.367  20.740  24.926  1.00  0.00     0.221 C 
ATOM     13  O   UNL A   1      31.997  19.603  25.243  1.00  0.00    -0.275 OA
ATOM     14  H   UNL A   1      30.724  21.470  25.709  1.00  0.00     0.170 HD
ENDBRANCH   8  10
BRANCH   9  15
ATOM     15  C   UNL A   1      31.123  25.095  23.682  1.00  0.00     0.084 A 
ATOM     16  C   UNL A   1      32.159  25.823  23.146  1.00  0.00     0.112 A 
ATOM     17  N   UNL A   1      29.984  25.845  23.775  1.00  0.00    -0.229 NA
ATOM     18  N   UNL A   1      31.613  27.048  22.881  1.00  0.00    -0.344 N 
ATOM     19  C   UNL A   1      30.301  27.039  23.307  1.00  0.00     0.138 A 
ATOM     20  H   UNL A   1      32.076  27.807  22.458  1.00  0.00     0.168 HD
BRANCH  19  21
ATOM     21  C   UNL A   1      29.464  28.231  23.236  1.00  0.00     0.017 A 
ATOM     22  C   UNL A   1      30.005  29.508  23.415  1.00  0.00     0.012 A 
ATOM     23  C   UNL A   1      28.085  28.110  23.055  1.00  0.00     0.012 A 
ATOM     24  C   UNL A   1      29.191  30.638  23.493  1.00  0.00     0.001 A 
ATOM     25  C   UNL A   1      27.267  29.242  23.098  1.00  0.00     0.001 A 
ATOM     26  C   UNL A   1      27.817  30.503  23.337  1.00  0.00     0.000 A 
ENDBRANCH  19  21
ENDBRANCH   9  15
ENDBRANCH   5   8
ENDBRANCH   3   4
ENDBRANCH   2   3
ENDBRANCH   1   2
BRANCH   1  27
ATOM     27  C   UNL A   1      38.244  22.740  25.999  1.00  0.00     0.002 C 
BRANCH  27  28
ATOM     28  C   UNL A   1      38.284  21.514  25.082  1.00  0.00     0.021 C 
BRANCH  28  29
ATOM     29  C   UNL A   1      38.204  20.160  25.777  1.00  0.00     0.116 C 
BRANCH  29  30
ATOM     30  N   UNL A   1      39.426  19.371  25.676  1.00  0.00    -0.352 N 
ATOM     31  C   UNL A   1      40.745  19.622  25.963  1.00  0.00     0.251 C 
ATOM     32  H   UNL A   1      39.272  18.463  25.327  1.00  0.00     0.163 HD
ATOM     33  O   UNL A   1      41.573  18.751  25.682  1.00  0.00    -0.269 OA
BRANCH  31  34
ATOM     34  C   UNL A   1      41.222  20.894  26.563  1.00  0.00     0.039 A 
ATOM     35  C   UNL A   1      41.825  21.846  25.729  1.00  0.00     0.014 A 
ATOM     36  C   UNL A   1      41.137  21.164  27.926  1.00  0.00     0.014 A 
ATOM     37  C   UNL A   1      42.274  23.066  26.248  1.00  0.00     0.010 A 
ATOM     38  C   UNL A   1      41.450  22.428  28.418  1.00  0.00     0.010 A 
ATOM     39  C   UNL A   1      42.048  23.388  27.593  1.00  0.00    -0.014 A 
BRANCH  39  40
ATOM     40  C   UNL A   1      42.466  24.691  28.179  1.00  0.00     0.031 A 
ATOM     41  C   UNL A   1      41.447  25.781  28.401  1.00  0.00     0.074 A 
ATOM     42  C   UNL A   1      43.767  24.928  28.438  1.00  0.00     0.049 A 
ATOM     43  N   UNL A   1      41.627  27.020  28.787  1.00  0.00    -0.248 NA
ATOM     44  C   UNL A   1      40.041  25.450  28.107  1.00  0.00     0.031 C 
ATOM     45  C   UNL A   1      44.865  23.979  28.230  1.00  0.00     0.029 A 
ATOM     46  N   UNL A   1      44.391  26.049  28.928  1.00  0.00    -0.354 N 
ATOM     47  C   UNL A   1      40.371  27.615  28.745  1.00  0.00     0.074 A 
ATOM     48  C   UNL A   1      39.450  26.626  28.234  1.00  0.00     0.031 C 
ATOM     49  C   UNL A   1      46.017  24.545  28.624  1.00  0.00     0.029 A 
ATOM     50  C   UNL A   1      45.752  25.910  29.062  1.00  0.00     0.049 A 
ATOM     51  H   UNL A   1      43.908  26.875  29.160  1.00  0.00     0.167 HD
ATOM     52  C   UNL A   1      40.007  28.864  29.123  1.00  0.00     0.031 A 
ATOM     53  C   UNL A   1      46.684  26.786  29.484  1.00  0.00     0.031 A 
ATOM     54  C   UNL A   1      40.917  29.836  29.666  1.00  0.00     0.049 A 
ATOM     55  C   UNL A   1      46.256  28.164  29.903  1.00  0.00     0.074 A 
ATOM     56  C   UNL A   1      40.638  31.103  30.148  1.00  0.00     0.029 A 
ATOM     57  N   UNL A   1      42.283  29.644  29.806  1.00  0.00    -0.354 N 
ATOM     58  N   UNL A   1      45.055  28.689  29.916  1.00  0.00    -0.248 NA
ATOM     59  C   UNL A   1      47.313  29.068  30.376  1.00  0.00     0.031 C 
ATOM     60  C   UNL A   1      41.845  31.700  30.524  1.00  0.00     0.029 A 
ATOM     61  C   UNL A   1      42.865  30.780  30.342  1.00  0.00     0.049 A 
ATOM     62  H   UNL A   1      42.766  28.823  29.561  1.00  0.00     0.167 HD
ATOM     63  C   UNL A   1      45.207  29.972  30.429  1.00  0.00     0.074 A 
ATOM     64  C   UNL A   1      46.614  30.137  30.729  1.00  0.00     0.031 C 
ATOM     65  C   UNL A   1      44.267  30.927  30.633  1.00  0.00     0.031 A 
BRANCH  52  66
ATOM     66  C   UNL A   1      38.560  29.248  28.959  1.00  0.00    -0.014 A 
ATOM     67  C   UNL A   1      37.653  29.163  30.028  1.00  0.00     0.009 A 
ATOM     68  C   UNL A   1      38.102  29.728  27.722  1.00  0.00     0.009 A 
ATOM     69  C   UNL A   1      36.311  29.507  29.850  1.00  0.00     0.001 A 
ATOM     70  C   UNL A   1      36.768  30.106  27.556  1.00  0.00     0.001 A 
ATOM     71  C   UNL A   1      35.871  29.983  28.616  1.00  0.00     0.000 A 
ENDBRANCH  52  66
BRANCH  53  72
ATOM     72  C   UNL A   1      48.114  26.380  29.548  1.00  0.00    -0.014 A 
ATOM     73  C   UNL A   1      48.637  25.796  30.712  1.00  0.00     0.009 A 
ATOM     74  C   UNL A   1      48.965  26.577  28.450  1.00  0.00     0.009 A 
ATOM     75  C   UNL A   1      49.987  25.445  30.786  1.00  0.00     0.001 A 
ATOM     76  C   UNL A   1      50.308  26.195  28.514  1.00  0.00     0.001 A 
ATOM     77  C   UNL A   1      50.820  25.641  29.685  1.00  0.00     0.000 A 
ENDBRANCH  53  72
BRANCH  65  78
ATOM     78  C   UNL A   1      44.723  32.221  31.246  1.00  0.00    -0.014 A 
ATOM     79  C   UNL A   1      45.125  33.307  30.452  1.00  0.00     0.009 A 
ATOM     80  C   UNL A   1      44.711  32.367  32.642  1.00  0.00     0.009 A 
ATOM     81  C   UNL A   1      45.542  34.499  31.047  1.00  0.00     0.001 A 
ATOM     82  C   UNL A   1      45.096  33.571  33.233  1.00  0.00     0.001 A 
ATOM     83  C   UNL A   1      45.522  34.632  32.436  1.00  0.00     0.000 A 
ENDBRANCH  65  78
ENDBRANCH  39  40
ENDBRANCH  31  34
ENDBRANCH  29  30
ENDBRANCH  28  29
ENDBRANCH  27  28
ENDBRANCH   1  27
TORSDOF 16
ENDMDL
MODEL 3
REMARK VINA RESULT:     -11.3      2.020      7.212
REMARK SMILES CC(=O)N/C(=C/c1c[nH]c(-c2ccccc2)n1)C(=O)NCCCCCCNC(=O)c1ccc(-c2c3nc(c(-c4ccccc4)c4ccc([nH]4)c(-c4ccccc4)c4nc(c(-c5ccccc5)c5ccc2[nH]5)C=C4)C=C3)cc1
REMARK SMILES IDX 23 1 22 2 21 3 20 4 18 5 19 6 5 8 6 9 4 10 1 11 2 12 3 13
REMARK SMILES IDX 7 15 8 16 17 17 9 18 10 19 11 21 12 22 16 23 13 24 15 25
REMARK SMILES IDX 14 26 24 27 25 28 26 29 27 30 28 31 29 33 30 34 31 35 77 36
REMARK SMILES IDX 32 37 76 38 33 39 34 40 35 41 70 42 36 43 75 44 69 45 71 46
REMARK SMILES IDX 37 47 74 48 68 49 67 50 38 52 60 53 45 54 59 55 46 56 49 57
REMARK SMILES IDX 58 58 72 59 47 60 48 61 57 63 73 64 50 65 39 66 40 67 44 68
REMARK SMILES IDX 41 69 43 70 42 71 61 72 62 73 66 74 63 75 65 76 64 77 51 78
REMARK SMILES IDX 52 79 56 80 53 81 55 82 54 83
REMARK H PARENT 20 7 4 14 9 20 27 32 71 51 49 62
REMARK Flexibility Score: inf
ROOT
ATOM      1  C   UNL A   1      37.065  23.451  25.471  1.00  0.00     0.002 C 
ENDROOT
BRANCH   1   2
ATOM      2  C   UNL A   1      35.659  23.232  26.051  1.00  0.00     0.021 C 
BRANCH   2   3
ATOM      3  C   UNL A   1      34.512  23.964  25.360  1.00  0.00     0.116 C 
BRANCH   3   4
ATOM      4  N   UNL A   1      33.445  24.435  26.215  1.00  0.00    -0.351 N 
ATOM      5  C   UNL A   1      32.181  23.903  26.342  1.00  0.00     0.267 C 
ATOM      6  O   UNL A   1      31.460  24.280  27.264  1.00  0.00    -0.268 OA
ATOM      7  H   UNL A   1      33.643  25.224  26.768  1.00  0.00     0.163 HD
BRANCH   5   8
ATOM      8  C   UNL A   1      31.661  22.964  25.287  1.00  0.00     0.109 C 
ATOM      9  C   UNL A   1      31.177  23.432  24.115  1.00  0.00     0.062 C 
BRANCH   8  10
ATOM     10  N   UNL A   1      31.643  21.589  25.482  1.00  0.00    -0.322 N 
ATOM     11  C   UNL A   1      33.536  20.701  24.088  1.00  0.00     0.114 C 
ATOM     12  C   UNL A   1      32.409  20.545  25.062  1.00  0.00     0.221 C 
ATOM     13  O   UNL A   1      32.125  19.426  25.507  1.00  0.00    -0.275 OA
ATOM     14  H   UNL A   1      30.902  21.302  26.063  1.00  0.00     0.170 HD
ENDBRANCH   8  10
BRANCH   9  15
ATOM     15  C   UNL A   1      31.060  24.773  23.669  1.00  0.00     0.084 A 
ATOM     16  C   UNL A   1      31.955  25.417  22.848  1.00  0.00     0.112 A 
ATOM     17  N   UNL A   1      29.988  25.570  23.958  1.00  0.00    -0.229 NA
ATOM     18  N   UNL A   1      31.384  26.637  22.613  1.00  0.00    -0.344 N 
ATOM     19  C   UNL A   1      30.209  26.711  23.330  1.00  0.00     0.138 A 
ATOM     20  H   UNL A   1      31.749  27.342  22.030  1.00  0.00     0.168 HD
BRANCH  19  21
ATOM     21  C   UNL A   1      29.400  27.924  23.351  1.00  0.00     0.017 A 
ATOM     22  C   UNL A   1      28.005  27.866  23.278  1.00  0.00     0.012 A 
ATOM     23  C   UNL A   1      30.015  29.177  23.375  1.00  0.00     0.012 A 
ATOM     24  C   UNL A   1      27.235  29.021  23.152  1.00  0.00     0.001 A 
ATOM     25  C   UNL A   1      29.246  30.341  23.282  1.00  0.00     0.001 A 
ATOM     26  C   UNL A   1      27.859  30.262  23.151  1.00  0.00     0.000 A 
ENDBRANCH  19  21
ENDBRANCH   9  15
ENDBRANCH   5   8
ENDBRANCH   3   4
ENDBRANCH   2   3
ENDBRANCH   1   2
BRANCH   1  27
ATOM     27  C   UNL A   1      38.157  22.494  25.953  1.00  0.00     0.002 C 
BRANCH  27  28
ATOM     28  C   UNL A   1      38.372  21.251  25.087  1.00  0.00     0.021 C 
BRANCH  28  29
ATOM     29  C   UNL A   1      38.394  19.919  25.827  1.00  0.00     0.116 C 
BRANCH  29  30
ATOM     30  N   UNL A   1      39.670  19.216  25.742  1.00  0.00    -0.352 N 
ATOM     31  C   UNL A   1      40.968  19.573  26.008  1.00  0.00     0.251 C 
ATOM     32  H   UNL A   1      39.579  18.288  25.427  1.00  0.00     0.163 HD
ATOM     33  O   UNL A   1      41.855  18.754  25.751  1.00  0.00    -0.269 OA
BRANCH  31  34
ATOM     34  C   UNL A   1      41.356  20.896  26.559  1.00  0.00     0.039 A 
ATOM     35  C   UNL A   1      41.919  21.845  25.693  1.00  0.00     0.014 A 
ATOM     36  C   UNL A   1      41.226  21.221  27.906  1.00  0.00     0.014 A 
ATOM     37  C   UNL A   1      42.284  23.111  26.164  1.00  0.00     0.010 A 
ATOM     38  C   UNL A   1      41.452  22.523  28.345  1.00  0.00     0.010 A 
ATOM     39  C   UNL A   1      42.011  23.479  27.488  1.00  0.00    -0.014 A 
BRANCH  39  40
ATOM     40  C   UNL A   1      42.338  24.829  28.023  1.00  0.00     0.031 A 
ATOM     41  C   UNL A   1      43.746  25.146  28.462  1.00  0.00     0.074 A 
ATOM     42  C   UNL A   1      41.362  25.743  28.191  1.00  0.00     0.049 A 
ATOM     43  N   UNL A   1      44.208  26.216  29.060  1.00  0.00    -0.248 NA
ATOM     44  C   UNL A   1      44.765  24.105  28.239  1.00  0.00     0.031 C 
ATOM     45  C   UNL A   1      39.949  25.554  27.850  1.00  0.00     0.029 A 
ATOM     46  N   UNL A   1      41.409  27.018  28.700  1.00  0.00    -0.354 N 
ATOM     47  C   UNL A   1      45.550  25.958  29.314  1.00  0.00     0.074 A 
ATOM     48  C   UNL A   1      45.815  24.610  28.867  1.00  0.00     0.031 C 
ATOM     49  C   UNL A   1      39.275  26.683  28.125  1.00  0.00     0.029 A 
ATOM     50  C   UNL A   1      40.192  27.655  28.708  1.00  0.00     0.049 A 
ATOM     51  H   UNL A   1      42.238  27.435  29.029  1.00  0.00     0.167 HD
ATOM     52  C   UNL A   1      46.490  26.776  29.846  1.00  0.00     0.031 A 
ATOM     53  C   UNL A   1      39.849  28.883  29.143  1.00  0.00     0.031 A 
ATOM     54  C   UNL A   1      46.236  28.131  30.256  1.00  0.00     0.049 A 
ATOM     55  C   UNL A   1      40.910  29.775  29.725  1.00  0.00     0.074 A 
ATOM     56  C   UNL A   1      47.133  29.068  30.739  1.00  0.00     0.029 A 
ATOM     57  N   UNL A   1      44.992  28.743  30.225  1.00  0.00    -0.354 N 
ATOM     58  N   UNL A   1      42.187  29.537  29.899  1.00  0.00    -0.248 NA
ATOM     59  C   UNL A   1      40.481  31.111  30.160  1.00  0.00     0.031 C 
ATOM     60  C   UNL A   1      46.420  30.228  31.056  1.00  0.00     0.029 A 
ATOM     61  C   UNL A   1      45.093  30.037  30.706  1.00  0.00     0.049 A 
ATOM     62  H   UNL A   1      44.162  28.320  29.909  1.00  0.00     0.167 HD
ATOM     63  C   UNL A   1      42.721  30.704  30.433  1.00  0.00     0.074 A 
ATOM     64  C   UNL A   1      41.631  31.651  30.538  1.00  0.00     0.031 C 
ATOM     65  C   UNL A   1      43.998  30.967  30.804  1.00  0.00     0.031 A 
BRANCH  52  66
ATOM     66  C   UNL A   1      47.881  26.224  30.014  1.00  0.00    -0.014 A 
ATOM     67  C   UNL A   1      48.794  26.199  28.947  1.00  0.00     0.009 A 
ATOM     68  C   UNL A   1      48.294  25.745  31.267  1.00  0.00     0.009 A 
ATOM     69  C   UNL A   1      50.074  25.666  29.120  1.00  0.00     0.001 A 
ATOM     70  C   UNL A   1      49.586  25.246  31.446  1.00  0.00     0.001 A 
ATOM     71  C   UNL A   1      50.470  25.194  30.370  1.00  0.00     0.000 A 
ENDBRANCH  52  66
BRANCH  53  72
ATOM     72  C   UNL A   1      38.441  29.348  29.029  1.00  0.00    -0.014 A 
ATOM     73  C   UNL A   1      37.964  29.886  27.823  1.00  0.00     0.009 A 
ATOM     74  C   UNL A   1      37.566  29.263  30.123  1.00  0.00     0.009 A 
ATOM     75  C   UNL A   1      36.652  30.354  27.724  1.00  0.00     0.001 A 
ATOM     76  C   UNL A   1      36.244  29.702  30.012  1.00  0.00     0.001 A 
ATOM     77  C   UNL A   1      35.792  30.257  28.817  1.00  0.00     0.000 A 
ENDBRANCH  53  72
BRANCH  65  78
ATOM     78  C   UNL A   1      44.294  32.347  31.319  1.00  0.00    -0.014 A 
ATOM     79  C   UNL A   1      44.585  33.407  30.447  1.00  0.00     0.009 A 
ATOM     80  C   UNL A   1      44.241  32.596  32.699  1.00  0.00     0.009 A 
ATOM     81  C   UNL A   1      44.854  34.681  30.951  1.00  0.00     0.001 A 
ATOM     82  C   UNL A   1      44.476  33.878  33.198  1.00  0.00     0.001 A 
ATOM     83  C   UNL A   1      44.794  34.916  32.325  1.00  0.00     0.000 A 
ENDBRANCH  65  78
ENDBRANCH  39  40
ENDBRANCH  31  34
ENDBRANCH  29  30
ENDBRANCH  28  29
ENDBRANCH  27  28
ENDBRANCH   1  27
TORSDOF 16
ENDMDL
