MODEL 1
REMARK VINA RESULT:     -10.7      0.000      0.000
REMARK SMILES CCNC(=O)c1ccc(N2C[C@@H](C)[C@H](C(=O)NCCCCCCNC(=O)c3ccc(-c4c5nc(c(-c6ccccc6)c6ccc([nH]6)c(-c6ccccc6)c6nc(c(-c7ccccc7)c7ccc4[nH]7)C=C6)C=C5)cc3)C2)nn1
REMARK SMILES IDX 20 1 19 2 18 3 17 4 15 5 16 6 14 8 10 9 11 10 75 11 12 12
REMARK SMILES IDX 13 13 9 14 6 15 7 16 77 17 8 18 76 19 4 20 3 21 5 23 2 24
REMARK SMILES IDX 1 25 21 26 22 27 23 28 24 29 25 30 26 32 27 33 28 34 74 35
REMARK SMILES IDX 29 36 73 37 30 38 31 39 32 40 67 41 33 42 72 43 66 44 68 45
REMARK SMILES IDX 34 46 71 47 65 48 64 49 35 51 57 52 42 53 56 54 43 55 46 56
REMARK SMILES IDX 55 57 69 58 44 59 45 60 54 62 70 63 47 64 36 65 37 66 41 67
REMARK SMILES IDX 38 68 40 69 39 70 58 71 59 72 63 73 60 74 62 75 61 76 48 77
REMARK SMILES IDX 49 78 53 79 50 80 52 81 51 82
REMARK H PARENT 17 7 3 22 24 31 68 50 46 61
REMARK Flexibility Score: inf
ROOT
ATOM      1  C   UNL A   1      33.888  34.086  28.029  1.00  0.00     0.002 C 
ENDROOT
BRANCH   1   2
ATOM      2  C   UNL A   1      34.927  32.968  28.102  1.00  0.00     0.021 C 
BRANCH   2   3
ATOM      3  C   UNL A   1      34.444  31.685  28.773  1.00  0.00     0.116 C 
BRANCH   3   4
ATOM      4  N   UNL A   1      34.849  30.482  28.076  1.00  0.00    -0.356 N 
ATOM      5  C   UNL A   1      34.130  29.612  27.315  1.00  0.00     0.225 C 
ATOM      6  O   UNL A   1      34.763  28.707  26.758  1.00  0.00    -0.275 OA
ATOM      7  H   UNL A   1      35.803  30.257  28.167  1.00  0.00     0.163 HD
BRANCH   5   8
ATOM      8  C   UNL A   1      32.617  29.703  27.109  1.00  0.00     0.102 C 
ATOM      9  N   UNL A   1      31.677  28.673  25.213  1.00  0.00    -0.354 N 
ATOM     10  C   UNL A   1      31.351  30.080  25.035  1.00  0.00     0.122 C 
ATOM     11  C   UNL A   1      32.026  28.391  26.600  1.00  0.00     0.132 C 
ATOM     12  C   UNL A   1      32.156  30.804  26.136  1.00  0.00     0.019 C 
ATOM     13  C   UNL A   1      31.341  31.890  26.832  1.00  0.00     0.010 C 
BRANCH   9  14
ATOM     14  C   UNL A   1      31.857  27.699  24.264  1.00  0.00     0.151 A 
ATOM     15  C   UNL A   1      32.408  25.961  22.196  1.00  0.00     0.150 A 
ATOM     16  C   UNL A   1      31.116  26.418  22.344  1.00  0.00     0.040 A 
ATOM     17  N   UNL A   1      33.395  26.328  23.031  1.00  0.00    -0.143 NA
ATOM     18  C   UNL A   1      30.843  27.292  23.402  1.00  0.00     0.051 A 
ATOM     19  N   UNL A   1      33.101  27.197  24.065  1.00  0.00    -0.132 NA
BRANCH  15  20
ATOM     20  C   UNL A   1      32.757  25.044  21.094  1.00  0.00     0.271 C 
ATOM     21  N   UNL A   1      32.981  23.711  21.355  1.00  0.00    -0.351 N 
ATOM     22  H   UNL A   1      33.153  23.145  20.570  1.00  0.00     0.163 HD
ATOM     23  O   UNL A   1      32.909  25.487  19.959  1.00  0.00    -0.267 OA
BRANCH  21  24
ATOM     24  C   UNL A   1      32.996  23.030  22.636  1.00  0.00     0.113 C 
ATOM     25  C   UNL A   1      31.596  22.730  23.129  1.00  0.00     0.027 C 
ENDBRANCH  21  24
ENDBRANCH  15  20
ENDBRANCH   9  14
ENDBRANCH   5   8
ENDBRANCH   3   4
ENDBRANCH   2   3
ENDBRANCH   1   2
BRANCH   1  26
ATOM     26  C   UNL A   1      34.420  35.505  28.274  1.00  0.00     0.002 C 
BRANCH  26  27
ATOM     27  C   UNL A   1      33.387  36.528  28.756  1.00  0.00     0.021 C 
BRANCH  27  28
ATOM     28  C   UNL A   1      33.614  37.064  30.164  1.00  0.00     0.116 C 
BRANCH  28  29
ATOM     29  N   UNL A   1      32.535  36.694  31.068  1.00  0.00    -0.352 N 
ATOM     30  C   UNL A   1      32.452  35.707  32.019  1.00  0.00     0.251 C 
ATOM     31  H   UNL A   1      31.725  37.247  30.982  1.00  0.00     0.163 HD
ATOM     32  O   UNL A   1      31.357  35.429  32.502  1.00  0.00    -0.269 OA
BRANCH  30  33
ATOM     33  C   UNL A   1      33.652  34.958  32.461  1.00  0.00     0.039 A 
ATOM     34  C   UNL A   1      33.501  33.634  32.889  1.00  0.00     0.014 A 
ATOM     35  C   UNL A   1      34.912  35.557  32.505  1.00  0.00     0.014 A 
ATOM     36  C   UNL A   1      34.619  32.892  33.284  1.00  0.00     0.010 A 
ATOM     37  C   UNL A   1      36.036  34.795  32.821  1.00  0.00     0.010 A 
ATOM     38  C   UNL A   1      35.903  33.453  33.209  1.00  0.00    -0.014 A 
BRANCH  38  39
ATOM     39  C   UNL A   1      37.122  32.660  33.517  1.00  0.00     0.031 A 
ATOM     40  C   UNL A   1      37.897  32.917  34.781  1.00  0.00     0.074 A 
ATOM     41  C   UNL A   1      37.584  31.768  32.618  1.00  0.00     0.049 A 
ATOM     42  N   UNL A   1      39.056  32.433  35.154  1.00  0.00    -0.248 NA
ATOM     43  C   UNL A   1      37.305  33.862  35.742  1.00  0.00     0.031 C 
ATOM     44  C   UNL A   1      36.945  31.441  31.341  1.00  0.00     0.029 A 
ATOM     45  N   UNL A   1      38.712  30.986  32.633  1.00  0.00    -0.354 N 
ATOM     46  C   UNL A   1      39.336  33.023  36.380  1.00  0.00     0.074 A 
ATOM     47  C   UNL A   1      38.251  33.937  36.667  1.00  0.00     0.031 C 
ATOM     48  C   UNL A   1      37.685  30.522  30.700  1.00  0.00     0.029 A 
ATOM     49  C   UNL A   1      38.873  30.230  31.495  1.00  0.00     0.049 A 
ATOM     50  H   UNL A   1      39.345  30.967  33.387  1.00  0.00     0.167 HD
ATOM     51  C   UNL A   1      40.390  32.811  37.204  1.00  0.00     0.031 A 
ATOM     52  C   UNL A   1      39.877  29.415  31.120  1.00  0.00     0.031 A 
ATOM     53  C   UNL A   1      41.467  31.899  36.926  1.00  0.00     0.049 A 
ATOM     54  C   UNL A   1      41.056  29.229  32.033  1.00  0.00     0.074 A 
ATOM     55  C   UNL A   1      42.562  31.590  37.715  1.00  0.00     0.029 A 
ATOM     56  N   UNL A   1      41.585  31.147  35.767  1.00  0.00    -0.354 N 
ATOM     57  N   UNL A   1      41.282  29.761  33.210  1.00  0.00    -0.248 NA
ATOM     58  C   UNL A   1      42.118  28.326  31.567  1.00  0.00     0.031 C 
ATOM     59  C   UNL A   1      43.366  30.687  37.015  1.00  0.00     0.029 A 
ATOM     60  C   UNL A   1      42.746  30.393  35.811  1.00  0.00     0.049 A 
ATOM     61  H   UNL A   1      40.940  31.149  35.023  1.00  0.00     0.167 HD
ATOM     62  C   UNL A   1      42.500  29.242  33.632  1.00  0.00     0.074 A 
ATOM     63  C   UNL A   1      42.954  28.337  32.597  1.00  0.00     0.031 C 
ATOM     64  C   UNL A   1      43.184  29.497  34.773  1.00  0.00     0.031 A 
BRANCH  51  65
ATOM     65  C   UNL A   1      40.431  33.585  38.492  1.00  0.00    -0.014 A 
ATOM     66  C   UNL A   1      39.842  33.075  39.660  1.00  0.00     0.009 A 
ATOM     67  C   UNL A   1      41.104  34.815  38.553  1.00  0.00     0.009 A 
ATOM     68  C   UNL A   1      39.899  33.796  40.854  1.00  0.00     0.001 A 
ATOM     69  C   UNL A   1      41.184  35.520  39.754  1.00  0.00     0.001 A 
ATOM     70  C   UNL A   1      40.574  35.016  40.902  1.00  0.00     0.000 A 
ENDBRANCH  51  65
BRANCH  52  71
ATOM     71  C   UNL A   1      39.826  28.727  29.803  1.00  0.00    -0.014 A 
ATOM     72  C   UNL A   1      39.292  27.433  29.692  1.00  0.00     0.009 A 
ATOM     73  C   UNL A   1      40.328  29.352  28.651  1.00  0.00     0.009 A 
ATOM     74  C   UNL A   1      39.291  26.770  28.462  1.00  0.00     0.001 A 
ATOM     75  C   UNL A   1      40.296  28.700  27.417  1.00  0.00     0.001 A 
ATOM     76  C   UNL A   1      39.789  27.405  27.325  1.00  0.00     0.000 A 
ENDBRANCH  52  71
BRANCH  64  77
ATOM     77  C   UNL A   1      44.482  28.768  34.974  1.00  0.00    -0.014 A 
ATOM     78  C   UNL A   1      45.703  29.338  34.583  1.00  0.00     0.009 A 
ATOM     79  C   UNL A   1      44.486  27.514  35.604  1.00  0.00     0.009 A 
ATOM     80  C   UNL A   1      46.900  28.653  34.795  1.00  0.00     0.001 A 
ATOM     81  C   UNL A   1      45.687  26.844  35.840  1.00  0.00     0.001 A 
ATOM     82  C   UNL A   1      46.893  27.411  35.428  1.00  0.00     0.000 A 
ENDBRANCH  64  77
ENDBRANCH  38  39
ENDBRANCH  30  33
ENDBRANCH  28  29
ENDBRANCH  27  28
ENDBRANCH  26  27
ENDBRANCH   1  26
TORSDOF 16
ENDMDL
MODEL 2
REMARK VINA RESULT:     -10.7      5.407     10.351
REMARK SMILES CCNC(=O)c1ccc(N2C[C@@H](C)[C@H](C(=O)NCCCCCCNC(=O)c3ccc(-c4c5nc(c(-c6ccccc6)c6ccc([nH]6)c(-c6ccccc6)c6nc(c(-c7ccccc7)c7ccc4[nH]7)C=C6)C=C5)cc3)C2)nn1
REMARK SMILES IDX 20 1 19 2 18 3 17 4 15 5 16 6 14 8 10 9 11 10 75 11 12 12
REMARK SMILES IDX 13 13 9 14 6 15 7 16 77 17 8 18 76 19 4 20 3 21 5 23 2 24
REMARK SMILES IDX 1 25 21 26 22 27 23 28 24 29 25 30 26 32 27 33 28 34 74 35
REMARK SMILES IDX 29 36 73 37 30 38 31 39 32 40 67 41 33 42 72 43 66 44 68 45
REMARK SMILES IDX 34 46 71 47 65 48 64 49 35 51 57 52 42 53 56 54 43 55 46 56
REMARK SMILES IDX 55 57 69 58 44 59 45 60 54 62 70 63 47 64 36 65 37 66 41 67
REMARK SMILES IDX 38 68 40 69 39 70 58 71 59 72 63 73 60 74 62 75 61 76 48 77
REMARK SMILES IDX 49 78 53 79 50 80 52 81 51 82
REMARK H PARENT 17 7 3 22 24 31 68 50 46 61
REMARK Flexibility Score: inf
ROOT
ATOM      1  C   UNL A   1      35.561  21.887  24.330  1.00  0.00     0.002 C 
ENDROOT
BRANCH   1   2
ATOM      2  C   UNL A   1      34.075  22.175  24.544  1.00  0.00     0.021 C 
BRANCH   2   3
ATOM      3  C   UNL A   1      33.194  21.950  23.318  1.00  0.00     0.116 C 
BRANCH   3   4
ATOM      4  N   UNL A   1      33.134  23.096  22.435  1.00  0.00    -0.356 N 
ATOM      5  C   UNL A   1      32.755  24.382  22.674  1.00  0.00     0.225 C 
ATOM      6  O   UNL A   1      32.892  25.183  21.742  1.00  0.00    -0.275 OA
ATOM      7  H   UNL A   1      33.413  22.915  21.509  1.00  0.00     0.163 HD
BRANCH   5   8
ATOM      8  C   UNL A   1      32.195  24.875  24.009  1.00  0.00     0.102 C 
ATOM      9  N   UNL A   1      30.960  26.879  24.038  1.00  0.00    -0.354 N 
ATOM     10  C   UNL A   1      32.095  27.163  24.903  1.00  0.00     0.122 C 
ATOM     11  C   UNL A   1      30.785  25.441  23.866  1.00  0.00     0.132 C 
ATOM     12  C   UNL A   1      33.037  25.955  24.712  1.00  0.00     0.019 C 
ATOM     13  C   UNL A   1      33.627  25.464  26.031  1.00  0.00     0.010 C 
BRANCH   9  14
ATOM     14  C   UNL A   1      30.211  27.741  23.281  1.00  0.00     0.151 A 
ATOM     15  C   UNL A   1      28.829  29.719  21.946  1.00  0.00     0.150 A 
ATOM     16  C   UNL A   1      28.114  28.811  22.698  1.00  0.00     0.040 A 
ATOM     17  N   UNL A   1      30.166  29.661  21.839  1.00  0.00    -0.143 NA
ATOM     18  C   UNL A   1      28.822  27.805  23.364  1.00  0.00     0.051 A 
ATOM     19  N   UNL A   1      30.844  28.661  22.511  1.00  0.00    -0.132 NA
BRANCH  15  20
ATOM     20  C   UNL A   1      28.136  30.807  21.228  1.00  0.00     0.271 C 
ATOM     21  N   UNL A   1      27.986  32.037  21.825  1.00  0.00    -0.351 N 
ATOM     22  H   UNL A   1      27.566  32.733  21.270  1.00  0.00     0.163 HD
ATOM     23  O   UNL A   1      27.642  30.588  20.125  1.00  0.00    -0.267 OA
BRANCH  21  24
ATOM     24  C   UNL A   1      28.364  32.445  23.165  1.00  0.00     0.113 C 
ATOM     25  C   UNL A   1      29.144  33.744  23.157  1.00  0.00     0.027 C 
ENDBRANCH  21  24
ENDBRANCH  15  20
ENDBRANCH   9  14
ENDBRANCH   5   8
ENDBRANCH   3   4
ENDBRANCH   2   3
ENDBRANCH   1   2
BRANCH   1  26
ATOM     26  C   UNL A   1      36.093  20.609  24.994  1.00  0.00     0.002 C 
BRANCH  26  27
ATOM     27  C   UNL A   1      37.525  20.214  24.620  1.00  0.00     0.021 C 
BRANCH  27  28
ATOM     28  C   UNL A   1      38.593  20.617  25.630  1.00  0.00     0.116 C 
BRANCH  28  29
ATOM     29  N   UNL A   1      39.676  19.648  25.694  1.00  0.00    -0.352 N 
ATOM     30  C   UNL A   1      41.006  19.798  25.999  1.00  0.00     0.251 C 
ATOM     31  H   UNL A   1      39.408  18.724  25.480  1.00  0.00     0.163 HD
ATOM     32  O   UNL A   1      41.785  18.877  25.761  1.00  0.00    -0.269 OA
BRANCH  30  33
ATOM     33  C   UNL A   1      41.525  21.052  26.592  1.00  0.00     0.039 A 
ATOM     34  C   UNL A   1      42.036  22.040  25.741  1.00  0.00     0.014 A 
ATOM     35  C   UNL A   1      41.560  21.248  27.974  1.00  0.00     0.014 A 
ATOM     36  C   UNL A   1      42.505  23.247  26.270  1.00  0.00     0.010 A 
ATOM     37  C   UNL A   1      41.952  22.482  28.494  1.00  0.00     0.010 A 
ATOM     38  C   UNL A   1      42.424  23.496  27.648  1.00  0.00    -0.014 A 
BRANCH  38  39
ATOM     39  C   UNL A   1      42.812  24.807  28.230  1.00  0.00     0.031 A 
ATOM     40  C   UNL A   1      41.780  25.882  28.439  1.00  0.00     0.074 A 
ATOM     41  C   UNL A   1      44.110  25.066  28.489  1.00  0.00     0.049 A 
ATOM     42  N   UNL A   1      41.947  27.131  28.797  1.00  0.00    -0.248 NA
ATOM     43  C   UNL A   1      40.377  25.512  28.189  1.00  0.00     0.031 C 
ATOM     44  C   UNL A   1      45.217  24.124  28.307  1.00  0.00     0.029 A 
ATOM     45  N   UNL A   1      44.720  26.209  28.944  1.00  0.00    -0.354 N 
ATOM     46  C   UNL A   1      40.678  27.696  28.801  1.00  0.00     0.074 A 
ATOM     47  C   UNL A   1      39.756  26.669  28.363  1.00  0.00     0.031 C 
ATOM     48  C   UNL A   1      46.367  24.723  28.653  1.00  0.00     0.029 A 
ATOM     49  C   UNL A   1      46.089  26.103  29.035  1.00  0.00     0.049 A 
ATOM     50  H   UNL A   1      44.225  27.026  29.182  1.00  0.00     0.167 HD
ATOM     51  C   UNL A   1      40.307  28.950  29.154  1.00  0.00     0.031 A 
ATOM     52  C   UNL A   1      47.018  27.021  29.362  1.00  0.00     0.031 A 
ATOM     53  C   UNL A   1      41.218  29.972  29.595  1.00  0.00     0.049 A 
ATOM     54  C   UNL A   1      46.585  28.418  29.709  1.00  0.00     0.074 A 
ATOM     55  C   UNL A   1      40.933  31.263  30.008  1.00  0.00     0.029 A 
ATOM     56  N   UNL A   1      42.593  29.819  29.682  1.00  0.00    -0.354 N 
ATOM     57  N   UNL A   1      45.375  28.921  29.751  1.00  0.00    -0.248 NA
ATOM     58  C   UNL A   1      47.647  29.373  30.059  1.00  0.00     0.031 C 
ATOM     59  C   UNL A   1      42.139  31.906  30.300  1.00  0.00     0.029 A 
ATOM     60  C   UNL A   1      43.171  30.999  30.119  1.00  0.00     0.049 A 
ATOM     61  H   UNL A   1      43.085  28.995  29.464  1.00  0.00     0.167 HD
ATOM     62  C   UNL A   1      45.530  30.243  30.150  1.00  0.00     0.074 A 
ATOM     63  C   UNL A   1      46.946  30.458  30.359  1.00  0.00     0.031 C 
ATOM     64  C   UNL A   1      44.582  31.197  30.322  1.00  0.00     0.031 A 
BRANCH  51  65
ATOM     65  C   UNL A   1      38.844  29.289  29.076  1.00  0.00    -0.014 A 
ATOM     66  C   UNL A   1      38.269  29.739  27.877  1.00  0.00     0.009 A 
ATOM     67  C   UNL A   1      38.021  29.113  30.199  1.00  0.00     0.009 A 
ATOM     68  C   UNL A   1      36.906  30.036  27.814  1.00  0.00     0.001 A 
ATOM     69  C   UNL A   1      36.653  29.383  30.126  1.00  0.00     0.001 A 
ATOM     70  C   UNL A   1      36.099  29.854  28.936  1.00  0.00     0.000 A 
ENDBRANCH  51  65
BRANCH  52  71
ATOM     71  C   UNL A   1      48.460  26.658  29.355  1.00  0.00    -0.014 A 
ATOM     72  C   UNL A   1      49.043  26.022  30.462  1.00  0.00     0.009 A 
ATOM     73  C   UNL A   1      49.267  26.960  28.247  1.00  0.00     0.009 A 
ATOM     74  C   UNL A   1      50.409  25.727  30.472  1.00  0.00     0.001 A 
ATOM     75  C   UNL A   1      50.624  26.634  28.245  1.00  0.00     0.001 A 
ATOM     76  C   UNL A   1      51.197  26.029  29.362  1.00  0.00     0.000 A 
ENDBRANCH  52  71
BRANCH  64  77
ATOM     77  C   UNL A   1      45.044  32.549  30.783  1.00  0.00    -0.014 A 
ATOM     78  C   UNL A   1      45.183  32.842  32.149  1.00  0.00     0.009 A 
ATOM     79  C   UNL A   1      45.389  33.528  29.837  1.00  0.00     0.009 A 
ATOM     80  C   UNL A   1      45.632  34.099  32.558  1.00  0.00     0.001 A 
ATOM     81  C   UNL A   1      45.863  34.774  30.249  1.00  0.00     0.001 A 
ATOM     82  C   UNL A   1      45.977  35.061  31.609  1.00  0.00     0.000 A 
ENDBRANCH  64  77
ENDBRANCH  38  39
ENDBRANCH  30  33
ENDBRANCH  28  29
ENDBRANCH  27  28
ENDBRANCH  26  27
ENDBRANCH   1  26
TORSDOF 16
ENDMDL
MODEL 3
REMARK VINA RESULT:     -10.5      2.395      3.495
REMARK SMILES CCNC(=O)c1ccc(N2C[C@@H](C)[C@H](C(=O)NCCCCCCNC(=O)c3ccc(-c4c5nc(c(-c6ccccc6)c6ccc([nH]6)c(-c6ccccc6)c6nc(c(-c7ccccc7)c7ccc4[nH]7)C=C6)C=C5)cc3)C2)nn1
REMARK SMILES IDX 20 1 19 2 18 3 17 4 15 5 16 6 14 8 10 9 11 10 75 11 12 12
REMARK SMILES IDX 13 13 9 14 6 15 7 16 77 17 8 18 76 19 4 20 3 21 5 23 2 24
REMARK SMILES IDX 1 25 21 26 22 27 23 28 24 29 25 30 26 32 27 33 28 34 74 35
REMARK SMILES IDX 29 36 73 37 30 38 31 39 32 40 67 41 33 42 72 43 66 44 68 45
REMARK SMILES IDX 34 46 71 47 65 48 64 49 35 51 57 52 42 53 56 54 43 55 46 56
REMARK SMILES IDX 55 57 69 58 44 59 45 60 54 62 70 63 47 64 36 65 37 66 41 67
REMARK SMILES IDX 38 68 40 69 39 70 58 71 59 72 63 73 60 74 62 75 61 76 48 77
REMARK SMILES IDX 49 78 53 79 50 80 52 81 51 82
REMARK H PARENT 17 7 3 22 24 31 68 50 46 61
REMARK Flexibility Score: inf
ROOT
ATOM      1  C   UNL A   1      34.949  30.270  27.591  1.00  0.00     0.002 C 
ENDROOT
BRANCH   1   2
ATOM      2  C   UNL A   1      33.527  29.821  27.252  1.00  0.00     0.021 C 
BRANCH   2   3
ATOM      3  C   UNL A   1      33.149  29.946  25.779  1.00  0.00     0.116 C 
BRANCH   3   4
ATOM      4  N   UNL A   1      33.629  28.847  24.967  1.00  0.00    -0.356 N 
ATOM      5  C   UNL A   1      32.968  27.781  24.435  1.00  0.00     0.225 C 
ATOM      6  O   UNL A   1      33.622  27.035  23.697  1.00  0.00    -0.275 OA
ATOM      7  H   UNL A   1      34.592  28.875  24.767  1.00  0.00     0.163 HD
BRANCH   5   8
ATOM      8  C   UNL A   1      31.490  27.477  24.689  1.00  0.00     0.102 C 
ATOM      9  N   UNL A   1      30.768  25.240  24.573  1.00  0.00    -0.354 N 
ATOM     10  C   UNL A   1      30.006  25.900  23.525  1.00  0.00     0.122 C 
ATOM     11  C   UNL A   1      31.300  26.212  25.521  1.00  0.00     0.132 C 
ATOM     12  C   UNL A   1      30.631  27.309  23.423  1.00  0.00     0.019 C 
ATOM     13  C   UNL A   1      29.577  28.404  23.287  1.00  0.00     0.010 C 
BRANCH   9  14
ATOM     14  C   UNL A   1      31.166  23.930  24.661  1.00  0.00     0.151 A 
ATOM     15  C   UNL A   1      32.245  21.412  24.975  1.00  0.00     0.150 A 
ATOM     16  C   UNL A   1      32.073  21.899  23.696  1.00  0.00     0.040 A 
ATOM     17  N   UNL A   1      31.894  22.120  26.061  1.00  0.00    -0.143 NA
ATOM     18  C   UNL A   1      31.516  23.174  23.546  1.00  0.00     0.051 A 
ATOM     19  N   UNL A   1      31.351  23.380  25.886  1.00  0.00    -0.132 NA
BRANCH  15  20
ATOM     20  C   UNL A   1      32.834  20.078  25.196  1.00  0.00     0.271 C 
ATOM     21  N   UNL A   1      34.189  19.951  25.397  1.00  0.00    -0.351 N 
ATOM     22  H   UNL A   1      34.509  19.041  25.594  1.00  0.00     0.163 HD
ATOM     23  O   UNL A   1      32.120  19.080  25.135  1.00  0.00    -0.267 OA
BRANCH  21  24
ATOM     24  C   UNL A   1      35.211  20.980  25.356  1.00  0.00     0.113 C 
ATOM     25  C   UNL A   1      36.569  20.409  25.001  1.00  0.00     0.027 C 
ENDBRANCH  21  24
ENDBRANCH  15  20
ENDBRANCH   9  14
ENDBRANCH   5   8
ENDBRANCH   3   4
ENDBRANCH   2   3
ENDBRANCH   1   2
BRANCH   1  26
ATOM     26  C   UNL A   1      35.097  31.734  28.028  1.00  0.00     0.002 C 
BRANCH  26  27
ATOM     27  C   UNL A   1      33.801  32.548  28.071  1.00  0.00     0.021 C 
BRANCH  27  28
ATOM     28  C   UNL A   1      33.986  34.061  28.090  1.00  0.00     0.116 C 
BRANCH  28  29
ATOM     29  N   UNL A   1      33.464  34.658  29.310  1.00  0.00    -0.352 N 
ATOM     30  C   UNL A   1      33.800  34.463  30.627  1.00  0.00     0.251 C 
ATOM     31  H   UNL A   1      32.745  35.316  29.165  1.00  0.00     0.163 HD
ATOM     32  O   UNL A   1      33.063  34.904  31.507  1.00  0.00    -0.269 OA
BRANCH  30  33
ATOM     33  C   UNL A   1      35.021  33.716  31.009  1.00  0.00     0.039 A 
ATOM     34  C   UNL A   1      34.890  32.571  31.805  1.00  0.00     0.014 A 
ATOM     35  C   UNL A   1      36.293  34.154  30.637  1.00  0.00     0.014 A 
ATOM     36  C   UNL A   1      36.022  31.829  32.157  1.00  0.00     0.010 A 
ATOM     37  C   UNL A   1      37.412  33.371  30.919  1.00  0.00     0.010 A 
ATOM     38  C   UNL A   1      37.288  32.198  31.678  1.00  0.00    -0.014 A 
BRANCH  38  39
ATOM     39  C   UNL A   1      38.495  31.372  31.943  1.00  0.00     0.031 A 
ATOM     40  C   UNL A   1      39.421  31.720  33.077  1.00  0.00     0.074 A 
ATOM     41  C   UNL A   1      38.808  30.359  31.109  1.00  0.00     0.049 A 
ATOM     42  N   UNL A   1      40.591  31.211  33.376  1.00  0.00    -0.248 NA
ATOM     43  C   UNL A   1      38.989  32.799  33.979  1.00  0.00     0.031 C 
ATOM     44  C   UNL A   1      38.013  29.932  29.956  1.00  0.00     0.029 A 
ATOM     45  N   UNL A   1      39.893  29.517  31.093  1.00  0.00    -0.354 N 
ATOM     46  C   UNL A   1      41.037  31.915  34.487  1.00  0.00     0.074 A 
ATOM     47  C   UNL A   1      40.036  32.919  34.781  1.00  0.00     0.031 C 
ATOM     48  C   UNL A   1      38.631  28.906  29.350  1.00  0.00     0.029 A 
ATOM     49  C   UNL A   1      39.887  28.632  30.040  1.00  0.00     0.049 A 
ATOM     50  H   UNL A   1      40.607  29.544  31.771  1.00  0.00     0.167 HD
ATOM     51  C   UNL A   1      42.167  31.732  35.211  1.00  0.00     0.031 A 
ATOM     52  C   UNL A   1      40.802  27.722  29.656  1.00  0.00     0.031 A 
ATOM     53  C   UNL A   1      43.161  30.732  34.927  1.00  0.00     0.049 A 
ATOM     54  C   UNL A   1      42.067  27.567  30.452  1.00  0.00     0.074 A 
ATOM     55  C   UNL A   1      44.323  30.447  35.624  1.00  0.00     0.029 A 
ATOM     56  N   UNL A   1      43.110  29.851  33.857  1.00  0.00    -0.354 N 
ATOM     57  N   UNL A   1      42.451  28.212  31.528  1.00  0.00    -0.248 NA
ATOM     58  C   UNL A   1      43.025  26.556  29.983  1.00  0.00     0.031 C 
ATOM     59  C   UNL A   1      44.998  29.425  34.951  1.00  0.00     0.029 A 
ATOM     60  C   UNL A   1      44.232  29.038  33.864  1.00  0.00     0.049 A 
ATOM     61  H   UNL A   1      42.385  29.810  33.193  1.00  0.00     0.167 HD
ATOM     62  C   UNL A   1      43.683  27.670  31.873  1.00  0.00     0.074 A 
ATOM     63  C   UNL A   1      43.972  26.631  30.908  1.00  0.00     0.031 C 
ATOM     64  C   UNL A   1      44.505  28.008  32.896  1.00  0.00     0.031 A 
BRANCH  51  65
ATOM     65  C   UNL A   1      42.391  32.640  36.389  1.00  0.00    -0.014 A 
ATOM     66  C   UNL A   1      43.155  33.811  36.263  1.00  0.00     0.009 A 
ATOM     67  C   UNL A   1      41.794  32.349  37.625  1.00  0.00     0.009 A 
ATOM     68  C   UNL A   1      43.343  34.654  37.361  1.00  0.00     0.001 A 
ATOM     69  C   UNL A   1      41.960  33.207  38.713  1.00  0.00     0.001 A 
ATOM     70  C   UNL A   1      42.742  34.355  38.583  1.00  0.00     0.000 A 
ENDBRANCH  51  65
BRANCH  52  71
ATOM     71  C   UNL A   1      40.568  26.896  28.442  1.00  0.00    -0.014 A 
ATOM     72  C   UNL A   1      39.817  25.713  28.515  1.00  0.00     0.009 A 
ATOM     73  C   UNL A   1      41.110  27.278  27.205  1.00  0.00     0.009 A 
ATOM     74  C   UNL A   1      39.641  24.914  27.382  1.00  0.00     0.001 A 
ATOM     75  C   UNL A   1      40.905  26.495  26.067  1.00  0.00     0.001 A 
ATOM     76  C   UNL A   1      40.181  25.307  26.159  1.00  0.00     0.000 A 
ENDBRANCH  52  71
BRANCH  64  77
ATOM     77  C   UNL A   1      45.781  27.229  33.039  1.00  0.00    -0.014 A 
ATOM     78  C   UNL A   1      46.975  27.678  32.454  1.00  0.00     0.009 A 
ATOM     79  C   UNL A   1      45.798  26.055  33.807  1.00  0.00     0.009 A 
ATOM     80  C   UNL A   1      48.155  26.950  32.613  1.00  0.00     0.001 A 
ATOM     81  C   UNL A   1      46.986  25.345  33.988  1.00  0.00     0.001 A 
ATOM     82  C   UNL A   1      48.161  25.789  33.384  1.00  0.00     0.000 A 
ENDBRANCH  64  77
ENDBRANCH  38  39
ENDBRANCH  30  33
ENDBRANCH  28  29
ENDBRANCH  27  28
ENDBRANCH  26  27
ENDBRANCH   1  26
TORSDOF 16
ENDMDL
