MODEL 1
REMARK VINA RESULT:     -11.6      0.000      0.000
REMARK SMILES O=C(NCCCCCCNC(=O)[C@H]1C[C@](O)(c2ccccc2Cl)[C@@H](c2ccccc2Cl)O1)c1ccc(-c2c3nc(c(-c4ccccc4)c4ccc([nH]4)c(-c4ccccc4)c4nc(c(-c5ccccc5)c5ccc2[nH]5)C=C4)C=C3)cc1
REMARK SMILES IDX 6 1 5 2 4 3 3 4 1 5 2 6 33 8 34 9 80 10 35 11 79 12 36 13
REMARK SMILES IDX 37 14 38 15 73 16 39 17 78 18 72 19 74 20 40 21 77 22 71 23
REMARK SMILES IDX 70 24 41 26 63 27 48 28 62 29 49 30 52 31 61 32 75 33 50 34
REMARK SMILES IDX 51 35 60 37 76 38 53 39 42 40 43 41 47 42 44 43 46 44 45 45
REMARK SMILES IDX 64 46 65 47 69 48 66 49 68 50 67 51 54 52 55 53 59 54 56 55
REMARK SMILES IDX 58 56 57 57 7 58 8 59 9 60 10 61 11 62 12 64 13 65 14 66
REMARK SMILES IDX 32 67 15 68 24 69 17 70 18 71 22 72 19 73 21 74 23 75 20 76
REMARK SMILES IDX 16 77 25 79 26 80 30 81 27 82 29 83 31 84 28 85
REMARK H PARENT 3 7 74 25 52 36 10 63 16 78
REMARK Flexibility Score: inf
ROOT
ATOM      1  C   UNL A   1      36.040  19.399  25.006  1.00  0.00     0.002 C 
ENDROOT
BRANCH   1   2
ATOM      2  C   UNL A   1      37.378  19.981  24.564  1.00  0.00     0.021 C 
BRANCH   2   3
ATOM      3  C   UNL A   1      38.347  20.266  25.704  1.00  0.00     0.116 C 
BRANCH   3   4
ATOM      4  N   UNL A   1      39.477  19.351  25.713  1.00  0.00    -0.352 N 
ATOM      5  O   UNL A   1      41.661  18.771  25.791  1.00  0.00    -0.269 OA
ATOM      6  C   UNL A   1      40.795  19.615  25.998  1.00  0.00     0.251 C 
ATOM      7  H   UNL A   1      39.270  18.415  25.485  1.00  0.00     0.163 HD
BRANCH   6   8
ATOM      8  C   UNL A   1      41.169  20.941  26.535  1.00  0.00     0.039 A 
ATOM      9  C   UNL A   1      41.585  21.961  25.676  1.00  0.00     0.014 A 
ATOM     10  C   UNL A   1      41.105  21.164  27.913  1.00  0.00     0.014 A 
ATOM     11  C   UNL A   1      42.068  23.152  26.202  1.00  0.00     0.010 A 
ATOM     12  C   UNL A   1      41.504  22.397  28.433  1.00  0.00     0.010 A 
ATOM     13  C   UNL A   1      42.012  23.393  27.584  1.00  0.00    -0.014 A 
BRANCH  13  14
ATOM     14  C   UNL A   1      42.407  24.723  28.106  1.00  0.00     0.031 A 
ATOM     15  C   UNL A   1      41.395  25.809  28.332  1.00  0.00     0.074 A 
ATOM     16  C   UNL A   1      43.708  24.943  28.380  1.00  0.00     0.049 A 
ATOM     17  N   UNL A   1      41.581  27.025  28.781  1.00  0.00    -0.248 NA
ATOM     18  C   UNL A   1      39.995  25.498  28.004  1.00  0.00     0.031 C 
ATOM     19  C   UNL A   1      44.785  23.968  28.189  1.00  0.00     0.029 A 
ATOM     20  N   UNL A   1      44.345  26.048  28.883  1.00  0.00    -0.354 N 
ATOM     21  C   UNL A   1      40.331  27.632  28.770  1.00  0.00     0.074 A 
ATOM     22  C   UNL A   1      39.397  26.657  28.248  1.00  0.00     0.031 C 
ATOM     23  C   UNL A   1      45.941  24.504  28.602  1.00  0.00     0.029 A 
ATOM     24  C   UNL A   1      45.700  25.879  29.022  1.00  0.00     0.049 A 
ATOM     25  H   UNL A   1      43.876  26.880  29.121  1.00  0.00     0.167 HD
ATOM     26  C   UNL A   1      39.996  28.886  29.161  1.00  0.00     0.031 A 
ATOM     27  C   UNL A   1      46.655  26.740  29.415  1.00  0.00     0.031 A 
ATOM     28  C   UNL A   1      40.934  29.854  29.670  1.00  0.00     0.049 A 
ATOM     29  C   UNL A   1      46.261  28.133  29.807  1.00  0.00     0.074 A 
ATOM     30  C   UNL A   1      40.685  31.135  30.133  1.00  0.00     0.029 A 
ATOM     31  N   UNL A   1      42.302  29.653  29.771  1.00  0.00    -0.354 N 
ATOM     32  N   UNL A   1      45.068  28.673  29.841  1.00  0.00    -0.248 NA
ATOM     33  C   UNL A   1      47.346  29.033  30.217  1.00  0.00     0.031 C 
ATOM     34  C   UNL A   1      41.910  31.730  30.452  1.00  0.00     0.029 A 
ATOM     35  C   UNL A   1      42.915  30.798  30.254  1.00  0.00     0.049 A 
ATOM     36  H   UNL A   1      42.771  28.820  29.534  1.00  0.00     0.167 HD
ATOM     37  C   UNL A   1      45.253  29.972  30.291  1.00  0.00     0.074 A 
ATOM     38  C   UNL A   1      46.673  30.129  30.539  1.00  0.00     0.031 C 
ATOM     39  C   UNL A   1      44.331  30.945  30.483  1.00  0.00     0.031 A 
BRANCH  26  40
ATOM     40  C   UNL A   1      38.555  29.296  29.017  1.00  0.00    -0.014 A 
ATOM     41  C   UNL A   1      37.657  29.221  30.093  1.00  0.00     0.009 A 
ATOM     42  C   UNL A   1      38.099  29.801  27.788  1.00  0.00     0.009 A 
ATOM     43  C   UNL A   1      36.323  29.607  29.930  1.00  0.00     0.001 A 
ATOM     44  C   UNL A   1      36.773  30.213  27.636  1.00  0.00     0.001 A 
ATOM     45  C   UNL A   1      35.883  30.105  28.704  1.00  0.00     0.000 A 
ENDBRANCH  26  40
BRANCH  27  46
ATOM     46  C   UNL A   1      48.074  26.304  29.425  1.00  0.00    -0.014 A 
ATOM     47  C   UNL A   1      48.884  26.466  28.292  1.00  0.00     0.009 A 
ATOM     48  C   UNL A   1      48.635  25.751  30.588  1.00  0.00     0.009 A 
ATOM     49  C   UNL A   1      50.223  26.067  28.318  1.00  0.00     0.001 A 
ATOM     50  C   UNL A   1      49.981  25.383  30.622  1.00  0.00     0.001 A 
ATOM     51  C   UNL A   1      50.771  25.534  29.485  1.00  0.00     0.000 A 
ENDBRANCH  27  46
BRANCH  39  52
ATOM     52  C   UNL A   1      44.828  32.263  31.007  1.00  0.00    -0.014 A 
ATOM     53  C   UNL A   1      44.888  32.524  32.385  1.00  0.00     0.009 A 
ATOM     54  C   UNL A   1      45.271  33.246  30.109  1.00  0.00     0.009 A 
ATOM     55  C   UNL A   1      45.351  33.757  32.850  1.00  0.00     0.001 A 
ATOM     56  C   UNL A   1      45.761  34.465  30.576  1.00  0.00     0.001 A 
ATOM     57  C   UNL A   1      45.792  34.724  31.946  1.00  0.00     0.000 A 
ENDBRANCH  39  52
ENDBRANCH  13  14
ENDBRANCH   6   8
ENDBRANCH   3   4
ENDBRANCH   2   3
ENDBRANCH   1   2
BRANCH   1  58
ATOM     58  C   UNL A   1      34.810  20.195  24.557  1.00  0.00     0.002 C 
BRANCH  58  59
ATOM     59  C   UNL A   1      33.912  20.733  25.687  1.00  0.00     0.021 C 
BRANCH  59  60
ATOM     60  C   UNL A   1      32.544  21.257  25.232  1.00  0.00     0.116 C 
BRANCH  60  61
ATOM     61  N   UNL A   1      31.769  21.687  26.375  1.00  0.00    -0.354 N 
ATOM     62  C   UNL A   1      31.426  22.989  26.621  1.00  0.00     0.249 C 
ATOM     63  H   UNL A   1      31.471  21.002  27.015  1.00  0.00     0.163 HD
ATOM     64  O   UNL A   1      31.683  23.423  27.742  1.00  0.00    -0.272 OA
BRANCH  62  65
ATOM     65  C   UNL A   1      30.704  23.797  25.514  1.00  0.00     0.211 C 
ATOM     66  C   UNL A   1      30.702  25.285  25.860  1.00  0.00     0.085 C 
ATOM     67  O   UNL A   1      31.325  23.644  24.234  1.00  0.00    -0.357 OA
ATOM     68  C   UNL A   1      31.398  25.992  24.695  1.00  0.00     0.124 C 
ATOM     69  C   UNL A   1      32.081  24.831  23.918  1.00  0.00     0.187 C 
BRANCH  68  70
ATOM     70  C   UNL A   1      30.403  26.910  23.947  1.00  0.00     0.005 A 
ATOM     71  C   UNL A   1      29.023  26.608  24.107  1.00  0.00     0.008 A 
ATOM     72  C   UNL A   1      30.698  28.019  23.128  1.00  0.00     0.047 A 
ATOM     73  C   UNL A   1      28.006  27.414  23.588  1.00  0.00     0.001 A 
ATOM     74  C   UNL A   1      29.672  28.852  22.642  1.00  0.00     0.021 A 
ATOM     75  Cl  UNL A   1      32.272  28.434  22.552  1.00  0.00    -0.084 Cl
ATOM     76  C   UNL A   1      28.333  28.560  22.882  1.00  0.00     0.002 A 
ENDBRANCH  68  70
BRANCH  68  77
ATOM     77  O   UNL A   1      32.402  26.877  25.236  1.00  0.00    -0.382 OA
ATOM     78  H   UNL A   1      31.997  27.732  25.448  1.00  0.00     0.212 HD
ENDBRANCH  68  77
BRANCH  69  79
ATOM     79  C   UNL A   1      33.560  24.502  24.111  1.00  0.00     0.003 A 
ATOM     80  C   UNL A   1      34.242  24.855  25.290  1.00  0.00     0.008 A 
ATOM     81  C   UNL A   1      34.268  23.723  23.172  1.00  0.00     0.046 A 
ATOM     82  C   UNL A   1      35.535  24.395  25.558  1.00  0.00     0.000 A 
ATOM     83  C   UNL A   1      35.573  23.285  23.430  1.00  0.00     0.021 A 
ATOM     84  Cl  UNL A   1      33.597  23.254  21.644  1.00  0.00    -0.084 Cl
ATOM     85  C   UNL A   1      36.198  23.602  24.632  1.00  0.00     0.002 A 
ENDBRANCH  69  79
ENDBRANCH  62  65
ENDBRANCH  60  61
ENDBRANCH  59  60
ENDBRANCH  58  59
ENDBRANCH   1  58
TORSDOF 16
ENDMDL
MODEL 2
REMARK VINA RESULT:     -11.5      0.313      5.772
REMARK SMILES O=C(NCCCCCCNC(=O)[C@H]1C[C@](O)(c2ccccc2Cl)[C@@H](c2ccccc2Cl)O1)c1ccc(-c2c3nc(c(-c4ccccc4)c4ccc([nH]4)c(-c4ccccc4)c4nc(c(-c5ccccc5)c5ccc2[nH]5)C=C4)C=C3)cc1
REMARK SMILES IDX 6 1 5 2 4 3 3 4 1 5 2 6 33 8 34 9 80 10 35 11 79 12 36 13
REMARK SMILES IDX 37 14 38 15 73 16 39 17 78 18 72 19 74 20 40 21 77 22 71 23
REMARK SMILES IDX 70 24 41 26 63 27 48 28 62 29 49 30 52 31 61 32 75 33 50 34
REMARK SMILES IDX 51 35 60 37 76 38 53 39 42 40 43 41 47 42 44 43 46 44 45 45
REMARK SMILES IDX 64 46 65 47 69 48 66 49 68 50 67 51 54 52 55 53 59 54 56 55
REMARK SMILES IDX 58 56 57 57 7 58 8 59 9 60 10 61 11 62 12 64 13 65 14 66
REMARK SMILES IDX 32 67 15 68 24 69 17 70 18 71 22 72 19 73 21 74 23 75 20 76
REMARK SMILES IDX 16 77 25 79 26 80 30 81 27 82 29 83 31 84 28 85
REMARK H PARENT 3 7 74 25 52 36 10 63 16 78
REMARK Flexibility Score: inf
ROOT
ATOM      1  C   UNL A   1      36.125  19.467  25.011  1.00  0.00     0.002 C 
ENDROOT
BRANCH   1   2
ATOM      2  C   UNL A   1      37.463  20.064  24.586  1.00  0.00     0.021 C 
BRANCH   2   3
ATOM      3  C   UNL A   1      38.434  20.310  25.733  1.00  0.00     0.116 C 
BRANCH   3   4
ATOM      4  N   UNL A   1      39.537  19.362  25.737  1.00  0.00    -0.352 N 
ATOM      5  O   UNL A   1      41.704  18.719  25.805  1.00  0.00    -0.269 OA
ATOM      6  C   UNL A   1      40.863  19.588  26.015  1.00  0.00     0.251 C 
ATOM      7  H   UNL A   1      39.301  18.432  25.512  1.00  0.00     0.163 HD
BRANCH   6   8
ATOM      8  C   UNL A   1      41.278  20.903  26.549  1.00  0.00     0.039 A 
ATOM      9  C   UNL A   1      41.159  21.182  27.913  1.00  0.00     0.014 A 
ATOM     10  C   UNL A   1      41.788  21.866  25.675  1.00  0.00     0.014 A 
ATOM     11  C   UNL A   1      41.418  22.465  28.380  1.00  0.00     0.010 A 
ATOM     12  C   UNL A   1      42.135  23.128  26.164  1.00  0.00     0.010 A 
ATOM     13  C   UNL A   1      41.930  23.446  27.515  1.00  0.00    -0.014 A 
BRANCH  13  14
ATOM     14  C   UNL A   1      42.326  24.764  28.067  1.00  0.00     0.031 A 
ATOM     15  C   UNL A   1      43.744  25.054  28.467  1.00  0.00     0.074 A 
ATOM     16  C   UNL A   1      41.378  25.712  28.202  1.00  0.00     0.049 A 
ATOM     17  N   UNL A   1      44.248  26.155  28.965  1.00  0.00    -0.248 NA
ATOM     18  C   UNL A   1      44.722  23.968  28.297  1.00  0.00     0.031 C 
ATOM     19  C   UNL A   1      39.962  25.543  27.858  1.00  0.00     0.029 A 
ATOM     20  N   UNL A   1      41.458  27.004  28.653  1.00  0.00    -0.354 N 
ATOM     21  C   UNL A   1      45.594  25.891  29.189  1.00  0.00     0.074 A 
ATOM     22  C   UNL A   1      45.823  24.518  28.793  1.00  0.00     0.031 C 
ATOM     23  C   UNL A   1      39.316  26.695  28.078  1.00  0.00     0.029 A 
ATOM     24  C   UNL A   1      40.253  27.661  28.640  1.00  0.00     0.049 A 
ATOM     25  H   UNL A   1      42.297  27.418  28.958  1.00  0.00     0.167 HD
ATOM     26  C   UNL A   1      46.548  26.720  29.678  1.00  0.00     0.031 A 
ATOM     27  C   UNL A   1      39.923  28.895  29.059  1.00  0.00     0.031 A 
ATOM     28  C   UNL A   1      46.309  28.083  30.080  1.00  0.00     0.049 A 
ATOM     29  C   UNL A   1      40.991  29.779  29.630  1.00  0.00     0.074 A 
ATOM     30  C   UNL A   1      47.219  29.016  30.547  1.00  0.00     0.029 A 
ATOM     31  N   UNL A   1      45.069  28.704  30.075  1.00  0.00    -0.354 N 
ATOM     32  N   UNL A   1      42.269  29.532  29.785  1.00  0.00    -0.248 NA
ATOM     33  C   UNL A   1      40.572  31.111  30.082  1.00  0.00     0.031 C 
ATOM     34  C   UNL A   1      46.519  30.179  30.885  1.00  0.00     0.029 A 
ATOM     35  C   UNL A   1      45.184  29.996  30.565  1.00  0.00     0.049 A 
ATOM     36  H   UNL A   1      44.230  28.289  29.769  1.00  0.00     0.167 HD
ATOM     37  C   UNL A   1      42.811  30.683  30.338  1.00  0.00     0.074 A 
ATOM     38  C   UNL A   1      41.727  31.635  30.469  1.00  0.00     0.031 C 
ATOM     39  C   UNL A   1      44.093  30.928  30.702  1.00  0.00     0.031 A 
BRANCH  26  40
ATOM     40  C   UNL A   1      47.936  26.161  29.842  1.00  0.00    -0.014 A 
ATOM     41  C   UNL A   1      48.834  26.092  28.766  1.00  0.00     0.009 A 
ATOM     42  C   UNL A   1      48.362  25.728  31.109  1.00  0.00     0.009 A 
ATOM     43  C   UNL A   1      50.116  25.565  28.946  1.00  0.00     0.001 A 
ATOM     44  C   UNL A   1      49.654  25.229  31.293  1.00  0.00     0.001 A 
ATOM     45  C   UNL A   1      50.526  25.138  30.208  1.00  0.00     0.000 A 
ENDBRANCH  26  40
BRANCH  27  46
ATOM     46  C   UNL A   1      38.509  29.344  28.974  1.00  0.00    -0.014 A 
ATOM     47  C   UNL A   1      37.986  29.847  27.775  1.00  0.00     0.009 A 
ATOM     48  C   UNL A   1      37.667  29.237  30.094  1.00  0.00     0.009 A 
ATOM     49  C   UNL A   1      36.650  30.250  27.703  1.00  0.00     0.001 A 
ATOM     50  C   UNL A   1      36.325  29.610  30.009  1.00  0.00     0.001 A 
ATOM     51  C   UNL A   1      35.820  30.124  28.817  1.00  0.00     0.000 A 
ENDBRANCH  27  46
BRANCH  39  52
ATOM     52  C   UNL A   1      44.396  32.291  31.258  1.00  0.00    -0.014 A 
ATOM     53  C   UNL A   1      44.740  33.362  30.418  1.00  0.00     0.009 A 
ATOM     54  C   UNL A   1      44.305  32.513  32.641  1.00  0.00     0.009 A 
ATOM     55  C   UNL A   1      45.020  34.620  30.957  1.00  0.00     0.001 A 
ATOM     56  C   UNL A   1      44.555  33.777  33.174  1.00  0.00     0.001 A 
ATOM     57  C   UNL A   1      44.922  34.828  32.333  1.00  0.00     0.000 A 
ENDBRANCH  39  52
ENDBRANCH  13  14
ENDBRANCH   6   8
ENDBRANCH   3   4
ENDBRANCH   2   3
ENDBRANCH   1   2
BRANCH   1  58
ATOM     58  C   UNL A   1      34.892  20.251  24.549  1.00  0.00     0.002 C 
BRANCH  58  59
ATOM     59  C   UNL A   1      33.941  20.719  25.665  1.00  0.00     0.021 C 
BRANCH  59  60
ATOM     60  C   UNL A   1      32.574  21.221  25.181  1.00  0.00     0.116 C 
BRANCH  60  61
ATOM     61  N   UNL A   1      31.762  21.623  26.309  1.00  0.00    -0.354 N 
ATOM     62  C   UNL A   1      31.400  22.917  26.569  1.00  0.00     0.249 C 
ATOM     63  H   UNL A   1      31.451  20.923  26.926  1.00  0.00     0.163 HD
ATOM     64  O   UNL A   1      31.621  23.331  27.706  1.00  0.00    -0.272 OA
BRANCH  62  65
ATOM     65  C   UNL A   1      30.704  23.740  25.458  1.00  0.00     0.211 C 
ATOM     66  C   UNL A   1      30.662  25.219  25.841  1.00  0.00     0.085 C 
ATOM     67  O   UNL A   1      31.375  23.632  24.199  1.00  0.00    -0.357 OA
ATOM     68  C   UNL A   1      31.386  25.968  24.721  1.00  0.00     0.124 C 
ATOM     69  C   UNL A   1      32.120  24.841  23.941  1.00  0.00     0.187 C 
BRANCH  68  70
ATOM     70  C   UNL A   1      30.402  26.888  23.960  1.00  0.00     0.005 A 
ATOM     71  C   UNL A   1      29.018  26.621  24.145  1.00  0.00     0.008 A 
ATOM     72  C   UNL A   1      30.711  27.968  23.109  1.00  0.00     0.047 A 
ATOM     73  C   UNL A   1      28.013  27.434  23.616  1.00  0.00     0.001 A 
ATOM     74  C   UNL A   1      29.697  28.809  22.613  1.00  0.00     0.021 A 
ATOM     75  Cl  UNL A   1      32.286  28.333  22.504  1.00  0.00    -0.084 Cl
ATOM     76  C   UNL A   1      28.355  28.554  22.876  1.00  0.00     0.002 A 
ENDBRANCH  68  70
BRANCH  68  77
ATOM     77  O   UNL A   1      32.353  26.856  25.322  1.00  0.00    -0.382 OA
ATOM     78  H   UNL A   1      33.199  26.777  24.854  1.00  0.00     0.212 HD
ENDBRANCH  68  77
BRANCH  69  79
ATOM     79  C   UNL A   1      33.596  24.533  24.181  1.00  0.00     0.003 A 
ATOM     80  C   UNL A   1      34.231  24.881  25.387  1.00  0.00     0.008 A 
ATOM     81  C   UNL A   1      34.349  23.779  23.256  1.00  0.00     0.046 A 
ATOM     82  C   UNL A   1      35.522  24.438  25.693  1.00  0.00     0.000 A 
ATOM     83  C   UNL A   1      35.652  23.359  23.552  1.00  0.00     0.021 A 
ATOM     84  Cl  UNL A   1      33.739  23.322  21.699  1.00  0.00    -0.084 Cl
ATOM     85  C   UNL A   1      36.230  23.669  24.779  1.00  0.00     0.002 A 
ENDBRANCH  69  79
ENDBRANCH  62  65
ENDBRANCH  60  61
ENDBRANCH  59  60
ENDBRANCH  58  59
ENDBRANCH   1  58
TORSDOF 16
ENDMDL
MODEL 3
REMARK VINA RESULT:     -11.3      2.761      5.019
REMARK SMILES O=C(NCCCCCCNC(=O)[C@H]1C[C@](O)(c2ccccc2Cl)[C@@H](c2ccccc2Cl)O1)c1ccc(-c2c3nc(c(-c4ccccc4)c4ccc([nH]4)c(-c4ccccc4)c4nc(c(-c5ccccc5)c5ccc2[nH]5)C=C4)C=C3)cc1
REMARK SMILES IDX 6 1 5 2 4 3 3 4 1 5 2 6 33 8 34 9 80 10 35 11 79 12 36 13
REMARK SMILES IDX 37 14 38 15 73 16 39 17 78 18 72 19 74 20 40 21 77 22 71 23
REMARK SMILES IDX 70 24 41 26 63 27 48 28 62 29 49 30 52 31 61 32 75 33 50 34
REMARK SMILES IDX 51 35 60 37 76 38 53 39 42 40 43 41 47 42 44 43 46 44 45 45
REMARK SMILES IDX 64 46 65 47 69 48 66 49 68 50 67 51 54 52 55 53 59 54 56 55
REMARK SMILES IDX 58 56 57 57 7 58 8 59 9 60 10 61 11 62 12 64 13 65 14 66
REMARK SMILES IDX 32 67 15 68 24 69 17 70 18 71 22 72 19 73 21 74 23 75 20 76
REMARK SMILES IDX 16 77 25 79 26 80 30 81 27 82 29 83 31 84 28 85
REMARK H PARENT 3 7 74 25 52 36 10 63 16 78
REMARK Flexibility Score: inf
ROOT
ATOM      1  C   UNL A   1      41.539  20.072  27.181  1.00  0.00     0.002 C 
ENDROOT
BRANCH   1   2
ATOM      2  C   UNL A   1      42.037  19.170  26.056  1.00  0.00     0.021 C 
BRANCH   2   3
ATOM      3  C   UNL A   1      43.528  18.866  26.108  1.00  0.00     0.116 C 
BRANCH   3   4
ATOM      4  N   UNL A   1      44.105  18.696  24.784  1.00  0.00    -0.352 N 
ATOM      5  O   UNL A   1      44.934  19.375  22.793  1.00  0.00    -0.269 OA
ATOM      6  C   UNL A   1      44.647  19.648  23.954  1.00  0.00     0.251 C 
ATOM      7  H   UNL A   1      44.109  17.775  24.435  1.00  0.00     0.163 HD
BRANCH   6   8
ATOM      8  C   UNL A   1      44.861  21.019  24.465  1.00  0.00     0.039 A 
ATOM      9  C   UNL A   1      45.559  21.229  25.657  1.00  0.00     0.014 A 
ATOM     10  C   UNL A   1      44.354  22.104  23.746  1.00  0.00     0.014 A 
ATOM     11  C   UNL A   1      45.630  22.506  26.199  1.00  0.00     0.010 A 
ATOM     12  C   UNL A   1      44.508  23.399  24.247  1.00  0.00     0.010 A 
ATOM     13  C   UNL A   1      45.126  23.608  25.490  1.00  0.00    -0.014 A 
BRANCH  13  14
ATOM     14  C   UNL A   1      45.336  24.974  26.026  1.00  0.00     0.031 A 
ATOM     15  C   UNL A   1      44.215  25.750  26.657  1.00  0.00     0.074 A 
ATOM     16  C   UNL A   1      46.567  25.513  25.940  1.00  0.00     0.049 A 
ATOM     17  N   UNL A   1      44.238  26.954  27.172  1.00  0.00    -0.248 NA
ATOM     18  C   UNL A   1      42.897  25.098  26.710  1.00  0.00     0.031 C 
ATOM     19  C   UNL A   1      47.733  24.860  25.337  1.00  0.00     0.029 A 
ATOM     20  N   UNL A   1      47.049  26.725  26.364  1.00  0.00    -0.354 N 
ATOM     21  C   UNL A   1      42.939  27.214  27.590  1.00  0.00     0.074 A 
ATOM     22  C   UNL A   1      42.148  26.051  27.248  1.00  0.00     0.031 C 
ATOM     23  C   UNL A   1      48.799  25.661  25.461  1.00  0.00     0.029 A 
ATOM     24  C   UNL A   1      48.380  26.909  26.088  1.00  0.00     0.049 A 
ATOM     25  H   UNL A   1      46.493  27.397  26.821  1.00  0.00     0.167 HD
ATOM     26  C   UNL A   1      42.454  28.322  28.203  1.00  0.00     0.031 A 
ATOM     27  C   UNL A   1      49.178  27.973  26.288  1.00  0.00     0.031 A 
ATOM     28  C   UNL A   1      43.246  29.480  28.530  1.00  0.00     0.049 A 
ATOM     29  C   UNL A   1      48.607  29.199  26.935  1.00  0.00     0.074 A 
ATOM     30  C   UNL A   1      42.856  30.633  29.190  1.00  0.00     0.029 A 
ATOM     31  N   UNL A   1      44.587  29.638  28.211  1.00  0.00    -0.354 N 
ATOM     32  N   UNL A   1      47.390  29.408  27.372  1.00  0.00    -0.248 NA
ATOM     33  C   UNL A   1      49.520  30.333  27.119  1.00  0.00     0.031 C 
ATOM     34  C   UNL A   1      43.943  31.514  29.212  1.00  0.00     0.029 A 
ATOM     35  C   UNL A   1      45.030  30.883  28.627  1.00  0.00     0.049 A 
ATOM     36  H   UNL A   1      45.142  28.965  27.755  1.00  0.00     0.167 HD
ATOM     37  C   UNL A   1      47.392  30.692  27.897  1.00  0.00     0.074 A 
ATOM     38  C   UNL A   1      48.740  31.203  27.744  1.00  0.00     0.031 C 
ATOM     39  C   UNL A   1      46.370  31.384  28.456  1.00  0.00     0.031 A 
BRANCH  26  40
ATOM     40  C   UNL A   1      40.984  28.349  28.526  1.00  0.00    -0.014 A 
ATOM     41  C   UNL A   1      40.480  27.787  29.709  1.00  0.00     0.009 A 
ATOM     42  C   UNL A   1      40.093  28.981  27.643  1.00  0.00     0.009 A 
ATOM     43  C   UNL A   1      39.110  27.824  29.983  1.00  0.00     0.001 A 
ATOM     44  C   UNL A   1      38.728  29.042  27.933  1.00  0.00     0.001 A 
ATOM     45  C   UNL A   1      38.236  28.454  29.098  1.00  0.00     0.000 A 
ENDBRANCH  26  40
BRANCH  27  46
ATOM     46  C   UNL A   1      50.593  27.921  25.840  1.00  0.00    -0.014 A 
ATOM     47  C   UNL A   1      51.598  27.434  26.687  1.00  0.00     0.009 A 
ATOM     48  C   UNL A   1      50.938  28.331  24.541  1.00  0.00     0.009 A 
ATOM     49  C   UNL A   1      52.923  27.375  26.249  1.00  0.00     0.001 A 
ATOM     50  C   UNL A   1      52.257  28.240  24.095  1.00  0.00     0.001 A 
ATOM     51  C   UNL A   1      53.250  27.770  24.952  1.00  0.00     0.000 A 
ENDBRANCH  27  46
BRANCH  39  52
ATOM     52  C   UNL A   1      46.679  32.765  28.965  1.00  0.00    -0.014 A 
ATOM     53  C   UNL A   1      47.143  32.973  30.273  1.00  0.00     0.009 A 
ATOM     54  C   UNL A   1      46.530  33.868  28.112  1.00  0.00     0.009 A 
ATOM     55  C   UNL A   1      47.421  34.265  30.726  1.00  0.00     0.001 A 
ATOM     56  C   UNL A   1      46.837  35.154  28.556  1.00  0.00     0.001 A 
ATOM     57  C   UNL A   1      47.273  35.353  29.866  1.00  0.00     0.000 A 
ENDBRANCH  39  52
ENDBRANCH  13  14
ENDBRANCH   6   8
ENDBRANCH   3   4
ENDBRANCH   2   3
ENDBRANCH   1   2
BRANCH   1  58
ATOM     58  C   UNL A   1      41.807  21.566  26.977  1.00  0.00     0.002 C 
BRANCH  58  59
ATOM     59  C   UNL A   1      40.676  22.364  26.303  1.00  0.00     0.021 C 
BRANCH  59  60
ATOM     60  C   UNL A   1      39.347  21.608  26.163  1.00  0.00     0.116 C 
BRANCH  60  61
ATOM     61  N   UNL A   1      38.237  22.508  26.382  1.00  0.00    -0.354 N 
ATOM     62  C   UNL A   1      37.382  22.923  25.397  1.00  0.00     0.249 C 
ATOM     63  H   UNL A   1      38.087  22.843  27.295  1.00  0.00     0.163 HD
ATOM     64  O   UNL A   1      37.202  24.135  25.299  1.00  0.00    -0.272 OA
BRANCH  62  65
ATOM     65  C   UNL A   1      36.670  21.860  24.524  1.00  0.00     0.211 C 
ATOM     66  C   UNL A   1      35.765  20.984  25.388  1.00  0.00     0.085 C 
ATOM     67  O   UNL A   1      35.864  22.448  23.499  1.00  0.00    -0.357 OA
ATOM     68  C   UNL A   1      34.357  21.126  24.807  1.00  0.00     0.124 C 
ATOM     69  C   UNL A   1      34.472  22.359  23.867  1.00  0.00     0.187 C 
BRANCH  68  70
ATOM     70  C   UNL A   1      33.875  19.779  24.220  1.00  0.00     0.005 A 
ATOM     71  C   UNL A   1      34.609  18.623  24.606  1.00  0.00     0.008 A 
ATOM     72  C   UNL A   1      32.788  19.554  23.352  1.00  0.00     0.047 A 
ATOM     73  C   UNL A   1      34.224  17.328  24.250  1.00  0.00     0.001 A 
ATOM     74  C   UNL A   1      32.379  18.245  23.030  1.00  0.00     0.021 A 
ATOM     75  Cl  UNL A   1      31.911  20.788  22.523  1.00  0.00    -0.084 Cl
ATOM     76  C   UNL A   1      33.084  17.137  23.488  1.00  0.00     0.002 A 
ENDBRANCH  68  70
BRANCH  68  77
ATOM     77  O   UNL A   1      33.448  21.419  25.889  1.00  0.00    -0.382 OA
ATOM     78  H   UNL A   1      33.542  20.746  26.581  1.00  0.00     0.212 HD
ENDBRANCH  68  77
BRANCH  69  79
ATOM     79  C   UNL A   1      34.023  23.749  24.312  1.00  0.00     0.003 A 
ATOM     80  C   UNL A   1      34.185  24.181  25.642  1.00  0.00     0.008 A 
ATOM     81  C   UNL A   1      33.543  24.699  23.386  1.00  0.00     0.046 A 
ATOM     82  C   UNL A   1      33.956  25.508  26.017  1.00  0.00     0.000 A 
ATOM     83  C   UNL A   1      33.288  26.021  23.770  1.00  0.00     0.021 A 
ATOM     84  Cl  UNL A   1      33.229  24.315  21.725  1.00  0.00    -0.084 Cl
ATOM     85  C   UNL A   1      33.516  26.432  25.079  1.00  0.00     0.002 A 
ENDBRANCH  69  79
ENDBRANCH  62  65
ENDBRANCH  60  61
ENDBRANCH  59  60
ENDBRANCH  58  59
ENDBRANCH   1  58
TORSDOF 16
ENDMDL
