MODEL 1
REMARK VINA RESULT:     -10.0      0.000      0.000
REMARK SMILES COC(=O)CCN(C)C(=O)NCc1ccc(C(=O)NCCCCCCNC(=O)c2ccc(-c3c4nc(c(-c5ccccc5)c5ccc([nH]5)c(-c5ccccc5)c5nc(c(-c6ccccc6)c6ccc3[nH]6)C=C5)C=C4)cc2)o1
REMARK SMILES IDX 20 1 19 2 17 3 18 4 16 6 13 7 14 8 77 9 15 10 12 11 11 12
REMARK SMILES IDX 9 13 10 14 7 16 8 17 6 18 5 19 3 20 4 21 2 22 1 23 21 24
REMARK SMILES IDX 22 25 23 26 24 27 25 28 26 29 27 30 28 32 29 33 30 34 76 35
REMARK SMILES IDX 31 36 75 37 32 38 33 39 34 40 69 41 35 42 74 43 68 44 70 45
REMARK SMILES IDX 36 46 73 47 67 48 66 49 37 51 59 52 44 53 58 54 45 55 48 56
REMARK SMILES IDX 57 57 71 58 46 59 47 60 56 62 72 63 49 64 38 65 39 66 43 67
REMARK SMILES IDX 40 68 42 69 41 70 60 71 61 72 65 73 62 74 64 75 63 76 50 77
REMARK SMILES IDX 51 78 55 79 52 80 54 81 53 82
REMARK H PARENT 19 5 11 15 26 31 70 50 48 61
REMARK Flexibility Score: inf
ROOT
ATOM      1  C   UNL A   1      33.729  27.929  26.382  1.00  0.00     0.116 C 
ENDROOT
BRANCH   1   2
ATOM      2  N   UNL A   1      33.906  28.566  25.096  1.00  0.00    -0.349 N 
ATOM      3  C   UNL A   1      33.136  28.559  23.957  1.00  0.00     0.286 C 
ATOM      4  O   UNL A   1      33.565  29.247  23.028  1.00  0.00    -0.266 OA
ATOM      5  H   UNL A   1      34.728  29.101  25.022  1.00  0.00     0.163 HD
BRANCH   3   6
ATOM      6  C   UNL A   1      31.897  27.805  23.867  1.00  0.00     0.191 A 
ATOM      7  C   UNL A   1      30.788  25.911  23.562  1.00  0.00     0.124 A 
ATOM      8  C   UNL A   1      29.836  26.891  23.730  1.00  0.00     0.048 A 
ATOM      9  O   UNL A   1      32.030  26.449  23.660  1.00  0.00    -0.454 OA
ATOM     10  C   UNL A   1      30.545  28.097  23.944  1.00  0.00     0.056 A 
BRANCH   7  11
ATOM     11  C   UNL A   1      30.701  24.460  23.253  1.00  0.00     0.193 C 
BRANCH  11  12
ATOM     12  N   UNL A   1      30.455  23.796  24.514  1.00  0.00    -0.331 N 
ATOM     13  C   UNL A   1      31.085  22.953  25.333  1.00  0.00     0.317 C 
ATOM     14  O   UNL A   1      30.395  22.546  26.274  1.00  0.00    -0.249 OA
ATOM     15  H   UNL A   1      29.568  24.036  24.870  1.00  0.00     0.165 HD
BRANCH  13  16
ATOM     16  N   UNL A   1      32.403  22.627  25.218  1.00  0.00    -0.327 N 
ATOM     17  C   UNL A   1      33.497  23.132  26.027  1.00  0.00     0.148 C 
BRANCH  16  18
ATOM     18  C   UNL A   1      32.734  21.570  24.250  1.00  0.00     0.132 C 
BRANCH  18  19
ATOM     19  C   UNL A   1      32.517  20.169  24.820  1.00  0.00     0.144 C 
BRANCH  19  20
ATOM     20  C   UNL A   1      33.773  19.340  24.724  1.00  0.00     0.307 C 
ATOM     21  O   UNL A   1      34.903  19.809  24.768  1.00  0.00    -0.252 OA
BRANCH  20  22
ATOM     22  O   UNL A   1      33.467  18.022  24.569  1.00  0.00    -0.469 OA
ATOM     23  C   UNL A   1      34.584  17.186  24.256  1.00  0.00     0.282 C 
ENDBRANCH  20  22
ENDBRANCH  19  20
ENDBRANCH  18  19
ENDBRANCH  16  18
ENDBRANCH  13  16
ENDBRANCH  11  12
ENDBRANCH   7  11
ENDBRANCH   3   6
ENDBRANCH   1   2
BRANCH   1  24
ATOM     24  C   UNL A   1      32.536  28.525  27.128  1.00  0.00     0.021 C 
BRANCH  24  25
ATOM     25  C   UNL A   1      32.578  30.058  27.221  1.00  0.00     0.002 C 
BRANCH  25  26
ATOM     26  C   UNL A   1      31.504  30.792  26.407  1.00  0.00     0.002 C 
BRANCH  26  27
ATOM     27  C   UNL A   1      31.388  32.294  26.680  1.00  0.00     0.021 C 
BRANCH  27  28
ATOM     28  C   UNL A   1      32.668  32.943  27.197  1.00  0.00     0.116 C 
BRANCH  28  29
ATOM     29  N   UNL A   1      32.446  34.318  27.610  1.00  0.00    -0.352 N 
ATOM     30  C   UNL A   1      33.012  35.021  28.642  1.00  0.00     0.251 C 
ATOM     31  H   UNL A   1      31.792  34.819  27.070  1.00  0.00     0.163 HD
ATOM     32  O   UNL A   1      32.548  36.110  28.967  1.00  0.00    -0.269 OA
BRANCH  30  33
ATOM     33  C   UNL A   1      34.178  34.475  29.369  1.00  0.00     0.039 A 
ATOM     34  C   UNL A   1      35.441  34.565  28.774  1.00  0.00     0.014 A 
ATOM     35  C   UNL A   1      34.027  33.819  30.595  1.00  0.00     0.014 A 
ATOM     36  C   UNL A   1      36.552  34.013  29.413  1.00  0.00     0.010 A 
ATOM     37  C   UNL A   1      35.145  33.324  31.262  1.00  0.00     0.010 A 
ATOM     38  C   UNL A   1      36.413  33.392  30.665  1.00  0.00    -0.014 A 
BRANCH  38  39
ATOM     39  C   UNL A   1      37.574  32.752  31.330  1.00  0.00     0.031 A 
ATOM     40  C   UNL A   1      38.245  31.568  30.687  1.00  0.00     0.074 A 
ATOM     41  C   UNL A   1      38.005  33.209  32.520  1.00  0.00     0.049 A 
ATOM     42  N   UNL A   1      39.254  30.854  31.120  1.00  0.00    -0.248 NA
ATOM     43  C   UNL A   1      37.693  31.110  29.401  1.00  0.00     0.031 C 
ATOM     44  C   UNL A   1      37.420  34.326  33.263  1.00  0.00     0.029 A 
ATOM     45  N   UNL A   1      39.040  32.785  33.314  1.00  0.00    -0.354 N 
ATOM     46  C   UNL A   1      39.440  29.853  30.173  1.00  0.00     0.074 A 
ATOM     47  C   UNL A   1      38.414  30.023  29.169  1.00  0.00     0.031 C 
ATOM     48  C   UNL A   1      38.122  34.516  34.393  1.00  0.00     0.029 A 
ATOM     49  C   UNL A   1      39.187  33.522  34.463  1.00  0.00     0.049 A 
ATOM     50  H   UNL A   1      39.623  32.026  33.080  1.00  0.00     0.167 HD
ATOM     51  C   UNL A   1      40.392  28.891  30.130  1.00  0.00     0.031 A 
ATOM     52  C   UNL A   1      40.087  33.411  35.458  1.00  0.00     0.031 A 
ATOM     53  C   UNL A   1      41.429  28.735  31.113  1.00  0.00     0.049 A 
ATOM     54  C   UNL A   1      41.153  32.354  35.374  1.00  0.00     0.074 A 
ATOM     55  C   UNL A   1      42.468  27.820  31.138  1.00  0.00     0.029 A 
ATOM     56  N   UNL A   1      41.563  29.523  32.246  1.00  0.00    -0.354 N 
ATOM     57  N   UNL A   1      41.347  31.449  34.445  1.00  0.00    -0.248 NA
ATOM     58  C   UNL A   1      42.137  32.322  36.464  1.00  0.00     0.031 C 
ATOM     59  C   UNL A   1      43.213  28.036  32.302  1.00  0.00     0.029 A 
ATOM     60  C   UNL A   1      42.663  29.114  32.978  1.00  0.00     0.049 A 
ATOM     61  H   UNL A   1      40.963  30.265  32.493  1.00  0.00     0.167 HD
ATOM     62  C   UNL A   1      42.494  30.763  34.822  1.00  0.00     0.074 A 
ATOM     63  C   UNL A   1      42.957  31.364  36.056  1.00  0.00     0.031 C 
ATOM     64  C   UNL A   1      43.113  29.730  34.199  1.00  0.00     0.031 A 
BRANCH  51  65
ATOM     65  C   UNL A   1      40.347  27.931  28.974  1.00  0.00    -0.014 A 
ATOM     66  C   UNL A   1      39.635  26.724  29.060  1.00  0.00     0.009 A 
ATOM     67  C   UNL A   1      41.014  28.243  27.780  1.00  0.00     0.009 A 
ATOM     68  C   UNL A   1      39.626  25.830  27.987  1.00  0.00     0.001 A 
ATOM     69  C   UNL A   1      40.980  27.360  26.698  1.00  0.00     0.001 A 
ATOM     70  C   UNL A   1      40.295  26.150  26.807  1.00  0.00     0.000 A 
ENDBRANCH  51  65
BRANCH  52  71
ATOM     71  C   UNL A   1      40.049  34.356  36.604  1.00  0.00    -0.014 A 
ATOM     72  C   UNL A   1      39.345  34.025  37.772  1.00  0.00     0.009 A 
ATOM     73  C   UNL A   1      40.708  35.592  36.534  1.00  0.00     0.009 A 
ATOM     74  C   UNL A   1      39.279  34.925  38.837  1.00  0.00     0.001 A 
ATOM     75  C   UNL A   1      40.662  36.480  37.610  1.00  0.00     0.001 A 
ATOM     76  C   UNL A   1      39.940  36.150  38.756  1.00  0.00     0.000 A 
ENDBRANCH  52  71
BRANCH  64  77
ATOM     77  C   UNL A   1      44.385  29.222  34.817  1.00  0.00    -0.014 A 
ATOM     78  C   UNL A   1      44.375  28.183  35.759  1.00  0.00     0.009 A 
ATOM     79  C   UNL A   1      45.612  29.778  34.425  1.00  0.00     0.009 A 
ATOM     80  C   UNL A   1      45.571  27.738  36.328  1.00  0.00     0.001 A 
ATOM     81  C   UNL A   1      46.807  29.313  34.975  1.00  0.00     0.001 A 
ATOM     82  C   UNL A   1      46.784  28.301  35.933  1.00  0.00     0.000 A 
ENDBRANCH  64  77
ENDBRANCH  38  39
ENDBRANCH  30  33
ENDBRANCH  28  29
ENDBRANCH  27  28
ENDBRANCH  26  27
ENDBRANCH  25  26
ENDBRANCH  24  25
ENDBRANCH   1  24
TORSDOF 20
ENDMDL
MODEL 2
REMARK VINA RESULT:     -10.0      5.345      8.739
REMARK SMILES COC(=O)CCN(C)C(=O)NCc1ccc(C(=O)NCCCCCCNC(=O)c2ccc(-c3c4nc(c(-c5ccccc5)c5ccc([nH]5)c(-c5ccccc5)c5nc(c(-c6ccccc6)c6ccc3[nH]6)C=C5)C=C4)cc2)o1
REMARK SMILES IDX 20 1 19 2 17 3 18 4 16 6 13 7 14 8 77 9 15 10 12 11 11 12
REMARK SMILES IDX 9 13 10 14 7 16 8 17 6 18 5 19 3 20 4 21 2 22 1 23 21 24
REMARK SMILES IDX 22 25 23 26 24 27 25 28 26 29 27 30 28 32 29 33 30 34 76 35
REMARK SMILES IDX 31 36 75 37 32 38 33 39 34 40 69 41 35 42 74 43 68 44 70 45
REMARK SMILES IDX 36 46 73 47 67 48 66 49 37 51 59 52 44 53 58 54 45 55 48 56
REMARK SMILES IDX 57 57 71 58 46 59 47 60 56 62 72 63 49 64 38 65 39 66 43 67
REMARK SMILES IDX 40 68 42 69 41 70 60 71 61 72 65 73 62 74 64 75 63 76 50 77
REMARK SMILES IDX 51 78 55 79 52 80 54 81 53 82
REMARK H PARENT 19 5 11 15 26 31 70 50 48 61
REMARK Flexibility Score: inf
ROOT
ATOM      1  C   UNL A   1      36.110  33.766  34.314  1.00  0.00     0.116 C 
ENDROOT
BRANCH   1   2
ATOM      2  N   UNL A   1      36.756  33.797  35.607  1.00  0.00    -0.349 N 
ATOM      3  C   UNL A   1      37.734  33.006  36.160  1.00  0.00     0.286 C 
ATOM      4  O   UNL A   1      38.092  33.329  37.295  1.00  0.00    -0.266 OA
ATOM      5  H   UNL A   1      36.437  34.516  36.198  1.00  0.00     0.163 HD
BRANCH   3   6
ATOM      6  C   UNL A   1      38.312  31.879  35.447  1.00  0.00     0.191 A 
ATOM      7  C   UNL A   1      39.925  30.391  35.138  1.00  0.00     0.124 A 
ATOM      8  C   UNL A   1      38.999  30.168  34.143  1.00  0.00     0.048 A 
ATOM      9  O   UNL A   1      39.511  31.408  35.937  1.00  0.00    -0.454 OA
ATOM     10  C   UNL A   1      37.961  31.106  34.353  1.00  0.00     0.056 A 
BRANCH   7  11
ATOM     11  C   UNL A   1      41.248  29.788  35.440  1.00  0.00     0.193 C 
BRANCH  11  12
ATOM     12  N   UNL A   1      40.982  28.629  36.263  1.00  0.00    -0.331 N 
ATOM     13  C   UNL A   1      41.451  27.390  36.420  1.00  0.00     0.317 C 
ATOM     14  O   UNL A   1      40.792  26.689  37.195  1.00  0.00    -0.249 OA
ATOM     15  H   UNL A   1      40.240  28.805  36.888  1.00  0.00     0.165 HD
BRANCH  13  16
ATOM     16  N   UNL A   1      42.610  26.943  35.858  1.00  0.00    -0.327 N 
ATOM     17  C   UNL A   1      42.784  26.441  34.508  1.00  0.00     0.148 C 
BRANCH  16  18
ATOM     18  C   UNL A   1      43.829  27.092  36.667  1.00  0.00     0.132 C 
BRANCH  18  19
ATOM     19  C   UNL A   1      44.542  25.761  36.898  1.00  0.00     0.144 C 
BRANCH  19  20
ATOM     20  C   UNL A   1      45.167  25.706  38.269  1.00  0.00     0.307 C 
ATOM     21  O   UNL A   1      45.120  26.626  39.075  1.00  0.00    -0.252 OA
BRANCH  20  22
ATOM     22  O   UNL A   1      45.791  24.511  38.465  1.00  0.00    -0.469 OA
ATOM     23  C   UNL A   1      45.278  23.747  39.559  1.00  0.00     0.282 C 
ENDBRANCH  20  22
ENDBRANCH  19  20
ENDBRANCH  18  19
ENDBRANCH  16  18
ENDBRANCH  13  16
ENDBRANCH  11  12
ENDBRANCH   7  11
ENDBRANCH   3   6
ENDBRANCH   1   2
BRANCH   1  24
ATOM     24  C   UNL A   1      34.993  34.806  34.234  1.00  0.00     0.021 C 
BRANCH  24  25
ATOM     25  C   UNL A   1      34.751  35.333  32.811  1.00  0.00     0.002 C 
BRANCH  25  26
ATOM     26  C   UNL A   1      33.279  35.396  32.380  1.00  0.00     0.002 C 
BRANCH  26  27
ATOM     27  C   UNL A   1      32.917  36.569  31.463  1.00  0.00     0.021 C 
BRANCH  27  28
ATOM     28  C   UNL A   1      33.504  36.479  30.059  1.00  0.00     0.116 C 
BRANCH  28  29
ATOM     29  N   UNL A   1      32.757  35.559  29.220  1.00  0.00    -0.352 N 
ATOM     30  C   UNL A   1      33.162  34.386  28.636  1.00  0.00     0.251 C 
ATOM     31  H   UNL A   1      31.822  35.814  29.045  1.00  0.00     0.163 HD
ATOM     32  O   UNL A   1      32.454  33.848  27.790  1.00  0.00    -0.269 OA
BRANCH  30  33
ATOM     33  C   UNL A   1      34.449  33.766  29.017  1.00  0.00     0.039 A 
ATOM     34  C   UNL A   1      34.466  32.857  30.080  1.00  0.00     0.014 A 
ATOM     35  C   UNL A   1      35.643  34.122  28.381  1.00  0.00     0.014 A 
ATOM     36  C   UNL A   1      35.675  32.294  30.494  1.00  0.00     0.010 A 
ATOM     37  C   UNL A   1      36.839  33.512  28.753  1.00  0.00     0.010 A 
ATOM     38  C   UNL A   1      36.869  32.615  29.830  1.00  0.00    -0.014 A 
BRANCH  38  39
ATOM     39  C   UNL A   1      38.168  32.069  30.295  1.00  0.00     0.031 A 
ATOM     40  C   UNL A   1      38.670  30.761  29.745  1.00  0.00     0.074 A 
ATOM     41  C   UNL A   1      38.879  32.726  31.230  1.00  0.00     0.049 A 
ATOM     42  N   UNL A   1      39.764  30.105  30.042  1.00  0.00    -0.248 NA
ATOM     43  C   UNL A   1      37.818  30.089  28.750  1.00  0.00     0.031 C 
ATOM     44  C   UNL A   1      38.487  33.984  31.867  1.00  0.00     0.029 A 
ATOM     45  N   UNL A   1      40.086  32.421  31.807  1.00  0.00    -0.354 N 
ATOM     46  C   UNL A   1      39.718  28.937  29.288  1.00  0.00     0.074 A 
ATOM     47  C   UNL A   1      38.470  28.952  28.559  1.00  0.00     0.031 C 
ATOM     48  C   UNL A   1      39.448  34.357  32.728  1.00  0.00     0.029 A 
ATOM     49  C   UNL A   1      40.509  33.355  32.721  1.00  0.00     0.049 A 
ATOM     50  H   UNL A   1      40.600  31.611  31.586  1.00  0.00     0.167 HD
ATOM     51  C   UNL A   1      40.640  27.950  29.195  1.00  0.00     0.031 A 
ATOM     52  C   UNL A   1      41.631  33.401  33.462  1.00  0.00     0.031 A 
ATOM     53  C   UNL A   1      41.893  27.943  29.900  1.00  0.00     0.049 A 
ATOM     54  C   UNL A   1      42.654  32.309  33.319  1.00  0.00     0.074 A 
ATOM     55  C   UNL A   1      42.915  27.011  29.841  1.00  0.00     0.029 A 
ATOM     56  N   UNL A   1      42.297  28.926  30.790  1.00  0.00    -0.354 N 
ATOM     57  N   UNL A   1      42.618  31.238  32.563  1.00  0.00    -0.248 NA
ATOM     58  C   UNL A   1      43.880  32.446  34.116  1.00  0.00     0.031 C 
ATOM     59  C   UNL A   1      43.926  27.415  30.719  1.00  0.00     0.029 A 
ATOM     60  C   UNL A   1      43.551  28.622  31.290  1.00  0.00     0.049 A 
ATOM     61  H   UNL A   1      41.770  29.723  31.032  1.00  0.00     0.167 HD
ATOM     62  C   UNL A   1      43.832  30.593  32.766  1.00  0.00     0.074 A 
ATOM     63  C   UNL A   1      44.583  31.398  33.707  1.00  0.00     0.031 C 
ATOM     64  C   UNL A   1      44.286  29.440  32.219  1.00  0.00     0.031 A 
BRANCH  51  65
ATOM     65  C   UNL A   1      40.317  26.791  28.293  1.00  0.00    -0.014 A 
ATOM     66  C   UNL A   1      39.540  25.712  28.745  1.00  0.00     0.009 A 
ATOM     67  C   UNL A   1      40.784  26.783  26.970  1.00  0.00     0.009 A 
ATOM     68  C   UNL A   1      39.272  24.631  27.904  1.00  0.00     0.001 A 
ATOM     69  C   UNL A   1      40.491  25.714  26.122  1.00  0.00     0.001 A 
ATOM     70  C   UNL A   1      39.745  24.634  26.593  1.00  0.00     0.000 A 
ENDBRANCH  51  65
BRANCH  52  71
ATOM     71  C   UNL A   1      41.871  34.546  34.378  1.00  0.00    -0.014 A 
ATOM     72  C   UNL A   1      42.488  35.714  33.905  1.00  0.00     0.009 A 
ATOM     73  C   UNL A   1      41.490  34.476  35.725  1.00  0.00     0.009 A 
ATOM     74  C   UNL A   1      42.745  36.779  34.771  1.00  0.00     0.001 A 
ATOM     75  C   UNL A   1      41.725  35.551  36.584  1.00  0.00     0.001 A 
ATOM     76  C   UNL A   1      42.361  36.697  36.108  1.00  0.00     0.000 A 
ENDBRANCH  52  71
BRANCH  64  77
ATOM     77  C   UNL A   1      45.678  29.010  32.586  1.00  0.00    -0.014 A 
ATOM     78  C   UNL A   1      46.793  29.440  31.851  1.00  0.00     0.009 A 
ATOM     79  C   UNL A   1      45.874  28.184  33.703  1.00  0.00     0.009 A 
ATOM     80  C   UNL A   1      48.076  29.017  32.206  1.00  0.00     0.001 A 
ATOM     81  C   UNL A   1      47.159  27.784  34.071  1.00  0.00     0.001 A 
ATOM     82  C   UNL A   1      48.257  28.192  33.316  1.00  0.00     0.000 A 
ENDBRANCH  64  77
ENDBRANCH  38  39
ENDBRANCH  30  33
ENDBRANCH  28  29
ENDBRANCH  27  28
ENDBRANCH  26  27
ENDBRANCH  25  26
ENDBRANCH  24  25
ENDBRANCH   1  24
TORSDOF 20
ENDMDL
MODEL 3
REMARK VINA RESULT:      -9.8      3.171      7.404
REMARK SMILES COC(=O)CCN(C)C(=O)NCc1ccc(C(=O)NCCCCCCNC(=O)c2ccc(-c3c4nc(c(-c5ccccc5)c5ccc([nH]5)c(-c5ccccc5)c5nc(c(-c6ccccc6)c6ccc3[nH]6)C=C5)C=C4)cc2)o1
REMARK SMILES IDX 20 1 19 2 17 3 18 4 16 6 13 7 14 8 77 9 15 10 12 11 11 12
REMARK SMILES IDX 9 13 10 14 7 16 8 17 6 18 5 19 3 20 4 21 2 22 1 23 21 24
REMARK SMILES IDX 22 25 23 26 24 27 25 28 26 29 27 30 28 32 29 33 30 34 76 35
REMARK SMILES IDX 31 36 75 37 32 38 33 39 34 40 69 41 35 42 74 43 68 44 70 45
REMARK SMILES IDX 36 46 73 47 67 48 66 49 37 51 59 52 44 53 58 54 45 55 48 56
REMARK SMILES IDX 57 57 71 58 46 59 47 60 56 62 72 63 49 64 38 65 39 66 43 67
REMARK SMILES IDX 40 68 42 69 41 70 60 71 61 72 65 73 62 74 64 75 63 76 50 77
REMARK SMILES IDX 51 78 55 79 52 80 54 81 53 82
REMARK H PARENT 19 5 11 15 26 31 70 50 48 61
REMARK Flexibility Score: inf
ROOT
ATOM      1  C   UNL A   1      33.307  28.352  22.622  1.00  0.00     0.116 C 
ENDROOT
BRANCH   1   2
ATOM      2  N   UNL A   1      33.209  27.381  21.554  1.00  0.00    -0.349 N 
ATOM      3  C   UNL A   1      33.260  26.008  21.559  1.00  0.00     0.286 C 
ATOM      4  O   UNL A   1      33.107  25.472  20.458  1.00  0.00    -0.266 OA
ATOM      5  H   UNL A   1      33.083  27.777  20.662  1.00  0.00     0.163 HD
BRANCH   3   6
ATOM      6  C   UNL A   1      33.464  25.246  22.779  1.00  0.00     0.191 A 
ATOM      7  C   UNL A   1      32.771  23.808  24.316  1.00  0.00     0.124 A 
ATOM      8  C   UNL A   1      34.023  24.222  24.713  1.00  0.00     0.048 A 
ATOM      9  O   UNL A   1      32.434  24.407  23.145  1.00  0.00    -0.454 OA
ATOM     10  C   UNL A   1      34.473  25.124  23.721  1.00  0.00     0.056 A 
BRANCH   7  11
ATOM     11  C   UNL A   1      31.757  22.918  24.938  1.00  0.00     0.193 C 
BRANCH  11  12
ATOM     12  N   UNL A   1      32.495  21.977  25.751  1.00  0.00    -0.331 N 
ATOM     13  C   UNL A   1      32.964  20.732  25.654  1.00  0.00     0.317 C 
ATOM     14  O   UNL A   1      33.443  20.284  26.701  1.00  0.00    -0.249 OA
ATOM     15  H   UNL A   1      32.715  22.368  26.628  1.00  0.00     0.165 HD
BRANCH  13  16
ATOM     16  N   UNL A   1      33.009  20.028  24.488  1.00  0.00    -0.327 N 
ATOM     17  C   UNL A   1      32.327  20.354  23.249  1.00  0.00     0.148 C 
BRANCH  16  18
ATOM     18  C   UNL A   1      33.933  18.884  24.449  1.00  0.00     0.132 C 
BRANCH  18  19
ATOM     19  C   UNL A   1      33.285  17.593  24.948  1.00  0.00     0.144 C 
BRANCH  19  20
ATOM     20  C   UNL A   1      33.590  16.439  24.029  1.00  0.00     0.307 C 
ATOM     21  O   UNL A   1      34.019  16.570  22.889  1.00  0.00    -0.252 OA
BRANCH  20  22
ATOM     22  O   UNL A   1      33.309  15.253  24.637  1.00  0.00    -0.469 OA
ATOM     23  C   UNL A   1      32.380  15.347  25.720  1.00  0.00     0.282 C 
ENDBRANCH  20  22
ENDBRANCH  19  20
ENDBRANCH  18  19
ENDBRANCH  16  18
ENDBRANCH  13  16
ENDBRANCH  11  12
ENDBRANCH   7  11
ENDBRANCH   3   6
ENDBRANCH   1   2
BRANCH   1  24
ATOM     24  C   UNL A   1      31.921  28.784  23.099  1.00  0.00     0.021 C 
BRANCH  24  25
ATOM     25  C   UNL A   1      31.780  28.799  24.628  1.00  0.00     0.002 C 
BRANCH  25  26
ATOM     26  C   UNL A   1      32.450  27.627  25.359  1.00  0.00     0.002 C 
BRANCH  26  27
ATOM     27  C   UNL A   1      33.687  27.993  26.185  1.00  0.00     0.021 C 
BRANCH  27  28
ATOM     28  C   UNL A   1      33.379  28.540  27.575  1.00  0.00     0.116 C 
BRANCH  28  29
ATOM     29  N   UNL A   1      33.449  29.990  27.612  1.00  0.00    -0.352 N 
ATOM     30  C   UNL A   1      34.468  30.803  28.035  1.00  0.00     0.251 C 
ATOM     31  H   UNL A   1      32.647  30.457  27.284  1.00  0.00     0.163 HD
ATOM     32  O   UNL A   1      34.269  32.005  28.186  1.00  0.00    -0.269 OA
BRANCH  30  33
ATOM     33  C   UNL A   1      35.808  30.242  28.313  1.00  0.00     0.039 A 
ATOM     34  C   UNL A   1      36.072  29.741  29.592  1.00  0.00     0.014 A 
ATOM     35  C   UNL A   1      36.821  30.269  27.349  1.00  0.00     0.014 A 
ATOM     36  C   UNL A   1      37.343  29.252  29.899  1.00  0.00     0.010 A 
ATOM     37  C   UNL A   1      38.070  29.723  27.636  1.00  0.00     0.010 A 
ATOM     38  C   UNL A   1      38.350  29.236  28.921  1.00  0.00    -0.014 A 
BRANCH  38  39
ATOM     39  C   UNL A   1      39.720  28.772  29.248  1.00  0.00     0.031 A 
ATOM     40  C   UNL A   1      40.641  29.659  30.043  1.00  0.00     0.074 A 
ATOM     41  C   UNL A   1      40.150  27.575  28.808  1.00  0.00     0.049 A 
ATOM     42  N   UNL A   1      41.880  29.448  30.408  1.00  0.00    -0.248 NA
ATOM     43  C   UNL A   1      40.106  30.966  30.459  1.00  0.00     0.031 C 
ATOM     44  C   UNL A   1      39.368  26.636  28.001  1.00  0.00     0.029 A 
ATOM     45  N   UNL A   1      41.355  26.943  28.981  1.00  0.00    -0.354 N 
ATOM     46  C   UNL A   1      42.278  30.602  31.074  1.00  0.00     0.074 A 
ATOM     47  C   UNL A   1      41.167  31.525  31.023  1.00  0.00     0.031 C 
ATOM     48  C   UNL A   1      40.105  25.537  27.771  1.00  0.00     0.029 A 
ATOM     49  C   UNL A   1      41.415  25.704  28.392  1.00  0.00     0.049 A 
ATOM     50  H   UNL A   1      42.105  27.341  29.480  1.00  0.00     0.167 HD
ATOM     51  C   UNL A   1      43.454  30.863  31.693  1.00  0.00     0.031 A 
ATOM     52  C   UNL A   1      42.413  24.802  28.363  1.00  0.00     0.031 A 
ATOM     53  C   UNL A   1      44.552  29.938  31.767  1.00  0.00     0.049 A 
ATOM     54  C   UNL A   1      43.699  25.102  29.082  1.00  0.00     0.074 A 
ATOM     55  C   UNL A   1      45.770  30.090  32.407  1.00  0.00     0.029 A 
ATOM     56  N   UNL A   1      44.559  28.680  31.185  1.00  0.00    -0.354 N 
ATOM     57  N   UNL A   1      44.039  26.176  29.752  1.00  0.00    -0.248 NA
ATOM     58  C   UNL A   1      44.727  24.053  29.059  1.00  0.00     0.031 C 
ATOM     59  C   UNL A   1      46.526  28.934  32.187  1.00  0.00     0.029 A 
ATOM     60  C   UNL A   1      45.761  28.046  31.448  1.00  0.00     0.049 A 
ATOM     61  H   UNL A   1      43.818  28.294  30.662  1.00  0.00     0.167 HD
ATOM     62  C   UNL A   1      45.306  25.919  30.259  1.00  0.00     0.074 A 
ATOM     63  C   UNL A   1      45.667  24.584  29.829  1.00  0.00     0.031 C 
ATOM     64  C   UNL A   1      46.098  26.714  31.018  1.00  0.00     0.031 A 
BRANCH  51  65
ATOM     65  C   UNL A   1      43.607  32.213  32.336  1.00  0.00    -0.014 A 
ATOM     66  C   UNL A   1      44.159  33.296  31.632  1.00  0.00     0.009 A 
ATOM     67  C   UNL A   1      43.182  32.410  33.658  1.00  0.00     0.009 A 
ATOM     68  C   UNL A   1      44.319  34.536  32.252  1.00  0.00     0.001 A 
ATOM     69  C   UNL A   1      43.317  33.659  34.268  1.00  0.00     0.001 A 
ATOM     70  C   UNL A   1      43.896  34.718  33.568  1.00  0.00     0.000 A 
ENDBRANCH  51  65
BRANCH  52  71
ATOM     71  C   UNL A   1      42.222  23.505  27.665  1.00  0.00    -0.014 A 
ATOM     72  C   UNL A   1      42.599  23.362  26.320  1.00  0.00     0.009 A 
ATOM     73  C   UNL A   1      41.660  22.408  28.333  1.00  0.00     0.009 A 
ATOM     74  C   UNL A   1      42.391  22.155  25.651  1.00  0.00     0.001 A 
ATOM     75  C   UNL A   1      41.475  21.194  27.669  1.00  0.00     0.001 A 
ATOM     76  C   UNL A   1      41.832  21.071  26.327  1.00  0.00     0.000 A 
ENDBRANCH  52  71
BRANCH  64  77
ATOM     77  C   UNL A   1      47.410  26.139  31.473  1.00  0.00    -0.014 A 
ATOM     78  C   UNL A   1      48.553  26.198  30.662  1.00  0.00     0.009 A 
ATOM     79  C   UNL A   1      47.503  25.554  32.744  1.00  0.00     0.009 A 
ATOM     80  C   UNL A   1      49.758  25.644  31.103  1.00  0.00     0.001 A 
ATOM     81  C   UNL A   1      48.714  25.026  33.193  1.00  0.00     0.001 A 
ATOM     82  C   UNL A   1      49.837  25.063  32.368  1.00  0.00     0.000 A 
ENDBRANCH  64  77
ENDBRANCH  38  39
ENDBRANCH  30  33
ENDBRANCH  28  29
ENDBRANCH  27  28
ENDBRANCH  26  27
ENDBRANCH  25  26
ENDBRANCH  24  25
ENDBRANCH   1  24
TORSDOF 20
ENDMDL
