MODEL 1
REMARK VINA RESULT:     -10.2      0.000      0.000
REMARK SMILES CC[C@](C)(NC(=O)CCSc1ccccc1Cl)C(=O)NCCCCCCNC(=O)c1ccc(-c2c3nc(c(-c4ccccc4)c4ccc([nH]4)c(-c4ccccc4)c4nc(c(-c5ccccc5)c5ccc2[nH]5)C=C4)C=C3)cc1
REMARK SMILES IDX 22 1 21 2 20 3 18 4 19 5 3 7 4 8 2 9 1 10 5 11 6 12 7 14
REMARK SMILES IDX 8 15 9 16 10 17 11 18 12 19 16 20 13 21 15 22 17 23 14 24
REMARK SMILES IDX 23 25 24 26 25 27 26 28 27 29 28 30 29 32 30 33 31 34 77 35
REMARK SMILES IDX 32 36 76 37 33 38 34 39 35 40 70 41 36 42 75 43 69 44 71 45
REMARK SMILES IDX 37 46 74 47 68 48 67 49 38 51 60 52 45 53 59 54 46 55 49 56
REMARK SMILES IDX 58 57 72 58 47 59 48 60 57 62 73 63 50 64 39 65 40 66 44 67
REMARK SMILES IDX 41 68 43 69 42 70 61 71 62 72 66 73 63 74 65 75 64 76 51 77
REMARK SMILES IDX 52 78 56 79 53 80 55 81 54 82
REMARK H PARENT 20 6 5 13 27 31 71 50 49 61
REMARK Flexibility Score: inf
ROOT
ATOM      1  C   UNL A   1      32.532  28.474  27.228  1.00  0.00     0.021 C 
ENDROOT
BRANCH   1   2
ATOM      2  C   UNL A   1      32.801  27.861  25.854  1.00  0.00     0.116 C 
BRANCH   2   3
ATOM      3  N   UNL A   1      31.642  27.157  25.328  1.00  0.00    -0.354 N 
ATOM      4  C   UNL A   1      31.051  27.155  24.101  1.00  0.00     0.245 C 
ATOM      5  O   UNL A   1      30.091  26.392  23.956  1.00  0.00    -0.272 OA
ATOM      6  H   UNL A   1      31.199  26.571  25.985  1.00  0.00     0.163 HD
BRANCH   4   7
ATOM      7  C   UNL A   1      31.632  27.967  22.910  1.00  0.00     0.116 C 
ATOM      8  C   UNL A   1      32.637  29.019  23.389  1.00  0.00     0.045 C 
BRANCH   7   9
ATOM      9  C   UNL A   1      30.435  28.714  22.219  1.00  0.00     0.035 C 
ATOM     10  C   UNL A   1      29.750  29.799  23.045  1.00  0.00     0.007 C 
ENDBRANCH   7   9
BRANCH   7  11
ATOM     11  N   UNL A   1      32.212  27.058  21.893  1.00  0.00    -0.342 N 
ATOM     12  C   UNL A   1      33.068  26.013  21.893  1.00  0.00     0.221 C 
ATOM     13  H   UNL A   1      31.892  27.271  20.987  1.00  0.00     0.164 HD
ATOM     14  O   UNL A   1      33.145  25.414  20.813  1.00  0.00    -0.275 OA
BRANCH  12  15
ATOM     15  C   UNL A   1      33.772  25.446  23.105  1.00  0.00     0.111 C 
BRANCH  15  16
ATOM     16  C   UNL A   1      33.272  24.170  23.762  1.00  0.00     0.085 C 
BRANCH  16  17
ATOM     17  S   UNL A   1      33.677  23.772  25.511  1.00  0.00    -0.124 SA
BRANCH  17  18
ATOM     18  C   UNL A   1      35.268  22.964  25.414  1.00  0.00     0.026 A 
ATOM     19  C   UNL A   1      36.421  23.680  25.768  1.00  0.00     0.016 A 
ATOM     20  C   UNL A   1      35.409  21.621  25.022  1.00  0.00     0.054 A 
ATOM     21  C   UNL A   1      37.692  23.110  25.628  1.00  0.00     0.001 A 
ATOM     22  C   UNL A   1      36.682  21.057  24.877  1.00  0.00     0.022 A 
ATOM     23  Cl  UNL A   1      34.047  20.614  24.660  1.00  0.00    -0.083 Cl
ATOM     24  C   UNL A   1      37.823  21.806  25.161  1.00  0.00     0.002 A 
ENDBRANCH  17  18
ENDBRANCH  16  17
ENDBRANCH  15  16
ENDBRANCH  12  15
ENDBRANCH   7  11
ENDBRANCH   4   7
ENDBRANCH   2   3
ENDBRANCH   1   2
BRANCH   1  25
ATOM     25  C   UNL A   1      32.546  30.007  27.261  1.00  0.00     0.002 C 
BRANCH  25  26
ATOM     26  C   UNL A   1      31.449  30.684  26.436  1.00  0.00     0.002 C 
BRANCH  26  27
ATOM     27  C   UNL A   1      31.406  32.208  26.546  1.00  0.00     0.021 C 
BRANCH  27  28
ATOM     28  C   UNL A   1      32.647  32.826  27.171  1.00  0.00     0.116 C 
BRANCH  28  29
ATOM     29  N   UNL A   1      32.409  34.184  27.626  1.00  0.00    -0.352 N 
ATOM     30  C   UNL A   1      33.039  34.868  28.633  1.00  0.00     0.251 C 
ATOM     31  H   UNL A   1      31.702  34.679  27.149  1.00  0.00     0.163 HD
ATOM     32  O   UNL A   1      32.605  35.941  29.032  1.00  0.00    -0.269 OA
BRANCH  30  33
ATOM     33  C   UNL A   1      34.247  34.281  29.249  1.00  0.00     0.039 A 
ATOM     34  C   UNL A   1      34.113  33.528  30.416  1.00  0.00     0.014 A 
ATOM     35  C   UNL A   1      35.505  34.477  28.670  1.00  0.00     0.014 A 
ATOM     36  C   UNL A   1      35.241  32.942  30.989  1.00  0.00     0.010 A 
ATOM     37  C   UNL A   1      36.617  33.833  29.202  1.00  0.00     0.010 A 
ATOM     38  C   UNL A   1      36.499  33.080  30.379  1.00  0.00    -0.014 A 
BRANCH  38  39
ATOM     39  C   UNL A   1      37.713  32.495  30.996  1.00  0.00     0.031 A 
ATOM     40  C   UNL A   1      38.336  31.266  30.391  1.00  0.00     0.074 A 
ATOM     41  C   UNL A   1      38.236  33.044  32.109  1.00  0.00     0.049 A 
ATOM     42  N   UNL A   1      39.374  30.580  30.798  1.00  0.00    -0.248 NA
ATOM     43  C   UNL A   1      37.694  30.722  29.182  1.00  0.00     0.031 C 
ATOM     44  C   UNL A   1      37.704  34.215  32.811  1.00  0.00     0.029 A 
ATOM     45  N   UNL A   1      39.335  32.685  32.846  1.00  0.00    -0.354 N 
ATOM     46  C   UNL A   1      39.501  29.526  29.903  1.00  0.00     0.074 A 
ATOM     47  C   UNL A   1      38.402  29.624  28.969  1.00  0.00     0.031 C 
ATOM     48  C   UNL A   1      38.492  34.490  33.863  1.00  0.00     0.029 A 
ATOM     49  C   UNL A   1      39.564  33.501  33.927  1.00  0.00     0.049 A 
ATOM     50  H   UNL A   1      39.907  31.916  32.622  1.00  0.00     0.167 HD
ATOM     51  C   UNL A   1      40.462  28.574  29.843  1.00  0.00     0.031 A 
ATOM     52  C   UNL A   1      40.531  33.456  34.862  1.00  0.00     0.031 A 
ATOM     53  C   UNL A   1      41.561  28.479  30.764  1.00  0.00     0.049 A 
ATOM     54  C   UNL A   1      41.589  32.391  34.771  1.00  0.00     0.074 A 
ATOM     55  C   UNL A   1      42.597  27.561  30.782  1.00  0.00     0.029 A 
ATOM     56  N   UNL A   1      41.772  29.343  31.826  1.00  0.00    -0.354 N 
ATOM     57  N   UNL A   1      41.718  31.427  33.893  1.00  0.00    -0.248 NA
ATOM     58  C   UNL A   1      42.648  32.424  35.790  1.00  0.00     0.031 C 
ATOM     59  C   UNL A   1      43.421  27.855  31.873  1.00  0.00     0.029 A 
ATOM     60  C   UNL A   1      42.923  28.984  32.504  1.00  0.00     0.049 A 
ATOM     61  H   UNL A   1      41.191  30.102  32.062  1.00  0.00     0.167 HD
ATOM     62  C   UNL A   1      42.891  30.762  34.230  1.00  0.00     0.074 A 
ATOM     63  C   UNL A   1      43.441  31.442  35.384  1.00  0.00     0.031 C 
ATOM     64  C   UNL A   1      43.462  29.685  33.639  1.00  0.00     0.031 A 
BRANCH  51  65
ATOM     65  C   UNL A   1      40.367  27.568  28.730  1.00  0.00    -0.014 A 
ATOM     66  C   UNL A   1      39.664  26.366  28.906  1.00  0.00     0.009 A 
ATOM     67  C   UNL A   1      40.959  27.835  27.487  1.00  0.00     0.009 A 
ATOM     68  C   UNL A   1      39.584  25.435  27.869  1.00  0.00     0.001 A 
ATOM     69  C   UNL A   1      40.854  26.915  26.442  1.00  0.00     0.001 A 
ATOM     70  C   UNL A   1      40.175  25.712  26.636  1.00  0.00     0.000 A 
ENDBRANCH  51  65
BRANCH  52  71
ATOM     71  C   UNL A   1      40.564  34.460  35.958  1.00  0.00    -0.014 A 
ATOM     72  C   UNL A   1      39.877  34.230  37.160  1.00  0.00     0.009 A 
ATOM     73  C   UNL A   1      41.256  35.670  35.794  1.00  0.00     0.009 A 
ATOM     74  C   UNL A   1      39.850  35.205  38.158  1.00  0.00     0.001 A 
ATOM     75  C   UNL A   1      41.252  36.631  36.806  1.00  0.00     0.001 A 
ATOM     76  C   UNL A   1      40.539  36.404  37.982  1.00  0.00     0.000 A 
ENDBRANCH  52  71
BRANCH  64  77
ATOM     77  C   UNL A   1      44.776  29.215  34.195  1.00  0.00    -0.014 A 
ATOM     78  C   UNL A   1      44.839  28.243  35.204  1.00  0.00     0.009 A 
ATOM     79  C   UNL A   1      45.970  29.737  33.674  1.00  0.00     0.009 A 
ATOM     80  C   UNL A   1      46.074  27.832  35.709  1.00  0.00     0.001 A 
ATOM     81  C   UNL A   1      47.204  29.304  34.161  1.00  0.00     0.001 A 
ATOM     82  C   UNL A   1      47.254  28.360  35.185  1.00  0.00     0.000 A 
ENDBRANCH  64  77
ENDBRANCH  38  39
ENDBRANCH  30  33
ENDBRANCH  28  29
ENDBRANCH  27  28
ENDBRANCH  26  27
ENDBRANCH  25  26
ENDBRANCH   1  25
TORSDOF 19
ENDMDL
MODEL 2
REMARK VINA RESULT:      -9.9      2.071      7.119
REMARK SMILES CC[C@](C)(NC(=O)CCSc1ccccc1Cl)C(=O)NCCCCCCNC(=O)c1ccc(-c2c3nc(c(-c4ccccc4)c4ccc([nH]4)c(-c4ccccc4)c4nc(c(-c5ccccc5)c5ccc2[nH]5)C=C4)C=C3)cc1
REMARK SMILES IDX 22 1 21 2 20 3 18 4 19 5 3 7 4 8 2 9 1 10 5 11 6 12 7 14
REMARK SMILES IDX 8 15 9 16 10 17 11 18 12 19 16 20 13 21 15 22 17 23 14 24
REMARK SMILES IDX 23 25 24 26 25 27 26 28 27 29 28 30 29 32 30 33 31 34 77 35
REMARK SMILES IDX 32 36 76 37 33 38 34 39 35 40 70 41 36 42 75 43 69 44 71 45
REMARK SMILES IDX 37 46 74 47 68 48 67 49 38 51 60 52 45 53 59 54 46 55 49 56
REMARK SMILES IDX 58 57 72 58 47 59 48 60 57 62 73 63 50 64 39 65 40 66 44 67
REMARK SMILES IDX 41 68 43 69 42 70 61 71 62 72 66 73 63 74 65 75 64 76 51 77
REMARK SMILES IDX 52 78 56 79 53 80 55 81 54 82
REMARK H PARENT 20 6 5 13 27 31 71 50 49 61
REMARK Flexibility Score: inf
ROOT
ATOM      1  C   UNL A   1      34.383  28.527  26.858  1.00  0.00     0.021 C 
ENDROOT
BRANCH   1   2
ATOM      2  C   UNL A   1      33.418  27.509  26.250  1.00  0.00     0.116 C 
BRANCH   2   3
ATOM      3  N   UNL A   1      33.602  27.363  24.815  1.00  0.00    -0.354 N 
ATOM      4  C   UNL A   1      33.819  26.274  24.025  1.00  0.00     0.245 C 
ATOM      5  O   UNL A   1      33.882  26.483  22.810  1.00  0.00    -0.272 OA
ATOM      6  H   UNL A   1      33.563  28.214  24.319  1.00  0.00     0.163 HD
BRANCH   4   7
ATOM      7  C   UNL A   1      33.856  24.834  24.607  1.00  0.00     0.116 C 
ATOM      8  C   UNL A   1      33.952  24.851  26.135  1.00  0.00     0.045 C 
BRANCH   7   9
ATOM      9  C   UNL A   1      35.141  24.129  24.043  1.00  0.00     0.035 C 
ATOM     10  C   UNL A   1      36.218  23.774  25.065  1.00  0.00     0.007 C 
ENDBRANCH   7   9
BRANCH   7  11
ATOM     11  N   UNL A   1      32.694  24.049  24.127  1.00  0.00    -0.342 N 
ATOM     12  C   UNL A   1      31.367  24.015  24.381  1.00  0.00     0.221 C 
ATOM     13  H   UNL A   1      32.955  23.382  23.452  1.00  0.00     0.164 HD
ATOM     14  O   UNL A   1      30.715  23.303  23.606  1.00  0.00    -0.275 OA
BRANCH  12  15
ATOM     15  C   UNL A   1      30.636  24.876  25.386  1.00  0.00     0.111 C 
BRANCH  15  16
ATOM     16  C   UNL A   1      29.905  26.131  24.940  1.00  0.00     0.085 C 
BRANCH  16  17
ATOM     17  S   UNL A   1      30.118  26.811  23.244  1.00  0.00    -0.124 SA
BRANCH  17  18
ATOM     18  C   UNL A   1      29.241  28.368  23.288  1.00  0.00     0.026 A 
ATOM     19  C   UNL A   1      27.851  28.375  23.102  1.00  0.00     0.016 A 
ATOM     20  C   UNL A   1      29.889  29.592  23.531  1.00  0.00     0.054 A 
ATOM     21  C   UNL A   1      27.139  29.578  23.049  1.00  0.00     0.001 A 
ATOM     22  C   UNL A   1      29.174  30.794  23.471  1.00  0.00     0.022 A 
ATOM     23  Cl  UNL A   1      31.584  29.691  23.873  1.00  0.00    -0.083 Cl
ATOM     24  C   UNL A   1      27.804  30.789  23.210  1.00  0.00     0.002 A 
ENDBRANCH  17  18
ENDBRANCH  16  17
ENDBRANCH  15  16
ENDBRANCH  12  15
ENDBRANCH   7  11
ENDBRANCH   4   7
ENDBRANCH   2   3
ENDBRANCH   1   2
BRANCH   1  25
ATOM     25  C   UNL A   1      33.749  29.875  27.220  1.00  0.00     0.002 C 
BRANCH  25  26
ATOM     26  C   UNL A   1      32.220  29.909  27.167  1.00  0.00     0.002 C 
BRANCH  26  27
ATOM     27  C   UNL A   1      31.608  31.307  27.086  1.00  0.00     0.021 C 
BRANCH  27  28
ATOM     28  C   UNL A   1      32.586  32.397  26.675  1.00  0.00     0.116 C 
BRANCH  28  29
ATOM     29  N   UNL A   1      32.341  33.643  27.379  1.00  0.00    -0.352 N 
ATOM     30  C   UNL A   1      33.049  34.186  28.420  1.00  0.00     0.251 C 
ATOM     31  H   UNL A   1      31.565  34.166  27.068  1.00  0.00     0.163 HD
ATOM     32  O   UNL A   1      32.614  35.149  29.040  1.00  0.00    -0.269 OA
BRANCH  30  33
ATOM     33  C   UNL A   1      34.341  33.580  28.799  1.00  0.00     0.039 A 
ATOM     34  C   UNL A   1      35.472  33.866  28.033  1.00  0.00     0.014 A 
ATOM     35  C   UNL A   1      34.430  32.734  29.908  1.00  0.00     0.014 A 
ATOM     36  C   UNL A   1      36.705  33.325  28.399  1.00  0.00     0.010 A 
ATOM     37  C   UNL A   1      35.671  32.254  30.314  1.00  0.00     0.010 A 
ATOM     38  C   UNL A   1      36.814  32.526  29.550  1.00  0.00    -0.014 A 
BRANCH  38  39
ATOM     39  C   UNL A   1      38.109  31.914  29.930  1.00  0.00     0.031 A 
ATOM     40  C   UNL A   1      39.033  32.649  30.864  1.00  0.00     0.074 A 
ATOM     41  C   UNL A   1      38.469  30.722  29.418  1.00  0.00     0.049 A 
ATOM     42  N   UNL A   1      40.222  32.305  31.290  1.00  0.00    -0.248 NA
ATOM     43  C   UNL A   1      38.568  33.953  31.368  1.00  0.00     0.031 C 
ATOM     44  C   UNL A   1      37.678  29.927  28.476  1.00  0.00     0.029 A 
ATOM     45  N   UNL A   1      39.598  29.970  29.621  1.00  0.00    -0.354 N 
ATOM     46  C   UNL A   1      40.646  33.350  32.101  1.00  0.00     0.074 A 
ATOM     47  C   UNL A   1      39.618  34.366  32.060  1.00  0.00     0.031 C 
ATOM     48  C   UNL A   1      38.337  28.790  28.200  1.00  0.00     0.029 A 
ATOM     49  C   UNL A   1      39.606  28.788  28.922  1.00  0.00     0.049 A 
ATOM     50  H   UNL A   1      40.334  30.251  30.211  1.00  0.00     0.167 HD
ATOM     51  C   UNL A   1      41.777  33.447  32.838  1.00  0.00     0.031 A 
ATOM     52  C   UNL A   1      40.533  27.813  28.871  1.00  0.00     0.031 A 
ATOM     53  C   UNL A   1      42.796  32.435  32.889  1.00  0.00     0.049 A 
ATOM     54  C   UNL A   1      41.779  27.943  29.703  1.00  0.00     0.074 A 
ATOM     55  C   UNL A   1      43.974  32.429  33.617  1.00  0.00     0.029 A 
ATOM     56  N   UNL A   1      42.750  31.240  32.190  1.00  0.00    -0.354 N 
ATOM     57  N   UNL A   1      42.145  28.919  30.497  1.00  0.00    -0.248 NA
ATOM     58  C   UNL A   1      42.730  26.824  29.647  1.00  0.00     0.031 C 
ATOM     59  C   UNL A   1      44.654  31.240  33.335  1.00  0.00     0.029 A 
ATOM     60  C   UNL A   1      43.877  30.486  32.470  1.00  0.00     0.049 A 
ATOM     61  H   UNL A   1      42.024  30.966  31.585  1.00  0.00     0.167 HD
ATOM     62  C   UNL A   1      43.348  28.516  31.063  1.00  0.00     0.074 A 
ATOM     63  C   UNL A   1      43.641  27.202  30.532  1.00  0.00     0.031 C 
ATOM     64  C   UNL A   1      44.140  29.173  31.944  1.00  0.00     0.031 A 
BRANCH  51  65
ATOM     65  C   UNL A   1      41.959  34.692  33.661  1.00  0.00    -0.014 A 
ATOM     66  C   UNL A   1      42.696  35.779  33.166  1.00  0.00     0.009 A 
ATOM     67  C   UNL A   1      41.366  34.792  34.928  1.00  0.00     0.009 A 
ATOM     68  C   UNL A   1      42.864  36.930  33.938  1.00  0.00     0.001 A 
ATOM     69  C   UNL A   1      41.511  35.956  35.686  1.00  0.00     0.001 A 
ATOM     70  C   UNL A   1      42.267  37.020  35.195  1.00  0.00     0.000 A 
ENDBRANCH  51  65
BRANCH  52  71
ATOM     71  C   UNL A   1      40.315  26.613  28.021  1.00  0.00    -0.014 A 
ATOM     72  C   UNL A   1      39.614  25.503  28.517  1.00  0.00     0.009 A 
ATOM     73  C   UNL A   1      40.834  26.560  26.718  1.00  0.00     0.009 A 
ATOM     74  C   UNL A   1      39.472  24.351  27.742  1.00  0.00     0.001 A 
ATOM     75  C   UNL A   1      40.664  25.418  25.934  1.00  0.00     0.001 A 
ATOM     76  C   UNL A   1      39.995  24.309  26.450  1.00  0.00     0.000 A 
ENDBRANCH  52  71
BRANCH  64  77
ATOM     77  C   UNL A   1      45.366  28.456  32.431  1.00  0.00    -0.014 A 
ATOM     78  C   UNL A   1      45.301  27.520  33.474  1.00  0.00     0.009 A 
ATOM     79  C   UNL A   1      46.601  28.704  31.812  1.00  0.00     0.009 A 
ATOM     80  C   UNL A   1      46.458  26.874  33.914  1.00  0.00     0.001 A 
ATOM     81  C   UNL A   1      47.752  28.037  32.235  1.00  0.00     0.001 A 
ATOM     82  C   UNL A   1      47.681  27.131  33.292  1.00  0.00     0.000 A 
ENDBRANCH  64  77
ENDBRANCH  38  39
ENDBRANCH  30  33
ENDBRANCH  28  29
ENDBRANCH  27  28
ENDBRANCH  26  27
ENDBRANCH  25  26
ENDBRANCH   1  25
TORSDOF 19
ENDMDL
MODEL 3
REMARK VINA RESULT:      -9.9      1.220      6.111
REMARK SMILES CC[C@](C)(NC(=O)CCSc1ccccc1Cl)C(=O)NCCCCCCNC(=O)c1ccc(-c2c3nc(c(-c4ccccc4)c4ccc([nH]4)c(-c4ccccc4)c4nc(c(-c5ccccc5)c5ccc2[nH]5)C=C4)C=C3)cc1
REMARK SMILES IDX 22 1 21 2 20 3 18 4 19 5 3 7 4 8 2 9 1 10 5 11 6 12 7 14
REMARK SMILES IDX 8 15 9 16 10 17 11 18 12 19 16 20 13 21 15 22 17 23 14 24
REMARK SMILES IDX 23 25 24 26 25 27 26 28 27 29 28 30 29 32 30 33 31 34 77 35
REMARK SMILES IDX 32 36 76 37 33 38 34 39 35 40 70 41 36 42 75 43 69 44 71 45
REMARK SMILES IDX 37 46 74 47 68 48 67 49 38 51 60 52 45 53 59 54 46 55 49 56
REMARK SMILES IDX 58 57 72 58 47 59 48 60 57 62 73 63 50 64 39 65 40 66 44 67
REMARK SMILES IDX 41 68 43 69 42 70 61 71 62 72 66 73 63 74 65 75 64 76 51 77
REMARK SMILES IDX 52 78 56 79 53 80 55 81 54 82
REMARK H PARENT 20 6 5 13 27 31 71 50 49 61
REMARK Flexibility Score: inf
ROOT
ATOM      1  C   UNL A   1      31.845  28.954  26.224  1.00  0.00     0.021 C 
ENDROOT
BRANCH   1   2
ATOM      2  C   UNL A   1      32.895  28.154  25.454  1.00  0.00     0.116 C 
BRANCH   2   3
ATOM      3  N   UNL A   1      32.597  28.076  24.033  1.00  0.00    -0.354 N 
ATOM      4  C   UNL A   1      32.413  27.020  23.193  1.00  0.00     0.245 C 
ATOM      5  O   UNL A   1      32.116  27.294  22.026  1.00  0.00    -0.272 OA
ATOM      6  H   UNL A   1      32.513  28.954  23.595  1.00  0.00     0.163 HD
BRANCH   4   7
ATOM      7  C   UNL A   1      32.446  25.552  23.701  1.00  0.00     0.116 C 
ATOM      8  C   UNL A   1      33.848  25.157  24.175  1.00  0.00     0.045 C 
BRANCH   7   9
ATOM      9  C   UNL A   1      32.058  24.625  22.493  1.00  0.00     0.035 C 
ATOM     10  C   UNL A   1      32.810  23.300  22.393  1.00  0.00     0.007 C 
ENDBRANCH   7   9
BRANCH   7  11
ATOM     11  N   UNL A   1      31.419  25.340  24.748  1.00  0.00    -0.342 N 
ATOM     12  C   UNL A   1      31.179  24.419  25.707  1.00  0.00     0.221 C 
ATOM     13  H   UNL A   1      30.740  26.052  24.744  1.00  0.00     0.164 HD
ATOM     14  O   UNL A   1      30.281  24.729  26.501  1.00  0.00    -0.275 OA
BRANCH  12  15
ATOM     15  C   UNL A   1      32.001  23.178  25.969  1.00  0.00     0.111 C 
BRANCH  15  16
ATOM     16  C   UNL A   1      32.658  22.959  27.322  1.00  0.00     0.085 C 
BRANCH  16  17
ATOM     17  S   UNL A   1      34.098  21.830  27.515  1.00  0.00    -0.124 SA
BRANCH  17  18
ATOM     18  C   UNL A   1      35.182  22.276  26.165  1.00  0.00     0.026 A 
ATOM     19  C   UNL A   1      36.144  23.278  26.364  1.00  0.00     0.016 A 
ATOM     20  C   UNL A   1      35.127  21.641  24.913  1.00  0.00     0.054 A 
ATOM     21  C   UNL A   1      36.956  23.713  25.310  1.00  0.00     0.001 A 
ATOM     22  C   UNL A   1      35.937  22.083  23.860  1.00  0.00     0.022 A 
ATOM     23  Cl  UNL A   1      34.049  20.325  24.587  1.00  0.00    -0.083 Cl
ATOM     24  C   UNL A   1      36.837  23.131  24.052  1.00  0.00     0.002 A 
ENDBRANCH  17  18
ENDBRANCH  16  17
ENDBRANCH  15  16
ENDBRANCH  12  15
ENDBRANCH   7  11
ENDBRANCH   4   7
ENDBRANCH   2   3
ENDBRANCH   1   2
BRANCH   1  25
ATOM     25  C   UNL A   1      32.207  30.423  26.467  1.00  0.00     0.002 C 
BRANCH  25  26
ATOM     26  C   UNL A   1      31.031  31.401  26.404  1.00  0.00     0.002 C 
BRANCH  26  27
ATOM     27  C   UNL A   1      31.415  32.878  26.492  1.00  0.00     0.021 C 
BRANCH  27  28
ATOM     28  C   UNL A   1      32.575  33.170  27.431  1.00  0.00     0.116 C 
BRANCH  28  29
ATOM     29  N   UNL A   1      32.500  34.507  27.990  1.00  0.00    -0.352 N 
ATOM     30  C   UNL A   1      33.278  35.065  28.972  1.00  0.00     0.251 C 
ATOM     31  H   UNL A   1      31.798  35.090  27.617  1.00  0.00     0.163 HD
ATOM     32  O   UNL A   1      32.978  36.139  29.477  1.00  0.00    -0.269 OA
BRANCH  30  33
ATOM     33  C   UNL A   1      34.482  34.340  29.428  1.00  0.00     0.039 A 
ATOM     34  C   UNL A   1      35.678  34.509  28.729  1.00  0.00     0.014 A 
ATOM     35  C   UNL A   1      34.423  33.499  30.543  1.00  0.00     0.014 A 
ATOM     36  C   UNL A   1      36.829  33.854  29.168  1.00  0.00     0.010 A 
ATOM     37  C   UNL A   1      35.586  32.905  31.022  1.00  0.00     0.010 A 
ATOM     38  C   UNL A   1      36.793  33.059  30.326  1.00  0.00    -0.014 A 
BRANCH  38  39
ATOM     39  C   UNL A   1      37.998  32.327  30.783  1.00  0.00     0.031 A 
ATOM     40  C   UNL A   1      38.799  32.865  31.938  1.00  0.00     0.074 A 
ATOM     41  C   UNL A   1      38.389  31.206  30.149  1.00  0.00     0.049 A 
ATOM     42  N   UNL A   1      39.902  32.398  32.467  1.00  0.00    -0.248 NA
ATOM     43  C   UNL A   1      38.309  34.103  32.568  1.00  0.00     0.031 C 
ATOM     44  C   UNL A   1      37.718  30.604  28.995  1.00  0.00     0.029 A 
ATOM     45  N   UNL A   1      39.452  30.372  30.388  1.00  0.00    -0.354 N 
ATOM     46  C   UNL A   1      40.238  33.287  33.480  1.00  0.00     0.074 A 
ATOM     47  C   UNL A   1      39.260  34.352  33.454  1.00  0.00     0.031 C 
ATOM     48  C   UNL A   1      38.373  29.485  28.641  1.00  0.00     0.029 A 
ATOM     49  C   UNL A   1      39.523  29.308  29.523  1.00  0.00     0.049 A 
ATOM     50  H   UNL A   1      40.103  30.523  31.111  1.00  0.00     0.167 HD
ATOM     51  C   UNL A   1      41.252  33.212  34.374  1.00  0.00     0.031 A 
ATOM     52  C   UNL A   1      40.415  28.303  29.452  1.00  0.00     0.031 A 
ATOM     53  C   UNL A   1      42.219  32.150  34.409  1.00  0.00     0.049 A 
ATOM     54  C   UNL A   1      41.530  28.240  30.458  1.00  0.00     0.074 A 
ATOM     55  C   UNL A   1      43.278  31.972  35.284  1.00  0.00     0.029 A 
ATOM     56  N   UNL A   1      42.237  31.075  33.535  1.00  0.00    -0.354 N 
ATOM     57  N   UNL A   1      41.808  29.067  31.437  1.00  0.00    -0.248 NA
ATOM     58  C   UNL A   1      42.442  27.091  30.363  1.00  0.00     0.031 C 
ATOM     59  C   UNL A   1      43.953  30.802  34.919  1.00  0.00     0.029 A 
ATOM     60  C   UNL A   1      43.285  30.228  33.849  1.00  0.00     0.049 A 
ATOM     61  H   UNL A   1      41.597  30.934  32.799  1.00  0.00     0.167 HD
ATOM     62  C   UNL A   1      42.902  28.519  32.095  1.00  0.00     0.074 A 
ATOM     63  C   UNL A   1      43.227  27.284  31.414  1.00  0.00     0.031 C 
ATOM     64  C   UNL A   1      43.579  28.996  33.169  1.00  0.00     0.031 A 
BRANCH  51  65
ATOM     65  C   UNL A   1      41.352  34.310  35.395  1.00  0.00    -0.014 A 
ATOM     66  C   UNL A   1      40.693  34.205  36.631  1.00  0.00     0.009 A 
ATOM     67  C   UNL A   1      42.134  35.446  35.136  1.00  0.00     0.009 A 
ATOM     68  C   UNL A   1      40.787  35.231  37.572  1.00  0.00     0.001 A 
ATOM     69  C   UNL A   1      42.249  36.457  36.090  1.00  0.00     0.001 A 
ATOM     70  C   UNL A   1      41.570  36.354  37.303  1.00  0.00     0.000 A 
ENDBRANCH  51  65
BRANCH  52  71
ATOM     71  C   UNL A   1      40.284  27.255  28.405  1.00  0.00    -0.014 A 
ATOM     72  C   UNL A   1      39.573  26.072  28.662  1.00  0.00     0.009 A 
ATOM     73  C   UNL A   1      40.895  27.420  27.153  1.00  0.00     0.009 A 
ATOM     74  C   UNL A   1      39.512  25.060  27.703  1.00  0.00     0.001 A 
ATOM     75  C   UNL A   1      40.806  26.420  26.184  1.00  0.00     0.001 A 
ATOM     76  C   UNL A   1      40.126  25.235  26.463  1.00  0.00     0.000 A 
ENDBRANCH  52  71
BRANCH  64  77
ATOM     77  C   UNL A   1      44.697  28.148  33.705  1.00  0.00    -0.014 A 
ATOM     78  C   UNL A   1      44.468  27.160  34.673  1.00  0.00     0.009 A 
ATOM     79  C   UNL A   1      45.997  28.327  33.207  1.00  0.00     0.009 A 
ATOM     80  C   UNL A   1      45.527  26.393  35.162  1.00  0.00     0.001 A 
ATOM     81  C   UNL A   1      47.050  27.540  33.676  1.00  0.00     0.001 A 
ATOM     82  C   UNL A   1      46.815  26.582  34.661  1.00  0.00     0.000 A 
ENDBRANCH  64  77
ENDBRANCH  38  39
ENDBRANCH  30  33
ENDBRANCH  28  29
ENDBRANCH  27  28
ENDBRANCH  26  27
ENDBRANCH  25  26
ENDBRANCH   1  25
TORSDOF 19
ENDMDL
