MODEL 1
REMARK VINA RESULT:     -11.1      0.000      0.000
REMARK SMILES O=C(NCCCCCCNC(=O)c1cccc([C@@H]2CCC[N@@H+](Cc3cccc(OCCO)c3)C2)c1)c1ccc(-c2c3nc(c(-c4ccccc4)c4ccc([nH]4)c(-c4ccccc4)c4nc(c(-c5ccccc5)c5ccc2[nH]5)C=C4)C=C3)cc1
REMARK SMILES IDX 9 1 8 2 7 3 6 4 5 5 4 6 3 7 1 8 2 9 36 11 37 12 83 13 38 14
REMARK SMILES IDX 82 15 39 16 40 17 41 18 76 19 42 20 81 21 75 22 77 23 43 24
REMARK SMILES IDX 80 25 74 26 73 27 44 29 66 30 51 31 65 32 52 33 55 34 64 35
REMARK SMILES IDX 78 36 53 37 54 38 63 40 79 41 56 42 45 43 46 44 50 45 47 46
REMARK SMILES IDX 49 47 48 48 67 49 68 50 72 51 69 52 71 53 70 54 57 55 58 56
REMARK SMILES IDX 62 57 59 58 61 59 60 60 10 61 11 62 12 64 13 65 14 66 35 67
REMARK SMILES IDX 15 68 17 69 16 70 18 71 19 72 34 73 20 74 22 75 21 76 23 78
REMARK SMILES IDX 24 79 25 80 33 81 26 82 28 83 27 84 29 85 30 86 31 87 32 88
REMARK H PARENT 3 10 77 28 55 39 10 63 22 77 32 89
REMARK Flexibility Score: inf
ROOT
ATOM      1  C   UNL A   1      33.676  30.252  27.130  1.00  0.00     0.116 C 
ENDROOT
BRANCH   1   2
ATOM      2  C   UNL A   1      33.498  31.685  27.625  1.00  0.00     0.021 C 
BRANCH   2   3
ATOM      3  C   UNL A   1      34.777  32.364  28.122  1.00  0.00     0.002 C 
BRANCH   3   4
ATOM      4  C   UNL A   1      34.580  33.493  29.136  1.00  0.00     0.002 C 
BRANCH   4   5
ATOM      5  C   UNL A   1      33.409  34.435  28.857  1.00  0.00     0.021 C 
BRANCH   5   6
ATOM      6  C   UNL A   1      33.542  35.837  29.438  1.00  0.00     0.116 C 
BRANCH   6   7
ATOM      7  N   UNL A   1      32.593  36.108  30.505  1.00  0.00    -0.352 N 
ATOM      8  O   UNL A   1      31.679  35.959  32.561  1.00  0.00    -0.269 OA
ATOM      9  C   UNL A   1      32.633  35.741  31.831  1.00  0.00     0.251 C 
ATOM     10  H   UNL A   1      31.802  36.631  30.239  1.00  0.00     0.163 HD
BRANCH   9  11
ATOM     11  C   UNL A   1      33.826  35.043  32.363  1.00  0.00     0.039 A 
ATOM     12  C   UNL A   1      35.064  35.684  32.434  1.00  0.00     0.014 A 
ATOM     13  C   UNL A   1      33.700  33.717  32.790  1.00  0.00     0.014 A 
ATOM     14  C   UNL A   1      36.201  34.954  32.769  1.00  0.00     0.010 A 
ATOM     15  C   UNL A   1      34.830  33.011  33.211  1.00  0.00     0.010 A 
ATOM     16  C   UNL A   1      36.098  33.608  33.158  1.00  0.00    -0.014 A 
BRANCH  16  17
ATOM     17  C   UNL A   1      37.329  32.858  33.519  1.00  0.00     0.031 A 
ATOM     18  C   UNL A   1      37.965  31.897  32.552  1.00  0.00     0.074 A 
ATOM     19  C   UNL A   1      37.902  33.081  34.719  1.00  0.00     0.049 A 
ATOM     20  N   UNL A   1      39.073  31.207  32.685  1.00  0.00    -0.248 NA
ATOM     21  C   UNL A   1      37.270  31.671  31.275  1.00  0.00     0.031 C 
ATOM     22  C   UNL A   1      37.384  33.986  35.747  1.00  0.00     0.029 A 
ATOM     23  N   UNL A   1      39.060  32.589  35.263  1.00  0.00    -0.354 N 
ATOM     24  C   UNL A   1      39.192  30.450  31.526  1.00  0.00     0.074 A 
ATOM     25  C   UNL A   1      38.033  30.745  30.710  1.00  0.00     0.031 C 
ATOM     26  C   UNL A   1      38.249  34.030  36.770  1.00  0.00     0.029 A 
ATOM     27  C   UNL A   1      39.352  33.116  36.497  1.00  0.00     0.049 A 
ATOM     28  H   UNL A   1      39.628  31.921  34.813  1.00  0.00     0.167 HD
ATOM     29  C   UNL A   1      40.176  29.588  31.170  1.00  0.00     0.031 A 
ATOM     30  C   UNL A   1      40.391  32.890  37.321  1.00  0.00     0.031 A 
ATOM     31  C   UNL A   1      41.335  29.300  31.976  1.00  0.00     0.049 A 
ATOM     32  C   UNL A   1      41.461  31.923  36.907  1.00  0.00     0.074 A 
ATOM     33  C   UNL A   1      42.404  28.471  31.683  1.00  0.00     0.029 A 
ATOM     34  N   UNL A   1      41.574  29.829  33.235  1.00  0.00    -0.354 N 
ATOM     35  N   UNL A   1      41.575  31.246  35.792  1.00  0.00    -0.248 NA
ATOM     36  C   UNL A   1      42.548  31.694  37.870  1.00  0.00     0.031 C 
ATOM     37  C   UNL A   1      43.268  28.462  32.784  1.00  0.00     0.029 A 
ATOM     38  C   UNL A   1      42.763  29.328  33.740  1.00  0.00     0.049 A 
ATOM     39  H   UNL A   1      40.987  30.467  33.700  1.00  0.00     0.167 HD
ATOM     40  C   UNL A   1      42.760  30.531  35.905  1.00  0.00     0.074 A 
ATOM     41  C   UNL A   1      43.333  30.870  37.192  1.00  0.00     0.031 C 
ATOM     42  C   UNL A   1      43.323  29.673  35.020  1.00  0.00     0.031 A 
BRANCH  29  43
ATOM     43  C   UNL A   1      40.027  28.868  29.859  1.00  0.00    -0.014 A 
ATOM     44  C   UNL A   1      39.441  27.595  29.783  1.00  0.00     0.009 A 
ATOM     45  C   UNL A   1      40.447  29.494  28.674  1.00  0.00     0.009 A 
ATOM     46  C   UNL A   1      39.310  26.949  28.551  1.00  0.00     0.001 A 
ATOM     47  C   UNL A   1      40.292  28.857  27.441  1.00  0.00     0.001 A 
ATOM     48  C   UNL A   1      39.732  27.582  27.382  1.00  0.00     0.000 A 
ENDBRANCH  29  43
BRANCH  30  49
ATOM     49  C   UNL A   1      40.474  33.608  38.619  1.00  0.00    -0.014 A 
ATOM     50  C   UNL A   1      41.280  34.749  38.751  1.00  0.00     0.009 A 
ATOM     51  C   UNL A   1      39.740  33.161  39.729  1.00  0.00     0.009 A 
ATOM     52  C   UNL A   1      41.366  35.414  39.976  1.00  0.00     0.001 A 
ATOM     53  C   UNL A   1      39.806  33.846  40.944  1.00  0.00     0.001 A 
ATOM     54  C   UNL A   1      40.625  34.966  41.068  1.00  0.00     0.000 A 
ENDBRANCH  30  49
BRANCH  42  55
ATOM     55  C   UNL A   1      44.648  29.075  35.400  1.00  0.00    -0.014 A 
ATOM     56  C   UNL A   1      45.857  29.637  34.961  1.00  0.00     0.009 A 
ATOM     57  C   UNL A   1      44.683  27.941  36.225  1.00  0.00     0.009 A 
ATOM     58  C   UNL A   1      47.075  29.049  35.309  1.00  0.00     0.001 A 
ATOM     59  C   UNL A   1      45.903  27.372  36.594  1.00  0.00     0.001 A 
ATOM     60  C   UNL A   1      47.096  27.920  36.127  1.00  0.00     0.000 A 
ENDBRANCH  42  55
ENDBRANCH  16  17
ENDBRANCH   9  11
ENDBRANCH   6   7
ENDBRANCH   5   6
ENDBRANCH   4   5
ENDBRANCH   3   4
ENDBRANCH   2   3
ENDBRANCH   1   2
BRANCH   1  61
ATOM     61  N   UNL A   1      32.769  29.325  27.791  1.00  0.00    -0.352 N 
ATOM     62  C   UNL A   1      31.925  28.392  27.237  1.00  0.00     0.251 C 
ATOM     63  H   UNL A   1      32.759  29.373  28.774  1.00  0.00     0.163 HD
ATOM     64  O   UNL A   1      31.098  27.815  27.938  1.00  0.00    -0.269 OA
BRANCH  62  65
ATOM     65  C   UNL A   1      32.007  28.085  25.793  1.00  0.00     0.040 A 
ATOM     66  C   UNL A   1      31.353  28.902  24.871  1.00  0.00     0.014 A 
ATOM     67  C   UNL A   1      32.732  26.975  25.355  1.00  0.00     0.018 A 
ATOM     68  C   UNL A   1      31.481  28.636  23.509  1.00  0.00     0.001 A 
ATOM     69  C   UNL A   1      32.904  26.716  23.994  1.00  0.00    -0.039 A 
ATOM     70  C   UNL A   1      32.262  27.560  23.073  1.00  0.00     0.004 A 
BRANCH  69  71
ATOM     71  C   UNL A   1      33.840  25.621  23.511  1.00  0.00     0.074 C 
ATOM     72  C   UNL A   1      33.559  25.091  22.095  1.00  0.00     0.020 C 
ATOM     73  C   UNL A   1      33.931  24.463  24.529  1.00  0.00     0.270 C 
ATOM     74  C   UNL A   1      32.507  23.985  22.039  1.00  0.00     0.062 C 
ATOM     75  N   UNL A   1      32.835  23.480  24.458  1.00  0.00    -0.331 N 
ATOM     76  C   UNL A   1      32.717  22.911  23.110  1.00  0.00     0.262 C 
ATOM     77  H   UNL A   1      31.969  23.985  24.649  1.00  0.00     0.348 HD
BRANCH  75  78
ATOM     78  C   UNL A   1      32.922  22.442  25.511  1.00  0.00     0.299 C 
BRANCH  78  79
ATOM     79  C   UNL A   1      33.593  21.137  25.121  1.00  0.00     0.010 A 
ATOM     80  C   UNL A   1      34.988  21.035  25.057  1.00  0.00     0.010 A 
ATOM     81  C   UNL A   1      32.822  19.986  24.895  1.00  0.00     0.056 A 
ATOM     82  C   UNL A   1      35.592  19.799  24.826  1.00  0.00     0.004 A 
ATOM     83  C   UNL A   1      33.417  18.733  24.777  1.00  0.00     0.119 A 
ATOM     84  C   UNL A   1      34.807  18.650  24.709  1.00  0.00     0.046 A 
BRANCH  83  85
ATOM     85  O   UNL A   1      32.755  17.536  24.769  1.00  0.00    -0.491 OA
BRANCH  85  86
ATOM     86  C   UNL A   1      33.435  16.365  25.249  1.00  0.00     0.257 C 
BRANCH  86  87
ATOM     87  C   UNL A   1      32.469  15.299  25.781  1.00  0.00     0.197 C 
BRANCH  87  88
ATOM     88  O   UNL A   1      32.923  13.971  25.550  1.00  0.00    -0.393 OA
ATOM     89  H   UNL A   1      33.406  13.653  26.329  1.00  0.00     0.210 HD
ENDBRANCH  87  88
ENDBRANCH  86  87
ENDBRANCH  85  86
ENDBRANCH  83  85
ENDBRANCH  78  79
ENDBRANCH  75  78
ENDBRANCH  69  71
ENDBRANCH  62  65
ENDBRANCH   1  61
TORSDOF 20
ENDMDL
MODEL 2
REMARK VINA RESULT:     -11.0      5.780      8.885
REMARK SMILES O=C(NCCCCCCNC(=O)c1cccc([C@@H]2CCC[N@@H+](Cc3cccc(OCCO)c3)C2)c1)c1ccc(-c2c3nc(c(-c4ccccc4)c4ccc([nH]4)c(-c4ccccc4)c4nc(c(-c5ccccc5)c5ccc2[nH]5)C=C4)C=C3)cc1
REMARK SMILES IDX 9 1 8 2 7 3 6 4 5 5 4 6 3 7 1 8 2 9 36 11 37 12 83 13 38 14
REMARK SMILES IDX 82 15 39 16 40 17 41 18 76 19 42 20 81 21 75 22 77 23 43 24
REMARK SMILES IDX 80 25 74 26 73 27 44 29 66 30 51 31 65 32 52 33 55 34 64 35
REMARK SMILES IDX 78 36 53 37 54 38 63 40 79 41 56 42 45 43 46 44 50 45 47 46
REMARK SMILES IDX 49 47 48 48 67 49 68 50 72 51 69 52 71 53 70 54 57 55 58 56
REMARK SMILES IDX 62 57 59 58 61 59 60 60 10 61 11 62 12 64 13 65 14 66 35 67
REMARK SMILES IDX 15 68 17 69 16 70 18 71 19 72 34 73 20 74 22 75 21 76 23 78
REMARK SMILES IDX 24 79 25 80 33 81 26 82 28 83 27 84 29 85 30 86 31 87 32 88
REMARK H PARENT 3 10 77 28 55 39 10 63 22 77 32 89
REMARK Flexibility Score: inf
ROOT
ATOM      1  C   UNL A   1      38.140  32.648  30.060  1.00  0.00     0.116 C 
ENDROOT
BRANCH   1   2
ATOM      2  C   UNL A   1      37.547  32.498  31.458  1.00  0.00     0.021 C 
BRANCH   2   3
ATOM      3  C   UNL A   1      36.241  33.262  31.694  1.00  0.00     0.002 C 
BRANCH   3   4
ATOM      4  C   UNL A   1      35.495  32.919  32.986  1.00  0.00     0.002 C 
BRANCH   4   5
ATOM      5  C   UNL A   1      35.755  33.852  34.168  1.00  0.00     0.021 C 
BRANCH   5   6
ATOM      6  C   UNL A   1      37.180  33.846  34.707  1.00  0.00     0.116 C 
BRANCH   6   7
ATOM      7  N   UNL A   1      37.344  33.007  35.882  1.00  0.00    -0.352 N 
ATOM      8  O   UNL A   1      38.080  31.257  37.101  1.00  0.00    -0.269 OA
ATOM      9  C   UNL A   1      38.163  31.917  36.076  1.00  0.00     0.251 C 
ATOM     10  H   UNL A   1      36.786  33.254  36.655  1.00  0.00     0.163 HD
BRANCH   9  11
ATOM     11  C   UNL A   1      39.121  31.522  35.019  1.00  0.00     0.039 A 
ATOM     12  C   UNL A   1      38.747  30.650  33.995  1.00  0.00     0.014 A 
ATOM     13  C   UNL A   1      40.424  32.029  35.063  1.00  0.00     0.014 A 
ATOM     14  C   UNL A   1      39.710  30.157  33.121  1.00  0.00     0.010 A 
ATOM     15  C   UNL A   1      41.371  31.600  34.128  1.00  0.00     0.010 A 
ATOM     16  C   UNL A   1      41.034  30.623  33.179  1.00  0.00    -0.014 A 
BRANCH  16  17
ATOM     17  C   UNL A   1      42.039  30.085  32.225  1.00  0.00     0.031 A 
ATOM     18  C   UNL A   1      42.499  30.893  31.042  1.00  0.00     0.074 A 
ATOM     19  C   UNL A   1      42.572  28.869  32.455  1.00  0.00     0.049 A 
ATOM     20  N   UNL A   1      43.412  30.598  30.148  1.00  0.00    -0.248 NA
ATOM     21  C   UNL A   1      41.851  32.197  30.828  1.00  0.00     0.031 C 
ATOM     22  C   UNL A   1      42.210  27.983  33.564  1.00  0.00     0.029 A 
ATOM     23  N   UNL A   1      43.553  28.181  31.788  1.00  0.00    -0.354 N 
ATOM     24  C   UNL A   1      43.427  31.662  29.254  1.00  0.00     0.074 A 
ATOM     25  C   UNL A   1      42.418  32.599  29.698  1.00  0.00     0.031 C 
ATOM     26  C   UNL A   1      42.998  26.899  33.537  1.00  0.00     0.029 A 
ATOM     27  C   UNL A   1      43.880  26.984  32.378  1.00  0.00     0.049 A 
ATOM     28  H   UNL A   1      43.982  28.512  30.965  1.00  0.00     0.167 HD
ATOM     29  C   UNL A   1      44.211  31.845  28.163  1.00  0.00     0.031 A 
ATOM     30  C   UNL A   1      44.788  26.056  32.028  1.00  0.00     0.031 A 
ATOM     31  C   UNL A   1      45.223  30.918  27.724  1.00  0.00     0.049 A 
ATOM     32  C   UNL A   1      45.635  26.278  30.810  1.00  0.00     0.074 A 
ATOM     33  C   UNL A   1      46.093  31.035  26.654  1.00  0.00     0.029 A 
ATOM     34  N   UNL A   1      45.497  29.702  28.331  1.00  0.00    -0.354 N 
ATOM     35  N   UNL A   1      45.662  27.307  30.000  1.00  0.00    -0.248 NA
ATOM     36  C   UNL A   1      46.580  25.208  30.463  1.00  0.00     0.031 C 
ATOM     37  C   UNL A   1      46.863  29.868  26.584  1.00  0.00     0.029 A 
ATOM     38  C   UNL A   1      46.509  29.050  27.645  1.00  0.00     0.049 A 
ATOM     39  H   UNL A   1      45.042  29.354  29.131  1.00  0.00     0.167 HD
ATOM     40  C   UNL A   1      46.645  27.022  29.062  1.00  0.00     0.074 A 
ATOM     41  C   UNL A   1      47.199  25.731  29.414  1.00  0.00     0.031 C 
ATOM     42  C   UNL A   1      47.053  27.766  28.004  1.00  0.00     0.031 A 
BRANCH  29  43
ATOM     43  C   UNL A   1      43.984  33.086  27.346  1.00  0.00    -0.014 A 
ATOM     44  C   UNL A   1      44.102  34.367  27.908  1.00  0.00     0.009 A 
ATOM     45  C   UNL A   1      43.686  32.969  25.978  1.00  0.00     0.009 A 
ATOM     46  C   UNL A   1      43.891  35.505  27.124  1.00  0.00     0.001 A 
ATOM     47  C   UNL A   1      43.501  34.109  25.193  1.00  0.00     0.001 A 
ATOM     48  C   UNL A   1      43.595  35.374  25.768  1.00  0.00     0.000 A 
ENDBRANCH  29  43
BRANCH  30  49
ATOM     49  C   UNL A   1      44.951  24.834  32.856  1.00  0.00    -0.014 A 
ATOM     50  C   UNL A   1      45.903  24.793  33.886  1.00  0.00     0.009 A 
ATOM     51  C   UNL A   1      44.149  23.704  32.626  1.00  0.00     0.009 A 
ATOM     52  C   UNL A   1      46.064  23.638  34.655  1.00  0.00     0.001 A 
ATOM     53  C   UNL A   1      44.293  22.562  33.415  1.00  0.00     0.001 A 
ATOM     54  C   UNL A   1      45.254  22.527  34.423  1.00  0.00     0.000 A 
ENDBRANCH  30  49
BRANCH  42  55
ATOM     55  C   UNL A   1      48.182  27.217  27.181  1.00  0.00    -0.014 A 
ATOM     56  C   UNL A   1      47.943  26.435  26.040  1.00  0.00     0.009 A 
ATOM     57  C   UNL A   1      49.507  27.503  27.546  1.00  0.00     0.009 A 
ATOM     58  C   UNL A   1      49.012  25.917  25.305  1.00  0.00     0.001 A 
ATOM     59  C   UNL A   1      50.571  27.007  26.793  1.00  0.00     0.001 A 
ATOM     60  C   UNL A   1      50.323  26.206  25.680  1.00  0.00     0.000 A 
ENDBRANCH  42  55
ENDBRANCH  16  17
ENDBRANCH   9  11
ENDBRANCH   6   7
ENDBRANCH   5   6
ENDBRANCH   4   5
ENDBRANCH   3   4
ENDBRANCH   2   3
ENDBRANCH   1   2
BRANCH   1  61
ATOM     61  N   UNL A   1      37.298  32.043  29.038  1.00  0.00    -0.352 N 
ATOM     62  C   UNL A   1      37.347  30.773  28.513  1.00  0.00     0.251 C 
ATOM     63  H   UNL A   1      36.596  32.626  28.670  1.00  0.00     0.163 HD
ATOM     64  O   UNL A   1      36.671  30.487  27.528  1.00  0.00    -0.269 OA
BRANCH  62  65
ATOM     65  C   UNL A   1      38.218  29.750  29.130  1.00  0.00     0.040 A 
ATOM     66  C   UNL A   1      37.727  28.950  30.162  1.00  0.00     0.014 A 
ATOM     67  C   UNL A   1      39.532  29.591  28.685  1.00  0.00     0.018 A 
ATOM     68  C   UNL A   1      38.538  27.953  30.700  1.00  0.00     0.001 A 
ATOM     69  C   UNL A   1      40.346  28.573  29.184  1.00  0.00    -0.039 A 
ATOM     70  C   UNL A   1      39.832  27.756  30.205  1.00  0.00     0.004 A 
BRANCH  69  71
ATOM     71  C   UNL A   1      41.707  28.280  28.576  1.00  0.00     0.074 C 
ATOM     72  C   UNL A   1      41.894  28.752  27.125  1.00  0.00     0.020 C 
ATOM     73  C   UNL A   1      42.089  26.792  28.730  1.00  0.00     0.270 C 
ATOM     74  C   UNL A   1      41.398  27.758  26.075  1.00  0.00     0.062 C 
ATOM     75  N   UNL A   1      41.506  25.889  27.721  1.00  0.00    -0.331 N 
ATOM     76  C   UNL A   1      41.845  26.322  26.361  1.00  0.00     0.262 C 
ATOM     77  H   UNL A   1      40.492  25.953  27.815  1.00  0.00     0.348 HD
BRANCH  75  78
ATOM     78  C   UNL A   1      41.830  24.465  27.966  1.00  0.00     0.299 C 
BRANCH  78  79
ATOM     79  C   UNL A   1      43.018  23.901  27.207  1.00  0.00     0.010 A 
ATOM     80  C   UNL A   1      44.329  24.247  27.559  1.00  0.00     0.010 A 
ATOM     81  C   UNL A   1      42.822  22.958  26.185  1.00  0.00     0.056 A 
ATOM     82  C   UNL A   1      45.411  23.622  26.939  1.00  0.00     0.004 A 
ATOM     83  C   UNL A   1      43.891  22.250  25.644  1.00  0.00     0.119 A 
ATOM     84  C   UNL A   1      45.189  22.611  26.002  1.00  0.00     0.046 A 
BRANCH  83  85
ATOM     85  O   UNL A   1      43.789  21.172  24.808  1.00  0.00    -0.491 OA
BRANCH  85  86
ATOM     86  C   UNL A   1      43.783  19.853  25.377  1.00  0.00     0.257 C 
BRANCH  86  87
ATOM     87  C   UNL A   1      44.991  19.017  24.938  1.00  0.00     0.197 C 
BRANCH  87  88
ATOM     88  O   UNL A   1      45.270  17.934  25.818  1.00  0.00    -0.393 OA
ATOM     89  H   UNL A   1      44.448  17.643  26.244  1.00  0.00     0.210 HD
ENDBRANCH  87  88
ENDBRANCH  86  87
ENDBRANCH  85  86
ENDBRANCH  83  85
ENDBRANCH  78  79
ENDBRANCH  75  78
ENDBRANCH  69  71
ENDBRANCH  62  65
ENDBRANCH   1  61
TORSDOF 20
ENDMDL
MODEL 3
REMARK VINA RESULT:     -10.9      5.428      8.780
REMARK SMILES O=C(NCCCCCCNC(=O)c1cccc([C@@H]2CCC[N@@H+](Cc3cccc(OCCO)c3)C2)c1)c1ccc(-c2c3nc(c(-c4ccccc4)c4ccc([nH]4)c(-c4ccccc4)c4nc(c(-c5ccccc5)c5ccc2[nH]5)C=C4)C=C3)cc1
REMARK SMILES IDX 9 1 8 2 7 3 6 4 5 5 4 6 3 7 1 8 2 9 36 11 37 12 83 13 38 14
REMARK SMILES IDX 82 15 39 16 40 17 41 18 76 19 42 20 81 21 75 22 77 23 43 24
REMARK SMILES IDX 80 25 74 26 73 27 44 29 66 30 51 31 65 32 52 33 55 34 64 35
REMARK SMILES IDX 78 36 53 37 54 38 63 40 79 41 56 42 45 43 46 44 50 45 47 46
REMARK SMILES IDX 49 47 48 48 67 49 68 50 72 51 69 52 71 53 70 54 57 55 58 56
REMARK SMILES IDX 62 57 59 58 61 59 60 60 10 61 11 62 12 64 13 65 14 66 35 67
REMARK SMILES IDX 15 68 17 69 16 70 18 71 19 72 34 73 20 74 22 75 21 76 23 78
REMARK SMILES IDX 24 79 25 80 33 81 26 82 28 83 27 84 29 85 30 86 31 87 32 88
REMARK H PARENT 3 10 77 28 55 39 10 63 22 77 32 89
REMARK Flexibility Score: inf
ROOT
ATOM      1  C   UNL A   1      37.891  32.515  29.282  1.00  0.00     0.116 C 
ENDROOT
BRANCH   1   2
ATOM      2  C   UNL A   1      37.430  32.745  30.719  1.00  0.00     0.021 C 
BRANCH   2   3
ATOM      3  C   UNL A   1      35.916  32.667  30.935  1.00  0.00     0.002 C 
BRANCH   3   4
ATOM      4  C   UNL A   1      35.465  32.301  32.351  1.00  0.00     0.002 C 
BRANCH   4   5
ATOM      5  C   UNL A   1      35.195  33.481  33.284  1.00  0.00     0.021 C 
BRANCH   5   6
ATOM      6  C   UNL A   1      36.412  34.025  34.023  1.00  0.00     0.116 C 
BRANCH   6   7
ATOM      7  N   UNL A   1      36.607  33.418  35.330  1.00  0.00    -0.352 N 
ATOM      8  O   UNL A   1      37.469  31.997  36.853  1.00  0.00    -0.269 OA
ATOM      9  C   UNL A   1      37.531  32.481  35.734  1.00  0.00     0.251 C 
ATOM     10  H   UNL A   1      35.984  33.722  36.030  1.00  0.00     0.163 HD
BRANCH   9  11
ATOM     11  C   UNL A   1      38.582  32.033  34.792  1.00  0.00     0.039 A 
ATOM     12  C   UNL A   1      38.337  31.015  33.870  1.00  0.00     0.014 A 
ATOM     13  C   UNL A   1      39.841  32.640  34.845  1.00  0.00     0.014 A 
ATOM     14  C   UNL A   1      39.387  30.492  33.122  1.00  0.00     0.010 A 
ATOM     15  C   UNL A   1      40.874  32.172  34.028  1.00  0.00     0.010 A 
ATOM     16  C   UNL A   1      40.669  31.062  33.195  1.00  0.00    -0.014 A 
BRANCH  16  17
ATOM     17  C   UNL A   1      41.769  30.489  32.377  1.00  0.00     0.031 A 
ATOM     18  C   UNL A   1      42.372  29.152  32.713  1.00  0.00     0.074 A 
ATOM     19  C   UNL A   1      42.198  31.164  31.292  1.00  0.00     0.049 A 
ATOM     20  N   UNL A   1      43.297  28.479  32.070  1.00  0.00    -0.248 NA
ATOM     21  C   UNL A   1      41.885  28.483  33.930  1.00  0.00     0.031 C 
ATOM     22  C   UNL A   1      41.698  32.471  30.859  1.00  0.00     0.029 A 
ATOM     23  N   UNL A   1      43.129  30.833  30.341  1.00  0.00    -0.354 N 
ATOM     24  C   UNL A   1      43.519  27.328  32.815  1.00  0.00     0.074 A 
ATOM     25  C   UNL A   1      42.652  27.401  33.971  1.00  0.00     0.031 C 
ATOM     26  C   UNL A   1      42.281  32.801  29.698  1.00  0.00     0.029 A 
ATOM     27  C   UNL A   1      43.237  31.761  29.335  1.00  0.00     0.049 A 
ATOM     28  H   UNL A   1      43.667  30.009  30.376  1.00  0.00     0.167 HD
ATOM     29  C   UNL A   1      44.366  26.301  32.560  1.00  0.00     0.031 A 
ATOM     30  C   UNL A   1      44.018  31.777  28.240  1.00  0.00     0.031 A 
ATOM     31  C   UNL A   1      45.223  26.220  31.405  1.00  0.00     0.049 A 
ATOM     32  C   UNL A   1      44.955  30.632  27.988  1.00  0.00     0.074 A 
ATOM     33  C   UNL A   1      46.087  25.201  31.042  1.00  0.00     0.029 A 
ATOM     34  N   UNL A   1      45.327  27.199  30.429  1.00  0.00    -0.354 N 
ATOM     35  N   UNL A   1      45.123  29.535  28.684  1.00  0.00    -0.248 NA
ATOM     36  C   UNL A   1      45.806  30.730  26.795  1.00  0.00     0.031 C 
ATOM     37  C   UNL A   1      46.749  25.584  29.870  1.00  0.00     0.029 A 
ATOM     38  C   UNL A   1      46.256  26.816  29.474  1.00  0.00     0.049 A 
ATOM     39  H   UNL A   1      44.816  28.039  30.415  1.00  0.00     0.167 HD
ATOM     40  C   UNL A   1      46.079  28.798  27.998  1.00  0.00     0.074 A 
ATOM     41  C   UNL A   1      46.442  29.568  26.826  1.00  0.00     0.031 C 
ATOM     42  C   UNL A   1      46.608  27.590  28.312  1.00  0.00     0.031 A 
BRANCH  29  43
ATOM     43  C   UNL A   1      44.430  25.188  33.569  1.00  0.00    -0.014 A 
ATOM     44  C   UNL A   1      45.225  25.287  34.722  1.00  0.00     0.009 A 
ATOM     45  C   UNL A   1      43.649  24.035  33.380  1.00  0.00     0.009 A 
ATOM     46  C   UNL A   1      45.263  24.240  35.647  1.00  0.00     0.001 A 
ATOM     47  C   UNL A   1      43.670  23.002  34.319  1.00  0.00     0.001 A 
ATOM     48  C   UNL A   1      44.483  23.101  35.446  1.00  0.00     0.000 A 
ENDBRANCH  29  43
BRANCH  30  49
ATOM     49  C   UNL A   1      43.935  32.916  27.290  1.00  0.00    -0.014 A 
ATOM     50  C   UNL A   1      43.988  34.238  27.757  1.00  0.00     0.009 A 
ATOM     51  C   UNL A   1      43.810  32.687  25.911  1.00  0.00     0.009 A 
ATOM     52  C   UNL A   1      43.896  35.308  26.864  1.00  0.00     0.001 A 
ATOM     53  C   UNL A   1      43.748  33.758  25.018  1.00  0.00     0.001 A 
ATOM     54  C   UNL A   1      43.783  35.067  25.496  1.00  0.00     0.000 A 
ENDBRANCH  30  49
BRANCH  42  55
ATOM     55  C   UNL A   1      47.603  27.011  27.348  1.00  0.00    -0.014 A 
ATOM     56  C   UNL A   1      47.193  26.248  26.243  1.00  0.00     0.009 A 
ATOM     57  C   UNL A   1      48.973  27.248  27.542  1.00  0.00     0.009 A 
ATOM     58  C   UNL A   1      48.139  25.701  25.374  1.00  0.00     0.001 A 
ATOM     59  C   UNL A   1      49.914  26.723  26.656  1.00  0.00     0.001 A 
ATOM     60  C   UNL A   1      49.497  25.942  25.579  1.00  0.00     0.000 A 
ENDBRANCH  42  55
ENDBRANCH  16  17
ENDBRANCH   9  11
ENDBRANCH   6   7
ENDBRANCH   5   6
ENDBRANCH   4   5
ENDBRANCH   3   4
ENDBRANCH   2   3
ENDBRANCH   1   2
BRANCH   1  61
ATOM     61  N   UNL A   1      36.989  31.639  28.549  1.00  0.00    -0.352 N 
ATOM     62  C   UNL A   1      37.054  30.277  28.372  1.00  0.00     0.251 C 
ATOM     63  H   UNL A   1      36.225  32.085  28.119  1.00  0.00     0.163 HD
ATOM     64  O   UNL A   1      36.303  29.723  27.574  1.00  0.00    -0.269 OA
BRANCH  62  65
ATOM     65  C   UNL A   1      38.032  29.477  29.140  1.00  0.00     0.040 A 
ATOM     66  C   UNL A   1      37.645  28.860  30.329  1.00  0.00     0.014 A 
ATOM     67  C   UNL A   1      39.343  29.346  28.677  1.00  0.00     0.018 A 
ATOM     68  C   UNL A   1      38.560  28.065  31.017  1.00  0.00     0.001 A 
ATOM     69  C   UNL A   1      40.261  28.522  29.331  1.00  0.00    -0.039 A 
ATOM     70  C   UNL A   1      39.853  27.885  30.514  1.00  0.00     0.004 A 
BRANCH  69  71
ATOM     71  C   UNL A   1      41.627  28.232  28.733  1.00  0.00     0.074 C 
ATOM     72  C   UNL A   1      41.789  28.606  27.250  1.00  0.00     0.020 C 
ATOM     73  C   UNL A   1      42.060  26.772  28.987  1.00  0.00     0.270 C 
ATOM     74  C   UNL A   1      41.320  27.525  26.278  1.00  0.00     0.062 C 
ATOM     75  N   UNL A   1      41.501  25.781  28.049  1.00  0.00    -0.331 N 
ATOM     76  C   UNL A   1      41.817  26.128  26.659  1.00  0.00     0.262 C 
ATOM     77  H   UNL A   1      40.486  25.819  28.147  1.00  0.00     0.348 HD
BRANCH  75  78
ATOM     78  C   UNL A   1      41.874  24.389  28.390  1.00  0.00     0.299 C 
BRANCH  78  79
ATOM     79  C   UNL A   1      42.928  23.737  27.514  1.00  0.00     0.010 A 
ATOM     80  C   UNL A   1      44.291  23.981  27.721  1.00  0.00     0.010 A 
ATOM     81  C   UNL A   1      42.552  22.812  26.525  1.00  0.00     0.056 A 
ATOM     82  C   UNL A   1      45.250  23.276  26.994  1.00  0.00     0.004 A 
ATOM     83  C   UNL A   1      43.500  22.025  25.879  1.00  0.00     0.119 A 
ATOM     84  C   UNL A   1      44.853  22.285  26.093  1.00  0.00     0.046 A 
BRANCH  83  85
ATOM     85  O   UNL A   1      43.227  20.958  25.067  1.00  0.00    -0.491 OA
BRANCH  85  86
ATOM     86  C   UNL A   1      43.750  19.668  25.419  1.00  0.00     0.257 C 
BRANCH  86  87
ATOM     87  C   UNL A   1      42.831  18.903  26.380  1.00  0.00     0.197 C 
BRANCH  87  88
ATOM     88  O   UNL A   1      42.230  17.759  25.785  1.00  0.00    -0.393 OA
ATOM     89  H   UNL A   1      42.047  17.939  24.849  1.00  0.00     0.210 HD
ENDBRANCH  87  88
ENDBRANCH  86  87
ENDBRANCH  85  86
ENDBRANCH  83  85
ENDBRANCH  78  79
ENDBRANCH  75  78
ENDBRANCH  69  71
ENDBRANCH  62  65
ENDBRANCH   1  61
TORSDOF 20
ENDMDL
