MODEL 1
REMARK VINA RESULT:     -13.7      0.000      0.000
REMARK SMILES O=C(NCCCCCCNC(=O)[C@@H]1CS[C@H](c2ncc(-c3ccccc3)s2)[NH2+]1)c1ccc(-c2c3nc(c(-c4ccccc4)c4ccc([nH]4)c(-c4ccccc4)c4nc(c(-c5ccccc5)c5ccc2[nH]5)C=C4)C=C3)cc1
REMARK SMILES IDX 6 1 5 2 4 3 3 4 1 5 2 6 29 8 30 9 76 10 31 11 75 12 32 13
REMARK SMILES IDX 33 14 34 15 69 16 35 17 74 18 68 19 70 20 36 21 73 22 67 23
REMARK SMILES IDX 66 24 37 26 59 27 44 28 58 29 45 30 48 31 57 32 71 33 46 34
REMARK SMILES IDX 47 35 56 37 72 38 49 39 38 40 39 41 43 42 40 43 42 44 41 45
REMARK SMILES IDX 60 46 61 47 65 48 62 49 64 50 63 51 50 52 51 53 55 54 52 55
REMARK SMILES IDX 54 56 53 57 7 58 8 59 9 60 10 61 11 62 12 64 13 65 14 66
REMARK SMILES IDX 28 67 15 68 16 69 17 72 18 73 27 74 19 75 20 76 21 77 22 78
REMARK SMILES IDX 26 79 23 80 25 81 24 82
REMARK H PARENT 3 7 70 25 48 36 10 63 28 70 28 71
REMARK Flexibility Score: inf
ROOT
ATOM      1  C   UNL A   1      39.509  20.635  26.039  1.00  0.00     0.002 C 
ENDROOT
BRANCH   1   2
ATOM      2  C   UNL A   1      40.054  22.092  26.941  1.00  0.00     0.021 C 
BRANCH   2   3
ATOM      3  C   UNL A   1      41.410  23.058  26.934  1.00  0.00     0.116 C 
BRANCH   3   4
ATOM      4  N   UNL A   1      41.458  24.156  25.961  1.00  0.00    -0.352 N 
ATOM      5  O   UNL A   1      41.645  26.176  25.001  1.00  0.00    -0.269 OA
ATOM      6  C   UNL A   1      41.479  25.536  26.043  1.00  0.00     0.251 C 
ATOM      7  H   UNL A   1      41.480  23.834  25.031  1.00  0.00     0.163 HD
BRANCH   6   8
ATOM      8  C   UNL A   1      41.207  26.325  27.272  1.00  0.00     0.039 A 
ATOM      9  C   UNL A   1      40.164  26.078  28.165  1.00  0.00     0.014 A 
ATOM     10  C   UNL A   1      42.185  27.268  27.631  1.00  0.00     0.014 A 
ATOM     11  C   UNL A   1      40.028  26.858  29.332  1.00  0.00     0.010 A 
ATOM     12  C   UNL A   1      42.063  28.031  28.799  1.00  0.00     0.010 A 
ATOM     13  C   UNL A   1      40.953  27.872  29.638  1.00  0.00    -0.014 A 
BRANCH  13  14
ATOM     14  C   UNL A   1      40.747  28.805  30.786  1.00  0.00     0.031 A 
ATOM     15  C   UNL A   1      39.671  29.863  30.705  1.00  0.00     0.074 A 
ATOM     16  C   UNL A   1      41.514  28.726  31.889  1.00  0.00     0.049 A 
ATOM     17  N   UNL A   1      39.337  30.781  31.580  1.00  0.00    -0.248 NA
ATOM     18  C   UNL A   1      38.870  29.898  29.471  1.00  0.00     0.031 C 
ATOM     19  C   UNL A   1      42.597  27.765  32.096  1.00  0.00     0.029 A 
ATOM     20  N   UNL A   1      41.504  29.470  33.046  1.00  0.00    -0.354 N 
ATOM     21  C   UNL A   1      38.292  31.497  31.003  1.00  0.00     0.074 A 
ATOM     22  C   UNL A   1      38.079  30.941  29.685  1.00  0.00     0.031 C 
ATOM     23  C   UNL A   1      43.135  27.964  33.312  1.00  0.00     0.029 A 
ATOM     24  C   UNL A   1      42.467  29.094  33.953  1.00  0.00     0.049 A 
ATOM     25  H   UNL A   1      40.867  30.203  33.210  1.00  0.00     0.167 HD
ATOM     26  C   UNL A   1      37.562  32.513  31.525  1.00  0.00     0.031 A 
ATOM     27  C   UNL A   1      42.789  29.611  35.155  1.00  0.00     0.031 A 
ATOM     28  C   UNL A   1      37.788  33.087  32.827  1.00  0.00     0.049 A 
ATOM     29  C   UNL A   1      42.006  30.783  35.687  1.00  0.00     0.074 A 
ATOM     30  C   UNL A   1      37.097  34.111  33.452  1.00  0.00     0.029 A 
ATOM     31  N   UNL A   1      38.788  32.689  33.701  1.00  0.00    -0.354 N 
ATOM     32  N   UNL A   1      40.990  31.412  35.148  1.00  0.00    -0.248 NA
ATOM     33  C   UNL A   1      42.409  31.306  37.000  1.00  0.00     0.031 C 
ATOM     34  C   UNL A   1      37.716  34.373  34.679  1.00  0.00     0.029 A 
ATOM     35  C   UNL A   1      38.746  33.462  34.850  1.00  0.00     0.049 A 
ATOM     36  H   UNL A   1      39.432  31.965  33.531  1.00  0.00     0.167 HD
ATOM     37  C   UNL A   1      40.614  32.384  36.068  1.00  0.00     0.074 A 
ATOM     38  C   UNL A   1      41.494  32.242  37.209  1.00  0.00     0.031 C 
ATOM     39  C   UNL A   1      39.630  33.312  35.977  1.00  0.00     0.031 A 
BRANCH  26  40
ATOM     40  C   UNL A   1      36.452  33.084  30.680  1.00  0.00    -0.014 A 
ATOM     41  C   UNL A   1      36.730  33.869  29.548  1.00  0.00     0.009 A 
ATOM     42  C   UNL A   1      35.112  32.791  30.984  1.00  0.00     0.009 A 
ATOM     43  C   UNL A   1      35.692  34.377  28.762  1.00  0.00     0.001 A 
ATOM     44  C   UNL A   1      34.079  33.273  30.178  1.00  0.00     0.001 A 
ATOM     45  C   UNL A   1      34.368  34.073  29.075  1.00  0.00     0.000 A 
ENDBRANCH  26  40
BRANCH  27  46
ATOM     46  C   UNL A   1      43.921  29.041  35.940  1.00  0.00    -0.014 A 
ATOM     47  C   UNL A   1      45.228  29.528  35.778  1.00  0.00     0.009 A 
ATOM     48  C   UNL A   1      43.703  27.984  36.836  1.00  0.00     0.009 A 
ATOM     49  C   UNL A   1      46.294  28.943  36.468  1.00  0.00     0.001 A 
ATOM     50  C   UNL A   1      44.763  27.426  37.554  1.00  0.00     0.001 A 
ATOM     51  C   UNL A   1      46.060  27.897  37.359  1.00  0.00     0.000 A 
ENDBRANCH  27  46
BRANCH  39  52
ATOM     52  C   UNL A   1      39.425  34.214  37.165  1.00  0.00    -0.014 A 
ATOM     53  C   UNL A   1      38.717  33.788  38.299  1.00  0.00     0.009 A 
ATOM     54  C   UNL A   1      39.970  35.508  37.152  1.00  0.00     0.009 A 
ATOM     55  C   UNL A   1      38.518  34.655  39.375  1.00  0.00     0.001 A 
ATOM     56  C   UNL A   1      39.802  36.360  38.245  1.00  0.00     0.001 A 
ATOM     57  C   UNL A   1      39.064  35.937  39.349  1.00  0.00     0.000 A 
ENDBRANCH  39  52
ENDBRANCH  13  14
ENDBRANCH   6   8
ENDBRANCH   3   4
ENDBRANCH   2   3
ENDBRANCH   1   2
BRANCH   1  58
ATOM     58  C   UNL A   1      37.938  20.329  24.997  1.00  0.00     0.002 C 
BRANCH  58  59
ATOM     59  C   UNL A   1      37.005  21.931  24.287  1.00  0.00     0.021 C 
BRANCH  59  60
ATOM     60  C   UNL A   1      35.925  23.107  25.868  1.00  0.00     0.116 C 
BRANCH  60  61
ATOM     61  N   UNL A   1      34.884  22.462  27.187  1.00  0.00    -0.351 N 
ATOM     62  C   UNL A   1      33.512  22.213  27.365  1.00  0.00     0.279 C 
ATOM     63  H   UNL A   1      35.407  22.222  27.985  1.00  0.00     0.163 HD
ATOM     64  O   UNL A   1      32.943  22.778  28.312  1.00  0.00    -0.268 OA
BRANCH  62  65
ATOM     65  C   UNL A   1      32.703  21.249  26.498  1.00  0.00     0.284 C 
ATOM     66  C   UNL A   1      33.628  20.766  25.405  1.00  0.00     0.151 C 
ATOM     67  N   UNL A   1      31.425  21.767  25.956  1.00  0.00    -0.319 N 
ATOM     68  S   UNL A   1      33.232  21.866  24.024  1.00  0.00    -0.085 SA
ATOM     69  C   UNL A   1      31.785  22.646  24.871  1.00  0.00     0.303 C 
ATOM     70  H   UNL A   1      30.916  22.280  26.676  1.00  0.00     0.348 HD
ATOM     71  H   UNL A   1      30.817  21.011  25.641  1.00  0.00     0.348 HD
BRANCH  69  72
ATOM     72  C   UNL A   1      32.037  24.073  25.303  1.00  0.00     0.162 A 
ATOM     73  N   UNL A   1      31.199  24.795  26.376  1.00  0.00    -0.242 NA
ATOM     74  S   UNL A   1      33.246  25.576  23.994  1.00  0.00    -0.112 S 
ATOM     75  C   UNL A   1      31.104  26.571  26.367  1.00  0.00     0.132 A 
ATOM     76  C   UNL A   1      32.255  27.333  25.345  1.00  0.00     0.055 A 
BRANCH  76  77
ATOM     77  C   UNL A   1      33.073  28.618  26.298  1.00  0.00    -0.007 A 
ATOM     78  C   UNL A   1      32.632  29.934  26.711  1.00  0.00     0.009 A 
ATOM     79  C   UNL A   1      34.403  28.404  26.700  1.00  0.00     0.009 A 
ATOM     80  C   UNL A   1      33.386  30.923  27.357  1.00  0.00     0.001 A 
ATOM     81  C   UNL A   1      35.164  29.370  27.416  1.00  0.00     0.001 A 
ATOM     82  C   UNL A   1      34.665  30.628  27.730  1.00  0.00     0.000 A 
ENDBRANCH  76  77
ENDBRANCH  69  72
ENDBRANCH  62  65
ENDBRANCH  60  61
ENDBRANCH  59  60
ENDBRANCH  58  59
ENDBRANCH   1  58
TORSDOF 15
ENDMDL
MODEL 2
REMARK VINA RESULT:     -13.4      3.193      7.738
REMARK SMILES O=C(NCCCCCCNC(=O)[C@@H]1CS[C@H](c2ncc(-c3ccccc3)s2)[NH2+]1)c1ccc(-c2c3nc(c(-c4ccccc4)c4ccc([nH]4)c(-c4ccccc4)c4nc(c(-c5ccccc5)c5ccc2[nH]5)C=C4)C=C3)cc1
REMARK SMILES IDX 6 1 5 2 4 3 3 4 1 5 2 6 29 8 30 9 76 10 31 11 75 12 32 13
REMARK SMILES IDX 33 14 34 15 69 16 35 17 74 18 68 19 70 20 36 21 73 22 67 23
REMARK SMILES IDX 66 24 37 26 59 27 44 28 58 29 45 30 48 31 57 32 71 33 46 34
REMARK SMILES IDX 47 35 56 37 72 38 49 39 38 40 39 41 43 42 40 43 42 44 41 45
REMARK SMILES IDX 60 46 61 47 65 48 62 49 64 50 63 51 50 52 51 53 55 54 52 55
REMARK SMILES IDX 54 56 53 57 7 58 8 59 9 60 10 61 11 62 12 64 13 65 14 66
REMARK SMILES IDX 28 67 15 68 16 69 17 72 18 73 27 74 19 75 20 76 21 77 22 78
REMARK SMILES IDX 26 79 23 80 25 81 24 82
REMARK H PARENT 3 7 70 25 48 36 10 63 28 70 28 71
REMARK Flexibility Score: inf
ROOT
ATOM      1  C   UNL A   1      32.480  29.439  26.828  1.00  0.00     0.002 C 
ENDROOT
BRANCH   1   2
ATOM      2  C   UNL A   1      32.546  31.171  27.311  1.00  0.00     0.021 C 
BRANCH   2   3
ATOM      3  C   UNL A   1      32.124  32.620  26.609  1.00  0.00     0.116 C 
BRANCH   3   4
ATOM      4  N   UNL A   1      32.104  33.811  27.467  1.00  0.00    -0.352 N 
ATOM      5  O   UNL A   1      32.695  35.491  28.832  1.00  0.00    -0.269 OA
ATOM      6  C   UNL A   1      32.991  34.394  28.353  1.00  0.00     0.251 C 
ATOM      7  H   UNL A   1      31.260  34.312  27.395  1.00  0.00     0.163 HD
BRANCH   6   8
ATOM      8  C   UNL A   1      34.232  33.757  28.866  1.00  0.00     0.039 A 
ATOM      9  C   UNL A   1      34.305  32.954  30.004  1.00  0.00     0.014 A 
ATOM     10  C   UNL A   1      35.360  33.838  28.032  1.00  0.00     0.014 A 
ATOM     11  C   UNL A   1      35.527  32.355  30.374  1.00  0.00     0.010 A 
ATOM     12  C   UNL A   1      36.569  33.228  28.386  1.00  0.00     0.010 A 
ATOM     13  C   UNL A   1      36.682  32.522  29.590  1.00  0.00    -0.014 A 
BRANCH  13  14
ATOM     14  C   UNL A   1      38.016  32.022  30.038  1.00  0.00     0.031 A 
ATOM     15  C   UNL A   1      38.521  30.687  29.541  1.00  0.00     0.074 A 
ATOM     16  C   UNL A   1      38.773  32.739  30.891  1.00  0.00     0.049 A 
ATOM     17  N   UNL A   1      39.641  30.064  29.818  1.00  0.00    -0.248 NA
ATOM     18  C   UNL A   1      37.645  29.953  28.614  1.00  0.00     0.031 C 
ATOM     19  C   UNL A   1      38.404  34.035  31.461  1.00  0.00     0.029 A 
ATOM     20  N   UNL A   1      40.011  32.478  31.430  1.00  0.00    -0.354 N 
ATOM     21  C   UNL A   1      39.602  28.871  29.102  1.00  0.00     0.074 A 
ATOM     22  C   UNL A   1      38.328  28.834  28.418  1.00  0.00     0.031 C 
ATOM     23  C   UNL A   1      39.400  34.464  32.255  1.00  0.00     0.029 A 
ATOM     24  C   UNL A   1      40.458  33.457  32.287  1.00  0.00     0.049 A 
ATOM     25  H   UNL A   1      40.529  31.667  31.223  1.00  0.00     0.167 HD
ATOM     26  C   UNL A   1      40.543  27.900  29.007  1.00  0.00     0.031 A 
ATOM     27  C   UNL A   1      41.581  33.528  33.028  1.00  0.00     0.031 A 
ATOM     28  C   UNL A   1      41.802  27.922  29.707  1.00  0.00     0.049 A 
ATOM     29  C   UNL A   1      42.584  32.407  32.956  1.00  0.00     0.074 A 
ATOM     30  C   UNL A   1      42.828  26.993  29.669  1.00  0.00     0.029 A 
ATOM     31  N   UNL A   1      42.201  28.921  30.580  1.00  0.00    -0.354 N 
ATOM     32  N   UNL A   1      42.551  31.312  32.234  1.00  0.00    -0.248 NA
ATOM     33  C   UNL A   1      43.786  32.539  33.792  1.00  0.00     0.031 C 
ATOM     34  C   UNL A   1      43.823  27.401  30.563  1.00  0.00     0.029 A 
ATOM     35  C   UNL A   1      43.449  28.621  31.103  1.00  0.00     0.049 A 
ATOM     36  H   UNL A   1      41.678  29.726  30.796  1.00  0.00     0.167 HD
ATOM     37  C   UNL A   1      43.737  30.642  32.507  1.00  0.00     0.074 A 
ATOM     38  C   UNL A   1      44.479  31.466  33.438  1.00  0.00     0.031 C 
ATOM     39  C   UNL A   1      44.174  29.450  32.031  1.00  0.00     0.031 A 
BRANCH  26  40
ATOM     40  C   UNL A   1      40.244  26.720  28.118  1.00  0.00    -0.014 A 
ATOM     41  C   UNL A   1      40.721  26.666  26.797  1.00  0.00     0.009 A 
ATOM     42  C   UNL A   1      39.522  25.624  28.619  1.00  0.00     0.009 A 
ATOM     43  C   UNL A   1      40.451  25.558  25.989  1.00  0.00     0.001 A 
ATOM     44  C   UNL A   1      39.283  24.505  27.820  1.00  0.00     0.001 A 
ATOM     45  C   UNL A   1      39.738  24.476  26.503  1.00  0.00     0.000 A 
ENDBRANCH  26  40
BRANCH  27  46
ATOM     46  C   UNL A   1      41.818  34.696  33.924  1.00  0.00    -0.014 A 
ATOM     47  C   UNL A   1      42.492  35.836  33.460  1.00  0.00     0.009 A 
ATOM     48  C   UNL A   1      41.396  34.661  35.262  1.00  0.00     0.009 A 
ATOM     49  C   UNL A   1      42.769  36.899  34.324  1.00  0.00     0.001 A 
ATOM     50  C   UNL A   1      41.640  35.740  36.115  1.00  0.00     0.001 A 
ATOM     51  C   UNL A   1      42.338  36.852  35.649  1.00  0.00     0.000 A 
ENDBRANCH  27  46
BRANCH  39  52
ATOM     52  C   UNL A   1      45.538  28.991  32.475  1.00  0.00    -0.014 A 
ATOM     53  C   UNL A   1      45.709  28.177  33.605  1.00  0.00     0.009 A 
ATOM     54  C   UNL A   1      46.669  29.368  31.733  1.00  0.00     0.009 A 
ATOM     55  C   UNL A   1      46.987  27.790  34.010  1.00  0.00     0.001 A 
ATOM     56  C   UNL A   1      47.943  28.948  32.119  1.00  0.00     0.001 A 
ATOM     57  C   UNL A   1      48.102  28.171  33.265  1.00  0.00     0.000 A 
ENDBRANCH  39  52
ENDBRANCH  13  14
ENDBRANCH   6   8
ENDBRANCH   3   4
ENDBRANCH   2   3
ENDBRANCH   1   2
BRANCH   1  58
ATOM     58  C   UNL A   1      31.522  27.971  27.584  1.00  0.00     0.002 C 
BRANCH  58  59
ATOM     59  C   UNL A   1      30.951  26.533  26.340  1.00  0.00     0.021 C 
BRANCH  59  60
ATOM     60  C   UNL A   1      32.140  24.639  26.562  1.00  0.00     0.116 C 
BRANCH  60  61
ATOM     61  N   UNL A   1      31.885  23.083  25.695  1.00  0.00    -0.351 N 
ATOM     62  C   UNL A   1      32.409  22.465  24.547  1.00  0.00     0.279 C 
ATOM     63  H   UNL A   1      31.207  22.522  26.136  1.00  0.00     0.163 HD
ATOM     64  O   UNL A   1      31.612  22.147  23.651  1.00  0.00    -0.268 OA
BRANCH  62  65
ATOM     65  C   UNL A   1      33.886  22.115  24.369  1.00  0.00     0.284 C 
ATOM     66  C   UNL A   1      34.562  22.392  25.691  1.00  0.00     0.151 C 
ATOM     67  N   UNL A   1      34.585  22.772  23.239  1.00  0.00    -0.319 N 
ATOM     68  S   UNL A   1      35.237  24.055  25.462  1.00  0.00    -0.085 SA
ATOM     69  C   UNL A   1      34.823  24.131  23.661  1.00  0.00     0.303 C 
ATOM     70  H   UNL A   1      34.001  22.756  22.403  1.00  0.00     0.348 HD
ATOM     71  H   UNL A   1      35.455  22.294  23.006  1.00  0.00     0.348 HD
BRANCH  69  72
ATOM     72  C   UNL A   1      33.685  25.074  23.343  1.00  0.00     0.162 A 
ATOM     73  N   UNL A   1      32.679  24.835  22.200  1.00  0.00    -0.242 NA
ATOM     74  S   UNL A   1      33.667  27.292  24.062  1.00  0.00    -0.112 S 
ATOM     75  C   UNL A   1      31.824  26.219  21.480  1.00  0.00     0.132 A 
ATOM     76  C   UNL A   1      31.958  27.676  22.380  1.00  0.00     0.055 A 
BRANCH  76  77
ATOM     77  C   UNL A   1      30.306  28.350  22.587  1.00  0.00    -0.007 A 
ATOM     78  C   UNL A   1      29.121  27.809  23.218  1.00  0.00     0.009 A 
ATOM     79  C   UNL A   1      30.019  29.599  22.007  1.00  0.00     0.009 A 
ATOM     80  C   UNL A   1      27.833  28.360  23.230  1.00  0.00     0.001 A 
ATOM     81  C   UNL A   1      28.734  30.207  22.066  1.00  0.00     0.001 A 
ATOM     82  C   UNL A   1      27.643  29.585  22.661  1.00  0.00     0.000 A 
ENDBRANCH  76  77
ENDBRANCH  69  72
ENDBRANCH  62  65
ENDBRANCH  60  61
ENDBRANCH  59  60
ENDBRANCH  58  59
ENDBRANCH   1  58
TORSDOF 15
ENDMDL
MODEL 3
REMARK VINA RESULT:     -13.3      5.414      9.103
REMARK SMILES O=C(NCCCCCCNC(=O)[C@@H]1CS[C@H](c2ncc(-c3ccccc3)s2)[NH2+]1)c1ccc(-c2c3nc(c(-c4ccccc4)c4ccc([nH]4)c(-c4ccccc4)c4nc(c(-c5ccccc5)c5ccc2[nH]5)C=C4)C=C3)cc1
REMARK SMILES IDX 6 1 5 2 4 3 3 4 1 5 2 6 29 8 30 9 76 10 31 11 75 12 32 13
REMARK SMILES IDX 33 14 34 15 69 16 35 17 74 18 68 19 70 20 36 21 73 22 67 23
REMARK SMILES IDX 66 24 37 26 59 27 44 28 58 29 45 30 48 31 57 32 71 33 46 34
REMARK SMILES IDX 47 35 56 37 72 38 49 39 38 40 39 41 43 42 40 43 42 44 41 45
REMARK SMILES IDX 60 46 61 47 65 48 62 49 64 50 63 51 50 52 51 53 55 54 52 55
REMARK SMILES IDX 54 56 53 57 7 58 8 59 9 60 10 61 11 62 12 64 13 65 14 66
REMARK SMILES IDX 28 67 15 68 16 69 17 72 18 73 27 74 19 75 20 76 21 77 22 78
REMARK SMILES IDX 26 79 23 80 25 81 24 82
REMARK H PARENT 3 7 70 25 48 36 10 63 28 70 28 71
REMARK Flexibility Score: inf
ROOT
ATOM      1  C   UNL A   1      40.511  20.030  26.143  1.00  0.00     0.002 C 
ENDROOT
BRANCH   1   2
ATOM      2  C   UNL A   1      42.281  19.734  26.019  1.00  0.00     0.021 C 
BRANCH   2   3
ATOM      3  C   UNL A   1      43.253  18.400  25.805  1.00  0.00     0.116 C 
BRANCH   3   4
ATOM      4  N   UNL A   1      44.256  18.454  24.734  1.00  0.00    -0.352 N 
ATOM      5  O   UNL A   1      45.946  19.078  23.397  1.00  0.00    -0.269 OA
ATOM      6  C   UNL A   1      45.134  19.412  24.263  1.00  0.00     0.251 C 
ATOM      7  H   UNL A   1      44.317  17.609  24.233  1.00  0.00     0.163 HD
BRANCH   6   8
ATOM      8  C   UNL A   1      45.112  20.850  24.635  1.00  0.00     0.039 A 
ATOM      9  C   UNL A   1      44.683  21.885  23.803  1.00  0.00     0.014 A 
ATOM     10  C   UNL A   1      45.378  21.145  25.983  1.00  0.00     0.014 A 
ATOM     11  C   UNL A   1      44.654  23.213  24.276  1.00  0.00     0.010 A 
ATOM     12  C   UNL A   1      45.331  22.461  26.462  1.00  0.00     0.010 A 
ATOM     13  C   UNL A   1      45.019  23.519  25.598  1.00  0.00    -0.014 A 
BRANCH  13  14
ATOM     14  C   UNL A   1      45.139  24.929  26.075  1.00  0.00     0.031 A 
ATOM     15  C   UNL A   1      46.482  25.621  26.037  1.00  0.00     0.074 A 
ATOM     16  C   UNL A   1      44.067  25.592  26.551  1.00  0.00     0.049 A 
ATOM     17  N   UNL A   1      46.806  26.833  26.416  1.00  0.00    -0.248 NA
ATOM     18  C   UNL A   1      47.612  24.840  25.508  1.00  0.00     0.031 C 
ATOM     19  C   UNL A   1      42.716  25.043  26.660  1.00  0.00     0.029 A 
ATOM     20  N   UNL A   1      43.947  26.873  27.038  1.00  0.00    -0.354 N 
ATOM     21  C   UNL A   1      48.171  26.958  26.172  1.00  0.00     0.074 A 
ATOM     22  C   UNL A   1      48.624  25.684  25.658  1.00  0.00     0.031 C 
ATOM     23  C   UNL A   1      41.899  25.985  27.162  1.00  0.00     0.029 A 
ATOM     24  C   UNL A   1      42.674  27.188  27.453  1.00  0.00     0.049 A 
ATOM     25  H   UNL A   1      44.700  27.505  27.085  1.00  0.00     0.167 HD
ATOM     26  C   UNL A   1      48.974  28.037  26.342  1.00  0.00     0.031 A 
ATOM     27  C   UNL A   1      42.190  28.311  28.020  1.00  0.00     0.031 A 
ATOM     28  C   UNL A   1      48.532  29.299  26.877  1.00  0.00     0.049 A 
ATOM     29  C   UNL A   1      43.116  29.474  28.259  1.00  0.00     0.074 A 
ATOM     30  C   UNL A   1      49.265  30.456  27.078  1.00  0.00     0.029 A 
ATOM     31  N   UNL A   1      47.241  29.565  27.304  1.00  0.00    -0.354 N 
ATOM     32  N   UNL A   1      44.390  29.590  27.974  1.00  0.00    -0.248 NA
ATOM     33  C   UNL A   1      42.530  30.668  28.887  1.00  0.00     0.031 C 
ATOM     34  C   UNL A   1      48.432  31.404  27.681  1.00  0.00     0.029 A 
ATOM     35  C   UNL A   1      47.161  30.861  27.788  1.00  0.00     0.049 A 
ATOM     36  H   UNL A   1      46.490  28.929  27.268  1.00  0.00     0.167 HD
ATOM     37  C   UNL A   1      44.751  30.875  28.361  1.00  0.00     0.074 A 
ATOM     38  C   UNL A   1      43.554  31.509  28.874  1.00  0.00     0.031 C 
ATOM     39  C   UNL A   1      45.964  31.478  28.297  1.00  0.00     0.031 A 
BRANCH  26  40
ATOM     40  C   UNL A   1      50.424  27.897  25.954  1.00  0.00    -0.014 A 
ATOM     41  C   UNL A   1      51.383  27.446  26.878  1.00  0.00     0.009 A 
ATOM     42  C   UNL A   1      50.832  28.167  24.638  1.00  0.00     0.009 A 
ATOM     43  C   UNL A   1      52.722  27.304  26.501  1.00  0.00     0.001 A 
ATOM     44  C   UNL A   1      52.164  27.993  24.256  1.00  0.00     0.001 A 
ATOM     45  C   UNL A   1      53.109  27.571  25.189  1.00  0.00     0.000 A 
ENDBRANCH  26  40
BRANCH  27  46
ATOM     46  C   UNL A   1      40.757  28.391  28.424  1.00  0.00    -0.014 A 
ATOM     47  C   UNL A   1      39.804  28.994  27.587  1.00  0.00     0.009 A 
ATOM     48  C   UNL A   1      40.340  27.891  29.667  1.00  0.00     0.009 A 
ATOM     49  C   UNL A   1      38.476  29.124  28.002  1.00  0.00     0.001 A 
ATOM     50  C   UNL A   1      39.005  27.988  30.064  1.00  0.00     0.001 A 
ATOM     51  C   UNL A   1      38.077  28.617  29.237  1.00  0.00     0.000 A 
ENDBRANCH  27  46
BRANCH  39  52
ATOM     52  C   UNL A   1      46.043  32.911  28.753  1.00  0.00    -0.014 A 
ATOM     53  C   UNL A   1      46.355  33.245  30.080  1.00  0.00     0.009 A 
ATOM     54  C   UNL A   1      45.820  33.944  27.828  1.00  0.00     0.009 A 
ATOM     55  C   UNL A   1      46.394  34.582  30.482  1.00  0.00     0.001 A 
ATOM     56  C   UNL A   1      45.896  35.280  28.224  1.00  0.00     0.001 A 
ATOM     57  C   UNL A   1      46.170  35.597  29.554  1.00  0.00     0.000 A 
ENDBRANCH  39  52
ENDBRANCH  13  14
ENDBRANCH   6   8
ENDBRANCH   3   4
ENDBRANCH   2   3
ENDBRANCH   1   2
BRANCH   1  58
ATOM     58  C   UNL A   1      39.516  21.659  26.126  1.00  0.00     0.002 C 
BRANCH  58  59
ATOM     59  C   UNL A   1      37.818  21.665  25.097  1.00  0.00     0.021 C 
BRANCH  59  60
ATOM     60  C   UNL A   1      36.177  22.834  26.094  1.00  0.00     0.116 C 
BRANCH  60  61
ATOM     61  N   UNL A   1      34.946  22.216  27.252  1.00  0.00    -0.351 N 
ATOM     62  C   UNL A   1      33.583  21.875  27.196  1.00  0.00     0.279 C 
ATOM     63  H   UNL A   1      35.321  22.081  28.152  1.00  0.00     0.163 HD
ATOM     64  O   UNL A   1      32.811  22.467  27.966  1.00  0.00    -0.268 OA
BRANCH  62  65
ATOM     65  C   UNL A   1      33.016  20.786  26.287  1.00  0.00     0.284 C 
ATOM     66  C   UNL A   1      34.133  20.363  25.363  1.00  0.00     0.151 C 
ATOM     67  N   UNL A   1      31.779  21.127  25.544  1.00  0.00    -0.319 N 
ATOM     68  S   UNL A   1      33.823  21.346  23.876  1.00  0.00    -0.085 SA
ATOM     69  C   UNL A   1      32.194  21.992  24.467  1.00  0.00     0.303 C 
ATOM     70  H   UNL A   1      31.121  21.611  26.155  1.00  0.00     0.348 HD
ATOM     71  H   UNL A   1      31.308  20.293  25.196  1.00  0.00     0.348 HD
BRANCH  69  72
ATOM     72  C   UNL A   1      32.226  23.457  24.841  1.00  0.00     0.162 A 
ATOM     73  N   UNL A   1      33.509  24.312  24.811  1.00  0.00    -0.242 NA
ATOM     74  S   UNL A   1      30.551  24.454  26.117  1.00  0.00    -0.112 S 
ATOM     75  C   UNL A   1      33.621  25.758  25.840  1.00  0.00     0.132 A 
ATOM     76  C   UNL A   1      32.127  26.256  26.524  1.00  0.00     0.055 A 
BRANCH  76  77
ATOM     77  C   UNL A   1      31.933  28.014  26.208  1.00  0.00    -0.007 A 
ATOM     78  C   UNL A   1      32.284  29.174  26.998  1.00  0.00     0.009 A 
ATOM     79  C   UNL A   1      31.280  28.410  25.027  1.00  0.00     0.009 A 
ATOM     80  C   UNL A   1      31.988  30.516  26.723  1.00  0.00     0.001 A 
ATOM     81  C   UNL A   1      31.028  29.771  24.697  1.00  0.00     0.001 A 
ATOM     82  C   UNL A   1      31.367  30.818  25.546  1.00  0.00     0.000 A 
ENDBRANCH  76  77
ENDBRANCH  69  72
ENDBRANCH  62  65
ENDBRANCH  60  61
ENDBRANCH  59  60
ENDBRANCH  58  59
ENDBRANCH   1  58
TORSDOF 15
ENDMDL
