MODEL 1
REMARK VINA RESULT:     -10.6      0.000      0.000
REMARK SMILES O=C(Cc1ccc(NC(=O)C2CCCC2)cc1)NCCCCCCNC(=O)c1ccc(-c2c3nc(c(-c4ccccc4)c4ccc([nH]4)c(-c4ccccc4)c4nc(c(-c5ccccc5)c5ccc2[nH]5)C=C4)C=C3)cc1
REMARK SMILES IDX 21 1 20 2 19 3 18 4 1 5 2 6 3 8 4 9 5 10 17 11 6 12 16 13
REMARK SMILES IDX 7 14 8 15 9 16 10 18 11 19 12 20 15 21 13 22 14 23 22 24
REMARK SMILES IDX 23 25 24 26 25 27 26 28 27 30 28 31 29 32 75 33 30 34 74 35
REMARK SMILES IDX 31 36 32 37 33 38 68 39 34 40 73 41 67 42 69 43 35 44 72 45
REMARK SMILES IDX 66 46 65 47 36 49 58 50 43 51 57 52 44 53 47 54 56 55 70 56
REMARK SMILES IDX 45 57 46 58 55 60 71 61 48 62 37 63 38 64 42 65 39 66 41 67
REMARK SMILES IDX 40 68 59 69 60 70 64 71 61 72 63 73 62 74 49 75 50 76 54 77
REMARK SMILES IDX 51 78 53 79 52 80
REMARK H PARENT 18 7 8 17 25 29 69 48 47 59
REMARK Flexibility Score: inf
ROOT
ATOM      1  C   UNL A   1      35.342  33.493  28.844  1.00  0.00     0.002 C 
ENDROOT
BRANCH   1   2
ATOM      2  C   UNL A   1      35.551  32.404  27.783  1.00  0.00     0.021 C 
BRANCH   2   3
ATOM      3  C   UNL A   1      34.853  31.078  28.064  1.00  0.00     0.116 C 
BRANCH   3   4
ATOM      4  N   UNL A   1      33.761  30.811  27.151  1.00  0.00    -0.356 N 
ATOM      5  O   UNL A   1      33.739  28.534  27.497  1.00  0.00    -0.275 OA
ATOM      6  C   UNL A   1      33.206  29.545  27.053  1.00  0.00     0.224 C 
ATOM      7  H   UNL A   1      33.408  31.540  26.592  1.00  0.00     0.163 HD
BRANCH   6   8
ATOM      8  C   UNL A   1      31.813  29.536  26.443  1.00  0.00     0.135 C 
BRANCH   8   9
ATOM      9  C   UNL A   1      31.783  29.009  25.021  1.00  0.00    -0.039 A 
ATOM     10  C   UNL A   1      32.800  29.304  24.104  1.00  0.00     0.006 A 
ATOM     11  C   UNL A   1      30.774  28.124  24.620  1.00  0.00     0.006 A 
ATOM     12  C   UNL A   1      32.869  28.654  22.877  1.00  0.00     0.026 A 
ATOM     13  C   UNL A   1      30.872  27.445  23.399  1.00  0.00     0.026 A 
ATOM     14  C   UNL A   1      31.996  27.621  22.591  1.00  0.00     0.041 A 
BRANCH  14  15
ATOM     15  N   UNL A   1      32.196  26.764  21.512  1.00  0.00    -0.326 N 
ATOM     16  C   UNL A   1      32.872  25.591  21.381  1.00  0.00     0.227 C 
ATOM     17  H   UNL A   1      31.764  27.066  20.681  1.00  0.00     0.169 HD
ATOM     18  O   UNL A   1      33.047  25.207  20.214  1.00  0.00    -0.274 OA
BRANCH  16  19
ATOM     19  C   UNL A   1      33.276  24.625  22.516  1.00  0.00     0.079 C 
ATOM     20  C   UNL A   1      34.009  24.992  23.798  1.00  0.00     0.013 C 
ATOM     21  C   UNL A   1      31.992  23.979  23.079  1.00  0.00     0.013 C 
ATOM     22  C   UNL A   1      33.789  23.792  24.707  1.00  0.00     0.001 C 
ATOM     23  C   UNL A   1      32.352  23.384  24.441  1.00  0.00     0.001 C 
ENDBRANCH  16  19
ENDBRANCH  14  15
ENDBRANCH   8   9
ENDBRANCH   6   8
ENDBRANCH   3   4
ENDBRANCH   2   3
ENDBRANCH   1   2
BRANCH   1  24
ATOM     24  C   UNL A   1      34.640  34.771  28.371  1.00  0.00     0.002 C 
BRANCH  24  25
ATOM     25  C   UNL A   1      33.308  35.092  29.053  1.00  0.00     0.021 C 
BRANCH  25  26
ATOM     26  C   UNL A   1      33.261  36.410  29.822  1.00  0.00     0.116 C 
BRANCH  26  27
ATOM     27  N   UNL A   1      32.336  36.381  30.944  1.00  0.00    -0.352 N 
ATOM     28  C   UNL A   1      32.444  35.724  32.147  1.00  0.00     0.251 C 
ATOM     29  H   UNL A   1      31.513  36.908  30.824  1.00  0.00     0.163 HD
ATOM     30  O   UNL A   1      31.495  35.708  32.924  1.00  0.00    -0.269 OA
BRANCH  28  31
ATOM     31  C   UNL A   1      33.693  35.009  32.501  1.00  0.00     0.039 A 
ATOM     32  C   UNL A   1      33.609  33.685  32.941  1.00  0.00     0.014 A 
ATOM     33  C   UNL A   1      34.938  35.640  32.424  1.00  0.00     0.014 A 
ATOM     34  C   UNL A   1      34.774  32.977  33.249  1.00  0.00     0.010 A 
ATOM     35  C   UNL A   1      36.103  34.911  32.660  1.00  0.00     0.010 A 
ATOM     36  C   UNL A   1      36.035  33.574  33.083  1.00  0.00    -0.014 A 
BRANCH  36  37
ATOM     37  C   UNL A   1      37.285  32.822  33.366  1.00  0.00     0.031 A 
ATOM     38  C   UNL A   1      38.049  33.075  34.639  1.00  0.00     0.074 A 
ATOM     39  C   UNL A   1      37.760  31.941  32.463  1.00  0.00     0.049 A 
ATOM     40  N   UNL A   1      39.181  32.552  35.041  1.00  0.00    -0.248 NA
ATOM     41  C   UNL A   1      37.480  34.059  35.572  1.00  0.00     0.031 C 
ATOM     42  C   UNL A   1      37.139  31.626  31.176  1.00  0.00     0.029 A 
ATOM     43  N   UNL A   1      38.882  31.149  32.492  1.00  0.00    -0.354 N 
ATOM     44  C   UNL A   1      39.458  33.147  36.267  1.00  0.00     0.074 A 
ATOM     45  C   UNL A   1      38.411  34.113  36.513  1.00  0.00     0.031 C 
ATOM     46  C   UNL A   1      37.874  30.693  30.549  1.00  0.00     0.029 A 
ATOM     47  C   UNL A   1      39.036  30.370  31.371  1.00  0.00     0.049 A 
ATOM     48  H   UNL A   1      39.516  31.141  33.245  1.00  0.00     0.167 HD
ATOM     49  C   UNL A   1      40.474  32.894  37.126  1.00  0.00     0.031 A 
ATOM     50  C   UNL A   1      40.006  29.498  31.038  1.00  0.00     0.031 A 
ATOM     51  C   UNL A   1      41.519  31.934  36.888  1.00  0.00     0.049 A 
ATOM     52  C   UNL A   1      41.138  29.253  31.999  1.00  0.00     0.074 A 
ATOM     53  C   UNL A   1      42.582  31.594  37.706  1.00  0.00     0.029 A 
ATOM     54  N   UNL A   1      41.629  31.157  35.746  1.00  0.00    -0.354 N 
ATOM     55  N   UNL A   1      41.355  29.788  33.176  1.00  0.00    -0.248 NA
ATOM     56  C   UNL A   1      42.148  28.266  31.592  1.00  0.00     0.031 C 
ATOM     57  C   UNL A   1      43.358  30.639  37.042  1.00  0.00     0.029 A 
ATOM     58  C   UNL A   1      42.746  30.343  35.835  1.00  0.00     0.049 A 
ATOM     59  H   UNL A   1      41.007  31.180  34.984  1.00  0.00     0.167 HD
ATOM     60  C   UNL A   1      42.503  29.176  33.665  1.00  0.00     0.074 A 
ATOM     61  C   UNL A   1      42.924  28.218  32.664  1.00  0.00     0.031 C 
ATOM     62  C   UNL A   1      43.149  29.387  34.837  1.00  0.00     0.031 A 
BRANCH  49  63
ATOM     63  C   UNL A   1      40.498  33.670  38.415  1.00  0.00    -0.014 A 
ATOM     64  C   UNL A   1      39.853  33.181  39.562  1.00  0.00     0.009 A 
ATOM     65  C   UNL A   1      41.199  34.882  38.496  1.00  0.00     0.009 A 
ATOM     66  C   UNL A   1      39.882  33.906  40.755  1.00  0.00     0.001 A 
ATOM     67  C   UNL A   1      41.253  35.590  39.698  1.00  0.00     0.001 A 
ATOM     68  C   UNL A   1      40.586  35.107  40.824  1.00  0.00     0.000 A 
ENDBRANCH  49  63
BRANCH  50  69
ATOM     69  C   UNL A   1      39.957  28.778  29.737  1.00  0.00    -0.014 A 
ATOM     70  C   UNL A   1      39.387  27.497  29.649  1.00  0.00     0.009 A 
ATOM     71  C   UNL A   1      40.512  29.353  28.583  1.00  0.00     0.009 A 
ATOM     72  C   UNL A   1      39.412  26.792  28.444  1.00  0.00     0.001 A 
ATOM     73  C   UNL A   1      40.505  28.658  27.372  1.00  0.00     0.001 A 
ATOM     74  C   UNL A   1      39.969  27.374  27.306  1.00  0.00     0.000 A 
ENDBRANCH  50  69
BRANCH  62  75
ATOM     75  C   UNL A   1      44.347  28.525  35.126  1.00  0.00    -0.014 A 
ATOM     76  C   UNL A   1      44.224  27.286  35.772  1.00  0.00     0.009 A 
ATOM     77  C   UNL A   1      45.620  28.956  34.720  1.00  0.00     0.009 A 
ATOM     78  C   UNL A   1      45.356  26.516  36.044  1.00  0.00     0.001 A 
ATOM     79  C   UNL A   1      46.747  28.171  34.964  1.00  0.00     0.001 A 
ATOM     80  C   UNL A   1      46.616  26.957  35.636  1.00  0.00     0.000 A 
ENDBRANCH  62  75
ENDBRANCH  36  37
ENDBRANCH  28  31
ENDBRANCH  26  27
ENDBRANCH  25  26
ENDBRANCH  24  25
ENDBRANCH   1  24
TORSDOF 16
ENDMDL
MODEL 2
REMARK VINA RESULT:     -10.6      6.826     12.291
REMARK SMILES O=C(Cc1ccc(NC(=O)C2CCCC2)cc1)NCCCCCCNC(=O)c1ccc(-c2c3nc(c(-c4ccccc4)c4ccc([nH]4)c(-c4ccccc4)c4nc(c(-c5ccccc5)c5ccc2[nH]5)C=C4)C=C3)cc1
REMARK SMILES IDX 21 1 20 2 19 3 18 4 1 5 2 6 3 8 4 9 5 10 17 11 6 12 16 13
REMARK SMILES IDX 7 14 8 15 9 16 10 18 11 19 12 20 15 21 13 22 14 23 22 24
REMARK SMILES IDX 23 25 24 26 25 27 26 28 27 30 28 31 29 32 75 33 30 34 74 35
REMARK SMILES IDX 31 36 32 37 33 38 68 39 34 40 73 41 67 42 69 43 35 44 72 45
REMARK SMILES IDX 66 46 65 47 36 49 58 50 43 51 57 52 44 53 47 54 56 55 70 56
REMARK SMILES IDX 45 57 46 58 55 60 71 61 48 62 37 63 38 64 42 65 39 66 41 67
REMARK SMILES IDX 40 68 59 69 60 70 64 71 61 72 63 73 62 74 49 75 50 76 54 77
REMARK SMILES IDX 51 78 53 79 52 80
REMARK H PARENT 18 7 8 17 25 29 69 48 47 59
REMARK Flexibility Score: inf
ROOT
ATOM      1  C   UNL A   1      42.064  21.169  27.021  1.00  0.00     0.002 C 
ENDROOT
BRANCH   1   2
ATOM      2  C   UNL A   1      41.118  21.962  26.109  1.00  0.00     0.021 C 
BRANCH   2   3
ATOM      3  C   UNL A   1      39.827  22.438  26.765  1.00  0.00     0.116 C 
BRANCH   3   4
ATOM      4  N   UNL A   1      38.642  21.872  26.153  1.00  0.00    -0.356 N 
ATOM      5  O   UNL A   1      37.549  23.883  25.896  1.00  0.00    -0.275 OA
ATOM      6  C   UNL A   1      37.645  22.687  25.642  1.00  0.00     0.224 C 
ATOM      7  H   UNL A   1      38.545  20.894  26.099  1.00  0.00     0.163 HD
BRANCH   6   8
ATOM      8  C   UNL A   1      36.741  21.988  24.639  1.00  0.00     0.135 C 
BRANCH   8   9
ATOM      9  C   UNL A   1      35.320  21.802  25.138  1.00  0.00    -0.039 A 
ATOM     10  C   UNL A   1      35.037  21.580  26.492  1.00  0.00     0.006 A 
ATOM     11  C   UNL A   1      34.240  21.950  24.259  1.00  0.00     0.006 A 
ATOM     12  C   UNL A   1      33.732  21.617  26.967  1.00  0.00     0.026 A 
ATOM     13  C   UNL A   1      32.931  22.024  24.750  1.00  0.00     0.026 A 
ATOM     14  C   UNL A   1      32.700  21.987  26.126  1.00  0.00     0.041 A 
BRANCH  14  15
ATOM     15  N   UNL A   1      31.433  22.307  26.608  1.00  0.00    -0.326 N 
ATOM     16  C   UNL A   1      30.739  23.475  26.667  1.00  0.00     0.227 C 
ATOM     17  H   UNL A   1      30.944  21.538  26.980  1.00  0.00     0.169 HD
ATOM     18  O   UNL A   1      29.722  23.453  27.379  1.00  0.00    -0.274 OA
BRANCH  16  19
ATOM     19  C   UNL A   1      30.984  24.740  25.817  1.00  0.00     0.079 C 
ATOM     20  C   UNL A   1      29.956  25.803  25.458  1.00  0.00     0.013 C 
ATOM     21  C   UNL A   1      32.062  25.593  26.521  1.00  0.00     0.013 C 
ATOM     22  C   UNL A   1      30.790  26.982  24.982  1.00  0.00     0.001 C 
ATOM     23  C   UNL A   1      31.979  26.999  25.924  1.00  0.00     0.001 C 
ENDBRANCH  16  19
ENDBRANCH  14  15
ENDBRANCH   8   9
ENDBRANCH   6   8
ENDBRANCH   3   4
ENDBRANCH   2   3
ENDBRANCH   1   2
BRANCH   1  24
ATOM     24  C   UNL A   1      41.752  19.678  27.186  1.00  0.00     0.002 C 
BRANCH  24  25
ATOM     25  C   UNL A   1      42.325  18.753  26.109  1.00  0.00     0.021 C 
BRANCH  25  26
ATOM     26  C   UNL A   1      43.845  18.612  26.101  1.00  0.00     0.116 C 
BRANCH  26  27
ATOM     27  N   UNL A   1      44.406  18.579  24.761  1.00  0.00    -0.352 N 
ATOM     28  C   UNL A   1      44.841  19.618  23.971  1.00  0.00     0.251 C 
ATOM     29  H   UNL A   1      44.486  17.684  24.359  1.00  0.00     0.163 HD
ATOM     30  O   UNL A   1      45.161  19.409  22.805  1.00  0.00    -0.269 OA
BRANCH  28  31
ATOM     31  C   UNL A   1      44.899  20.997  24.511  1.00  0.00     0.039 A 
ATOM     32  C   UNL A   1      45.614  21.228  25.690  1.00  0.00     0.014 A 
ATOM     33  C   UNL A   1      44.239  22.054  23.878  1.00  0.00     0.014 A 
ATOM     34  C   UNL A   1      45.713  22.524  26.202  1.00  0.00     0.010 A 
ATOM     35  C   UNL A   1      44.400  23.356  24.349  1.00  0.00     0.010 A 
ATOM     36  C   UNL A   1      45.132  23.606  25.520  1.00  0.00    -0.014 A 
BRANCH  36  37
ATOM     37  C   UNL A   1      45.263  24.997  26.030  1.00  0.00     0.031 A 
ATOM     38  C   UNL A   1      46.598  25.693  25.995  1.00  0.00     0.074 A 
ATOM     39  C   UNL A   1      44.195  25.621  26.564  1.00  0.00     0.049 A 
ATOM     40  N   UNL A   1      46.920  26.885  26.434  1.00  0.00    -0.248 NA
ATOM     41  C   UNL A   1      47.723  24.946  25.411  1.00  0.00     0.031 C 
ATOM     42  C   UNL A   1      42.853  25.050  26.692  1.00  0.00     0.029 A 
ATOM     43  N   UNL A   1      44.073  26.878  27.103  1.00  0.00    -0.354 N 
ATOM     44  C   UNL A   1      48.280  27.025  26.183  1.00  0.00     0.074 A 
ATOM     45  C   UNL A   1      48.734  25.777  25.612  1.00  0.00     0.031 C 
ATOM     46  C   UNL A   1      42.039  25.961  27.250  1.00  0.00     0.029 A 
ATOM     47  C   UNL A   1      42.806  27.165  27.553  1.00  0.00     0.049 A 
ATOM     48  H   UNL A   1      44.821  27.514  27.162  1.00  0.00     0.167 HD
ATOM     49  C   UNL A   1      49.075  28.103  26.382  1.00  0.00     0.031 A 
ATOM     50  C   UNL A   1      42.318  28.269  28.149  1.00  0.00     0.031 A 
ATOM     51  C   UNL A   1      48.630  29.348  26.949  1.00  0.00     0.049 A 
ATOM     52  C   UNL A   1      43.229  29.444  28.381  1.00  0.00     0.074 A 
ATOM     53  C   UNL A   1      49.357  30.504  27.174  1.00  0.00     0.029 A 
ATOM     54  N   UNL A   1      47.337  29.600  27.378  1.00  0.00    -0.354 N 
ATOM     55  N   UNL A   1      44.500  29.576  28.090  1.00  0.00    -0.248 NA
ATOM     56  C   UNL A   1      42.629  30.631  29.006  1.00  0.00     0.031 C 
ATOM     57  C   UNL A   1      48.513  31.442  27.776  1.00  0.00     0.029 A 
ATOM     58  C   UNL A   1      47.247  30.890  27.873  1.00  0.00     0.049 A 
ATOM     59  H   UNL A   1      46.592  28.956  27.339  1.00  0.00     0.167 HD
ATOM     60  C   UNL A   1      44.841  30.872  28.461  1.00  0.00     0.074 A 
ATOM     61  C   UNL A   1      43.639  31.488  28.981  1.00  0.00     0.031 C 
ATOM     62  C   UNL A   1      46.042  31.495  28.377  1.00  0.00     0.031 A 
BRANCH  49  63
ATOM     63  C   UNL A   1      50.518  27.981  25.971  1.00  0.00    -0.014 A 
ATOM     64  C   UNL A   1      50.928  28.312  24.670  1.00  0.00     0.009 A 
ATOM     65  C   UNL A   1      51.483  27.568  26.901  1.00  0.00     0.009 A 
ATOM     66  C   UNL A   1      52.268  28.198  24.298  1.00  0.00     0.001 A 
ATOM     67  C   UNL A   1      52.829  27.485  26.537  1.00  0.00     0.001 A 
ATOM     68  C   UNL A   1      53.219  27.790  25.233  1.00  0.00     0.000 A 
ENDBRANCH  49  63
BRANCH  50  69
ATOM     69  C   UNL A   1      40.892  28.330  28.567  1.00  0.00    -0.014 A 
ATOM     70  C   UNL A   1      39.914  28.850  27.703  1.00  0.00     0.009 A 
ATOM     71  C   UNL A   1      40.505  27.903  29.846  1.00  0.00     0.009 A 
ATOM     72  C   UNL A   1      38.590  28.979  28.126  1.00  0.00     0.001 A 
ATOM     73  C   UNL A   1      39.173  28.001  30.255  1.00  0.00     0.001 A 
ATOM     74  C   UNL A   1      38.220  28.553  29.400  1.00  0.00     0.000 A 
ENDBRANCH  50  69
BRANCH  62  75
ATOM     75  C   UNL A   1      46.099  32.935  28.806  1.00  0.00    -0.014 A 
ATOM     76  C   UNL A   1      46.435  33.300  30.118  1.00  0.00     0.009 A 
ATOM     77  C   UNL A   1      45.834  33.944  27.866  1.00  0.00     0.009 A 
ATOM     78  C   UNL A   1      46.461  34.645  30.492  1.00  0.00     0.001 A 
ATOM     79  C   UNL A   1      45.893  35.289  28.233  1.00  0.00     0.001 A 
ATOM     80  C   UNL A   1      46.194  35.638  29.549  1.00  0.00     0.000 A 
ENDBRANCH  62  75
ENDBRANCH  36  37
ENDBRANCH  28  31
ENDBRANCH  26  27
ENDBRANCH  25  26
ENDBRANCH  24  25
ENDBRANCH   1  24
TORSDOF 16
ENDMDL
MODEL 3
REMARK VINA RESULT:     -10.5      1.722      2.824
REMARK SMILES O=C(Cc1ccc(NC(=O)C2CCCC2)cc1)NCCCCCCNC(=O)c1ccc(-c2c3nc(c(-c4ccccc4)c4ccc([nH]4)c(-c4ccccc4)c4nc(c(-c5ccccc5)c5ccc2[nH]5)C=C4)C=C3)cc1
REMARK SMILES IDX 21 1 20 2 19 3 18 4 1 5 2 6 3 8 4 9 5 10 17 11 6 12 16 13
REMARK SMILES IDX 7 14 8 15 9 16 10 18 11 19 12 20 15 21 13 22 14 23 22 24
REMARK SMILES IDX 23 25 24 26 25 27 26 28 27 30 28 31 29 32 75 33 30 34 74 35
REMARK SMILES IDX 31 36 32 37 33 38 68 39 34 40 73 41 67 42 69 43 35 44 72 45
REMARK SMILES IDX 66 46 65 47 36 49 58 50 43 51 57 52 44 53 47 54 56 55 70 56
REMARK SMILES IDX 45 57 46 58 55 60 71 61 48 62 37 63 38 64 42 65 39 66 41 67
REMARK SMILES IDX 40 68 59 69 60 70 64 71 61 72 63 73 62 74 49 75 50 76 54 77
REMARK SMILES IDX 51 78 53 79 52 80
REMARK H PARENT 18 7 8 17 25 29 69 48 47 59
REMARK Flexibility Score: inf
ROOT
ATOM      1  C   UNL A   1      35.336  33.917  28.935  1.00  0.00     0.002 C 
ENDROOT
BRANCH   1   2
ATOM      2  C   UNL A   1      35.246  32.646  28.078  1.00  0.00     0.021 C 
BRANCH   2   3
ATOM      3  C   UNL A   1      34.347  31.548  28.635  1.00  0.00     0.116 C 
BRANCH   3   4
ATOM      4  N   UNL A   1      34.309  30.370  27.791  1.00  0.00    -0.356 N 
ATOM      5  O   UNL A   1      32.288  30.873  26.808  1.00  0.00    -0.275 OA
ATOM      6  C   UNL A   1      33.319  30.210  26.836  1.00  0.00     0.224 C 
ATOM      7  H   UNL A   1      34.997  29.675  27.899  1.00  0.00     0.163 HD
BRANCH   6   8
ATOM      8  C   UNL A   1      33.678  29.209  25.749  1.00  0.00     0.135 C 
BRANCH   8   9
ATOM      9  C   UNL A   1      32.473  28.692  24.985  1.00  0.00    -0.039 A 
ATOM     10  C   UNL A   1      31.530  27.846  25.581  1.00  0.00     0.006 A 
ATOM     11  C   UNL A   1      32.223  29.137  23.681  1.00  0.00     0.006 A 
ATOM     12  C   UNL A   1      30.332  27.546  24.945  1.00  0.00     0.026 A 
ATOM     13  C   UNL A   1      30.997  28.862  23.062  1.00  0.00     0.026 A 
ATOM     14  C   UNL A   1      30.003  28.174  23.758  1.00  0.00     0.041 A 
BRANCH  14  15
ATOM     15  N   UNL A   1      28.716  28.124  23.228  1.00  0.00    -0.326 N 
ATOM     16  C   UNL A   1      27.727  29.052  23.126  1.00  0.00     0.227 C 
ATOM     17  H   UNL A   1      28.474  27.245  22.856  1.00  0.00     0.169 HD
ATOM     18  O   UNL A   1      26.612  28.606  22.811  1.00  0.00    -0.274 OA
BRANCH  16  19
ATOM     19  C   UNL A   1      27.888  30.585  23.187  1.00  0.00     0.079 C 
ATOM     20  C   UNL A   1      29.029  31.350  23.842  1.00  0.00     0.013 C 
ATOM     21  C   UNL A   1      27.961  31.121  21.741  1.00  0.00     0.013 C 
ATOM     22  C   UNL A   1      28.911  32.755  23.270  1.00  0.00     0.001 C 
ATOM     23  C   UNL A   1      28.542  32.534  21.816  1.00  0.00     0.001 C 
ENDBRANCH  16  19
ENDBRANCH  14  15
ENDBRANCH   8   9
ENDBRANCH   6   8
ENDBRANCH   3   4
ENDBRANCH   2   3
ENDBRANCH   1   2
BRANCH   1  24
ATOM     24  C   UNL A   1      34.720  35.184  28.332  1.00  0.00     0.002 C 
BRANCH  24  25
ATOM     25  C   UNL A   1      33.353  35.591  28.888  1.00  0.00     0.021 C 
BRANCH  25  26
ATOM     26  C   UNL A   1      33.376  36.662  29.976  1.00  0.00     0.116 C 
BRANCH  26  27
ATOM     27  N   UNL A   1      32.376  36.444  31.009  1.00  0.00    -0.352 N 
ATOM     28  C   UNL A   1      32.431  35.635  32.120  1.00  0.00     0.251 C 
ATOM     29  H   UNL A   1      31.538  36.948  30.897  1.00  0.00     0.163 HD
ATOM     30  O   UNL A   1      31.431  35.475  32.812  1.00  0.00    -0.269 OA
BRANCH  28  31
ATOM     31  C   UNL A   1      33.686  34.931  32.472  1.00  0.00     0.039 A 
ATOM     32  C   UNL A   1      33.616  33.600  32.895  1.00  0.00     0.014 A 
ATOM     33  C   UNL A   1      34.925  35.576  32.408  1.00  0.00     0.014 A 
ATOM     34  C   UNL A   1      34.788  32.902  33.200  1.00  0.00     0.010 A 
ATOM     35  C   UNL A   1      36.097  34.858  32.642  1.00  0.00     0.010 A 
ATOM     36  C   UNL A   1      36.042  33.516  33.048  1.00  0.00    -0.014 A 
BRANCH  36  37
ATOM     37  C   UNL A   1      37.300  32.774  33.329  1.00  0.00     0.031 A 
ATOM     38  C   UNL A   1      38.059  33.027  34.605  1.00  0.00     0.074 A 
ATOM     39  C   UNL A   1      37.784  31.904  32.422  1.00  0.00     0.049 A 
ATOM     40  N   UNL A   1      39.196  32.513  35.006  1.00  0.00    -0.248 NA
ATOM     41  C   UNL A   1      37.478  34.000  35.543  1.00  0.00     0.031 C 
ATOM     42  C   UNL A   1      37.169  31.590  31.131  1.00  0.00     0.029 A 
ATOM     43  N   UNL A   1      38.914  31.123  32.448  1.00  0.00    -0.354 N 
ATOM     44  C   UNL A   1      39.464  33.104  36.235  1.00  0.00     0.074 A 
ATOM     45  C   UNL A   1      38.407  34.057  36.485  1.00  0.00     0.031 C 
ATOM     46  C   UNL A   1      37.914  30.668  30.501  1.00  0.00     0.029 A 
ATOM     47  C   UNL A   1      39.078  30.352  31.322  1.00  0.00     0.049 A 
ATOM     48  H   UNL A   1      39.547  31.116  33.202  1.00  0.00     0.167 HD
ATOM     49  C   UNL A   1      40.481  32.856  37.094  1.00  0.00     0.031 A 
ATOM     50  C   UNL A   1      40.058  29.492  30.985  1.00  0.00     0.031 A 
ATOM     51  C   UNL A   1      41.537  31.908  36.852  1.00  0.00     0.049 A 
ATOM     52  C   UNL A   1      41.190  29.253  31.947  1.00  0.00     0.074 A 
ATOM     53  C   UNL A   1      42.602  31.574  37.670  1.00  0.00     0.029 A 
ATOM     54  N   UNL A   1      41.657  31.139  35.706  1.00  0.00    -0.354 N 
ATOM     55  N   UNL A   1      41.399  29.783  33.128  1.00  0.00    -0.248 NA
ATOM     56  C   UNL A   1      42.211  28.279  31.536  1.00  0.00     0.031 C 
ATOM     57  C   UNL A   1      43.389  30.631  37.002  1.00  0.00     0.029 A 
ATOM     58  C   UNL A   1      42.781  30.336  35.792  1.00  0.00     0.049 A 
ATOM     59  H   UNL A   1      41.035  31.160  34.943  1.00  0.00     0.167 HD
ATOM     60  C   UNL A   1      42.553  29.179  33.615  1.00  0.00     0.074 A 
ATOM     61  C   UNL A   1      42.986  28.232  32.609  1.00  0.00     0.031 C 
ATOM     62  C   UNL A   1      43.195  29.390  34.789  1.00  0.00     0.031 A 
BRANCH  49  63
ATOM     63  C   UNL A   1      40.495  33.625  38.388  1.00  0.00    -0.014 A 
ATOM     64  C   UNL A   1      39.777  33.169  39.505  1.00  0.00     0.009 A 
ATOM     65  C   UNL A   1      41.261  34.794  38.506  1.00  0.00     0.009 A 
ATOM     66  C   UNL A   1      39.797  33.887  40.702  1.00  0.00     0.001 A 
ATOM     67  C   UNL A   1      41.305  35.494  39.713  1.00  0.00     0.001 A 
ATOM     68  C   UNL A   1      40.565  35.046  40.807  1.00  0.00     0.000 A 
ENDBRANCH  49  63
BRANCH  50  69
ATOM     69  C   UNL A   1      40.017  28.780  29.681  1.00  0.00    -0.014 A 
ATOM     70  C   UNL A   1      39.432  27.507  29.577  1.00  0.00     0.009 A 
ATOM     71  C   UNL A   1      40.596  29.352  28.538  1.00  0.00     0.009 A 
ATOM     72  C   UNL A   1      39.464  26.807  28.369  1.00  0.00     0.001 A 
ATOM     73  C   UNL A   1      40.598  28.664  27.322  1.00  0.00     0.001 A 
ATOM     74  C   UNL A   1      40.046  27.387  27.242  1.00  0.00     0.000 A 
ENDBRANCH  50  69
BRANCH  62  75
ATOM     75  C   UNL A   1      44.402  28.539  35.075  1.00  0.00    -0.014 A 
ATOM     76  C   UNL A   1      45.694  28.949  34.714  1.00  0.00     0.009 A 
ATOM     77  C   UNL A   1      44.239  27.313  35.740  1.00  0.00     0.009 A 
ATOM     78  C   UNL A   1      46.793  28.128  34.974  1.00  0.00     0.001 A 
ATOM     79  C   UNL A   1      45.342  26.510  36.029  1.00  0.00     0.001 A 
ATOM     80  C   UNL A   1      46.617  26.912  35.635  1.00  0.00     0.000 A 
ENDBRANCH  62  75
ENDBRANCH  36  37
ENDBRANCH  28  31
ENDBRANCH  26  27
ENDBRANCH  25  26
ENDBRANCH  24  25
ENDBRANCH   1  24
TORSDOF 16
ENDMDL
