MODEL 1
REMARK VINA RESULT:     -12.4      0.000      0.000
REMARK SMILES NS(=O)(=O)c1ccc(C#Cc2cc(Cl)cc3c2O[C@H](C(F)(F)F)C(C(=O)NCCCCCCNC(=O)c2ccc(-c4c5nc(c(-c6ccccc6)c6ccc([nH]6)c(-c6ccccc6)c6nc(c(-c7ccccc7)c7ccc4[nH]7)C=C6)C=C5)cc2)=C3)cc1
REMARK SMILES IDX 29 1 28 2 27 3 25 4 26 5 24 7 11 8 12 9 17 10 13 11 16 12
REMARK SMILES IDX 18 13 14 14 15 15 85 16 19 17 10 18 9 19 8 20 5 21 6 22
REMARK SMILES IDX 87 23 7 24 86 25 2 26 3 27 4 28 1 29 20 32 21 33 22 34 23 35
REMARK SMILES IDX 30 36 31 37 32 38 33 39 34 40 35 41 36 43 37 44 38 45 84 46
REMARK SMILES IDX 39 47 83 48 40 49 41 50 42 51 77 52 43 53 82 54 76 55 78 56
REMARK SMILES IDX 44 57 81 58 75 59 74 60 45 62 67 63 52 64 66 65 53 66 56 67
REMARK SMILES IDX 65 68 79 69 54 70 55 71 64 73 80 74 57 75 46 76 47 77 51 78
REMARK SMILES IDX 48 79 50 80 49 81 68 82 69 83 73 84 70 85 72 86 71 87 58 88
REMARK SMILES IDX 59 89 63 90 60 91 62 92 61 93
REMARK H PARENT 27 6 1 30 1 31 34 42 78 61 56 72
REMARK Flexibility Score: inf
ROOT
ATOM      1  C   UNL A   1      32.518  20.572  24.631  1.00  0.00     0.021 C 
ENDROOT
BRANCH   1   2
ATOM      2  C   UNL A   1      31.664  21.829  24.532  1.00  0.00     0.116 C 
BRANCH   2   3
ATOM      3  N   UNL A   1      31.012  22.136  25.792  1.00  0.00    -0.352 N 
ATOM      4  C   UNL A   1      30.712  23.243  26.512  1.00  0.00     0.251 C 
ATOM      5  O   UNL A   1      30.096  23.048  27.564  1.00  0.00    -0.270 OA
ATOM      6  H   UNL A   1      30.706  21.319  26.248  1.00  0.00     0.163 HD
BRANCH   4   7
ATOM      7  C   UNL A   1      31.078  24.636  26.117  1.00  0.00     0.067 C 
ATOM      8  C   UNL A   1      31.833  28.677  25.239  1.00  0.00     0.069 A 
ATOM      9  C   UNL A   1      31.114  29.313  24.230  1.00  0.00     0.041 A 
ATOM     10  C   UNL A   1      31.567  27.332  25.530  1.00  0.00     0.143 A 
ATOM     11  C   UNL A   1      30.126  28.608  23.541  1.00  0.00     0.043 A 
ATOM     12  C   UNL A   1      30.563  26.629  24.856  1.00  0.00     0.020 A 
ATOM     13  O   UNL A   1      32.297  26.767  26.534  1.00  0.00    -0.474 OA
ATOM     14  Cl  UNL A   1      29.231  29.398  22.300  1.00  0.00    -0.084 Cl
ATOM     15  C   UNL A   1      29.840  27.275  23.852  1.00  0.00     0.032 A 
ATOM     16  C   UNL A   1      30.251  25.260  25.258  1.00  0.00     0.025 C 
ATOM     17  C   UNL A   1      32.311  25.327  26.610  1.00  0.00     0.314 C 
BRANCH   8  18
ATOM     18  C   UNL A   1      32.827  29.388  25.989  1.00  0.00    -0.058 C 
ATOM     19  C   UNL A   1      33.595  30.018  26.672  1.00  0.00    -0.062 C 
BRANCH  19  20
ATOM     20  C   UNL A   1      34.487  30.751  27.514  1.00  0.00     0.025 A 
ATOM     21  C   UNL A   1      36.223  32.280  29.080  1.00  0.00     0.082 A 
ATOM     22  C   UNL A   1      36.731  31.244  28.290  1.00  0.00     0.023 A 
ATOM     23  C   UNL A   1      34.850  32.538  29.114  1.00  0.00     0.023 A 
ATOM     24  C   UNL A   1      35.860  30.479  27.507  1.00  0.00     0.018 A 
ATOM     25  C   UNL A   1      33.985  31.771  28.328  1.00  0.00     0.018 A 
BRANCH  21  26
ATOM     26  S   UNL A   1      37.373  33.290  29.966  1.00  0.00     0.238 S 
ATOM     27  O   UNL A   1      38.687  32.714  29.810  1.00  0.00    -0.207 OA
ATOM     28  O   UNL A   1      36.802  33.609  31.253  1.00  0.00    -0.207 OA
BRANCH  26  29
ATOM     29  N   UNL A   1      37.422  34.742  29.119  1.00  0.00    -0.225 NA
ATOM     30  H   UNL A   1      38.344  35.164  29.220  1.00  0.00     0.137 HD
ATOM     31  H   UNL A   1      36.715  35.377  29.492  1.00  0.00     0.137 HD
ENDBRANCH  26  29
ENDBRANCH  21  26
ENDBRANCH  19  20
ENDBRANCH   8  18
BRANCH  17  32
ATOM     32  C   UNL A   1      33.592  24.782  25.949  1.00  0.00     0.429 C 
ATOM     33  F   UNL A   1      34.100  23.754  26.674  1.00  0.00    -0.167 F 
ATOM     34  F   UNL A   1      33.373  24.297  24.704  1.00  0.00    -0.167 F 
ATOM     35  F   UNL A   1      34.558  25.723  25.839  1.00  0.00    -0.167 F 
ENDBRANCH  17  32
ENDBRANCH   4   7
ENDBRANCH   2   3
ENDBRANCH   1   2
BRANCH   1  36
ATOM     36  C   UNL A   1      33.653  20.708  25.648  1.00  0.00     0.002 C 
BRANCH  36  37
ATOM     37  C   UNL A   1      35.063  20.599  25.050  1.00  0.00     0.002 C 
BRANCH  37  38
ATOM     38  C   UNL A   1      35.558  21.864  24.347  1.00  0.00     0.021 C 
BRANCH  38  39
ATOM     39  C   UNL A   1      37.069  22.027  24.386  1.00  0.00     0.116 C 
BRANCH  39  40
ATOM     40  N   UNL A   1      37.736  20.820  24.854  1.00  0.00    -0.352 N 
ATOM     41  C   UNL A   1      38.857  20.703  25.638  1.00  0.00     0.251 C 
ATOM     42  H   UNL A   1      37.325  19.971  24.569  1.00  0.00     0.163 HD
ATOM     43  O   UNL A   1      39.418  19.625  25.782  1.00  0.00    -0.269 OA
BRANCH  41  44
ATOM     44  C   UNL A   1      39.395  21.921  26.269  1.00  0.00     0.039 A 
ATOM     45  C   UNL A   1      38.720  23.134  26.113  1.00  0.00     0.014 A 
ATOM     46  C   UNL A   1      40.626  21.865  26.921  1.00  0.00     0.014 A 
ATOM     47  C   UNL A   1      39.371  24.317  26.425  1.00  0.00     0.010 A 
ATOM     48  C   UNL A   1      41.229  23.053  27.336  1.00  0.00     0.010 A 
ATOM     49  C   UNL A   1      40.635  24.290  27.039  1.00  0.00    -0.014 A 
BRANCH  49  50
ATOM     50  C   UNL A   1      41.324  25.562  27.365  1.00  0.00     0.031 A 
ATOM     51  C   UNL A   1      42.624  25.924  26.702  1.00  0.00     0.074 A 
ATOM     52  C   UNL A   1      40.756  26.403  28.252  1.00  0.00     0.049 A 
ATOM     53  N   UNL A   1      43.392  26.963  26.915  1.00  0.00    -0.248 NA
ATOM     54  C   UNL A   1      43.133  25.007  25.669  1.00  0.00     0.031 C 
ATOM     55  C   UNL A   1      39.473  26.177  28.921  1.00  0.00     0.029 A 
ATOM     56  N   UNL A   1      41.174  27.617  28.733  1.00  0.00    -0.354 N 
ATOM     57  C   UNL A   1      44.479  26.813  26.063  1.00  0.00     0.074 A 
ATOM     58  C   UNL A   1      44.292  25.569  25.350  1.00  0.00     0.031 C 
ATOM     59  C   UNL A   1      39.190  27.235  29.693  1.00  0.00     0.029 A 
ATOM     60  C   UNL A   1      40.310  28.167  29.649  1.00  0.00     0.049 A 
ATOM     61  H   UNL A   1      42.011  28.052  28.450  1.00  0.00     0.167 HD
ATOM     62  C   UNL A   1      45.531  27.647  25.890  1.00  0.00     0.031 A 
ATOM     63  C   UNL A   1      40.416  29.279  30.401  1.00  0.00     0.031 A 
ATOM     64  C   UNL A   1      45.696  28.888  26.602  1.00  0.00     0.049 A 
ATOM     65  C   UNL A   1      41.635  30.143  30.253  1.00  0.00     0.074 A 
ATOM     66  C   UNL A   1      46.719  29.813  26.479  1.00  0.00     0.029 A 
ATOM     67  N   UNL A   1      44.825  29.379  27.563  1.00  0.00    -0.354 N 
ATOM     68  N   UNL A   1      42.651  29.995  29.438  1.00  0.00    -0.248 NA
ATOM     69  C   UNL A   1      41.725  31.327  31.118  1.00  0.00     0.031 C 
ATOM     70  C   UNL A   1      46.518  30.811  27.430  1.00  0.00     0.029 A 
ATOM     71  C   UNL A   1      45.312  30.572  28.070  1.00  0.00     0.049 A 
ATOM     72  H   UNL A   1      43.986  28.946  27.841  1.00  0.00     0.167 HD
ATOM     73  C   UNL A   1      43.484  31.081  29.667  1.00  0.00     0.074 A 
ATOM     74  C   UNL A   1      42.851  31.887  30.691  1.00  0.00     0.031 C 
ATOM     75  C   UNL A   1      44.668  31.378  29.078  1.00  0.00     0.031 A 
BRANCH  62  76
ATOM     76  C   UNL A   1      46.608  27.264  24.909  1.00  0.00    -0.014 A 
ATOM     77  C   UNL A   1      47.555  26.287  25.264  1.00  0.00     0.009 A 
ATOM     78  C   UNL A   1      46.777  27.956  23.701  1.00  0.00     0.009 A 
ATOM     79  C   UNL A   1      48.662  26.036  24.451  1.00  0.00     0.001 A 
ATOM     80  C   UNL A   1      47.866  27.676  22.870  1.00  0.00     0.001 A 
ATOM     81  C   UNL A   1      48.815  26.729  23.253  1.00  0.00     0.000 A 
ENDBRANCH  62  76
BRANCH  63  82
ATOM     82  C   UNL A   1      39.320  29.616  31.351  1.00  0.00    -0.014 A 
ATOM     83  C   UNL A   1      39.596  29.831  32.714  1.00  0.00     0.009 A 
ATOM     84  C   UNL A   1      37.986  29.639  30.922  1.00  0.00     0.009 A 
ATOM     85  C   UNL A   1      38.559  30.012  33.630  1.00  0.00     0.001 A 
ATOM     86  C   UNL A   1      36.953  29.863  31.836  1.00  0.00     0.001 A 
ATOM     87  C   UNL A   1      37.238  30.033  33.190  1.00  0.00     0.000 A 
ENDBRANCH  63  82
BRANCH  75  88
ATOM     88  C   UNL A   1      45.373  32.646  29.480  1.00  0.00    -0.014 A 
ATOM     89  C   UNL A   1      45.148  33.824  28.747  1.00  0.00     0.009 A 
ATOM     90  C   UNL A   1      46.372  32.641  30.464  1.00  0.00     0.009 A 
ATOM     91  C   UNL A   1      45.937  34.954  28.958  1.00  0.00     0.001 A 
ATOM     92  C   UNL A   1      47.135  33.787  30.701  1.00  0.00     0.001 A 
ATOM     93  C   UNL A   1      46.930  34.936  29.935  1.00  0.00     0.000 A 
ENDBRANCH  75  88
ENDBRANCH  49  50
ENDBRANCH  41  44
ENDBRANCH  39  40
ENDBRANCH  38  39
ENDBRANCH  37  38
ENDBRANCH  36  37
ENDBRANCH   1  36
TORSDOF 18
ENDMDL
MODEL 2
REMARK VINA RESULT:     -12.4      0.404      5.564
REMARK SMILES NS(=O)(=O)c1ccc(C#Cc2cc(Cl)cc3c2O[C@H](C(F)(F)F)C(C(=O)NCCCCCCNC(=O)c2ccc(-c4c5nc(c(-c6ccccc6)c6ccc([nH]6)c(-c6ccccc6)c6nc(c(-c7ccccc7)c7ccc4[nH]7)C=C6)C=C5)cc2)=C3)cc1
REMARK SMILES IDX 29 1 28 2 27 3 25 4 26 5 24 7 11 8 12 9 17 10 13 11 16 12
REMARK SMILES IDX 18 13 14 14 15 15 85 16 19 17 10 18 9 19 8 20 5 21 6 22
REMARK SMILES IDX 87 23 7 24 86 25 2 26 3 27 4 28 1 29 20 32 21 33 22 34 23 35
REMARK SMILES IDX 30 36 31 37 32 38 33 39 34 40 35 41 36 43 37 44 38 45 84 46
REMARK SMILES IDX 39 47 83 48 40 49 41 50 42 51 77 52 43 53 82 54 76 55 78 56
REMARK SMILES IDX 44 57 81 58 75 59 74 60 45 62 67 63 52 64 66 65 53 66 56 67
REMARK SMILES IDX 65 68 79 69 54 70 55 71 64 73 80 74 57 75 46 76 47 77 51 78
REMARK SMILES IDX 48 79 50 80 49 81 68 82 69 83 73 84 70 85 72 86 71 87 58 88
REMARK SMILES IDX 59 89 63 90 60 91 62 92 61 93
REMARK H PARENT 27 6 1 30 1 31 34 42 78 61 56 72
REMARK Flexibility Score: inf
ROOT
ATOM      1  C   UNL A   1      32.594  20.626  24.439  1.00  0.00     0.021 C 
ENDROOT
BRANCH   1   2
ATOM      2  C   UNL A   1      31.820  21.936  24.438  1.00  0.00     0.116 C 
BRANCH   2   3
ATOM      3  N   UNL A   1      31.171  22.178  25.714  1.00  0.00    -0.352 N 
ATOM      4  C   UNL A   1      30.799  23.251  26.452  1.00  0.00     0.251 C 
ATOM      5  O   UNL A   1      30.222  22.997  27.513  1.00  0.00    -0.270 OA
ATOM      6  H   UNL A   1      30.940  21.335  26.166  1.00  0.00     0.163 HD
BRANCH   4   7
ATOM      7  C   UNL A   1      31.046  24.672  26.067  1.00  0.00     0.067 C 
ATOM      8  C   UNL A   1      31.448  28.767  25.206  1.00  0.00     0.069 A 
ATOM      9  C   UNL A   1      30.705  29.335  24.174  1.00  0.00     0.041 A 
ATOM     10  C   UNL A   1      31.300  27.403  25.491  1.00  0.00     0.143 A 
ATOM     11  C   UNL A   1      29.808  28.543  23.457  1.00  0.00     0.043 A 
ATOM     12  C   UNL A   1      30.387  26.611  24.788  1.00  0.00     0.020 A 
ATOM     13  O   UNL A   1      32.049  26.907  26.517  1.00  0.00    -0.474 OA
ATOM     14  Cl  UNL A   1      28.881  29.248  22.189  1.00  0.00    -0.084 Cl
ATOM     15  C   UNL A   1      29.637  27.188  23.762  1.00  0.00     0.032 A 
ATOM     16  C   UNL A   1      30.191  25.218  25.182  1.00  0.00     0.025 C 
ATOM     17  C   UNL A   1      32.194  25.474  26.596  1.00  0.00     0.314 C 
BRANCH   8  18
ATOM     18  C   UNL A   1      32.349  29.567  25.985  1.00  0.00    -0.058 C 
ATOM     19  C   UNL A   1      33.174  30.194  26.599  1.00  0.00    -0.062 C 
BRANCH  19  20
ATOM     20  C   UNL A   1      34.174  30.944  27.294  1.00  0.00     0.025 A 
ATOM     21  C   UNL A   1      36.106  32.338  28.752  1.00  0.00     0.082 A 
ATOM     22  C   UNL A   1      34.859  32.925  28.512  1.00  0.00     0.023 A 
ATOM     23  C   UNL A   1      36.402  31.071  28.244  1.00  0.00     0.023 A 
ATOM     24  C   UNL A   1      33.893  32.226  27.781  1.00  0.00     0.018 A 
ATOM     25  C   UNL A   1      35.432  30.376  27.516  1.00  0.00     0.018 A 
BRANCH  21  26
ATOM     26  S   UNL A   1      37.253  33.213  29.775  1.00  0.00     0.238 S 
ATOM     27  O   UNL A   1      38.565  32.651  29.559  1.00  0.00    -0.207 OA
ATOM     28  O   UNL A   1      36.670  33.366  31.086  1.00  0.00    -0.207 OA
BRANCH  26  29
ATOM     29  N   UNL A   1      37.323  34.763  29.126  1.00  0.00    -0.225 NA
ATOM     30  H   UNL A   1      37.746  35.396  29.803  1.00  0.00     0.137 HD
ATOM     31  H   UNL A   1      36.379  35.081  28.905  1.00  0.00     0.137 HD
ENDBRANCH  26  29
ENDBRANCH  21  26
ENDBRANCH  19  20
ENDBRANCH   8  18
BRANCH  17  32
ATOM     32  C   UNL A   1      33.539  25.052  25.975  1.00  0.00     0.429 C 
ATOM     33  F   UNL A   1      33.978  23.897  26.534  1.00  0.00    -0.167 F 
ATOM     34  F   UNL A   1      33.451  24.818  24.644  1.00  0.00    -0.167 F 
ATOM     35  F   UNL A   1      34.504  25.984  26.146  1.00  0.00    -0.167 F 
ENDBRANCH  17  32
ENDBRANCH   4   7
ENDBRANCH   2   3
ENDBRANCH   1   2
BRANCH   1  36
ATOM     36  C   UNL A   1      33.675  20.580  25.521  1.00  0.00     0.002 C 
BRANCH  36  37
ATOM     37  C   UNL A   1      35.115  20.584  24.986  1.00  0.00     0.002 C 
BRANCH  37  38
ATOM     38  C   UNL A   1      35.573  21.919  24.398  1.00  0.00     0.021 C 
BRANCH  38  39
ATOM     39  C   UNL A   1      37.080  22.117  24.447  1.00  0.00     0.116 C 
BRANCH  39  40
ATOM     40  N   UNL A   1      37.774  20.914  24.885  1.00  0.00    -0.352 N 
ATOM     41  C   UNL A   1      38.893  20.803  25.673  1.00  0.00     0.251 C 
ATOM     42  H   UNL A   1      37.387  20.063  24.574  1.00  0.00     0.163 HD
ATOM     43  O   UNL A   1      39.480  19.736  25.792  1.00  0.00    -0.269 OA
BRANCH  41  44
ATOM     44  C   UNL A   1      39.395  22.016  26.343  1.00  0.00     0.039 A 
ATOM     45  C   UNL A   1      38.774  23.244  26.102  1.00  0.00     0.014 A 
ATOM     46  C   UNL A   1      40.550  21.938  27.120  1.00  0.00     0.014 A 
ATOM     47  C   UNL A   1      39.422  24.414  26.467  1.00  0.00     0.010 A 
ATOM     48  C   UNL A   1      41.139  23.116  27.581  1.00  0.00     0.010 A 
ATOM     49  C   UNL A   1      40.613  24.363  27.209  1.00  0.00    -0.014 A 
BRANCH  49  50
ATOM     50  C   UNL A   1      41.299  25.622  27.590  1.00  0.00     0.031 A 
ATOM     51  C   UNL A   1      40.679  26.564  28.584  1.00  0.00     0.074 A 
ATOM     52  C   UNL A   1      42.501  25.900  27.047  1.00  0.00     0.049 A 
ATOM     53  N   UNL A   1      41.109  27.735  28.982  1.00  0.00    -0.248 NA
ATOM     54  C   UNL A   1      39.414  26.147  29.212  1.00  0.00     0.031 C 
ATOM     55  C   UNL A   1      43.219  25.036  26.109  1.00  0.00     0.029 A 
ATOM     56  N   UNL A   1      43.334  26.976  27.214  1.00  0.00    -0.354 N 
ATOM     57  C   UNL A   1      40.162  28.200  29.886  1.00  0.00     0.074 A 
ATOM     58  C   UNL A   1      39.117  27.204  29.958  1.00  0.00     0.031 C 
ATOM     59  C   UNL A   1      44.400  25.595  25.815  1.00  0.00     0.029 A 
ATOM     60  C   UNL A   1      44.483  26.898  26.466  1.00  0.00     0.049 A 
ATOM     61  H   UNL A   1      43.128  27.732  27.811  1.00  0.00     0.167 HD
ATOM     62  C   UNL A   1      40.174  29.353  30.596  1.00  0.00     0.031 A 
ATOM     63  C   UNL A   1      45.481  27.785  26.288  1.00  0.00     0.031 A 
ATOM     64  C   UNL A   1      41.229  30.330  30.520  1.00  0.00     0.049 A 
ATOM     65  C   UNL A   1      45.428  29.094  27.022  1.00  0.00     0.074 A 
ATOM     66  C   UNL A   1      41.342  31.520  31.218  1.00  0.00     0.029 A 
ATOM     67  N   UNL A   1      42.347  30.236  29.706  1.00  0.00    -0.354 N 
ATOM     68  N   UNL A   1      44.532  29.517  27.880  1.00  0.00    -0.248 NA
ATOM     69  C   UNL A   1      46.518  30.045  26.771  1.00  0.00     0.031 C 
ATOM     70  C   UNL A   1      42.474  32.189  30.757  1.00  0.00     0.029 A 
ATOM     71  C   UNL A   1      43.131  31.368  29.853  1.00  0.00     0.049 A 
ATOM     72  H   UNL A   1      42.555  29.478  29.113  1.00  0.00     0.167 HD
ATOM     73  C   UNL A   1      44.965  30.768  28.296  1.00  0.00     0.074 A 
ATOM     74  C   UNL A   1      46.211  31.031  27.605  1.00  0.00     0.031 C 
ATOM     75  C   UNL A   1      44.379  31.617  29.174  1.00  0.00     0.031 A 
BRANCH  62  76
ATOM     76  C   UNL A   1      39.018  29.653  31.514  1.00  0.00    -0.014 A 
ATOM     77  C   UNL A   1      37.706  29.630  31.009  1.00  0.00     0.009 A 
ATOM     78  C   UNL A   1      39.224  30.092  32.831  1.00  0.00     0.009 A 
ATOM     79  C   UNL A   1      36.633  30.071  31.786  1.00  0.00     0.001 A 
ATOM     80  C   UNL A   1      38.144  30.497  33.620  1.00  0.00     0.001 A 
ATOM     81  C   UNL A   1      36.853  30.502  33.092  1.00  0.00     0.000 A 
ENDBRANCH  62  76
BRANCH  63  82
ATOM     82  C   UNL A   1      46.603  27.436  25.374  1.00  0.00    -0.014 A 
ATOM     83  C   UNL A   1      46.649  27.955  24.068  1.00  0.00     0.009 A 
ATOM     84  C   UNL A   1      47.585  26.517  25.769  1.00  0.00     0.009 A 
ATOM     85  C   UNL A   1      47.623  27.526  23.164  1.00  0.00     0.001 A 
ATOM     86  C   UNL A   1      48.584  26.122  24.875  1.00  0.00     0.001 A 
ATOM     87  C   UNL A   1      48.593  26.614  23.570  1.00  0.00     0.000 A 
ENDBRANCH  63  82
BRANCH  75  88
ATOM     88  C   UNL A   1      45.071  32.917  29.490  1.00  0.00    -0.014 A 
ATOM     89  C   UNL A   1      45.922  32.993  30.606  1.00  0.00     0.009 A 
ATOM     90  C   UNL A   1      44.760  34.094  28.793  1.00  0.00     0.009 A 
ATOM     91  C   UNL A   1      46.408  34.223  31.047  1.00  0.00     0.001 A 
ATOM     92  C   UNL A   1      45.281  35.320  29.213  1.00  0.00     0.001 A 
ATOM     93  C   UNL A   1      46.088  35.386  30.350  1.00  0.00     0.000 A 
ENDBRANCH  75  88
ENDBRANCH  49  50
ENDBRANCH  41  44
ENDBRANCH  39  40
ENDBRANCH  38  39
ENDBRANCH  37  38
ENDBRANCH  36  37
ENDBRANCH   1  36
TORSDOF 18
ENDMDL
MODEL 3
REMARK VINA RESULT:     -12.0      3.312      6.167
REMARK SMILES NS(=O)(=O)c1ccc(C#Cc2cc(Cl)cc3c2O[C@H](C(F)(F)F)C(C(=O)NCCCCCCNC(=O)c2ccc(-c4c5nc(c(-c6ccccc6)c6ccc([nH]6)c(-c6ccccc6)c6nc(c(-c7ccccc7)c7ccc4[nH]7)C=C6)C=C5)cc2)=C3)cc1
REMARK SMILES IDX 29 1 28 2 27 3 25 4 26 5 24 7 11 8 12 9 17 10 13 11 16 12
REMARK SMILES IDX 18 13 14 14 15 15 85 16 19 17 10 18 9 19 8 20 5 21 6 22
REMARK SMILES IDX 87 23 7 24 86 25 2 26 3 27 4 28 1 29 20 32 21 33 22 34 23 35
REMARK SMILES IDX 30 36 31 37 32 38 33 39 34 40 35 41 36 43 37 44 38 45 84 46
REMARK SMILES IDX 39 47 83 48 40 49 41 50 42 51 77 52 43 53 82 54 76 55 78 56
REMARK SMILES IDX 44 57 81 58 75 59 74 60 45 62 67 63 52 64 66 65 53 66 56 67
REMARK SMILES IDX 65 68 79 69 54 70 55 71 64 73 80 74 57 75 46 76 47 77 51 78
REMARK SMILES IDX 48 79 50 80 49 81 68 82 69 83 73 84 70 85 72 86 71 87 58 88
REMARK SMILES IDX 59 89 63 90 60 91 62 92 61 93
REMARK H PARENT 27 6 1 30 1 31 34 42 78 61 56 72
REMARK Flexibility Score: inf
ROOT
ATOM      1  C   UNL A   1      33.282  20.583  24.687  1.00  0.00     0.021 C 
ENDROOT
BRANCH   1   2
ATOM      2  C   UNL A   1      32.289  21.719  24.486  1.00  0.00     0.116 C 
BRANCH   2   3
ATOM      3  N   UNL A   1      31.468  21.930  25.666  1.00  0.00    -0.352 N 
ATOM      4  C   UNL A   1      30.984  22.985  26.363  1.00  0.00     0.251 C 
ATOM      5  O   UNL A   1      30.271  22.706  27.331  1.00  0.00    -0.270 OA
ATOM      6  H   UNL A   1      31.189  21.076  26.068  1.00  0.00     0.163 HD
BRANCH   4   7
ATOM      7  C   UNL A   1      31.262  24.416  26.039  1.00  0.00     0.067 C 
ATOM      8  C   UNL A   1      31.755  28.534  25.353  1.00  0.00     0.069 A 
ATOM      9  C   UNL A   1      31.025  29.162  24.347  1.00  0.00     0.041 A 
ATOM     10  C   UNL A   1      31.577  27.162  25.579  1.00  0.00     0.143 A 
ATOM     11  C   UNL A   1      30.111  28.420  23.596  1.00  0.00     0.043 A 
ATOM     12  C   UNL A   1      30.647  26.421  24.844  1.00  0.00     0.020 A 
ATOM     13  O   UNL A   1      32.314  26.607  26.583  1.00  0.00    -0.474 OA
ATOM     14  Cl  UNL A   1      29.201  29.198  22.359  1.00  0.00    -0.084 Cl
ATOM     15  C   UNL A   1      29.910  27.058  23.843  1.00  0.00     0.032 A 
ATOM     16  C   UNL A   1      30.420  25.017  25.178  1.00  0.00     0.025 C 
ATOM     17  C   UNL A   1      32.427  25.169  26.601  1.00  0.00     0.314 C 
BRANCH   8  18
ATOM     18  C   UNL A   1      32.672  29.280  26.165  1.00  0.00    -0.058 C 
ATOM     19  C   UNL A   1      33.492  29.920  26.772  1.00  0.00    -0.062 C 
BRANCH  19  20
ATOM     20  C   UNL A   1      34.464  30.708  27.464  1.00  0.00     0.025 A 
ATOM     21  C   UNL A   1      36.332  32.189  28.921  1.00  0.00     0.082 A 
ATOM     22  C   UNL A   1      35.131  32.786  28.521  1.00  0.00     0.023 A 
ATOM     23  C   UNL A   1      36.616  30.867  28.572  1.00  0.00     0.023 A 
ATOM     24  C   UNL A   1      34.197  32.043  27.791  1.00  0.00     0.018 A 
ATOM     25  C   UNL A   1      35.678  30.129  27.844  1.00  0.00     0.018 A 
BRANCH  21  26
ATOM     26  S   UNL A   1      37.431  33.132  29.936  1.00  0.00     0.238 S 
ATOM     27  O   UNL A   1      38.745  32.542  29.842  1.00  0.00    -0.207 OA
ATOM     28  O   UNL A   1      36.775  33.395  31.195  1.00  0.00    -0.207 OA
BRANCH  26  29
ATOM     29  N   UNL A   1      37.559  34.625  29.171  1.00  0.00    -0.225 NA
ATOM     30  H   UNL A   1      36.781  35.220  29.454  1.00  0.00     0.137 HD
ATOM     31  H   UNL A   1      37.536  34.492  28.161  1.00  0.00     0.137 HD
ENDBRANCH  26  29
ENDBRANCH  21  26
ENDBRANCH  19  20
ENDBRANCH   8  18
BRANCH  17  32
ATOM     32  C   UNL A   1      33.764  24.744  25.962  1.00  0.00     0.429 C 
ATOM     33  F   UNL A   1      34.343  23.755  26.687  1.00  0.00    -0.167 F 
ATOM     34  F   UNL A   1      33.613  24.256  24.709  1.00  0.00    -0.167 F 
ATOM     35  F   UNL A   1      34.647  25.765  25.882  1.00  0.00    -0.167 F 
ENDBRANCH  17  32
ENDBRANCH   4   7
ENDBRANCH   2   3
ENDBRANCH   1   2
BRANCH   1  36
ATOM     36  C   UNL A   1      34.441  20.968  25.609  1.00  0.00     0.002 C 
BRANCH  36  37
ATOM     37  C   UNL A   1      35.836  20.767  24.999  1.00  0.00     0.002 C 
BRANCH  37  38
ATOM     38  C   UNL A   1      36.631  22.055  24.784  1.00  0.00     0.021 C 
BRANCH  38  39
ATOM     39  C   UNL A   1      38.029  22.010  25.379  1.00  0.00     0.116 C 
BRANCH  39  40
ATOM     40  N   UNL A   1      38.493  20.643  25.579  1.00  0.00    -0.352 N 
ATOM     41  C   UNL A   1      39.770  20.190  25.797  1.00  0.00     0.251 C 
ATOM     42  H   UNL A   1      37.794  19.950  25.555  1.00  0.00     0.163 HD
ATOM     43  O   UNL A   1      40.036  18.996  25.745  1.00  0.00    -0.269 OA
BRANCH  41  44
ATOM     44  C   UNL A   1      40.828  21.184  26.054  1.00  0.00     0.039 A 
ATOM     45  C   UNL A   1      42.168  20.814  25.922  1.00  0.00     0.014 A 
ATOM     46  C   UNL A   1      40.477  22.447  26.529  1.00  0.00     0.014 A 
ATOM     47  C   UNL A   1      43.152  21.630  26.460  1.00  0.00     0.010 A 
ATOM     48  C   UNL A   1      41.480  23.311  26.967  1.00  0.00     0.010 A 
ATOM     49  C   UNL A   1      42.819  22.887  26.990  1.00  0.00    -0.014 A 
BRANCH  49  50
ATOM     50  C   UNL A   1      43.879  23.749  27.565  1.00  0.00     0.031 A 
ATOM     51  C   UNL A   1      44.070  23.843  29.054  1.00  0.00     0.074 A 
ATOM     52  C   UNL A   1      44.686  24.435  26.732  1.00  0.00     0.049 A 
ATOM     53  N   UNL A   1      44.904  24.594  29.728  1.00  0.00    -0.248 NA
ATOM     54  C   UNL A   1      43.219  22.988  29.899  1.00  0.00     0.031 C 
ATOM     55  C   UNL A   1      44.623  24.384  25.270  1.00  0.00     0.029 A 
ATOM     56  N   UNL A   1      45.722  25.296  26.991  1.00  0.00    -0.354 N 
ATOM     57  C   UNL A   1      44.663  24.320  31.069  1.00  0.00     0.074 A 
ATOM     58  C   UNL A   1      43.587  23.357  31.120  1.00  0.00     0.031 C 
ATOM     59  C   UNL A   1      45.602  25.144  24.763  1.00  0.00     0.029 A 
ATOM     60  C   UNL A   1      46.300  25.811  25.856  1.00  0.00     0.049 A 
ATOM     61  H   UNL A   1      46.021  25.523  27.902  1.00  0.00     0.167 HD
ATOM     62  C   UNL A   1      45.295  24.824  32.155  1.00  0.00     0.031 A 
ATOM     63  C   UNL A   1      47.259  26.744  25.702  1.00  0.00     0.031 A 
ATOM     64  C   UNL A   1      46.375  25.775  32.086  1.00  0.00     0.049 A 
ATOM     65  C   UNL A   1      47.885  27.350  26.925  1.00  0.00     0.074 A 
ATOM     66  C   UNL A   1      47.094  26.327  33.132  1.00  0.00     0.029 A 
ATOM     67  N   UNL A   1      46.890  26.313  30.917  1.00  0.00    -0.354 N 
ATOM     68  N   UNL A   1      47.655  27.076  28.186  1.00  0.00    -0.248 NA
ATOM     69  C   UNL A   1      48.902  28.388  26.710  1.00  0.00     0.031 C 
ATOM     70  C   UNL A   1      47.975  27.268  32.603  1.00  0.00     0.029 A 
ATOM     71  C   UNL A   1      47.888  27.224  31.221  1.00  0.00     0.049 A 
ATOM     72  H   UNL A   1      46.593  26.082  30.007  1.00  0.00     0.167 HD
ATOM     73  C   UNL A   1      48.520  27.881  28.914  1.00  0.00     0.074 A 
ATOM     74  C   UNL A   1      49.287  28.648  27.954  1.00  0.00     0.031 C 
ATOM     75  C   UNL A   1      48.660  27.972  30.259  1.00  0.00     0.031 A 
BRANCH  62  76
ATOM     76  C   UNL A   1      44.848  24.384  33.525  1.00  0.00    -0.014 A 
ATOM     77  C   UNL A   1      43.903  25.154  34.226  1.00  0.00     0.009 A 
ATOM     78  C   UNL A   1      45.452  23.300  34.179  1.00  0.00     0.009 A 
ATOM     79  C   UNL A   1      43.600  24.871  35.560  1.00  0.00     0.001 A 
ATOM     80  C   UNL A   1      45.118  22.996  35.502  1.00  0.00     0.001 A 
ATOM     81  C   UNL A   1      44.206  23.790  36.195  1.00  0.00     0.000 A 
ENDBRANCH  62  76
BRANCH  63  82
ATOM     82  C   UNL A   1      47.669  27.138  24.327  1.00  0.00    -0.014 A 
ATOM     83  C   UNL A   1      46.955  28.124  23.622  1.00  0.00     0.009 A 
ATOM     84  C   UNL A   1      48.719  26.473  23.677  1.00  0.00     0.009 A 
ATOM     85  C   UNL A   1      47.250  28.400  22.286  1.00  0.00     0.001 A 
ATOM     86  C   UNL A   1      49.040  26.782  22.353  1.00  0.00     0.001 A 
ATOM     87  C   UNL A   1      48.296  27.732  21.654  1.00  0.00     0.000 A 
ENDBRANCH  63  82
BRANCH  75  88
ATOM     88  C   UNL A   1      49.703  28.907  30.812  1.00  0.00    -0.014 A 
ATOM     89  C   UNL A   1      51.005  28.429  31.045  1.00  0.00     0.009 A 
ATOM     90  C   UNL A   1      49.365  30.195  31.252  1.00  0.00     0.009 A 
ATOM     91  C   UNL A   1      51.930  29.201  31.747  1.00  0.00     0.001 A 
ATOM     92  C   UNL A   1      50.306  30.981  31.920  1.00  0.00     0.001 A 
ATOM     93  C   UNL A   1      51.580  30.477  32.184  1.00  0.00     0.000 A 
ENDBRANCH  75  88
ENDBRANCH  49  50
ENDBRANCH  41  44
ENDBRANCH  39  40
ENDBRANCH  38  39
ENDBRANCH  37  38
ENDBRANCH  36  37
ENDBRANCH   1  36
TORSDOF 18
ENDMDL
