MODEL 1
REMARK VINA RESULT:     -10.7      0.000      0.000
REMARK SMILES C[C@H](NC(=O)[C@@H](C)Oc1ccc(Cl)cc1Br)C(=O)NCCCCCCNC(=O)c1ccc(-c2c3nc(c(-c4ccccc4)c4ccc([nH]4)c(-c4ccccc4)c4nc(c(-c5ccccc5)c5ccc2[nH]5)C=C4)C=C3)cc1
REMARK SMILES IDX 21 1 20 2 19 3 17 4 18 5 2 7 1 8 3 9 4 10 5 12 6 13 7 14
REMARK SMILES IDX 8 15 9 16 10 17 15 18 11 19 14 20 16 21 12 22 13 23 22 24
REMARK SMILES IDX 23 25 24 26 25 27 26 28 27 29 28 31 29 32 30 33 76 34 31 35
REMARK SMILES IDX 75 36 32 37 33 38 34 39 69 40 35 41 74 42 68 43 70 44 36 45
REMARK SMILES IDX 73 46 67 47 66 48 37 50 59 51 44 52 58 53 45 54 48 55 57 56
REMARK SMILES IDX 71 57 46 58 47 59 56 61 72 62 49 63 38 64 39 65 43 66 40 67
REMARK SMILES IDX 42 68 41 69 60 70 61 71 65 72 62 73 64 74 63 75 50 76 51 77
REMARK SMILES IDX 55 78 52 79 54 80 53 81
REMARK H PARENT 19 6 3 11 26 30 70 49 48 60
REMARK Flexibility Score: inf
ROOT
ATOM      1  C   UNL A   1      36.156  22.666  23.516  1.00  0.00     0.021 C 
ENDROOT
BRANCH   1   2
ATOM      2  C   UNL A   1      34.828  23.198  24.023  1.00  0.00     0.116 C 
BRANCH   2   3
ATOM      3  N   UNL A   1      33.822  22.156  24.046  1.00  0.00    -0.354 N 
ATOM      4  C   UNL A   1      33.057  21.734  25.099  1.00  0.00     0.242 C 
ATOM      5  O   UNL A   1      32.185  20.890  24.893  1.00  0.00    -0.273 OA
ATOM      6  H   UNL A   1      33.669  21.691  23.193  1.00  0.00     0.163 HD
BRANCH   4   7
ATOM      7  C   UNL A   1      33.198  22.440  26.465  1.00  0.00     0.168 C 
ATOM      8  C   UNL A   1      34.058  21.527  27.319  1.00  0.00     0.041 C 
BRANCH   7   9
ATOM      9  N   UNL A   1      31.856  22.861  26.918  1.00  0.00    -0.341 N 
ATOM     10  C   UNL A   1      30.830  23.662  26.558  1.00  0.00     0.261 C 
ATOM     11  H   UNL A   1      31.639  22.407  27.764  1.00  0.00     0.164 HD
ATOM     12  O   UNL A   1      29.815  23.522  27.260  1.00  0.00    -0.271 OA
BRANCH  10  13
ATOM     13  C   UNL A   1      30.814  24.751  25.443  1.00  0.00     0.258 C 
ATOM     14  C   UNL A   1      30.734  24.144  24.037  1.00  0.00     0.064 C 
BRANCH  13  15
ATOM     15  O   UNL A   1      30.160  26.015  25.491  1.00  0.00    -0.480 OA
BRANCH  15  16
ATOM     16  C   UNL A   1      30.908  27.101  25.822  1.00  0.00     0.134 A 
ATOM     17  C   UNL A   1      31.501  27.209  27.079  1.00  0.00     0.049 A 
ATOM     18  C   UNL A   1      31.105  28.112  24.870  1.00  0.00     0.061 A 
ATOM     19  C   UNL A   1      32.142  28.395  27.442  1.00  0.00     0.024 A 
ATOM     20  C   UNL A   1      31.748  29.296  25.230  1.00  0.00     0.040 A 
ATOM     21  Br  UNL A   1      30.404  27.967  23.111  1.00  0.00    -0.047 Br
ATOM     22  C   UNL A   1      32.233  29.443  26.527  1.00  0.00     0.042 A 
ATOM     23  Cl  UNL A   1      32.917  30.942  27.018  1.00  0.00    -0.084 Cl
ENDBRANCH  15  16
ENDBRANCH  13  15
ENDBRANCH  10  13
ENDBRANCH   7   9
ENDBRANCH   4   7
ENDBRANCH   2   3
ENDBRANCH   1   2
BRANCH   1  24
ATOM     24  C   UNL A   1      36.922  21.919  24.604  1.00  0.00     0.002 C 
BRANCH  24  25
ATOM     25  C   UNL A   1      36.557  20.432  24.715  1.00  0.00     0.002 C 
BRANCH  25  26
ATOM     26  C   UNL A   1      37.740  19.509  25.022  1.00  0.00     0.021 C 
BRANCH  26  27
ATOM     27  C   UNL A   1      38.954  20.233  25.589  1.00  0.00     0.116 C 
BRANCH  27  28
ATOM     28  N   UNL A   1      40.089  19.334  25.739  1.00  0.00    -0.352 N 
ATOM     29  C   UNL A   1      41.376  19.627  26.090  1.00  0.00     0.251 C 
ATOM     30  H   UNL A   1      39.902  18.383  25.565  1.00  0.00     0.163 HD
ATOM     31  O   UNL A   1      42.271  18.796  25.948  1.00  0.00    -0.269 OA
BRANCH  29  32
ATOM     32  C   UNL A   1      41.678  20.960  26.635  1.00  0.00     0.039 A 
ATOM     33  C   UNL A   1      41.579  21.171  28.011  1.00  0.00     0.014 A 
ATOM     34  C   UNL A   1      42.068  21.993  25.778  1.00  0.00     0.014 A 
ATOM     35  C   UNL A   1      41.914  22.418  28.536  1.00  0.00     0.010 A 
ATOM     36  C   UNL A   1      42.477  23.207  26.310  1.00  0.00     0.010 A 
ATOM     37  C   UNL A   1      42.388  23.435  27.692  1.00  0.00    -0.014 A 
BRANCH  37  38
ATOM     38  C   UNL A   1      42.767  24.764  28.225  1.00  0.00     0.031 A 
ATOM     39  C   UNL A   1      41.709  25.812  28.426  1.00  0.00     0.074 A 
ATOM     40  C   UNL A   1      44.064  25.044  28.458  1.00  0.00     0.049 A 
ATOM     41  N   UNL A   1      41.845  27.060  28.793  1.00  0.00    -0.248 NA
ATOM     42  C   UNL A   1      40.317  25.414  28.153  1.00  0.00     0.031 C 
ATOM     43  C   UNL A   1      45.183  24.118  28.270  1.00  0.00     0.029 A 
ATOM     44  N   UNL A   1      44.659  26.199  28.897  1.00  0.00    -0.354 N 
ATOM     45  C   UNL A   1      40.564  27.599  28.771  1.00  0.00     0.074 A 
ATOM     46  C   UNL A   1      39.671  26.560  28.310  1.00  0.00     0.031 C 
ATOM     47  C   UNL A   1      46.326  24.734  28.613  1.00  0.00     0.029 A 
ATOM     48  C   UNL A   1      46.027  26.108  28.998  1.00  0.00     0.049 A 
ATOM     49  H   UNL A   1      44.156  27.015  29.119  1.00  0.00     0.167 HD
ATOM     50  C   UNL A   1      40.165  28.843  29.123  1.00  0.00     0.031 A 
ATOM     51  C   UNL A   1      46.937  27.036  29.350  1.00  0.00     0.031 A 
ATOM     52  C   UNL A   1      41.055  29.866  29.602  1.00  0.00     0.049 A 
ATOM     53  C   UNL A   1      46.465  28.417  29.717  1.00  0.00     0.074 A 
ATOM     54  C   UNL A   1      40.742  31.140  30.040  1.00  0.00     0.029 A 
ATOM     55  N   UNL A   1      42.430  29.729  29.704  1.00  0.00    -0.354 N 
ATOM     56  N   UNL A   1      45.243  28.891  29.759  1.00  0.00    -0.248 NA
ATOM     57  C   UNL A   1      47.499  29.389  30.099  1.00  0.00     0.031 C 
ATOM     58  C   UNL A   1      41.936  31.795  30.355  1.00  0.00     0.029 A 
ATOM     59  C   UNL A   1      42.983  30.906  30.177  1.00  0.00     0.049 A 
ATOM     60  H   UNL A   1      42.937  28.916  29.475  1.00  0.00     0.167 HD
ATOM     61  C   UNL A   1      45.359  30.200  30.209  1.00  0.00     0.074 A 
ATOM     62  C   UNL A   1      46.769  30.442  30.437  1.00  0.00     0.031 C 
ATOM     63  C   UNL A   1      44.386  31.119  30.416  1.00  0.00     0.031 A 
BRANCH  50  64
ATOM     64  C   UNL A   1      38.704  29.172  29.000  1.00  0.00    -0.014 A 
ATOM     65  C   UNL A   1      37.836  29.059  30.098  1.00  0.00     0.009 A 
ATOM     66  C   UNL A   1      38.202  29.662  27.784  1.00  0.00     0.009 A 
ATOM     67  C   UNL A   1      36.489  29.405  29.972  1.00  0.00     0.001 A 
ATOM     68  C   UNL A   1      36.862  30.035  27.670  1.00  0.00     0.001 A 
ATOM     69  C   UNL A   1      36.005  29.899  28.761  1.00  0.00     0.000 A 
ENDBRANCH  50  64
BRANCH  51  70
ATOM     70  C   UNL A   1      48.385  26.702  29.375  1.00  0.00    -0.014 A 
ATOM     71  C   UNL A   1      49.194  26.943  28.253  1.00  0.00     0.009 A 
ATOM     72  C   UNL A   1      48.962  26.105  30.507  1.00  0.00     0.009 A 
ATOM     73  C   UNL A   1      50.535  26.554  28.247  1.00  0.00     0.001 A 
ATOM     74  C   UNL A   1      50.312  25.748  30.512  1.00  0.00     0.001 A 
ATOM     75  C   UNL A   1      51.093  25.958  29.378  1.00  0.00     0.000 A 
ENDBRANCH  51  70
BRANCH  63  76
ATOM     76  C   UNL A   1      44.801  32.452  30.974  1.00  0.00    -0.014 A 
ATOM     77  C   UNL A   1      45.110  33.535  30.139  1.00  0.00     0.009 A 
ATOM     78  C   UNL A   1      44.824  32.636  32.367  1.00  0.00     0.009 A 
ATOM     79  C   UNL A   1      45.465  34.768  30.688  1.00  0.00     0.001 A 
ATOM     80  C   UNL A   1      45.147  33.879  32.911  1.00  0.00     0.001 A 
ATOM     81  C   UNL A   1      45.476  34.941  32.072  1.00  0.00     0.000 A 
ENDBRANCH  63  76
ENDBRANCH  37  38
ENDBRANCH  29  32
ENDBRANCH  27  28
ENDBRANCH  26  27
ENDBRANCH  25  26
ENDBRANCH  24  25
ENDBRANCH   1  24
TORSDOF 17
ENDMDL
MODEL 2
REMARK VINA RESULT:     -10.7      0.317      5.927
REMARK SMILES C[C@H](NC(=O)[C@@H](C)Oc1ccc(Cl)cc1Br)C(=O)NCCCCCCNC(=O)c1ccc(-c2c3nc(c(-c4ccccc4)c4ccc([nH]4)c(-c4ccccc4)c4nc(c(-c5ccccc5)c5ccc2[nH]5)C=C4)C=C3)cc1
REMARK SMILES IDX 21 1 20 2 19 3 17 4 18 5 2 7 1 8 3 9 4 10 5 12 6 13 7 14
REMARK SMILES IDX 8 15 9 16 10 17 15 18 11 19 14 20 16 21 12 22 13 23 22 24
REMARK SMILES IDX 23 25 24 26 25 27 26 28 27 29 28 31 29 32 30 33 76 34 31 35
REMARK SMILES IDX 75 36 32 37 33 38 34 39 69 40 35 41 74 42 68 43 70 44 36 45
REMARK SMILES IDX 73 46 67 47 66 48 37 50 59 51 44 52 58 53 45 54 48 55 57 56
REMARK SMILES IDX 71 57 46 58 47 59 56 61 72 62 49 63 38 64 39 65 43 66 40 67
REMARK SMILES IDX 42 68 41 69 60 70 61 71 65 72 62 73 64 74 63 75 50 76 51 77
REMARK SMILES IDX 55 78 52 79 54 80 53 81
REMARK H PARENT 19 6 3 11 26 30 70 49 48 60
REMARK Flexibility Score: inf
ROOT
ATOM      1  C   UNL A   1      36.424  22.668  23.570  1.00  0.00     0.021 C 
ENDROOT
BRANCH   1   2
ATOM      2  C   UNL A   1      35.106  23.268  24.023  1.00  0.00     0.116 C 
BRANCH   2   3
ATOM      3  N   UNL A   1      34.050  22.277  24.013  1.00  0.00    -0.354 N 
ATOM      4  C   UNL A   1      33.224  21.902  25.037  1.00  0.00     0.242 C 
ATOM      5  O   UNL A   1      32.320  21.100  24.802  1.00  0.00    -0.273 OA
ATOM      6  H   UNL A   1      33.908  21.812  23.158  1.00  0.00     0.163 HD
BRANCH   4   7
ATOM      7  C   UNL A   1      33.345  22.612  26.403  1.00  0.00     0.168 C 
ATOM      8  C   UNL A   1      34.208  21.711  27.266  1.00  0.00     0.041 C 
BRANCH   7   9
ATOM      9  N   UNL A   1      31.995  23.018  26.845  1.00  0.00    -0.341 N 
ATOM     10  C   UNL A   1      30.979  23.836  26.496  1.00  0.00     0.261 C 
ATOM     11  H   UNL A   1      31.758  22.529  27.666  1.00  0.00     0.164 HD
ATOM     12  O   UNL A   1      29.948  23.670  27.170  1.00  0.00    -0.271 OA
BRANCH  10  13
ATOM     13  C   UNL A   1      30.989  24.972  25.429  1.00  0.00     0.258 C 
ATOM     14  C   UNL A   1      30.974  24.424  23.996  1.00  0.00     0.064 C 
BRANCH  13  15
ATOM     15  O   UNL A   1      30.314  26.223  25.503  1.00  0.00    -0.480 OA
BRANCH  15  16
ATOM     16  C   UNL A   1      31.047  27.317  25.844  1.00  0.00     0.134 A 
ATOM     17  C   UNL A   1      31.748  27.365  27.048  1.00  0.00     0.049 A 
ATOM     18  C   UNL A   1      31.116  28.399  24.954  1.00  0.00     0.061 A 
ATOM     19  C   UNL A   1      32.372  28.551  27.438  1.00  0.00     0.024 A 
ATOM     20  C   UNL A   1      31.742  29.583  25.340  1.00  0.00     0.040 A 
ATOM     21  Br  UNL A   1      30.264  28.343  23.258  1.00  0.00    -0.047 Br
ATOM     22  C   UNL A   1      32.339  29.662  26.596  1.00  0.00     0.042 A 
ATOM     23  Cl  UNL A   1      33.006  31.153  27.132  1.00  0.00    -0.084 Cl
ENDBRANCH  15  16
ENDBRANCH  13  15
ENDBRANCH  10  13
ENDBRANCH   7   9
ENDBRANCH   4   7
ENDBRANCH   2   3
ENDBRANCH   1   2
BRANCH   1  24
ATOM     24  C   UNL A   1      37.107  21.884  24.687  1.00  0.00     0.002 C 
BRANCH  24  25
ATOM     25  C   UNL A   1      36.709  20.403  24.743  1.00  0.00     0.002 C 
BRANCH  25  26
ATOM     26  C   UNL A   1      37.831  19.460  25.185  1.00  0.00     0.021 C 
BRANCH  26  27
ATOM     27  C   UNL A   1      39.113  20.177  25.590  1.00  0.00     0.116 C 
BRANCH  27  28
ATOM     28  N   UNL A   1      40.207  19.238  25.790  1.00  0.00    -0.352 N 
ATOM     29  C   UNL A   1      41.507  19.494  26.126  1.00  0.00     0.251 C 
ATOM     30  H   UNL A   1      39.980  18.288  25.667  1.00  0.00     0.163 HD
ATOM     31  O   UNL A   1      42.364  18.618  26.030  1.00  0.00    -0.269 OA
BRANCH  29  32
ATOM     32  C   UNL A   1      41.866  20.840  26.599  1.00  0.00     0.039 A 
ATOM     33  C   UNL A   1      42.269  21.802  25.673  1.00  0.00     0.014 A 
ATOM     34  C   UNL A   1      41.790  21.144  27.962  1.00  0.00     0.014 A 
ATOM     35  C   UNL A   1      42.560  23.092  26.112  1.00  0.00     0.010 A 
ATOM     36  C   UNL A   1      42.003  22.447  28.385  1.00  0.00     0.010 A 
ATOM     37  C   UNL A   1      42.406  23.429  27.467  1.00  0.00    -0.014 A 
BRANCH  37  38
ATOM     38  C   UNL A   1      42.691  24.796  27.958  1.00  0.00     0.031 A 
ATOM     39  C   UNL A   1      44.093  25.164  28.358  1.00  0.00     0.074 A 
ATOM     40  C   UNL A   1      41.682  25.676  28.107  1.00  0.00     0.049 A 
ATOM     41  N   UNL A   1      44.533  26.271  28.896  1.00  0.00    -0.248 NA
ATOM     42  C   UNL A   1      45.134  24.140  28.153  1.00  0.00     0.031 C 
ATOM     43  C   UNL A   1      40.276  25.424  27.783  1.00  0.00     0.029 A 
ATOM     44  N   UNL A   1      41.687  26.963  28.583  1.00  0.00    -0.354 N 
ATOM     45  C   UNL A   1      45.890  26.069  29.113  1.00  0.00     0.074 A 
ATOM     46  C   UNL A   1      46.194  24.719  28.695  1.00  0.00     0.031 C 
ATOM     47  C   UNL A   1      39.559  26.528  28.047  1.00  0.00     0.029 A 
ATOM     48  C   UNL A   1      40.443  27.546  28.603  1.00  0.00     0.049 A 
ATOM     49  H   UNL A   1      42.503  27.425  28.881  1.00  0.00     0.167 HD
ATOM     50  C   UNL A   1      46.806  26.939  29.600  1.00  0.00     0.031 A 
ATOM     51  C   UNL A   1      40.059  28.762  29.034  1.00  0.00     0.031 A 
ATOM     52  C   UNL A   1      46.503  28.287  29.993  1.00  0.00     0.049 A 
ATOM     53  C   UNL A   1      41.097  29.700  29.588  1.00  0.00     0.074 A 
ATOM     54  C   UNL A   1      47.370  29.266  30.443  1.00  0.00     0.029 A 
ATOM     55  N   UNL A   1      45.234  28.844  29.984  1.00  0.00    -0.354 N 
ATOM     56  N   UNL A   1      42.389  29.520  29.723  1.00  0.00    -0.248 NA
ATOM     57  C   UNL A   1      40.625  31.017  30.040  1.00  0.00     0.031 C 
ATOM     58  C   UNL A   1      46.617  30.401  30.760  1.00  0.00     0.029 A 
ATOM     59  C   UNL A   1      45.292  30.148  30.443  1.00  0.00     0.049 A 
ATOM     60  H   UNL A   1      44.415  28.382  29.693  1.00  0.00     0.167 HD
ATOM     61  C   UNL A   1      42.887  30.711  30.235  1.00  0.00     0.074 A 
ATOM     62  C   UNL A   1      41.761  31.611  30.376  1.00  0.00     0.031 C 
ATOM     63  C   UNL A   1      44.163  31.033  30.558  1.00  0.00     0.031 A 
BRANCH  50  64
ATOM     64  C   UNL A   1      48.223  26.459  29.739  1.00  0.00    -0.014 A 
ATOM     65  C   UNL A   1      49.164  26.655  28.715  1.00  0.00     0.009 A 
ATOM     66  C   UNL A   1      48.640  25.858  30.937  1.00  0.00     0.009 A 
ATOM     67  C   UNL A   1      50.485  26.234  28.878  1.00  0.00     0.001 A 
ATOM     68  C   UNL A   1      49.968  25.466  31.109  1.00  0.00     0.001 A 
ATOM     69  C   UNL A   1      50.888  25.647  30.078  1.00  0.00     0.000 A 
ENDBRANCH  50  64
BRANCH  51  70
ATOM     70  C   UNL A   1      38.631  29.172  28.965  1.00  0.00    -0.014 A 
ATOM     71  C   UNL A   1      38.104  29.730  27.791  1.00  0.00     0.009 A 
ATOM     72  C   UNL A   1      37.796  29.042  30.086  1.00  0.00     0.009 A 
ATOM     73  C   UNL A   1      36.786  30.191  27.753  1.00  0.00     0.001 A 
ATOM     74  C   UNL A   1      36.468  29.471  30.034  1.00  0.00     0.001 A 
ATOM     75  C   UNL A   1      35.968  30.059  28.874  1.00  0.00     0.000 A 
ENDBRANCH  51  70
BRANCH  63  76
ATOM     76  C   UNL A   1      44.422  32.433  31.036  1.00  0.00    -0.014 A 
ATOM     77  C   UNL A   1      44.405  32.760  32.399  1.00  0.00     0.009 A 
ATOM     78  C   UNL A   1      44.749  33.430  30.100  1.00  0.00     0.009 A 
ATOM     79  C   UNL A   1      44.678  34.064  32.815  1.00  0.00     0.001 A 
ATOM     80  C   UNL A   1      45.054  34.724  30.521  1.00  0.00     0.001 A 
ATOM     81  C   UNL A   1      45.009  35.043  31.876  1.00  0.00     0.000 A 
ENDBRANCH  63  76
ENDBRANCH  37  38
ENDBRANCH  29  32
ENDBRANCH  27  28
ENDBRANCH  26  27
ENDBRANCH  25  26
ENDBRANCH  24  25
ENDBRANCH   1  24
TORSDOF 17
ENDMDL
MODEL 3
REMARK VINA RESULT:     -10.4      3.889      9.066
REMARK SMILES C[C@H](NC(=O)[C@@H](C)Oc1ccc(Cl)cc1Br)C(=O)NCCCCCCNC(=O)c1ccc(-c2c3nc(c(-c4ccccc4)c4ccc([nH]4)c(-c4ccccc4)c4nc(c(-c5ccccc5)c5ccc2[nH]5)C=C4)C=C3)cc1
REMARK SMILES IDX 21 1 20 2 19 3 17 4 18 5 2 7 1 8 3 9 4 10 5 12 6 13 7 14
REMARK SMILES IDX 8 15 9 16 10 17 15 18 11 19 14 20 16 21 12 22 13 23 22 24
REMARK SMILES IDX 23 25 24 26 25 27 26 28 27 29 28 31 29 32 30 33 76 34 31 35
REMARK SMILES IDX 75 36 32 37 33 38 34 39 69 40 35 41 74 42 68 43 70 44 36 45
REMARK SMILES IDX 73 46 67 47 66 48 37 50 59 51 44 52 58 53 45 54 48 55 57 56
REMARK SMILES IDX 71 57 46 58 47 59 56 61 72 62 49 63 38 64 39 65 43 66 40 67
REMARK SMILES IDX 42 68 41 69 60 70 61 71 65 72 62 73 64 74 63 75 50 76 51 77
REMARK SMILES IDX 55 78 52 79 54 80 53 81
REMARK H PARENT 19 6 3 11 26 30 70 49 48 60
REMARK Flexibility Score: inf
ROOT
ATOM      1  C   UNL A   1      33.149  28.819  27.138  1.00  0.00     0.021 C 
ENDROOT
BRANCH   1   2
ATOM      2  C   UNL A   1      33.200  27.504  26.383  1.00  0.00     0.116 C 
BRANCH   2   3
ATOM      3  N   UNL A   1      32.075  27.377  25.479  1.00  0.00    -0.354 N 
ATOM      4  C   UNL A   1      32.083  27.326  24.112  1.00  0.00     0.242 C 
ATOM      5  O   UNL A   1      31.021  27.122  23.523  1.00  0.00    -0.273 OA
ATOM      6  H   UNL A   1      31.190  27.319  25.904  1.00  0.00     0.163 HD
BRANCH   4   7
ATOM      7  C   UNL A   1      33.433  27.364  23.363  1.00  0.00     0.168 C 
ATOM      8  C   UNL A   1      33.750  28.832  23.150  1.00  0.00     0.041 C 
BRANCH   7   9
ATOM      9  N   UNL A   1      33.363  26.430  22.220  1.00  0.00    -0.341 N 
ATOM     10  C   UNL A   1      33.118  25.132  21.939  1.00  0.00     0.261 C 
ATOM     11  H   UNL A   1      33.562  26.915  21.387  1.00  0.00     0.164 HD
ATOM     12  O   UNL A   1      33.037  24.889  20.724  1.00  0.00    -0.271 OA
BRANCH  10  13
ATOM     13  C   UNL A   1      33.004  23.942  22.940  1.00  0.00     0.258 C 
ATOM     14  C   UNL A   1      31.567  23.734  23.435  1.00  0.00     0.064 C 
BRANCH  13  15
ATOM     15  O   UNL A   1      33.709  22.706  22.885  1.00  0.00    -0.480 OA
BRANCH  15  16
ATOM     16  C   UNL A   1      34.803  22.567  23.679  1.00  0.00     0.134 A 
ATOM     17  C   UNL A   1      35.904  23.410  23.540  1.00  0.00     0.049 A 
ATOM     18  C   UNL A   1      34.807  21.575  24.671  1.00  0.00     0.061 A 
ATOM     19  C   UNL A   1      37.067  23.155  24.268  1.00  0.00     0.024 A 
ATOM     20  C   UNL A   1      35.967  21.321  25.402  1.00  0.00     0.040 A 
ATOM     21  Br  UNL A   1      33.294  20.467  24.969  1.00  0.00    -0.047 Br
ATOM     22  C   UNL A   1      37.102  22.093  25.170  1.00  0.00     0.042 A 
ATOM     23  Cl  UNL A   1      38.572  21.710  25.975  1.00  0.00    -0.084 Cl
ENDBRANCH  15  16
ENDBRANCH  13  15
ENDBRANCH  10  13
ENDBRANCH   7   9
ENDBRANCH   4   7
ENDBRANCH   2   3
ENDBRANCH   1   2
BRANCH   1  24
ATOM     24  C   UNL A   1      31.756  29.441  27.106  1.00  0.00     0.002 C 
BRANCH  24  25
ATOM     25  C   UNL A   1      31.581  30.523  26.032  1.00  0.00     0.002 C 
BRANCH  25  26
ATOM     26  C   UNL A   1      31.436  31.946  26.581  1.00  0.00     0.021 C 
BRANCH  26  27
ATOM     27  C   UNL A   1      32.750  32.564  27.040  1.00  0.00     0.116 C 
BRANCH  27  28
ATOM     28  N   UNL A   1      32.536  33.848  27.692  1.00  0.00    -0.352 N 
ATOM     29  C   UNL A   1      33.220  34.405  28.735  1.00  0.00     0.251 C 
ATOM     30  H   UNL A   1      31.797  34.389  27.331  1.00  0.00     0.163 HD
ATOM     31  O   UNL A   1      32.775  35.388  29.324  1.00  0.00    -0.269 OA
BRANCH  29  32
ATOM     32  C   UNL A   1      34.498  33.805  29.148  1.00  0.00     0.039 A 
ATOM     33  C   UNL A   1      35.660  34.127  28.446  1.00  0.00     0.014 A 
ATOM     34  C   UNL A   1      34.539  32.933  30.240  1.00  0.00     0.014 A 
ATOM     35  C   UNL A   1      36.880  33.601  28.867  1.00  0.00     0.010 A 
ATOM     36  C   UNL A   1      35.763  32.475  30.705  1.00  0.00     0.010 A 
ATOM     37  C   UNL A   1      36.941  32.791  30.013  1.00  0.00    -0.014 A 
BRANCH  37  38
ATOM     38  C   UNL A   1      38.226  32.233  30.493  1.00  0.00     0.031 A 
ATOM     39  C   UNL A   1      38.740  30.945  29.911  1.00  0.00     0.074 A 
ATOM     40  C   UNL A   1      38.888  32.846  31.494  1.00  0.00     0.049 A 
ATOM     41  N   UNL A   1      39.790  30.246  30.255  1.00  0.00    -0.248 NA
ATOM     42  C   UNL A   1      37.954  30.350  28.815  1.00  0.00     0.031 C 
ATOM     43  C   UNL A   1      38.472  34.082  32.159  1.00  0.00     0.029 A 
ATOM     44  N   UNL A   1      40.051  32.500  32.133  1.00  0.00    -0.354 N 
ATOM     45  C   UNL A   1      39.776  29.122  29.438  1.00  0.00     0.074 A 
ATOM     46  C   UNL A   1      38.591  29.207  28.614  1.00  0.00     0.031 C 
ATOM     47  C   UNL A   1      39.378  34.404  33.097  1.00  0.00     0.029 A 
ATOM     48  C   UNL A   1      40.410  33.374  33.132  1.00  0.00     0.049 A 
ATOM     49  H   UNL A   1      40.579  31.703  31.900  1.00  0.00     0.167 HD
ATOM     50  C   UNL A   1      40.682  28.119  29.367  1.00  0.00     0.031 A 
ATOM     51  C   UNL A   1      41.449  33.339  33.986  1.00  0.00     0.031 A 
ATOM     52  C   UNL A   1      41.870  28.052  30.174  1.00  0.00     0.049 A 
ATOM     53  C   UNL A   1      42.429  32.201  33.896  1.00  0.00     0.074 A 
ATOM     54  C   UNL A   1      42.880  27.108  30.137  1.00  0.00     0.029 A 
ATOM     55  N   UNL A   1      42.204  28.964  31.161  1.00  0.00    -0.354 N 
ATOM     56  N   UNL A   1      42.442  31.181  33.071  1.00  0.00    -0.248 NA
ATOM     57  C   UNL A   1      43.548  32.214  34.850  1.00  0.00     0.031 C 
ATOM     58  C   UNL A   1      43.800  27.418  31.142  1.00  0.00     0.029 A 
ATOM     59  C   UNL A   1      43.396  28.592  31.758  1.00  0.00     0.049 A 
ATOM     60  H   UNL A   1      41.674  29.758  31.402  1.00  0.00     0.167 HD
ATOM     61  C   UNL A   1      43.586  30.458  33.378  1.00  0.00     0.074 A 
ATOM     62  C   UNL A   1      44.249  31.160  34.458  1.00  0.00     0.031 C 
ATOM     63  C   UNL A   1      44.049  29.315  32.817  1.00  0.00     0.031 A 
BRANCH  50  64
ATOM     64  C   UNL A   1      40.423  27.010  28.388  1.00  0.00    -0.014 A 
ATOM     65  C   UNL A   1      39.633  25.902  28.732  1.00  0.00     0.009 A 
ATOM     66  C   UNL A   1      40.927  27.105  27.080  1.00  0.00     0.009 A 
ATOM     67  C   UNL A   1      39.374  24.899  27.795  1.00  0.00     0.001 A 
ATOM     68  C   UNL A   1      40.642  26.116  26.138  1.00  0.00     0.001 A 
ATOM     69  C   UNL A   1      39.872  25.010  26.497  1.00  0.00     0.000 A 
ENDBRANCH  50  64
BRANCH  51  70
ATOM     70  C   UNL A   1      41.626  34.408  35.005  1.00  0.00    -0.014 A 
ATOM     71  C   UNL A   1      41.019  34.301  36.266  1.00  0.00     0.009 A 
ATOM     72  C   UNL A   1      42.372  35.560  34.710  1.00  0.00     0.009 A 
ATOM     73  C   UNL A   1      41.117  35.342  37.191  1.00  0.00     0.001 A 
ATOM     74  C   UNL A   1      42.498  36.584  35.650  1.00  0.00     0.001 A 
ATOM     75  C   UNL A   1      41.858  36.482  36.883  1.00  0.00     0.000 A 
ENDBRANCH  51  70
BRANCH  63  76
ATOM     76  C   UNL A   1      45.364  28.784  33.314  1.00  0.00    -0.014 A 
ATOM     77  C   UNL A   1      46.583  29.203  32.762  1.00  0.00     0.009 A 
ATOM     78  C   UNL A   1      45.378  27.889  34.397  1.00  0.00     0.009 A 
ATOM     79  C   UNL A   1      47.789  28.712  33.263  1.00  0.00     0.001 A 
ATOM     80  C   UNL A   1      46.587  27.427  34.918  1.00  0.00     0.001 A 
ATOM     81  C   UNL A   1      47.790  27.831  34.345  1.00  0.00     0.000 A 
ENDBRANCH  63  76
ENDBRANCH  37  38
ENDBRANCH  29  32
ENDBRANCH  27  28
ENDBRANCH  26  27
ENDBRANCH  25  26
ENDBRANCH  24  25
ENDBRANCH   1  24
TORSDOF 17
ENDMDL
