MODEL 1
REMARK VINA RESULT:     -10.2      0.000      0.000
REMARK SMILES CCC(CC)C[N@H+]1[C@@H]2CC[C@H]1C[C@H](CC(=O)NCCCCCCNC(=O)c1ccc(-c3c4nc(c(-c5ccccc5)c5ccc([nH]5)c(-c5ccccc5)c5nc(c(-c6ccccc6)c6ccc3[nH]6)C=C5)C=C4)cc1)C2
REMARK SMILES IDX 19 1 18 2 17 3 15 4 16 5 14 7 13 8 7 9 8 10 11 11 9 13 75 14
REMARK SMILES IDX 10 15 12 16 6 17 3 18 2 19 1 20 4 21 5 22 20 23 21 24 22 25
REMARK SMILES IDX 23 26 24 27 25 28 26 30 27 31 28 32 74 33 29 34 73 35 30 36
REMARK SMILES IDX 31 37 32 38 67 39 33 40 72 41 66 42 68 43 34 44 71 45 65 46
REMARK SMILES IDX 64 47 35 49 57 50 42 51 56 52 43 53 46 54 55 55 69 56 44 57
REMARK SMILES IDX 45 58 54 60 70 61 47 62 36 63 37 64 41 65 38 66 40 67 39 68
REMARK SMILES IDX 58 69 59 70 63 71 60 72 62 73 61 74 48 75 49 76 53 77 50 78
REMARK SMILES IDX 52 79 51 80
REMARK H PARENT 17 6 7 12 24 29 68 48 46 59
REMARK Flexibility Score: inf
ROOT
ATOM      1  C   UNL A   1      30.452  28.413  23.501  1.00  0.00     0.021 C 
ENDROOT
BRANCH   1   2
ATOM      2  C   UNL A   1      30.544  27.078  22.744  1.00  0.00     0.116 C 
BRANCH   2   3
ATOM      3  N   UNL A   1      31.849  26.923  22.121  1.00  0.00    -0.356 N 
ATOM      4  C   UNL A   1      32.956  26.193  22.422  1.00  0.00     0.220 C 
ATOM      5  O   UNL A   1      33.941  26.361  21.696  1.00  0.00    -0.275 OA
ATOM      6  H   UNL A   1      31.954  27.466  21.306  1.00  0.00     0.163 HD
BRANCH   4   7
ATOM      7  C   UNL A   1      32.999  25.125  23.508  1.00  0.00     0.104 C 
BRANCH   7   8
ATOM      8  C   UNL A   1      34.358  24.638  24.081  1.00  0.00     0.010 C 
ATOM      9  N   UNL A   1      35.321  22.181  25.406  1.00  0.00    -0.330 N 
ATOM     10  C   UNL A   1      35.837  22.499  24.086  1.00  0.00     0.184 C 
ATOM     11  C   UNL A   1      35.372  23.415  26.158  1.00  0.00     0.184 C 
ATOM     12  H   UNL A   1      35.865  21.483  25.915  1.00  0.00     0.348 HD
ATOM     13  C   UNL A   1      37.097  23.296  24.464  1.00  0.00     0.071 C 
ATOM     14  C   UNL A   1      34.841  23.374  23.309  1.00  0.00     0.069 C 
ATOM     15  C   UNL A   1      36.798  23.879  25.848  1.00  0.00     0.071 C 
ATOM     16  C   UNL A   1      34.362  24.423  25.606  1.00  0.00     0.069 C 
BRANCH   9  17
ATOM     17  C   UNL A   1      34.395  21.083  25.635  1.00  0.00     0.266 C 
BRANCH  17  18
ATOM     18  C   UNL A   1      33.678  20.273  24.505  1.00  0.00     0.044 C 
BRANCH  18  19
ATOM     19  C   UNL A   1      33.729  18.756  24.718  1.00  0.00     0.006 C 
ATOM     20  C   UNL A   1      33.333  17.900  23.518  1.00  0.00     0.004 C 
ENDBRANCH  18  19
BRANCH  18  21
ATOM     21  C   UNL A   1      32.208  20.739  24.339  1.00  0.00     0.006 C 
ATOM     22  C   UNL A   1      31.762  21.829  25.310  1.00  0.00     0.004 C 
ENDBRANCH  18  21
ENDBRANCH  17  18
ENDBRANCH   9  17
ENDBRANCH   7   8
ENDBRANCH   4   7
ENDBRANCH   2   3
ENDBRANCH   1   2
BRANCH   1  23
ATOM     23  C   UNL A   1      31.495  28.578  24.606  1.00  0.00     0.002 C 
BRANCH  23  24
ATOM     24  C   UNL A   1      31.388  27.551  25.736  1.00  0.00     0.002 C 
BRANCH  24  25
ATOM     25  C   UNL A   1      32.290  27.799  26.951  1.00  0.00     0.021 C 
BRANCH  25  26
ATOM     26  C   UNL A   1      33.584  28.562  26.671  1.00  0.00     0.116 C 
BRANCH  26  27
ATOM     27  N   UNL A   1      33.493  29.967  27.039  1.00  0.00    -0.352 N 
ATOM     28  C   UNL A   1      34.337  30.735  27.788  1.00  0.00     0.251 C 
ATOM     29  H   UNL A   1      32.699  30.436  26.696  1.00  0.00     0.163 HD
ATOM     30  O   UNL A   1      33.984  31.870  28.140  1.00  0.00    -0.269 OA
BRANCH  28  31
ATOM     31  C   UNL A   1      35.663  30.233  28.193  1.00  0.00     0.039 A 
ATOM     32  C   UNL A   1      36.719  30.303  27.279  1.00  0.00     0.014 A 
ATOM     33  C   UNL A   1      35.863  29.655  29.451  1.00  0.00     0.014 A 
ATOM     34  C   UNL A   1      37.981  29.832  27.641  1.00  0.00     0.010 A 
ATOM     35  C   UNL A   1      37.139  29.249  29.835  1.00  0.00     0.010 A 
ATOM     36  C   UNL A   1      38.207  29.322  28.929  1.00  0.00    -0.014 A 
BRANCH  36  37
ATOM     37  C   UNL A   1      39.554  28.844  29.328  1.00  0.00     0.031 A 
ATOM     38  C   UNL A   1      40.418  29.678  30.235  1.00  0.00     0.074 A 
ATOM     39  C   UNL A   1      40.007  27.666  28.858  1.00  0.00     0.049 A 
ATOM     40  N   UNL A   1      41.617  29.423  30.697  1.00  0.00    -0.248 NA
ATOM     41  C   UNL A   1      39.874  30.978  30.663  1.00  0.00     0.031 C 
ATOM     42  C   UNL A   1      39.279  26.781  27.947  1.00  0.00     0.029 A 
ATOM     43  N   UNL A   1      41.187  27.005  29.091  1.00  0.00    -0.354 N 
ATOM     44  C   UNL A   1      41.968  30.527  31.466  1.00  0.00     0.074 A 
ATOM     45  C   UNL A   1      40.885  31.480  31.358  1.00  0.00     0.031 C 
ATOM     46  C   UNL A   1      40.010  25.675  27.730  1.00  0.00     0.029 A 
ATOM     47  C   UNL A   1      41.268  25.787  28.459  1.00  0.00     0.049 A 
ATOM     48  H   UNL A   1      41.905  27.368  29.657  1.00  0.00     0.167 HD
ATOM     49  C   UNL A   1      43.078  30.721  32.216  1.00  0.00     0.031 A 
ATOM     50  C   UNL A   1      42.245  24.863  28.475  1.00  0.00     0.031 A 
ATOM     51  C   UNL A   1      44.156  29.775  32.325  1.00  0.00     0.049 A 
ATOM     52  C   UNL A   1      43.476  25.113  29.302  1.00  0.00     0.074 A 
ATOM     53  C   UNL A   1      45.317  29.869  33.074  1.00  0.00     0.029 A 
ATOM     54  N   UNL A   1      44.203  28.556  31.667  1.00  0.00    -0.354 N 
ATOM     55  N   UNL A   1      43.769  26.140  30.063  1.00  0.00    -0.248 NA
ATOM     56  C   UNL A   1      44.503  24.062  29.287  1.00  0.00     0.031 C 
ATOM     57  C   UNL A   1      46.082  28.721  32.840  1.00  0.00     0.029 A 
ATOM     58  C   UNL A   1      45.373  27.890  31.988  1.00  0.00     0.049 A 
ATOM     59  H   UNL A   1      43.505  28.214  31.062  1.00  0.00     0.167 HD
ATOM     60  C   UNL A   1      44.994  25.842  30.645  1.00  0.00     0.074 A 
ATOM     61  C   UNL A   1      45.378  24.531  30.163  1.00  0.00     0.031 C 
ATOM     62  C   UNL A   1      45.735  26.584  31.503  1.00  0.00     0.031 A 
BRANCH  49  63
ATOM     63  C   UNL A   1      43.174  32.010  32.986  1.00  0.00    -0.014 A 
ATOM     64  C   UNL A   1      43.659  33.179  32.377  1.00  0.00     0.009 A 
ATOM     65  C   UNL A   1      42.744  32.069  34.321  1.00  0.00     0.009 A 
ATOM     66  C   UNL A   1      43.743  34.371  33.099  1.00  0.00     0.001 A 
ATOM     67  C   UNL A   1      42.803  33.270  35.032  1.00  0.00     0.001 A 
ATOM     68  C   UNL A   1      43.311  34.417  34.424  1.00  0.00     0.000 A 
ENDBRANCH  49  63
BRANCH  50  69
ATOM     69  C   UNL A   1      42.098  23.595  27.711  1.00  0.00    -0.014 A 
ATOM     70  C   UNL A   1      41.532  22.463  28.318  1.00  0.00     0.009 A 
ATOM     71  C   UNL A   1      42.549  23.501  26.386  1.00  0.00     0.009 A 
ATOM     72  C   UNL A   1      41.461  21.250  27.628  1.00  0.00     0.001 A 
ATOM     73  C   UNL A   1      42.449  22.295  25.688  1.00  0.00     0.001 A 
ATOM     74  C   UNL A   1      41.918  21.168  26.314  1.00  0.00     0.000 A 
ENDBRANCH  50  69
BRANCH  62  75
ATOM     75  C   UNL A   1      47.008  25.967  32.011  1.00  0.00    -0.014 A 
ATOM     76  C   UNL A   1      47.042  25.243  33.213  1.00  0.00     0.009 A 
ATOM     77  C   UNL A   1      48.190  26.111  31.268  1.00  0.00     0.009 A 
ATOM     78  C   UNL A   1      48.247  24.718  33.685  1.00  0.00     0.001 A 
ATOM     79  C   UNL A   1      49.385  25.556  31.726  1.00  0.00     0.001 A 
ATOM     80  C   UNL A   1      49.416  24.872  32.940  1.00  0.00     0.000 A 
ENDBRANCH  62  75
ENDBRANCH  36  37
ENDBRANCH  28  31
ENDBRANCH  26  27
ENDBRANCH  25  26
ENDBRANCH  24  25
ENDBRANCH  23  24
ENDBRANCH   1  23
TORSDOF 18
ENDMDL
MODEL 2
REMARK VINA RESULT:     -10.1      2.444      7.764
REMARK SMILES CCC(CC)C[N@H+]1[C@@H]2CC[C@H]1C[C@H](CC(=O)NCCCCCCNC(=O)c1ccc(-c3c4nc(c(-c5ccccc5)c5ccc([nH]5)c(-c5ccccc5)c5nc(c(-c6ccccc6)c6ccc3[nH]6)C=C5)C=C4)cc1)C2
REMARK SMILES IDX 19 1 18 2 17 3 15 4 16 5 14 7 13 8 7 9 8 10 11 11 9 13 75 14
REMARK SMILES IDX 10 15 12 16 6 17 3 18 2 19 1 20 4 21 5 22 20 23 21 24 22 25
REMARK SMILES IDX 23 26 24 27 25 28 26 30 27 31 28 32 74 33 29 34 73 35 30 36
REMARK SMILES IDX 31 37 32 38 67 39 33 40 72 41 66 42 68 43 34 44 71 45 65 46
REMARK SMILES IDX 64 47 35 49 57 50 42 51 56 52 43 53 46 54 55 55 69 56 44 57
REMARK SMILES IDX 45 58 54 60 70 61 47 62 36 63 37 64 41 65 38 66 40 67 39 68
REMARK SMILES IDX 58 69 59 70 63 71 60 72 62 73 61 74 48 75 49 76 53 77 50 78
REMARK SMILES IDX 52 79 51 80
REMARK H PARENT 17 6 7 12 24 29 68 48 46 59
REMARK Flexibility Score: inf
ROOT
ATOM      1  C   UNL A   1      33.347  20.403  25.582  1.00  0.00     0.021 C 
ENDROOT
BRANCH   1   2
ATOM      2  C   UNL A   1      32.203  21.297  25.073  1.00  0.00     0.116 C 
BRANCH   2   3
ATOM      3  N   UNL A   1      31.610  22.051  26.166  1.00  0.00    -0.356 N 
ATOM      4  C   UNL A   1      31.525  23.377  26.459  1.00  0.00     0.220 C 
ATOM      5  O   UNL A   1      30.998  23.670  27.537  1.00  0.00    -0.275 OA
ATOM      6  H   UNL A   1      31.177  21.478  26.840  1.00  0.00     0.163 HD
BRANCH   4   7
ATOM      7  C   UNL A   1      31.931  24.486  25.497  1.00  0.00     0.104 C 
BRANCH   7   8
ATOM      8  C   UNL A   1      32.493  25.830  26.036  1.00  0.00     0.010 C 
ATOM      9  N   UNL A   1      32.415  28.647  25.151  1.00  0.00    -0.330 N 
ATOM     10  C   UNL A   1      31.719  28.290  26.375  1.00  0.00     0.184 C 
ATOM     11  C   UNL A   1      33.707  28.001  25.229  1.00  0.00     0.184 C 
ATOM     12  H   UNL A   1      32.573  29.647  25.032  1.00  0.00     0.348 HD
ATOM     13  C   UNL A   1      32.822  28.559  27.412  1.00  0.00     0.071 C 
ATOM     14  C   UNL A   1      31.321  26.805  26.362  1.00  0.00     0.069 C 
ATOM     15  C   UNL A   1      34.137  28.395  26.645  1.00  0.00     0.071 C 
ATOM     16  C   UNL A   1      33.555  26.482  25.132  1.00  0.00     0.069 C 
BRANCH   9  17
ATOM     17  C   UNL A   1      31.709  28.991  23.927  1.00  0.00     0.266 C 
BRANCH  17  18
ATOM     18  C   UNL A   1      30.164  28.857  23.723  1.00  0.00     0.044 C 
BRANCH  18  19
ATOM     19  C   UNL A   1      29.555  30.009  22.916  1.00  0.00     0.006 C 
ATOM     20  C   UNL A   1      28.115  30.377  23.260  1.00  0.00     0.004 C 
ENDBRANCH  18  19
BRANCH  18  21
ATOM     21  C   UNL A   1      29.810  27.499  23.063  1.00  0.00     0.006 C 
ATOM     22  C   UNL A   1      28.724  26.698  23.775  1.00  0.00     0.004 C 
ENDBRANCH  18  21
ENDBRANCH  17  18
ENDBRANCH   9  17
ENDBRANCH   7   8
ENDBRANCH   4   7
ENDBRANCH   2   3
ENDBRANCH   1   2
BRANCH   1  23
ATOM     23  C   UNL A   1      34.741  20.995  25.374  1.00  0.00     0.002 C 
BRANCH  23  24
ATOM     24  C   UNL A   1      34.749  22.470  24.963  1.00  0.00     0.002 C 
BRANCH  24  25
ATOM     25  C   UNL A   1      35.629  23.395  25.812  1.00  0.00     0.021 C 
BRANCH  25  26
ATOM     26  C   UNL A   1      36.999  23.729  25.224  1.00  0.00     0.116 C 
BRANCH  26  27
ATOM     27  N   UNL A   1      38.003  22.724  25.545  1.00  0.00    -0.352 N 
ATOM     28  C   UNL A   1      39.204  22.854  26.180  1.00  0.00     0.251 C 
ATOM     29  H   UNL A   1      37.781  21.809  25.258  1.00  0.00     0.163 HD
ATOM     30  O   UNL A   1      39.997  21.903  26.192  1.00  0.00    -0.269 OA
BRANCH  28  31
ATOM     31  C   UNL A   1      39.578  24.115  26.848  1.00  0.00     0.039 A 
ATOM     32  C   UNL A   1      40.339  25.051  26.143  1.00  0.00     0.014 A 
ATOM     33  C   UNL A   1      39.221  24.360  28.178  1.00  0.00     0.014 A 
ATOM     34  C   UNL A   1      40.706  26.250  26.756  1.00  0.00     0.010 A 
ATOM     35  C   UNL A   1      39.529  25.586  28.766  1.00  0.00     0.010 A 
ATOM     36  C   UNL A   1      40.285  26.536  28.065  1.00  0.00    -0.014 A 
BRANCH  36  37
ATOM     37  C   UNL A   1      40.650  27.820  28.713  1.00  0.00     0.031 A 
ATOM     38  C   UNL A   1      39.639  28.928  28.828  1.00  0.00     0.074 A 
ATOM     39  C   UNL A   1      41.901  27.995  29.181  1.00  0.00     0.049 A 
ATOM     40  N   UNL A   1      39.770  30.114  29.367  1.00  0.00    -0.248 NA
ATOM     41  C   UNL A   1      38.309  28.679  28.244  1.00  0.00     0.031 C 
ATOM     42  C   UNL A   1      42.982  27.011  29.101  1.00  0.00     0.029 A 
ATOM     43  N   UNL A   1      42.471  29.062  29.829  1.00  0.00    -0.354 N 
ATOM     44  C   UNL A   1      38.547  30.749  29.186  1.00  0.00     0.074 A 
ATOM     45  C   UNL A   1      37.707  29.843  28.434  1.00  0.00     0.031 C 
ATOM     46  C   UNL A   1      44.072  27.504  29.712  1.00  0.00     0.029 A 
ATOM     47  C   UNL A   1      43.777  28.847  30.197  1.00  0.00     0.049 A 
ATOM     48  H   UNL A   1      41.991  29.901  30.012  1.00  0.00     0.167 HD
ATOM     49  C   UNL A   1      38.148  31.965  29.628  1.00  0.00     0.031 A 
ATOM     50  C   UNL A   1      44.637  29.642  30.860  1.00  0.00     0.031 A 
ATOM     51  C   UNL A   1      38.982  32.867  30.376  1.00  0.00     0.049 A 
ATOM     52  C   UNL A   1      44.172  30.996  31.323  1.00  0.00     0.074 A 
ATOM     53  C   UNL A   1      38.667  34.115  30.887  1.00  0.00     0.029 A 
ATOM     54  N   UNL A   1      40.300  32.614  30.726  1.00  0.00    -0.354 N 
ATOM     55  N   UNL A   1      42.996  31.560  31.188  1.00  0.00    -0.248 NA
ATOM     56  C   UNL A   1      45.153  31.813  32.051  1.00  0.00     0.031 C 
ATOM     57  C   UNL A   1      39.805  34.631  31.515  1.00  0.00     0.029 A 
ATOM     58  C   UNL A   1      40.813  33.683  31.441  1.00  0.00     0.049 A 
ATOM     59  H   UNL A   1      40.796  31.795  30.501  1.00  0.00     0.167 HD
ATOM     60  C   UNL A   1      43.085  32.780  31.845  1.00  0.00     0.074 A 
ATOM     61  C   UNL A   1      44.423  32.864  32.393  1.00  0.00     0.031 C 
ATOM     62  C   UNL A   1      42.144  33.746  31.984  1.00  0.00     0.031 A 
BRANCH  49  63
ATOM     63  C   UNL A   1      36.737  32.384  29.316  1.00  0.00    -0.014 A 
ATOM     64  C   UNL A   1      35.698  32.154  30.233  1.00  0.00     0.009 A 
ATOM     65  C   UNL A   1      36.447  33.045  28.113  1.00  0.00     0.009 A 
ATOM     66  C   UNL A   1      34.391  32.547  29.936  1.00  0.00     0.001 A 
ATOM     67  C   UNL A   1      35.144  33.462  27.831  1.00  0.00     0.001 A 
ATOM     68  C   UNL A   1      34.116  33.205  28.738  1.00  0.00     0.000 A 
ENDBRANCH  49  63
BRANCH  50  69
ATOM     69  C   UNL A   1      46.016  29.178  31.161  1.00  0.00    -0.014 A 
ATOM     70  C   UNL A   1      46.297  28.520  32.370  1.00  0.00     0.009 A 
ATOM     71  C   UNL A   1      47.065  29.416  30.260  1.00  0.00     0.009 A 
ATOM     72  C   UNL A   1      47.606  28.150  32.688  1.00  0.00     0.001 A 
ATOM     73  C   UNL A   1      48.368  29.017  30.568  1.00  0.00     0.001 A 
ATOM     74  C   UNL A   1      48.639  28.397  31.787  1.00  0.00     0.000 A 
ENDBRANCH  50  69
BRANCH  62  75
ATOM     75  C   UNL A   1      42.519  34.948  32.805  1.00  0.00    -0.014 A 
ATOM     76  C   UNL A   1      43.237  36.019  32.250  1.00  0.00     0.009 A 
ATOM     77  C   UNL A   1      42.138  35.008  34.155  1.00  0.00     0.009 A 
ATOM     78  C   UNL A   1      43.610  37.103  33.046  1.00  0.00     0.001 A 
ATOM     79  C   UNL A   1      42.484  36.109  34.938  1.00  0.00     0.001 A 
ATOM     80  C   UNL A   1      43.231  37.149  34.387  1.00  0.00     0.000 A 
ENDBRANCH  62  75
ENDBRANCH  36  37
ENDBRANCH  28  31
ENDBRANCH  26  27
ENDBRANCH  25  26
ENDBRANCH  24  25
ENDBRANCH  23  24
ENDBRANCH   1  23
TORSDOF 18
ENDMDL
MODEL 3
REMARK VINA RESULT:     -10.1      2.408      7.965
REMARK SMILES CCC(CC)C[N@H+]1[C@@H]2CC[C@H]1C[C@H](CC(=O)NCCCCCCNC(=O)c1ccc(-c3c4nc(c(-c5ccccc5)c5ccc([nH]5)c(-c5ccccc5)c5nc(c(-c6ccccc6)c6ccc3[nH]6)C=C5)C=C4)cc1)C2
REMARK SMILES IDX 19 1 18 2 17 3 15 4 16 5 14 7 13 8 7 9 8 10 11 11 9 13 75 14
REMARK SMILES IDX 10 15 12 16 6 17 3 18 2 19 1 20 4 21 5 22 20 23 21 24 22 25
REMARK SMILES IDX 23 26 24 27 25 28 26 30 27 31 28 32 74 33 29 34 73 35 30 36
REMARK SMILES IDX 31 37 32 38 67 39 33 40 72 41 66 42 68 43 34 44 71 45 65 46
REMARK SMILES IDX 64 47 35 49 57 50 42 51 56 52 43 53 46 54 55 55 69 56 44 57
REMARK SMILES IDX 45 58 54 60 70 61 47 62 36 63 37 64 41 65 38 66 40 67 39 68
REMARK SMILES IDX 58 69 59 70 63 71 60 72 62 73 61 74 48 75 49 76 53 77 50 78
REMARK SMILES IDX 52 79 51 80
REMARK H PARENT 17 6 7 12 24 29 68 48 46 59
REMARK Flexibility Score: inf
ROOT
ATOM      1  C   UNL A   1      33.324  20.378  25.555  1.00  0.00     0.021 C 
ENDROOT
BRANCH   1   2
ATOM      2  C   UNL A   1      32.196  21.269  25.009  1.00  0.00     0.116 C 
BRANCH   2   3
ATOM      3  N   UNL A   1      31.559  22.015  26.083  1.00  0.00    -0.356 N 
ATOM      4  C   UNL A   1      31.433  23.339  26.366  1.00  0.00     0.220 C 
ATOM      5  O   UNL A   1      30.874  23.624  27.430  1.00  0.00    -0.275 OA
ATOM      6  H   UNL A   1      31.125  21.434  26.750  1.00  0.00     0.163 HD
BRANCH   4   7
ATOM      7  C   UNL A   1      31.834  24.453  25.407  1.00  0.00     0.104 C 
BRANCH   7   8
ATOM      8  C   UNL A   1      32.425  25.783  25.948  1.00  0.00     0.010 C 
ATOM      9  N   UNL A   1      32.372  28.610  25.092  1.00  0.00    -0.330 N 
ATOM     10  C   UNL A   1      31.693  28.251  26.324  1.00  0.00     0.184 C 
ATOM     11  C   UNL A   1      33.655  27.945  25.140  1.00  0.00     0.184 C 
ATOM     12  H   UNL A   1      32.542  29.609  24.979  1.00  0.00     0.348 HD
ATOM     13  C   UNL A   1      32.818  28.494  27.344  1.00  0.00     0.071 C 
ATOM     14  C   UNL A   1      31.274  26.772  26.305  1.00  0.00     0.069 C 
ATOM     15  C   UNL A   1      34.117  28.319  26.551  1.00  0.00     0.071 C 
ATOM     16  C   UNL A   1      33.480  26.429  25.031  1.00  0.00     0.069 C 
BRANCH   9  17
ATOM     17  C   UNL A   1      31.648  28.975  23.884  1.00  0.00     0.266 C 
BRANCH  17  18
ATOM     18  C   UNL A   1      30.097  28.875  23.710  1.00  0.00     0.044 C 
BRANCH  18  19
ATOM     19  C   UNL A   1      29.496  30.047  22.926  1.00  0.00     0.006 C 
ATOM     20  C   UNL A   1      28.075  30.449  23.312  1.00  0.00     0.004 C 
ENDBRANCH  18  19
BRANCH  18  21
ATOM     21  C   UNL A   1      29.701  27.531  23.046  1.00  0.00     0.006 C 
ATOM     22  C   UNL A   1      28.638  26.730  23.793  1.00  0.00     0.004 C 
ENDBRANCH  18  21
ENDBRANCH  17  18
ENDBRANCH   9  17
ENDBRANCH   7   8
ENDBRANCH   4   7
ENDBRANCH   2   3
ENDBRANCH   1   2
BRANCH   1  23
ATOM     23  C   UNL A   1      34.727  20.950  25.351  1.00  0.00     0.002 C 
BRANCH  23  24
ATOM     24  C   UNL A   1      34.755  22.411  24.893  1.00  0.00     0.002 C 
BRANCH  24  25
ATOM     25  C   UNL A   1      35.620  23.357  25.733  1.00  0.00     0.021 C 
BRANCH  25  26
ATOM     26  C   UNL A   1      36.979  23.720  25.135  1.00  0.00     0.116 C 
BRANCH  26  27
ATOM     27  N   UNL A   1      37.995  22.716  25.414  1.00  0.00    -0.352 N 
ATOM     28  C   UNL A   1      39.200  22.838  26.045  1.00  0.00     0.251 C 
ATOM     29  H   UNL A   1      37.781  21.809  25.099  1.00  0.00     0.163 HD
ATOM     30  O   UNL A   1      40.004  21.895  26.019  1.00  0.00    -0.269 OA
BRANCH  28  31
ATOM     31  C   UNL A   1      39.566  24.079  26.752  1.00  0.00     0.039 A 
ATOM     32  C   UNL A   1      40.278  25.064  26.061  1.00  0.00     0.014 A 
ATOM     33  C   UNL A   1      39.251  24.261  28.103  1.00  0.00     0.014 A 
ATOM     34  C   UNL A   1      40.636  26.245  26.711  1.00  0.00     0.010 A 
ATOM     35  C   UNL A   1      39.548  25.469  28.730  1.00  0.00     0.010 A 
ATOM     36  C   UNL A   1      40.255  26.467  28.044  1.00  0.00    -0.014 A 
BRANCH  36  37
ATOM     37  C   UNL A   1      40.611  27.733  28.732  1.00  0.00     0.031 A 
ATOM     38  C   UNL A   1      41.997  27.936  29.279  1.00  0.00     0.074 A 
ATOM     39  C   UNL A   1      39.677  28.692  28.881  1.00  0.00     0.049 A 
ATOM     40  N   UNL A   1      42.495  28.975  29.901  1.00  0.00    -0.248 NA
ATOM     41  C   UNL A   1      42.945  26.820  29.123  1.00  0.00     0.031 C 
ATOM     42  C   UNL A   1      38.288  28.602  28.425  1.00  0.00     0.029 A 
ATOM     43  N   UNL A   1      39.759  29.938  29.451  1.00  0.00    -0.354 N 
ATOM     44  C   UNL A   1      43.807  28.637  30.211  1.00  0.00     0.074 A 
ATOM     45  C   UNL A   1      44.011  27.276  29.765  1.00  0.00     0.031 C 
ATOM     46  C   UNL A   1      37.661  29.759  28.696  1.00  0.00     0.029 A 
ATOM     47  C   UNL A   1      38.591  30.656  29.372  1.00  0.00     0.049 A 
ATOM     48  H   UNL A   1      40.577  30.284  29.874  1.00  0.00     0.167 HD
ATOM     49  C   UNL A   1      44.766  29.398  30.790  1.00  0.00     0.031 A 
ATOM     50  C   UNL A   1      38.306  31.903  29.791  1.00  0.00     0.031 A 
ATOM     51  C   UNL A   1      44.566  30.751  31.235  1.00  0.00     0.049 A 
ATOM     52  C   UNL A   1      39.385  32.718  30.448  1.00  0.00     0.074 A 
ATOM     53  C   UNL A   1      45.479  31.614  31.817  1.00  0.00     0.029 A 
ATOM     54  N   UNL A   1      43.368  31.441  31.141  1.00  0.00    -0.354 N 
ATOM     55  N   UNL A   1      40.634  32.401  30.687  1.00  0.00    -0.248 NA
ATOM     56  C   UNL A   1      39.016  34.075  30.874  1.00  0.00     0.031 C 
ATOM     57  C   UNL A   1      44.822  32.815  32.107  1.00  0.00     0.029 A 
ATOM     58  C   UNL A   1      43.515  32.717  31.658  1.00  0.00     0.049 A 
ATOM     59  H   UNL A   1      42.535  31.078  30.761  1.00  0.00     0.167 HD
ATOM     60  C   UNL A   1      41.208  33.530  31.256  1.00  0.00     0.074 A 
ATOM     61  C   UNL A   1      40.176  34.544  31.308  1.00  0.00     0.031 C 
ATOM     62  C   UNL A   1      42.477  33.714  31.696  1.00  0.00     0.031 A 
BRANCH  49  63
ATOM     63  C   UNL A   1      46.125  28.778  30.968  1.00  0.00    -0.014 A 
ATOM     64  C   UNL A   1      47.156  29.026  30.046  1.00  0.00     0.009 A 
ATOM     65  C   UNL A   1      46.392  27.967  32.081  1.00  0.00     0.009 A 
ATOM     66  C   UNL A   1      48.416  28.447  30.219  1.00  0.00     0.001 A 
ATOM     67  C   UNL A   1      47.660  27.412  32.267  1.00  0.00     0.001 A 
ATOM     68  C   UNL A   1      48.668  27.645  31.331  1.00  0.00     0.000 A 
ENDBRANCH  49  63
BRANCH  50  69
ATOM     69  C   UNL A   1      36.952  32.480  29.577  1.00  0.00    -0.014 A 
ATOM     70  C   UNL A   1      36.649  33.159  28.387  1.00  0.00     0.009 A 
ATOM     71  C   UNL A   1      35.968  32.383  30.573  1.00  0.00     0.009 A 
ATOM     72  C   UNL A   1      35.403  33.767  28.215  1.00  0.00     0.001 A 
ATOM     73  C   UNL A   1      34.712  32.966  30.385  1.00  0.00     0.001 A 
ATOM     74  C   UNL A   1      34.436  33.668  29.213  1.00  0.00     0.000 A 
ENDBRANCH  50  69
BRANCH  62  75
ATOM     75  C   UNL A   1      42.825  35.079  32.220  1.00  0.00    -0.014 A 
ATOM     76  C   UNL A   1      42.494  35.467  33.528  1.00  0.00     0.009 A 
ATOM     77  C   UNL A   1      43.500  35.987  31.389  1.00  0.00     0.009 A 
ATOM     78  C   UNL A   1      42.790  36.756  33.976  1.00  0.00     0.001 A 
ATOM     79  C   UNL A   1      43.824  37.262  31.851  1.00  0.00     0.001 A 
ATOM     80  C   UNL A   1      43.456  37.651  33.139  1.00  0.00     0.000 A 
ENDBRANCH  62  75
ENDBRANCH  36  37
ENDBRANCH  28  31
ENDBRANCH  26  27
ENDBRANCH  25  26
ENDBRANCH  24  25
ENDBRANCH  23  24
ENDBRANCH   1  23
TORSDOF 18
ENDMDL
