MODEL 1
REMARK VINA RESULT:     -12.0      0.000      0.000
REMARK SMILES COc1cc([C@@H]2CC[NH2+][C@@H]2C(=O)NCCCCCCNC(=O)c2ccc(-c3c4nc(c(-c5ccccc5)c5ccc([nH]5)c(-c5ccccc5)c5nc(c(-c6ccccc6)c6ccc3[nH]6)C=C5)C=C4)cc2)cc(OC)c1OC
REMARK SMILES IDX 16 1 15 2 14 3 13 4 11 5 12 6 10 8 6 9 7 10 8 11 9 12 5 15
REMARK SMILES IDX 3 16 4 17 75 18 72 19 71 20 2 21 1 22 76 23 77 24 73 25
REMARK SMILES IDX 74 26 17 27 18 28 19 29 20 30 21 31 22 33 23 34 24 35 70 36
REMARK SMILES IDX 25 37 69 38 26 39 27 40 28 41 63 42 29 43 68 44 62 45 64 46
REMARK SMILES IDX 30 47 67 48 61 49 60 50 31 52 53 53 38 54 52 55 39 56 42 57
REMARK SMILES IDX 51 58 65 59 40 60 41 61 50 63 66 64 43 65 32 66 33 67 37 68
REMARK SMILES IDX 34 69 36 70 35 71 54 72 55 73 59 74 56 75 58 76 57 77 44 78
REMARK SMILES IDX 45 79 49 80 46 81 48 82 47 83
REMARK H PARENT 13 7 9 13 9 14 20 32 64 51 42 62
REMARK Flexibility Score: inf
ROOT
ATOM      1  C   UNL A   1      34.924  32.349  28.863  1.00  0.00     0.002 C 
ENDROOT
BRANCH   1   2
ATOM      2  C   UNL A   1      35.793  31.484  27.953  1.00  0.00     0.021 C 
BRANCH   2   3
ATOM      3  C   UNL A   1      35.181  29.906  27.533  1.00  0.00     0.116 C 
BRANCH   3   4
ATOM      4  N   UNL A   1      33.321  29.022  27.765  1.00  0.00    -0.351 N 
ATOM      5  C   UNL A   1      32.034  28.727  27.111  1.00  0.00     0.278 C 
ATOM      6  O   UNL A   1      31.160  28.204  27.813  1.00  0.00    -0.268 OA
ATOM      7  H   UNL A   1      33.280  28.652  28.677  1.00  0.00     0.163 HD
BRANCH   5   8
ATOM      8  C   UNL A   1      31.754  29.044  25.563  1.00  0.00     0.280 C 
ATOM      9  C   UNL A   1      31.573  27.791  24.745  1.00  0.00     0.093 C 
ATOM     10  C   UNL A   1      32.251  28.008  23.420  1.00  0.00     0.076 C 
ATOM     11  C   UNL A   1      33.249  29.121  23.668  1.00  0.00     0.262 C 
ATOM     12  N   UNL A   1      32.860  29.812  24.906  1.00  0.00    -0.335 N 
ATOM     13  H   UNL A   1      32.538  30.754  24.686  1.00  0.00     0.346 HD
ATOM     14  H   UNL A   1      33.661  29.871  25.534  1.00  0.00     0.346 HD
BRANCH   9  15
ATOM     15  C   UNL A   1      32.247  26.849  25.677  1.00  0.00    -0.031 A 
ATOM     16  C   UNL A   1      34.395  24.577  25.328  1.00  0.00     0.164 A 
ATOM     17  C   UNL A   1      33.859  26.264  25.015  1.00  0.00     0.055 A 
ATOM     18  C   UNL A   1      33.375  23.433  26.276  1.00  0.00     0.203 A 
ATOM     19  C   UNL A   1      31.759  23.959  26.865  1.00  0.00     0.164 A 
ATOM     20  C   UNL A   1      31.176  25.659  26.589  1.00  0.00     0.055 A 
BRANCH  16  21
ATOM     21  O   UNL A   1      35.561  24.183  24.725  1.00  0.00    -0.493 OA
ATOM     22  C   UNL A   1      36.600  23.948  25.670  1.00  0.00     0.278 C 
ENDBRANCH  16  21
BRANCH  18  23
ATOM     23  O   UNL A   1      33.629  22.082  26.270  1.00  0.00    -0.490 OA
ATOM     24  C   UNL A   1      34.196  21.519  27.446  1.00  0.00     0.278 C 
ENDBRANCH  18  23
BRANCH  19  25
ATOM     25  O   UNL A   1      30.816  23.142  27.440  1.00  0.00    -0.493 OA
ATOM     26  C   UNL A   1      29.931  22.476  26.552  1.00  0.00     0.278 C 
ENDBRANCH  19  25
ENDBRANCH   9  15
ENDBRANCH   5   8
ENDBRANCH   3   4
ENDBRANCH   2   3
ENDBRANCH   1   2
BRANCH   1  27
ATOM     27  C   UNL A   1      34.313  33.531  28.137  1.00  0.00     0.002 C 
BRANCH  27  28
ATOM     28  C   UNL A   1      33.295  34.280  28.968  1.00  0.00     0.021 C 
BRANCH  28  29
ATOM     29  C   UNL A   1      33.989  35.377  29.726  1.00  0.00     0.116 C 
BRANCH  29  30
ATOM     30  N   UNL A   1      33.049  36.052  30.631  1.00  0.00    -0.352 N 
ATOM     31  C   UNL A   1      32.808  35.767  31.945  1.00  0.00     0.251 C 
ATOM     32  H   UNL A   1      32.532  36.796  30.246  1.00  0.00     0.163 HD
ATOM     33  O   UNL A   1      31.795  36.125  32.523  1.00  0.00    -0.269 OA
BRANCH  31  34
ATOM     34  C   UNL A   1      33.871  35.016  32.609  1.00  0.00     0.039 A 
ATOM     35  C   UNL A   1      33.697  33.675  32.918  1.00  0.00     0.014 A 
ATOM     36  C   UNL A   1      35.116  35.649  32.689  1.00  0.00     0.014 A 
ATOM     37  C   UNL A   1      34.818  32.950  33.295  1.00  0.00     0.010 A 
ATOM     38  C   UNL A   1      36.237  34.873  32.828  1.00  0.00     0.010 A 
ATOM     39  C   UNL A   1      36.094  33.541  33.222  1.00  0.00    -0.014 A 
BRANCH  39  40
ATOM     40  C   UNL A   1      37.304  32.830  33.659  1.00  0.00     0.031 A 
ATOM     41  C   UNL A   1      37.951  31.858  32.708  1.00  0.00     0.074 A 
ATOM     42  C   UNL A   1      37.782  33.038  34.898  1.00  0.00     0.049 A 
ATOM     43  N   UNL A   1      39.024  31.133  32.877  1.00  0.00    -0.248 NA
ATOM     44  C   UNL A   1      37.279  31.624  31.413  1.00  0.00     0.031 C 
ATOM     45  C   UNL A   1      37.180  33.907  35.913  1.00  0.00     0.029 A 
ATOM     46  N   UNL A   1      38.909  32.552  35.500  1.00  0.00    -0.354 N 
ATOM     47  C   UNL A   1      39.129  30.358  31.729  1.00  0.00     0.074 A 
ATOM     48  C   UNL A   1      37.957  30.600  30.930  1.00  0.00     0.031 C 
ATOM     49  C   UNL A   1      37.994  33.965  36.978  1.00  0.00     0.029 A 
ATOM     50  C   UNL A   1      39.143  33.100  36.737  1.00  0.00     0.049 A 
ATOM     51  H   UNL A   1      39.495  31.877  35.088  1.00  0.00     0.167 HD
ATOM     52  C   UNL A   1      40.146  29.560  31.339  1.00  0.00     0.031 A 
ATOM     53  C   UNL A   1      40.189  32.932  37.564  1.00  0.00     0.031 A 
ATOM     54  C   UNL A   1      41.319  29.355  32.136  1.00  0.00     0.049 A 
ATOM     55  C   UNL A   1      41.305  32.026  37.121  1.00  0.00     0.074 A 
ATOM     56  C   UNL A   1      42.443  28.609  31.842  1.00  0.00     0.029 A 
ATOM     57  N   UNL A   1      41.513  29.912  33.392  1.00  0.00    -0.354 N 
ATOM     58  N   UNL A   1      41.434  31.361  35.996  1.00  0.00    -0.248 NA
ATOM     59  C   UNL A   1      42.423  31.862  38.055  1.00  0.00     0.031 C 
ATOM     60  C   UNL A   1      43.292  28.663  32.953  1.00  0.00     0.029 A 
ATOM     61  C   UNL A   1      42.729  29.505  33.903  1.00  0.00     0.049 A 
ATOM     62  H   UNL A   1      40.878  30.508  33.850  1.00  0.00     0.167 HD
ATOM     63  C   UNL A   1      42.666  30.725  36.074  1.00  0.00     0.074 A 
ATOM     64  C   UNL A   1      43.247  31.103  37.347  1.00  0.00     0.031 C 
ATOM     65  C   UNL A   1      43.269  29.904  35.177  1.00  0.00     0.031 A 
BRANCH  52  66
ATOM     66  C   UNL A   1      40.010  28.875  30.008  1.00  0.00    -0.014 A 
ATOM     67  C   UNL A   1      40.365  29.521  28.809  1.00  0.00     0.009 A 
ATOM     68  C   UNL A   1      39.488  27.575  29.944  1.00  0.00     0.009 A 
ATOM     69  C   UNL A   1      40.146  28.904  27.576  1.00  0.00     0.001 A 
ATOM     70  C   UNL A   1      39.309  26.944  28.711  1.00  0.00     0.001 A 
ATOM     71  C   UNL A   1      39.623  27.613  27.529  1.00  0.00     0.000 A 
ENDBRANCH  52  66
BRANCH  53  72
ATOM     72  C   UNL A   1      40.254  33.674  38.849  1.00  0.00    -0.014 A 
ATOM     73  C   UNL A   1      39.721  33.116  40.021  1.00  0.00     0.009 A 
ATOM     74  C   UNL A   1      40.857  34.939  38.917  1.00  0.00     0.009 A 
ATOM     75  C   UNL A   1      39.758  33.823  41.226  1.00  0.00     0.001 A 
ATOM     76  C   UNL A   1      40.923  35.630  40.130  1.00  0.00     0.001 A 
ATOM     77  C   UNL A   1      40.363  35.077  41.279  1.00  0.00     0.000 A 
ENDBRANCH  53  72
BRANCH  65  78
ATOM     78  C   UNL A   1      44.640  29.402  35.529  1.00  0.00    -0.014 A 
ATOM     79  C   UNL A   1      45.793  30.128  35.197  1.00  0.00     0.009 A 
ATOM     80  C   UNL A   1      44.768  28.204  36.249  1.00  0.00     0.009 A 
ATOM     81  C   UNL A   1      47.053  29.640  35.544  1.00  0.00     0.001 A 
ATOM     82  C   UNL A   1      46.025  27.739  36.629  1.00  0.00     0.001 A 
ATOM     83  C   UNL A   1      47.167  28.451  36.265  1.00  0.00     0.000 A 
ENDBRANCH  65  78
ENDBRANCH  39  40
ENDBRANCH  31  34
ENDBRANCH  29  30
ENDBRANCH  28  29
ENDBRANCH  27  28
ENDBRANCH   1  27
TORSDOF 17
ENDMDL
MODEL 2
REMARK VINA RESULT:     -12.0      6.541     11.858
REMARK SMILES COc1cc([C@@H]2CC[NH2+][C@@H]2C(=O)NCCCCCCNC(=O)c2ccc(-c3c4nc(c(-c5ccccc5)c5ccc([nH]5)c(-c5ccccc5)c5nc(c(-c6ccccc6)c6ccc3[nH]6)C=C5)C=C4)cc2)cc(OC)c1OC
REMARK SMILES IDX 16 1 15 2 14 3 13 4 11 5 12 6 10 8 6 9 7 10 8 11 9 12 5 15
REMARK SMILES IDX 3 16 4 17 75 18 72 19 71 20 2 21 1 22 76 23 77 24 73 25
REMARK SMILES IDX 74 26 17 27 18 28 19 29 20 30 21 31 22 33 23 34 24 35 70 36
REMARK SMILES IDX 25 37 69 38 26 39 27 40 28 41 63 42 29 43 68 44 62 45 64 46
REMARK SMILES IDX 30 47 67 48 61 49 60 50 31 52 53 53 38 54 52 55 39 56 42 57
REMARK SMILES IDX 51 58 65 59 40 60 41 61 50 63 66 64 43 65 32 66 33 67 37 68
REMARK SMILES IDX 34 69 36 70 35 71 54 72 55 73 59 74 56 75 58 76 57 77 44 78
REMARK SMILES IDX 45 79 49 80 46 81 48 82 47 83
REMARK H PARENT 13 7 9 13 9 14 20 32 64 51 42 62
REMARK Flexibility Score: inf
ROOT
ATOM      1  C   UNL A   1      40.534  22.235  26.782  1.00  0.00     0.002 C 
ENDROOT
BRANCH   1   2
ATOM      2  C   UNL A   1      39.725  23.356  27.432  1.00  0.00     0.021 C 
BRANCH   2   3
ATOM      3  C   UNL A   1      38.413  24.033  26.503  1.00  0.00     0.116 C 
BRANCH   3   4
ATOM      4  N   UNL A   1      37.609  23.540  24.658  1.00  0.00    -0.351 N 
ATOM      5  C   UNL A   1      36.611  22.710  23.958  1.00  0.00     0.278 C 
ATOM      6  O   UNL A   1      36.626  22.748  22.721  1.00  0.00    -0.268 OA
ATOM      7  H   UNL A   1      38.082  24.071  23.977  1.00  0.00     0.163 HD
BRANCH   5   8
ATOM      8  C   UNL A   1      35.538  21.804  24.733  1.00  0.00     0.280 C 
ATOM      9  C   UNL A   1      34.150  22.389  24.682  1.00  0.00     0.093 C 
ATOM     10  C   UNL A   1      33.510  22.166  26.025  1.00  0.00     0.076 C 
ATOM     11  C   UNL A   1      34.667  21.955  26.980  1.00  0.00     0.262 C 
ATOM     12  N   UNL A   1      35.857  21.619  26.185  1.00  0.00    -0.335 N 
ATOM     13  H   UNL A   1      36.121  20.649  26.356  1.00  0.00     0.346 HD
ATOM     14  H   UNL A   1      36.632  22.227  26.449  1.00  0.00     0.346 HD
BRANCH   9  15
ATOM     15  C   UNL A   1      34.539  23.790  24.368  1.00  0.00    -0.031 A 
ATOM     16  C   UNL A   1      33.682  26.606  25.477  1.00  0.00     0.164 A 
ATOM     17  C   UNL A   1      34.228  24.922  25.783  1.00  0.00     0.055 A 
ATOM     18  C   UNL A   1      33.418  27.214  23.801  1.00  0.00     0.203 A 
ATOM     19  C   UNL A   1      33.638  26.100  22.405  1.00  0.00     0.164 A 
ATOM     20  C   UNL A   1      34.206  24.391  22.659  1.00  0.00     0.055 A 
BRANCH  16  21
ATOM     21  O   UNL A   1      33.379  27.362  26.581  1.00  0.00    -0.493 OA
ATOM     22  C   UNL A   1      34.274  28.459  26.739  1.00  0.00     0.278 C 
ENDBRANCH  16  21
BRANCH  18  23
ATOM     23  O   UNL A   1      32.729  28.379  23.567  1.00  0.00    -0.490 OA
ATOM     24  C   UNL A   1      31.310  28.328  23.648  1.00  0.00     0.278 C 
ENDBRANCH  18  23
BRANCH  19  25
ATOM     25  O   UNL A   1      33.304  26.380  21.103  1.00  0.00    -0.493 OA
ATOM     26  C   UNL A   1      32.204  25.662  20.565  1.00  0.00     0.278 C 
ENDBRANCH  19  25
ENDBRANCH   9  15
ENDBRANCH   5   8
ENDBRANCH   3   4
ENDBRANCH   2   3
ENDBRANCH   1   2
BRANCH   1  27
ATOM     27  C   UNL A   1      41.632  21.708  27.683  1.00  0.00     0.002 C 
BRANCH  27  28
ATOM     28  C   UNL A   1      42.137  20.343  27.271  1.00  0.00     0.021 C 
BRANCH  28  29
ATOM     29  C   UNL A   1      42.173  20.263  25.771  1.00  0.00     0.116 C 
BRANCH  29  30
ATOM     30  N   UNL A   1      43.246  19.363  25.328  1.00  0.00    -0.352 N 
ATOM     31  C   UNL A   1      44.410  19.701  24.701  1.00  0.00     0.251 C 
ATOM     32  H   UNL A   1      43.111  18.403  25.505  1.00  0.00     0.163 HD
ATOM     33  O   UNL A   1      45.076  18.899  24.067  1.00  0.00    -0.269 OA
BRANCH  31  34
ATOM     34  C   UNL A   1      44.806  21.098  24.865  1.00  0.00     0.039 A 
ATOM     35  C   UNL A   1      44.382  22.061  23.960  1.00  0.00     0.014 A 
ATOM     36  C   UNL A   1      45.413  21.428  26.081  1.00  0.00     0.014 A 
ATOM     37  C   UNL A   1      44.557  23.392  24.307  1.00  0.00     0.010 A 
ATOM     38  C   UNL A   1      45.360  22.729  26.508  1.00  0.00     0.010 A 
ATOM     39  C   UNL A   1      45.020  23.728  25.594  1.00  0.00    -0.014 A 
BRANCH  39  40
ATOM     40  C   UNL A   1      45.268  25.122  25.990  1.00  0.00     0.031 A 
ATOM     41  C   UNL A   1      44.135  25.914  26.587  1.00  0.00     0.074 A 
ATOM     42  C   UNL A   1      46.481  25.662  25.781  1.00  0.00     0.049 A 
ATOM     43  N   UNL A   1      44.131  27.148  27.014  1.00  0.00    -0.248 NA
ATOM     44  C   UNL A   1      42.814  25.256  26.668  1.00  0.00     0.031 C 
ATOM     45  C   UNL A   1      47.618  24.992  25.142  1.00  0.00     0.029 A 
ATOM     46  N   UNL A   1      46.966  26.895  26.117  1.00  0.00    -0.354 N 
ATOM     47  C   UNL A   1      42.817  27.404  27.386  1.00  0.00     0.074 A 
ATOM     48  C   UNL A   1      42.028  26.256  27.022  1.00  0.00     0.031 C 
ATOM     49  C   UNL A   1      48.694  25.790  25.218  1.00  0.00     0.029 A 
ATOM     50  C   UNL A   1      48.307  27.039  25.862  1.00  0.00     0.049 A 
ATOM     51  H   UNL A   1      46.409  27.608  26.504  1.00  0.00     0.167 HD
ATOM     52  C   UNL A   1      42.317  28.476  28.036  1.00  0.00     0.031 A 
ATOM     53  C   UNL A   1      49.127  28.065  26.146  1.00  0.00     0.031 A 
ATOM     54  C   UNL A   1      43.124  29.597  28.417  1.00  0.00     0.049 A 
ATOM     55  C   UNL A   1      48.549  29.259  26.855  1.00  0.00     0.074 A 
ATOM     56  C   UNL A   1      42.756  30.729  29.117  1.00  0.00     0.029 A 
ATOM     57  N   UNL A   1      44.476  29.716  28.125  1.00  0.00    -0.354 N 
ATOM     58  N   UNL A   1      47.322  29.458  27.277  1.00  0.00    -0.248 NA
ATOM     59  C   UNL A   1      49.475  30.361  27.139  1.00  0.00     0.031 C 
ATOM     60  C   UNL A   1      43.875  31.564  29.193  1.00  0.00     0.029 A 
ATOM     61  C   UNL A   1      44.955  30.918  28.608  1.00  0.00     0.049 A 
ATOM     62  H   UNL A   1      45.012  29.045  27.646  1.00  0.00     0.167 HD
ATOM     63  C   UNL A   1      47.336  30.695  27.908  1.00  0.00     0.074 A 
ATOM     64  C   UNL A   1      48.697  31.186  27.826  1.00  0.00     0.031 C 
ATOM     65  C   UNL A   1      46.319  31.368  28.504  1.00  0.00     0.031 A 
BRANCH  52  66
ATOM     66  C   UNL A   1      40.849  28.461  28.359  1.00  0.00    -0.014 A 
ATOM     67  C   UNL A   1      39.906  29.089  27.524  1.00  0.00     0.009 A 
ATOM     68  C   UNL A   1      40.400  27.839  29.533  1.00  0.00     0.009 A 
ATOM     69  C   UNL A   1      38.559  29.144  27.886  1.00  0.00     0.001 A 
ATOM     70  C   UNL A   1      39.045  27.859  29.872  1.00  0.00     0.001 A 
ATOM     71  C   UNL A   1      38.129  28.524  29.058  1.00  0.00     0.000 A 
ENDBRANCH  52  66
BRANCH  53  72
ATOM     72  C   UNL A   1      50.573  27.982  25.817  1.00  0.00    -0.014 A 
ATOM     73  C   UNL A   1      51.041  28.391  24.559  1.00  0.00     0.009 A 
ATOM     74  C   UNL A   1      51.497  27.502  26.758  1.00  0.00     0.009 A 
ATOM     75  C   UNL A   1      52.397  28.289  24.237  1.00  0.00     0.001 A 
ATOM     76  C   UNL A   1      52.857  27.432  26.446  1.00  0.00     0.001 A 
ATOM     77  C   UNL A   1      53.304  27.814  25.183  1.00  0.00     0.000 A 
ENDBRANCH  53  72
BRANCH  65  78
ATOM     78  C   UNL A   1      46.659  32.681  29.148  1.00  0.00    -0.014 A 
ATOM     79  C   UNL A   1      46.559  33.890  28.444  1.00  0.00     0.009 A 
ATOM     80  C   UNL A   1      47.038  32.705  30.500  1.00  0.00     0.009 A 
ATOM     81  C   UNL A   1      46.875  35.095  29.072  1.00  0.00     0.001 A 
ATOM     82  C   UNL A   1      47.314  33.914  31.135  1.00  0.00     0.001 A 
ATOM     83  C   UNL A   1      47.245  35.106  30.416  1.00  0.00     0.000 A 
ENDBRANCH  65  78
ENDBRANCH  39  40
ENDBRANCH  31  34
ENDBRANCH  29  30
ENDBRANCH  28  29
ENDBRANCH  27  28
ENDBRANCH   1  27
TORSDOF 17
ENDMDL
MODEL 3
REMARK VINA RESULT:     -11.8      2.182      6.503
REMARK SMILES COc1cc([C@@H]2CC[NH2+][C@@H]2C(=O)NCCCCCCNC(=O)c2ccc(-c3c4nc(c(-c5ccccc5)c5ccc([nH]5)c(-c5ccccc5)c5nc(c(-c6ccccc6)c6ccc3[nH]6)C=C5)C=C4)cc2)cc(OC)c1OC
REMARK SMILES IDX 16 1 15 2 14 3 13 4 11 5 12 6 10 8 6 9 7 10 8 11 9 12 5 15
REMARK SMILES IDX 3 16 4 17 75 18 72 19 71 20 2 21 1 22 76 23 77 24 73 25
REMARK SMILES IDX 74 26 17 27 18 28 19 29 20 30 21 31 22 33 23 34 24 35 70 36
REMARK SMILES IDX 25 37 69 38 26 39 27 40 28 41 63 42 29 43 68 44 62 45 64 46
REMARK SMILES IDX 30 47 67 48 61 49 60 50 31 52 53 53 38 54 52 55 39 56 42 57
REMARK SMILES IDX 51 58 65 59 40 60 41 61 50 63 66 64 43 65 32 66 33 67 37 68
REMARK SMILES IDX 34 69 36 70 35 71 54 72 55 73 59 74 56 75 58 76 57 77 44 78
REMARK SMILES IDX 45 79 49 80 46 81 48 82 47 83
REMARK H PARENT 13 7 9 13 9 14 20 32 64 51 42 62
REMARK Flexibility Score: inf
ROOT
ATOM      1  C   UNL A   1      33.350  30.060  26.466  1.00  0.00     0.002 C 
ENDROOT
BRANCH   1   2
ATOM      2  C   UNL A   1      33.889  28.830  27.194  1.00  0.00     0.021 C 
BRANCH   2   3
ATOM      3  C   UNL A   1      33.516  27.271  26.505  1.00  0.00     0.116 C 
BRANCH   3   4
ATOM      4  N   UNL A   1      31.830  26.071  26.596  1.00  0.00    -0.351 N 
ATOM      5  C   UNL A   1      30.636  25.607  25.866  1.00  0.00     0.278 C 
ATOM      6  O   UNL A   1      29.842  24.896  26.494  1.00  0.00    -0.268 OA
ATOM      7  H   UNL A   1      31.822  25.637  27.480  1.00  0.00     0.163 HD
BRANCH   5   8
ATOM      8  C   UNL A   1      30.361  25.977  24.329  1.00  0.00     0.280 C 
ATOM      9  C   UNL A   1      30.778  24.875  23.390  1.00  0.00     0.093 C 
ATOM     10  C   UNL A   1      31.396  25.516  22.178  1.00  0.00     0.076 C 
ATOM     11  C   UNL A   1      31.817  26.897  22.637  1.00  0.00     0.262 C 
ATOM     12  N   UNL A   1      31.088  27.206  23.876  1.00  0.00    -0.335 N 
ATOM     13  H   UNL A   1      30.419  27.955  23.702  1.00  0.00     0.346 HD
ATOM     14  H   UNL A   1      31.744  27.505  24.597  1.00  0.00     0.346 HD
BRANCH   9  15
ATOM     15  C   UNL A   1      31.717  24.178  24.310  1.00  0.00    -0.031 A 
ATOM     16  C   UNL A   1      34.730  23.296  24.116  1.00  0.00     0.164 A 
ATOM     17  C   UNL A   1      33.471  24.564  23.922  1.00  0.00     0.055 A 
ATOM     18  C   UNL A   1      34.306  21.636  24.677  1.00  0.00     0.203 A 
ATOM     19  C   UNL A   1      32.585  21.213  24.985  1.00  0.00     0.164 A 
ATOM     20  C   UNL A   1      31.275  22.463  24.819  1.00  0.00     0.055 A 
BRANCH  16  21
ATOM     21  O   UNL A   1      35.999  23.628  23.719  1.00  0.00    -0.493 OA
ATOM     22  C   UNL A   1      36.872  23.827  24.827  1.00  0.00     0.278 C 
ENDBRANCH  16  21
BRANCH  18  23
ATOM     23  O   UNL A   1      35.192  20.594  24.548  1.00  0.00    -0.490 OA
ATOM     24  C   UNL A   1      36.341  20.605  25.386  1.00  0.00     0.278 C 
ENDBRANCH  18  23
BRANCH  19  25
ATOM     25  O   UNL A   1      32.109  19.950  25.244  1.00  0.00    -0.493 OA
ATOM     26  C   UNL A   1      32.327  18.975  24.234  1.00  0.00     0.278 C 
ENDBRANCH  19  25
ENDBRANCH   9  15
ENDBRANCH   5   8
ENDBRANCH   3   4
ENDBRANCH   2   3
ENDBRANCH   1   2
BRANCH   1  27
ATOM     27  C   UNL A   1      31.934  30.409  26.876  1.00  0.00     0.002 C 
BRANCH  27  28
ATOM     28  C   UNL A   1      31.666  31.898  26.888  1.00  0.00     0.021 C 
BRANCH  28  29
ATOM     29  C   UNL A   1      32.889  32.615  27.389  1.00  0.00     0.116 C 
BRANCH  29  30
ATOM     30  N   UNL A   1      32.597  34.037  27.609  1.00  0.00    -0.352 N 
ATOM     31  C   UNL A   1      33.030  34.826  28.637  1.00  0.00     0.251 C 
ATOM     32  H   UNL A   1      32.024  34.473  26.938  1.00  0.00     0.163 HD
ATOM     33  O   UNL A   1      32.484  35.875  28.939  1.00  0.00    -0.269 OA
BRANCH  31  34
ATOM     34  C   UNL A   1      34.213  34.324  29.332  1.00  0.00     0.039 A 
ATOM     35  C   UNL A   1      34.085  33.408  30.366  1.00  0.00     0.014 A 
ATOM     36  C   UNL A   1      35.447  34.630  28.750  1.00  0.00     0.014 A 
ATOM     37  C   UNL A   1      35.235  32.767  30.805  1.00  0.00     0.010 A 
ATOM     38  C   UNL A   1      36.520  33.824  29.027  1.00  0.00     0.010 A 
ATOM     39  C   UNL A   1      36.449  32.954  30.116  1.00  0.00    -0.014 A 
BRANCH  39  40
ATOM     40  C   UNL A   1      37.703  32.336  30.574  1.00  0.00     0.031 A 
ATOM     41  C   UNL A   1      38.374  32.895  31.800  1.00  0.00     0.074 A 
ATOM     42  C   UNL A   1      38.231  31.318  29.874  1.00  0.00     0.049 A 
ATOM     43  N   UNL A   1      39.474  32.503  32.385  1.00  0.00    -0.248 NA
ATOM     44  C   UNL A   1      37.765  34.086  32.428  1.00  0.00     0.031 C 
ATOM     45  C   UNL A   1      37.688  30.758  28.633  1.00  0.00     0.029 A 
ATOM     46  N   UNL A   1      39.333  30.551  30.132  1.00  0.00    -0.354 N 
ATOM     47  C   UNL A   1      39.684  33.407  33.418  1.00  0.00     0.074 A 
ATOM     48  C   UNL A   1      38.682  34.435  33.309  1.00  0.00     0.031 C 
ATOM     49  C   UNL A   1      38.406  29.679  28.289  1.00  0.00     0.029 A 
ATOM     50  C   UNL A   1      39.484  29.506  29.255  1.00  0.00     0.049 A 
ATOM     51  H   UNL A   1      39.957  30.731  30.871  1.00  0.00     0.167 HD
ATOM     52  C   UNL A   1      40.593  33.355  34.415  1.00  0.00     0.031 A 
ATOM     53  C   UNL A   1      40.385  28.509  29.259  1.00  0.00     0.031 A 
ATOM     54  C   UNL A   1      41.564  32.307  34.524  1.00  0.00     0.049 A 
ATOM     55  C   UNL A   1      41.401  28.475  30.367  1.00  0.00     0.074 A 
ATOM     56  C   UNL A   1      42.513  32.108  35.506  1.00  0.00     0.029 A 
ATOM     57  N   UNL A   1      41.698  31.274  33.607  1.00  0.00    -0.354 N 
ATOM     58  N   UNL A   1      41.541  29.289  31.388  1.00  0.00    -0.248 NA
ATOM     59  C   UNL A   1      42.372  27.377  30.331  1.00  0.00     0.031 C 
ATOM     60  C   UNL A   1      43.267  30.985  35.148  1.00  0.00     0.029 A 
ATOM     61  C   UNL A   1      42.736  30.445  33.984  1.00  0.00     0.049 A 
ATOM     62  H   UNL A   1      41.138  31.151  32.808  1.00  0.00     0.167 HD
ATOM     63  C   UNL A   1      42.596  28.782  32.134  1.00  0.00     0.074 A 
ATOM     64  C   UNL A   1      43.042  27.581  31.456  1.00  0.00     0.031 C 
ATOM     65  C   UNL A   1      43.148  29.258  33.279  1.00  0.00     0.031 A 
BRANCH  52  66
ATOM     66  C   UNL A   1      40.556  34.457  35.437  1.00  0.00    -0.014 A 
ATOM     67  C   UNL A   1      41.344  35.615  35.298  1.00  0.00     0.009 A 
ATOM     68  C   UNL A   1      39.748  34.325  36.575  1.00  0.00     0.009 A 
ATOM     69  C   UNL A   1      41.367  36.585  36.301  1.00  0.00     0.001 A 
ATOM     70  C   UNL A   1      39.740  35.318  37.558  1.00  0.00     0.001 A 
ATOM     71  C   UNL A   1      40.560  36.438  37.428  1.00  0.00     0.000 A 
ENDBRANCH  52  66
BRANCH  53  72
ATOM     72  C   UNL A   1      40.328  27.444  28.225  1.00  0.00    -0.014 A 
ATOM     73  C   UNL A   1      39.561  26.288  28.435  1.00  0.00     0.009 A 
ATOM     74  C   UNL A   1      41.032  27.577  27.018  1.00  0.00     0.009 A 
ATOM     75  C   UNL A   1      39.527  25.273  27.475  1.00  0.00     0.001 A 
ATOM     76  C   UNL A   1      40.970  26.576  26.045  1.00  0.00     0.001 A 
ATOM     77  C   UNL A   1      40.228  25.421  26.280  1.00  0.00     0.000 A 
ENDBRANCH  53  72
BRANCH  65  78
ATOM     78  C   UNL A   1      44.261  28.453  33.883  1.00  0.00    -0.014 A 
ATOM     79  C   UNL A   1      44.004  27.406  34.781  1.00  0.00     0.009 A 
ATOM     80  C   UNL A   1      45.586  28.719  33.504  1.00  0.00     0.009 A 
ATOM     81  C   UNL A   1      45.059  26.670  35.321  1.00  0.00     0.001 A 
ATOM     82  C   UNL A   1      46.634  27.957  34.014  1.00  0.00     0.001 A 
ATOM     83  C   UNL A   1      46.371  26.942  34.932  1.00  0.00     0.000 A 
ENDBRANCH  65  78
ENDBRANCH  39  40
ENDBRANCH  31  34
ENDBRANCH  29  30
ENDBRANCH  28  29
ENDBRANCH  27  28
ENDBRANCH   1  27
TORSDOF 17
ENDMDL
