MODEL 1
REMARK VINA RESULT:     -11.0      0.000      0.000
REMARK SMILES CCCc1cc(OC(F)(F)F)cc2c1O[C@H](C(F)(F)F)C(C(=O)NCCCCCCNC(=O)c1ccc(-c3c4nc(c(-c5ccccc5)c5ccc([nH]5)c(-c5ccccc5)c5nc(c(-c6ccccc6)c6ccc3[nH]6)C=C5)C=C4)cc1)=C2
REMARK SMILES IDX 27 1 26 2 25 3 24 4 22 5 23 6 21 8 4 9 5 10 14 11 6 12 13 13
REMARK SMILES IDX 15 14 12 15 82 16 16 17 3 18 2 19 1 20 7 21 8 22 9 23 10 24
REMARK SMILES IDX 11 25 17 26 18 27 19 28 20 29 28 30 29 31 30 32 31 33 32 34
REMARK SMILES IDX 33 36 34 37 35 38 81 39 36 40 80 41 37 42 38 43 39 44 74 45
REMARK SMILES IDX 40 46 79 47 73 48 75 49 41 50 78 51 72 52 71 53 42 55 64 56
REMARK SMILES IDX 49 57 63 58 50 59 53 60 62 61 76 62 51 63 52 64 61 66 77 67
REMARK SMILES IDX 54 68 43 69 44 70 48 71 45 72 47 73 46 74 65 75 66 76 70 77
REMARK SMILES IDX 67 78 69 79 68 80 55 81 56 82 60 83 57 84 59 85 58 86
REMARK H PARENT 24 7 31 35 75 54 53 65
REMARK Flexibility Score: inf
ROOT
ATOM      1  C   UNL A   1      32.629  28.099  23.392  1.00  0.00     0.002 C 
ENDROOT
BRANCH   1   2
ATOM      2  C   UNL A   1      33.722  27.222  22.766  1.00  0.00     0.021 C 
BRANCH   2   3
ATOM      3  C   UNL A   1      33.171  25.956  22.106  1.00  0.00     0.116 C 
BRANCH   3   4
ATOM      4  N   UNL A   1      31.898  25.592  22.700  1.00  0.00    -0.352 N 
ATOM      5  C   UNL A   1      31.503  24.563  23.490  1.00  0.00     0.251 C 
ATOM      6  O   UNL A   1      30.328  24.555  23.857  1.00  0.00    -0.270 OA
ATOM      7  H   UNL A   1      31.173  26.222  22.485  1.00  0.00     0.163 HD
BRANCH   5   8
ATOM      8  C   UNL A   1      32.440  23.536  24.029  1.00  0.00     0.067 C 
ATOM      9  C   UNL A   1      35.621  20.851  24.634  1.00  0.00    -0.002 A 
ATOM     10  C   UNL A   1      35.310  19.490  24.804  1.00  0.00     0.054 A 
ATOM     11  C   UNL A   1      34.563  21.767  24.496  1.00  0.00     0.131 A 
ATOM     12  C   UNL A   1      33.991  19.054  24.923  1.00  0.00     0.130 A 
ATOM     13  C   UNL A   1      33.234  21.336  24.588  1.00  0.00     0.021 A 
ATOM     14  O   UNL A   1      34.880  23.060  24.172  1.00  0.00    -0.475 OA
ATOM     15  C   UNL A   1      32.958  19.984  24.815  1.00  0.00     0.058 A 
ATOM     16  C   UNL A   1      32.140  22.260  24.303  1.00  0.00     0.025 C 
ATOM     17  C   UNL A   1      33.836  24.063  24.306  1.00  0.00     0.314 C 
BRANCH   9  18
ATOM     18  C   UNL A   1      37.073  21.280  24.553  1.00  0.00     0.039 C 
BRANCH  18  19
ATOM     19  C   UNL A   1      37.665  21.826  25.863  1.00  0.00     0.001 C 
ATOM     20  C   UNL A   1      37.863  23.336  25.891  1.00  0.00     0.004 C 
ENDBRANCH  18  19
ENDBRANCH   9  18
BRANCH  12  21
ATOM     21  O   UNL A   1      33.583  17.763  25.101  1.00  0.00    -0.406 OA
BRANCH  21  22
ATOM     22  C   UNL A   1      33.949  16.818  24.108  1.00  0.00     0.573 C 
ATOM     23  F   UNL A   1      33.008  15.857  23.983  1.00  0.00    -0.132 F 
ATOM     24  F   UNL A   1      34.147  17.415  22.914  1.00  0.00    -0.132 F 
ATOM     25  F   UNL A   1      35.106  16.227  24.480  1.00  0.00    -0.132 F 
ENDBRANCH  21  22
ENDBRANCH  12  21
BRANCH  17  26
ATOM     26  C   UNL A   1      33.946  24.734  25.691  1.00  0.00     0.429 C 
ATOM     27  F   UNL A   1      34.533  23.918  26.602  1.00  0.00    -0.167 F 
ATOM     28  F   UNL A   1      34.702  25.859  25.625  1.00  0.00    -0.167 F 
ATOM     29  F   UNL A   1      32.754  25.100  26.208  1.00  0.00    -0.167 F 
ENDBRANCH  17  26
ENDBRANCH   5   8
ENDBRANCH   3   4
ENDBRANCH   2   3
ENDBRANCH   1   2
BRANCH   1  30
ATOM     30  C   UNL A   1      33.079  28.915  24.611  1.00  0.00     0.002 C 
BRANCH  30  31
ATOM     31  C   UNL A   1      32.671  28.334  25.967  1.00  0.00     0.021 C 
BRANCH  31  32
ATOM     32  C   UNL A   1      33.635  28.654  27.107  1.00  0.00     0.116 C 
BRANCH  32  33
ATOM     33  N   UNL A   1      33.549  30.048  27.508  1.00  0.00    -0.352 N 
ATOM     34  C   UNL A   1      34.440  30.803  28.223  1.00  0.00     0.251 C 
ATOM     35  H   UNL A   1      32.730  30.517  27.226  1.00  0.00     0.163 HD
ATOM     36  O   UNL A   1      34.100  31.898  28.669  1.00  0.00    -0.269 OA
BRANCH  34  37
ATOM     37  C   UNL A   1      35.810  30.306  28.468  1.00  0.00     0.039 A 
ATOM     38  C   UNL A   1      36.114  29.751  29.713  1.00  0.00     0.014 A 
ATOM     39  C   UNL A   1      36.803  30.430  27.492  1.00  0.00     0.014 A 
ATOM     40  C   UNL A   1      37.406  29.286  29.968  1.00  0.00     0.010 A 
ATOM     41  C   UNL A   1      38.073  29.908  27.724  1.00  0.00     0.010 A 
ATOM     42  C   UNL A   1      38.391  29.346  28.969  1.00  0.00    -0.014 A 
BRANCH  42  43
ATOM     43  C   UNL A   1      39.767  28.854  29.224  1.00  0.00     0.031 A 
ATOM     44  C   UNL A   1      40.772  29.739  29.907  1.00  0.00     0.074 A 
ATOM     45  C   UNL A   1      40.126  27.627  28.802  1.00  0.00     0.049 A 
ATOM     46  N   UNL A   1      42.029  29.498  30.190  1.00  0.00    -0.248 NA
ATOM     47  C   UNL A   1      40.314  31.081  30.304  1.00  0.00     0.031 C 
ATOM     48  C   UNL A   1      39.256  26.685  28.093  1.00  0.00     0.029 A 
ATOM     49  N   UNL A   1      41.321  26.961  28.907  1.00  0.00    -0.354 N 
ATOM     50  C   UNL A   1      42.512  30.659  30.778  1.00  0.00     0.074 A 
ATOM     51  C   UNL A   1      41.431  31.620  30.770  1.00  0.00     0.031 C 
ATOM     52  C   UNL A   1      39.939  25.554  27.851  1.00  0.00     0.029 A 
ATOM     53  C   UNL A   1      41.299  25.702  28.360  1.00  0.00     0.049 A 
ATOM     54  H   UNL A   1      42.118  27.349  29.335  1.00  0.00     0.167 HD
ATOM     55  C   UNL A   1      43.740  30.901  31.298  1.00  0.00     0.031 A 
ATOM     56  C   UNL A   1      42.266  24.770  28.279  1.00  0.00     0.031 A 
ATOM     57  C   UNL A   1      44.810  29.942  31.322  1.00  0.00     0.049 A 
ATOM     58  C   UNL A   1      43.619  25.059  28.867  1.00  0.00     0.074 A 
ATOM     59  C   UNL A   1      46.071  30.070  31.878  1.00  0.00     0.029 A 
ATOM     60  N   UNL A   1      44.745  28.674  30.768  1.00  0.00    -0.354 N 
ATOM     61  N   UNL A   1      44.039  26.139  29.478  1.00  0.00    -0.248 NA
ATOM     62  C   UNL A   1      44.624  23.992  28.763  1.00  0.00     0.031 C 
ATOM     63  C   UNL A   1      46.783  28.894  31.622  1.00  0.00     0.029 A 
ATOM     64  C   UNL A   1      45.949  28.017  30.949  1.00  0.00     0.049 A 
ATOM     65  H   UNL A   1      43.958  28.296  30.311  1.00  0.00     0.167 HD
ATOM     66  C   UNL A   1      45.350  25.875  29.853  1.00  0.00     0.074 A 
ATOM     67  C   UNL A   1      45.648  24.526  29.416  1.00  0.00     0.031 C 
ATOM     68  C   UNL A   1      46.229  26.676  30.502  1.00  0.00     0.031 A 
BRANCH  55  69
ATOM     69  C   UNL A   1      43.986  32.265  31.879  1.00  0.00    -0.014 A 
ATOM     70  C   UNL A   1      43.733  32.535  33.234  1.00  0.00     0.009 A 
ATOM     71  C   UNL A   1      44.500  33.288  31.068  1.00  0.00     0.009 A 
ATOM     72  C   UNL A   1      43.954  33.811  33.754  1.00  0.00     0.001 A 
ATOM     73  C   UNL A   1      44.746  34.556  31.597  1.00  0.00     0.001 A 
ATOM     74  C   UNL A   1      44.463  34.820  32.937  1.00  0.00     0.000 A 
ENDBRANCH  55  69
BRANCH  56  75
ATOM     75  C   UNL A   1      41.985  23.461  27.636  1.00  0.00    -0.014 A 
ATOM     76  C   UNL A   1      41.370  22.431  28.363  1.00  0.00     0.009 A 
ATOM     77  C   UNL A   1      42.334  23.233  26.296  1.00  0.00     0.009 A 
ATOM     78  C   UNL A   1      41.133  21.189  27.769  1.00  0.00     0.001 A 
ATOM     79  C   UNL A   1      42.072  21.999  25.697  1.00  0.00     0.001 A 
ATOM     80  C   UNL A   1      41.480  20.976  26.435  1.00  0.00     0.000 A 
ENDBRANCH  56  75
BRANCH  68  81
ATOM     81  C   UNL A   1      47.585  26.104  30.798  1.00  0.00    -0.014 A 
ATOM     82  C   UNL A   1      48.581  26.047  29.812  1.00  0.00     0.009 A 
ATOM     83  C   UNL A   1      47.878  25.641  32.091  1.00  0.00     0.009 A 
ATOM     84  C   UNL A   1      49.834  25.504  30.105  1.00  0.00     0.001 A 
ATOM     85  C   UNL A   1      49.140  25.124  32.388  1.00  0.00     0.001 A 
ATOM     86  C   UNL A   1      50.113  25.048  31.393  1.00  0.00     0.000 A 
ENDBRANCH  68  81
ENDBRANCH  42  43
ENDBRANCH  34  37
ENDBRANCH  32  33
ENDBRANCH  31  32
ENDBRANCH  30  31
ENDBRANCH   1  30
TORSDOF 18
ENDMDL
MODEL 2
REMARK VINA RESULT:     -10.9      0.900      5.722
REMARK SMILES CCCc1cc(OC(F)(F)F)cc2c1O[C@H](C(F)(F)F)C(C(=O)NCCCCCCNC(=O)c1ccc(-c3c4nc(c(-c5ccccc5)c5ccc([nH]5)c(-c5ccccc5)c5nc(c(-c6ccccc6)c6ccc3[nH]6)C=C5)C=C4)cc1)=C2
REMARK SMILES IDX 27 1 26 2 25 3 24 4 22 5 23 6 21 8 4 9 5 10 14 11 6 12 13 13
REMARK SMILES IDX 15 14 12 15 82 16 16 17 3 18 2 19 1 20 7 21 8 22 9 23 10 24
REMARK SMILES IDX 11 25 17 26 18 27 19 28 20 29 28 30 29 31 30 32 31 33 32 34
REMARK SMILES IDX 33 36 34 37 35 38 81 39 36 40 80 41 37 42 38 43 39 44 74 45
REMARK SMILES IDX 40 46 79 47 73 48 75 49 41 50 78 51 72 52 71 53 42 55 64 56
REMARK SMILES IDX 49 57 63 58 50 59 53 60 62 61 76 62 51 63 52 64 61 66 77 67
REMARK SMILES IDX 54 68 43 69 44 70 48 71 45 72 47 73 46 74 65 75 66 76 70 77
REMARK SMILES IDX 67 78 69 79 68 80 55 81 56 82 60 83 57 84 59 85 58 86
REMARK H PARENT 24 7 31 35 75 54 53 65
REMARK Flexibility Score: inf
ROOT
ATOM      1  C   UNL A   1      32.916  28.026  22.893  1.00  0.00     0.002 C 
ENDROOT
BRANCH   1   2
ATOM      2  C   UNL A   1      33.653  26.775  22.396  1.00  0.00     0.021 C 
BRANCH   2   3
ATOM      3  C   UNL A   1      32.750  25.815  21.618  1.00  0.00     0.116 C 
BRANCH   3   4
ATOM      4  N   UNL A   1      31.446  25.728  22.250  1.00  0.00    -0.352 N 
ATOM      5  C   UNL A   1      30.911  24.877  23.160  1.00  0.00     0.251 C 
ATOM      6  O   UNL A   1      29.755  25.097  23.523  1.00  0.00    -0.270 OA
ATOM      7  H   UNL A   1      30.823  26.431  21.957  1.00  0.00     0.163 HD
BRANCH   5   8
ATOM      8  C   UNL A   1      31.688  23.792  23.825  1.00  0.00     0.067 C 
ATOM      9  C   UNL A   1      34.724  21.293  25.319  1.00  0.00    -0.002 A 
ATOM     10  C   UNL A   1      34.719  19.943  24.924  1.00  0.00     0.054 A 
ATOM     11  C   UNL A   1      33.678  22.123  24.879  1.00  0.00     0.131 A 
ATOM     12  C   UNL A   1      33.664  19.404  24.187  1.00  0.00     0.130 A 
ATOM     13  C   UNL A   1      32.627  21.598  24.116  1.00  0.00     0.021 A 
ATOM     14  O   UNL A   1      33.779  23.465  25.137  1.00  0.00    -0.475 OA
ATOM     15  C   UNL A   1      32.621  20.238  23.788  1.00  0.00     0.058 A 
ATOM     16  C   UNL A   1      31.620  22.485  23.542  1.00  0.00     0.025 C 
ATOM     17  C   UNL A   1      32.591  24.280  24.944  1.00  0.00     0.314 C 
BRANCH   9  18
ATOM     18  C   UNL A   1      35.872  21.820  26.157  1.00  0.00     0.039 C 
BRANCH  18  19
ATOM     19  C   UNL A   1      37.200  21.997  25.404  1.00  0.00     0.001 C 
ATOM     20  C   UNL A   1      38.085  23.122  25.927  1.00  0.00     0.004 C 
ENDBRANCH  18  19
ENDBRANCH   9  18
BRANCH  12  21
ATOM     21  O   UNL A   1      33.557  18.110  23.764  1.00  0.00    -0.406 OA
BRANCH  21  22
ATOM     22  C   UNL A   1      33.448  17.104  24.759  1.00  0.00     0.573 C 
ATOM     23  F   UNL A   1      32.773  16.032  24.291  1.00  0.00    -0.132 F 
ATOM     24  F   UNL A   1      34.664  16.716  25.198  1.00  0.00    -0.132 F 
ATOM     25  F   UNL A   1      32.762  17.607  25.808  1.00  0.00    -0.132 F 
ENDBRANCH  21  22
ENDBRANCH  12  21
BRANCH  17  26
ATOM     26  C   UNL A   1      31.842  24.416  26.285  1.00  0.00     0.429 C 
ATOM     27  F   UNL A   1      32.545  23.880  27.314  1.00  0.00    -0.167 F 
ATOM     28  F   UNL A   1      31.630  25.722  26.591  1.00  0.00    -0.167 F 
ATOM     29  F   UNL A   1      30.630  23.819  26.289  1.00  0.00    -0.167 F 
ENDBRANCH  17  26
ENDBRANCH   5   8
ENDBRANCH   3   4
ENDBRANCH   2   3
ENDBRANCH   1   2
BRANCH   1  30
ATOM     30  C   UNL A   1      32.686  28.077  24.409  1.00  0.00     0.002 C 
BRANCH  30  31
ATOM     31  C   UNL A   1      33.959  28.062  25.260  1.00  0.00     0.021 C 
BRANCH  31  32
ATOM     32  C   UNL A   1      33.729  28.329  26.745  1.00  0.00     0.116 C 
BRANCH  32  33
ATOM     33  N   UNL A   1      33.595  29.750  27.021  1.00  0.00    -0.352 N 
ATOM     34  C   UNL A   1      34.420  30.577  27.736  1.00  0.00     0.251 C 
ATOM     35  H   UNL A   1      32.795  30.179  26.640  1.00  0.00     0.163 HD
ATOM     36  O   UNL A   1      34.033  31.699  28.062  1.00  0.00    -0.269 OA
BRANCH  34  37
ATOM     37  C   UNL A   1      35.772  30.128  28.125  1.00  0.00     0.039 A 
ATOM     38  C   UNL A   1      35.991  29.701  29.437  1.00  0.00     0.014 A 
ATOM     39  C   UNL A   1      36.832  30.171  27.213  1.00  0.00     0.014 A 
ATOM     40  C   UNL A   1      37.265  29.283  29.827  1.00  0.00     0.010 A 
ATOM     41  C   UNL A   1      38.087  29.694  27.585  1.00  0.00     0.010 A 
ATOM     42  C   UNL A   1      38.319  29.261  28.899  1.00  0.00    -0.014 A 
BRANCH  42  43
ATOM     43  C   UNL A   1      39.677  28.817  29.297  1.00  0.00     0.031 A 
ATOM     44  C   UNL A   1      40.196  27.478  28.850  1.00  0.00     0.074 A 
ATOM     45  C   UNL A   1      40.427  29.598  30.096  1.00  0.00     0.049 A 
ATOM     46  N   UNL A   1      41.342  26.904  29.120  1.00  0.00    -0.248 NA
ATOM     47  C   UNL A   1      39.301  26.666  28.010  1.00  0.00     0.031 C 
ATOM     48  C   UNL A   1      40.025  30.902  30.630  1.00  0.00     0.029 A 
ATOM     49  N   UNL A   1      41.688  29.407  30.602  1.00  0.00    -0.354 N 
ATOM     50  C   UNL A   1      41.297  25.662  28.500  1.00  0.00     0.074 A 
ATOM     51  C   UNL A   1      39.995  25.545  27.880  1.00  0.00     0.031 C 
ATOM     52  C   UNL A   1      41.030  31.404  31.365  1.00  0.00     0.029 A 
ATOM     53  C   UNL A   1      42.132  30.447  31.380  1.00  0.00     0.049 A 
ATOM     54  H   UNL A   1      42.224  28.600  30.424  1.00  0.00     0.167 HD
ATOM     55  C   UNL A   1      42.258  24.710  28.433  1.00  0.00     0.031 A 
ATOM     56  C   UNL A   1      43.299  30.614  32.031  1.00  0.00     0.031 A 
ATOM     57  C   UNL A   1      43.559  24.832  29.034  1.00  0.00     0.049 A 
ATOM     58  C   UNL A   1      44.352  29.545  31.938  1.00  0.00     0.074 A 
ATOM     59  C   UNL A   1      44.623  23.948  28.974  1.00  0.00     0.029 A 
ATOM     60  N   UNL A   1      43.974  25.906  29.804  1.00  0.00    -0.354 N 
ATOM     61  N   UNL A   1      44.318  28.406  31.293  1.00  0.00    -0.248 NA
ATOM     62  C   UNL A   1      45.610  29.797  32.655  1.00  0.00     0.031 C 
ATOM     63  C   UNL A   1      45.668  24.470  29.744  1.00  0.00     0.029 A 
ATOM     64  C   UNL A   1      45.270  25.699  30.243  1.00  0.00     0.049 A 
ATOM     65  H   UNL A   1      43.427  26.699  30.010  1.00  0.00     0.167 HD
ATOM     66  C   UNL A   1      45.555  27.814  31.505  1.00  0.00     0.074 A 
ATOM     67  C   UNL A   1      46.323  28.729  32.325  1.00  0.00     0.031 C 
ATOM     68  C   UNL A   1      46.016  26.619  31.062  1.00  0.00     0.031 A 
BRANCH  55  69
ATOM     69  C   UNL A   1      41.930  23.449  27.684  1.00  0.00    -0.014 A 
ATOM     70  C   UNL A   1      42.299  23.286  26.339  1.00  0.00     0.009 A 
ATOM     71  C   UNL A   1      41.263  22.402  28.337  1.00  0.00     0.009 A 
ATOM     72  C   UNL A   1      41.973  22.114  25.653  1.00  0.00     0.001 A 
ATOM     73  C   UNL A   1      40.963  21.220  27.657  1.00  0.00     0.001 A 
ATOM     74  C   UNL A   1      41.309  21.081  26.314  1.00  0.00     0.000 A 
ENDBRANCH  55  69
BRANCH  56  75
ATOM     75  C   UNL A   1      43.545  31.854  32.810  1.00  0.00    -0.014 A 
ATOM     76  C   UNL A   1      43.193  31.920  34.167  1.00  0.00     0.009 A 
ATOM     77  C   UNL A   1      44.126  32.977  32.202  1.00  0.00     0.009 A 
ATOM     78  C   UNL A   1      43.395  33.096  34.894  1.00  0.00     0.001 A 
ATOM     79  C   UNL A   1      44.351  34.143  32.938  1.00  0.00     0.001 A 
ATOM     80  C   UNL A   1      43.978  34.204  34.280  1.00  0.00     0.000 A 
ENDBRANCH  56  75
BRANCH  68  81
ATOM     81  C   UNL A   1      47.424  26.249  31.435  1.00  0.00    -0.014 A 
ATOM     82  C   UNL A   1      48.498  26.521  30.574  1.00  0.00     0.009 A 
ATOM     83  C   UNL A   1      47.679  25.645  32.676  1.00  0.00     0.009 A 
ATOM     84  C   UNL A   1      49.798  26.163  30.936  1.00  0.00     0.001 A 
ATOM     85  C   UNL A   1      48.982  25.313  33.046  1.00  0.00     0.001 A 
ATOM     86  C   UNL A   1      50.040  25.564  32.172  1.00  0.00     0.000 A 
ENDBRANCH  68  81
ENDBRANCH  42  43
ENDBRANCH  34  37
ENDBRANCH  32  33
ENDBRANCH  31  32
ENDBRANCH  30  31
ENDBRANCH   1  30
TORSDOF 18
ENDMDL
MODEL 3
REMARK VINA RESULT:     -10.5      2.784      4.447
REMARK SMILES CCCc1cc(OC(F)(F)F)cc2c1O[C@H](C(F)(F)F)C(C(=O)NCCCCCCNC(=O)c1ccc(-c3c4nc(c(-c5ccccc5)c5ccc([nH]5)c(-c5ccccc5)c5nc(c(-c6ccccc6)c6ccc3[nH]6)C=C5)C=C4)cc1)=C2
REMARK SMILES IDX 27 1 26 2 25 3 24 4 22 5 23 6 21 8 4 9 5 10 14 11 6 12 13 13
REMARK SMILES IDX 15 14 12 15 82 16 16 17 3 18 2 19 1 20 7 21 8 22 9 23 10 24
REMARK SMILES IDX 11 25 17 26 18 27 19 28 20 29 28 30 29 31 30 32 31 33 32 34
REMARK SMILES IDX 33 36 34 37 35 38 81 39 36 40 80 41 37 42 38 43 39 44 74 45
REMARK SMILES IDX 40 46 79 47 73 48 75 49 41 50 78 51 72 52 71 53 42 55 64 56
REMARK SMILES IDX 49 57 63 58 50 59 53 60 62 61 76 62 51 63 52 64 61 66 77 67
REMARK SMILES IDX 54 68 43 69 44 70 48 71 45 72 47 73 46 74 65 75 66 76 70 77
REMARK SMILES IDX 67 78 69 79 68 80 55 81 56 82 60 83 57 84 59 85 58 86
REMARK H PARENT 24 7 31 35 75 54 53 65
REMARK Flexibility Score: inf
ROOT
ATOM      1  C   UNL A   1      35.013  30.557  28.390  1.00  0.00     0.002 C 
ENDROOT
BRANCH   1   2
ATOM      2  C   UNL A   1      35.007  29.315  27.489  1.00  0.00     0.021 C 
BRANCH   2   3
ATOM      3  C   UNL A   1      34.002  29.413  26.339  1.00  0.00     0.116 C 
BRANCH   3   4
ATOM      4  N   UNL A   1      32.731  28.832  26.732  1.00  0.00    -0.352 N 
ATOM      5  C   UNL A   1      32.135  27.642  26.473  1.00  0.00     0.251 C 
ATOM      6  O   UNL A   1      31.037  27.439  26.991  1.00  0.00    -0.270 OA
ATOM      7  H   UNL A   1      32.191  29.425  27.302  1.00  0.00     0.163 HD
BRANCH   5   8
ATOM      8  C   UNL A   1      32.796  26.541  25.715  1.00  0.00     0.067 C 
ATOM      9  C   UNL A   1      33.660  23.020  23.581  1.00  0.00    -0.002 A 
ATOM     10  C   UNL A   1      34.635  22.154  24.108  1.00  0.00     0.054 A 
ATOM     11  C   UNL A   1      33.409  24.231  24.250  1.00  0.00     0.131 A 
ATOM     12  C   UNL A   1      35.403  22.510  25.216  1.00  0.00     0.130 A 
ATOM     13  C   UNL A   1      34.157  24.588  25.379  1.00  0.00     0.021 A 
ATOM     14  O   UNL A   1      32.351  24.988  23.820  1.00  0.00    -0.475 OA
ATOM     15  C   UNL A   1      35.159  23.730  25.845  1.00  0.00     0.058 A 
ATOM     16  C   UNL A   1      33.801  25.772  26.153  1.00  0.00     0.025 C 
ATOM     17  C   UNL A   1      32.257  26.354  24.307  1.00  0.00     0.314 C 
BRANCH   9  18
ATOM     18  C   UNL A   1      32.881  22.605  22.349  1.00  0.00     0.039 C 
BRANCH  18  19
ATOM     19  C   UNL A   1      31.900  21.441  22.561  1.00  0.00     0.001 C 
ATOM     20  C   UNL A   1      31.798  20.472  21.389  1.00  0.00     0.004 C 
ENDBRANCH  18  19
ENDBRANCH   9  18
BRANCH  12  21
ATOM     21  O   UNL A   1      36.378  21.751  25.797  1.00  0.00    -0.406 OA
BRANCH  21  22
ATOM     22  C   UNL A   1      37.660  21.753  25.186  1.00  0.00     0.573 C 
ATOM     23  F   UNL A   1      37.779  22.777  24.315  1.00  0.00    -0.132 F 
ATOM     24  F   UNL A   1      38.641  21.827  26.110  1.00  0.00    -0.132 F 
ATOM     25  F   UNL A   1      37.812  20.599  24.501  1.00  0.00    -0.132 F 
ENDBRANCH  21  22
ENDBRANCH  12  21
BRANCH  17  26
ATOM     26  C   UNL A   1      32.923  27.306  23.293  1.00  0.00     0.429 C 
ATOM     27  F   UNL A   1      34.143  27.722  23.717  1.00  0.00    -0.167 F 
ATOM     28  F   UNL A   1      33.109  26.688  22.100  1.00  0.00    -0.167 F 
ATOM     29  F   UNL A   1      32.198  28.418  23.042  1.00  0.00    -0.167 F 
ENDBRANCH  17  26
ENDBRANCH   5   8
ENDBRANCH   3   4
ENDBRANCH   2   3
ENDBRANCH   1   2
BRANCH   1  30
ATOM     30  C   UNL A   1      34.880  31.892  27.646  1.00  0.00     0.002 C 
BRANCH  30  31
ATOM     31  C   UNL A   1      33.642  32.717  28.006  1.00  0.00     0.021 C 
BRANCH  31  32
ATOM     32  C   UNL A   1      33.876  34.224  28.043  1.00  0.00     0.116 C 
BRANCH  32  33
ATOM     33  N   UNL A   1      33.425  34.807  29.296  1.00  0.00    -0.352 N 
ATOM     34  C   UNL A   1      33.833  34.540  30.576  1.00  0.00     0.251 C 
ATOM     35  H   UNL A   1      32.723  35.493  29.212  1.00  0.00     0.163 HD
ATOM     36  O   UNL A   1      33.181  34.961  31.530  1.00  0.00    -0.269 OA
BRANCH  34  37
ATOM     37  C   UNL A   1      35.054  33.743  30.818  1.00  0.00     0.039 A 
ATOM     38  C   UNL A   1      34.957  32.573  31.575  1.00  0.00     0.014 A 
ATOM     39  C   UNL A   1      36.297  34.171  30.341  1.00  0.00     0.014 A 
ATOM     40  C   UNL A   1      36.101  31.812  31.824  1.00  0.00     0.010 A 
ATOM     41  C   UNL A   1      37.425  33.379  30.536  1.00  0.00     0.010 A 
ATOM     42  C   UNL A   1      37.341  32.201  31.293  1.00  0.00    -0.014 A 
BRANCH  42  43
ATOM     43  C   UNL A   1      38.564  31.401  31.547  1.00  0.00     0.031 A 
ATOM     44  C   UNL A   1      39.471  31.750  32.694  1.00  0.00     0.074 A 
ATOM     45  C   UNL A   1      38.882  30.387  30.719  1.00  0.00     0.049 A 
ATOM     46  N   UNL A   1      40.598  31.189  33.057  1.00  0.00    -0.248 NA
ATOM     47  C   UNL A   1      39.074  32.895  33.529  1.00  0.00     0.031 C 
ATOM     48  C   UNL A   1      38.107  29.971  29.548  1.00  0.00     0.029 A 
ATOM     49  N   UNL A   1      39.948  29.522  30.737  1.00  0.00    -0.354 N 
ATOM     50  C   UNL A   1      41.049  31.922  34.147  1.00  0.00     0.074 A 
ATOM     51  C   UNL A   1      40.102  32.995  34.357  1.00  0.00     0.031 C 
ATOM     52  C   UNL A   1      38.708  28.916  28.977  1.00  0.00     0.029 A 
ATOM     53  C   UNL A   1      39.923  28.600  29.721  1.00  0.00     0.049 A 
ATOM     54  H   UNL A   1      40.661  29.560  31.415  1.00  0.00     0.167 HD
ATOM     55  C   UNL A   1      42.143  31.711  34.918  1.00  0.00     0.031 A 
ATOM     56  C   UNL A   1      40.783  27.608  29.423  1.00  0.00     0.031 A 
ATOM     57  C   UNL A   1      43.076  30.635  34.721  1.00  0.00     0.049 A 
ATOM     58  C   UNL A   1      41.987  27.390  30.297  1.00  0.00     0.074 A 
ATOM     59  C   UNL A   1      44.182  30.301  35.483  1.00  0.00     0.029 A 
ATOM     60  N   UNL A   1      43.010  29.715  33.687  1.00  0.00    -0.354 N 
ATOM     61  N   UNL A   1      42.364  28.052  31.363  1.00  0.00    -0.248 NA
ATOM     62  C   UNL A   1      42.875  26.279  29.929  1.00  0.00     0.031 C 
ATOM     63  C   UNL A   1      44.810  29.204  34.884  1.00  0.00     0.029 A 
ATOM     64  C   UNL A   1      44.067  28.826  33.778  1.00  0.00     0.049 A 
ATOM     65  H   UNL A   1      42.314  29.696  32.990  1.00  0.00     0.167 HD
ATOM     66  C   UNL A   1      43.520  27.425  31.808  1.00  0.00     0.074 A 
ATOM     67  C   UNL A   1      43.771  26.319  30.906  1.00  0.00     0.031 C 
ATOM     68  C   UNL A   1      44.304  27.735  32.868  1.00  0.00     0.031 A 
BRANCH  55  69
ATOM     69  C   UNL A   1      42.388  32.674  36.046  1.00  0.00    -0.014 A 
ATOM     70  C   UNL A   1      43.158  33.834  35.857  1.00  0.00     0.009 A 
ATOM     71  C   UNL A   1      41.823  32.432  37.307  1.00  0.00     0.009 A 
ATOM     72  C   UNL A   1      43.388  34.710  36.919  1.00  0.00     0.001 A 
ATOM     73  C   UNL A   1      42.032  33.325  38.359  1.00  0.00     0.001 A 
ATOM     74  C   UNL A   1      42.822  34.457  38.168  1.00  0.00     0.000 A 
ENDBRANCH  55  69
BRANCH  56  75
ATOM     75  C   UNL A   1      40.525  26.725  28.257  1.00  0.00    -0.014 A 
ATOM     76  C   UNL A   1      41.143  26.982  27.023  1.00  0.00     0.009 A 
ATOM     77  C   UNL A   1      39.657  25.629  28.368  1.00  0.00     0.009 A 
ATOM     78  C   UNL A   1      40.877  26.171  25.917  1.00  0.00     0.001 A 
ATOM     79  C   UNL A   1      39.413  24.804  27.267  1.00  0.00     0.001 A 
ATOM     80  C   UNL A   1      40.016  25.081  26.042  1.00  0.00     0.000 A 
ENDBRANCH  56  75
BRANCH  68  81
ATOM     81  C   UNL A   1      45.491  26.850  33.123  1.00  0.00    -0.014 A 
ATOM     82  C   UNL A   1      45.381  25.697  33.915  1.00  0.00     0.009 A 
ATOM     83  C   UNL A   1      46.728  27.160  32.537  1.00  0.00     0.009 A 
ATOM     84  C   UNL A   1      46.497  24.892  34.145  1.00  0.00     0.001 A 
ATOM     85  C   UNL A   1      47.836  26.338  32.747  1.00  0.00     0.001 A 
ATOM     86  C   UNL A   1      47.721  25.209  33.558  1.00  0.00     0.000 A 
ENDBRANCH  68  81
ENDBRANCH  42  43
ENDBRANCH  34  37
ENDBRANCH  32  33
ENDBRANCH  31  32
ENDBRANCH  30  31
ENDBRANCH   1  30
TORSDOF 18
ENDMDL
