MODEL 1
REMARK VINA RESULT:     -11.1      0.000      0.000
REMARK SMILES Cc1cc(Br)cc2c1O[C@H](C(F)(F)F)C(C(=O)NCCCCCCNC(=O)c1ccc(-c3c4nc(c(-c5ccccc5)c5ccc([nH]5)c(-c5ccccc5)c5nc(c(-c6ccccc6)c6ccc3[nH]6)C=C5)C=C4)cc1)=C2
REMARK SMILES IDX 22 1 21 2 20 3 19 4 18 5 16 6 17 7 15 9 1 10 2 11 3 12 8 13
REMARK SMILES IDX 4 14 7 15 9 16 5 17 6 18 76 19 10 20 11 21 12 22 13 23 14 24
REMARK SMILES IDX 23 25 24 26 25 27 26 28 27 30 28 31 29 32 75 33 30 34 74 35
REMARK SMILES IDX 31 36 32 37 33 38 68 39 34 40 73 41 67 42 69 43 35 44 72 45
REMARK SMILES IDX 66 46 65 47 36 49 58 50 43 51 57 52 44 53 47 54 56 55 70 56
REMARK SMILES IDX 45 57 46 58 55 60 71 61 48 62 37 63 38 64 42 65 39 66 41 67
REMARK SMILES IDX 40 68 59 69 60 70 64 71 61 72 63 73 62 74 49 75 50 76 54 77
REMARK SMILES IDX 51 78 53 79 52 80
REMARK H PARENT 18 8 25 29 69 48 47 59
REMARK Flexibility Score: inf
ROOT
ATOM      1  C   UNL A   1      36.547  21.067  24.880  1.00  0.00     0.002 C 
ENDROOT
BRANCH   1   2
ATOM      2  C   UNL A   1      36.881  22.532  25.193  1.00  0.00     0.002 C 
BRANCH   2   3
ATOM      3  C   UNL A   1      35.909  23.225  26.149  1.00  0.00     0.021 C 
BRANCH   3   4
ATOM      4  C   UNL A   1      35.119  24.353  25.495  1.00  0.00     0.116 C 
BRANCH   4   5
ATOM      5  N   UNL A   1      33.718  24.319  25.872  1.00  0.00    -0.352 N 
ATOM      6  C   UNL A   1      32.648  23.521  25.645  1.00  0.00     0.251 C 
ATOM      7  O   UNL A   1      31.605  23.863  26.211  1.00  0.00    -0.270 OA
ATOM      8  H   UNL A   1      33.481  25.083  26.447  1.00  0.00     0.163 HD
BRANCH   6   9
ATOM      9  C   UNL A   1      32.655  22.302  24.783  1.00  0.00     0.067 C 
ATOM     10  C   UNL A   1      31.902  18.774  21.149  1.00  0.00     0.048 C 
ATOM     11  C   UNL A   1      32.495  18.755  22.529  1.00  0.00    -0.007 A 
ATOM     12  C   UNL A   1      33.008  17.573  23.074  1.00  0.00     0.023 A 
ATOM     13  C   UNL A   1      32.527  19.922  23.302  1.00  0.00     0.130 A 
ATOM     14  C   UNL A   1      33.541  17.575  24.364  1.00  0.00     0.019 A 
ATOM     15  C   UNL A   1      33.053  19.926  24.597  1.00  0.00     0.019 A 
ATOM     16  O   UNL A   1      31.970  21.034  22.740  1.00  0.00    -0.475 OA
ATOM     17  Br  UNL A   1      34.225  15.967  25.089  1.00  0.00    -0.051 Br
ATOM     18  C   UNL A   1      33.565  18.741  25.130  1.00  0.00     0.027 A 
ATOM     19  C   UNL A   1      33.017  21.154  25.384  1.00  0.00     0.025 C 
ATOM     20  C   UNL A   1      32.315  22.313  23.322  1.00  0.00     0.314 C 
BRANCH  20  21
ATOM     21  C   UNL A   1      33.401  22.980  22.459  1.00  0.00     0.429 C 
ATOM     22  F   UNL A   1      33.195  22.707  21.145  1.00  0.00    -0.167 F 
ATOM     23  F   UNL A   1      33.405  24.329  22.568  1.00  0.00    -0.167 F 
ATOM     24  F   UNL A   1      34.646  22.556  22.770  1.00  0.00    -0.167 F 
ENDBRANCH  20  21
ENDBRANCH   6   9
ENDBRANCH   4   5
ENDBRANCH   3   4
ENDBRANCH   2   3
ENDBRANCH   1   2
BRANCH   1  25
ATOM     25  C   UNL A   1      37.739  20.106  24.924  1.00  0.00     0.021 C 
BRANCH  25  26
ATOM     26  C   UNL A   1      38.860  20.544  25.858  1.00  0.00     0.116 C 
BRANCH  26  27
ATOM     27  N   UNL A   1      39.942  19.573  25.888  1.00  0.00    -0.352 N 
ATOM     28  C   UNL A   1      41.278  19.774  26.111  1.00  0.00     0.251 C 
ATOM     29  H   UNL A   1      39.678  18.639  25.724  1.00  0.00     0.163 HD
ATOM     30  O   UNL A   1      42.090  18.884  25.876  1.00  0.00    -0.269 OA
BRANCH  28  31
ATOM     31  C   UNL A   1      41.738  21.076  26.630  1.00  0.00     0.039 A 
ATOM     32  C   UNL A   1      42.181  22.045  25.728  1.00  0.00     0.014 A 
ATOM     33  C   UNL A   1      41.734  21.333  28.004  1.00  0.00     0.014 A 
ATOM     34  C   UNL A   1      42.578  23.294  26.204  1.00  0.00     0.010 A 
ATOM     35  C   UNL A   1      42.057  22.602  28.470  1.00  0.00     0.010 A 
ATOM     36  C   UNL A   1      42.495  23.590  27.575  1.00  0.00    -0.014 A 
BRANCH  36  37
ATOM     37  C   UNL A   1      42.888  24.922  28.093  1.00  0.00     0.031 A 
ATOM     38  C   UNL A   1      41.844  25.982  28.302  1.00  0.00     0.074 A 
ATOM     39  C   UNL A   1      44.184  25.182  28.350  1.00  0.00     0.049 A 
ATOM     40  N   UNL A   1      41.992  27.212  28.724  1.00  0.00    -0.248 NA
ATOM     41  C   UNL A   1      40.452  25.623  27.980  1.00  0.00     0.031 C 
ATOM     42  C   UNL A   1      45.290  24.239  28.170  1.00  0.00     0.029 A 
ATOM     43  N   UNL A   1      44.790  26.317  28.825  1.00  0.00    -0.354 N 
ATOM     44  C   UNL A   1      40.719  27.768  28.715  1.00  0.00     0.074 A 
ATOM     45  C   UNL A   1      39.819  26.767  28.191  1.00  0.00     0.031 C 
ATOM     46  C   UNL A   1      46.432  24.821  28.571  1.00  0.00     0.029 A 
ATOM     47  C   UNL A   1      46.148  26.189  28.992  1.00  0.00     0.049 A 
ATOM     48  H   UNL A   1      44.298  27.146  29.028  1.00  0.00     0.167 HD
ATOM     49  C   UNL A   1      40.331  28.993  29.138  1.00  0.00     0.031 A 
ATOM     50  C   UNL A   1      47.060  27.074  29.436  1.00  0.00     0.031 A 
ATOM     51  C   UNL A   1      41.225  29.985  29.668  1.00  0.00     0.049 A 
ATOM     52  C   UNL A   1      46.607  28.449  29.847  1.00  0.00     0.074 A 
ATOM     53  C   UNL A   1      40.923  31.246  30.150  1.00  0.00     0.029 A 
ATOM     54  N   UNL A   1      42.597  29.827  29.787  1.00  0.00    -0.354 N 
ATOM     55  N   UNL A   1      45.394  28.942  29.879  1.00  0.00    -0.248 NA
ATOM     56  C   UNL A   1      47.651  29.385  30.289  1.00  0.00     0.031 C 
ATOM     57  C   UNL A   1      42.118  31.873  30.509  1.00  0.00     0.029 A 
ATOM     58  C   UNL A   1      43.158  30.978  30.311  1.00  0.00     0.049 A 
ATOM     59  H   UNL A   1      43.098  29.016  29.536  1.00  0.00     0.167 HD
ATOM     60  C   UNL A   1      45.522  30.235  30.368  1.00  0.00     0.074 A 
ATOM     61  C   UNL A   1      46.931  30.443  30.637  1.00  0.00     0.031 C 
ATOM     62  C   UNL A   1      44.562  31.167  30.574  1.00  0.00     0.031 A 
BRANCH  49  63
ATOM     63  C   UNL A   1      38.868  29.329  29.056  1.00  0.00    -0.014 A 
ATOM     64  C   UNL A   1      38.296  29.776  27.854  1.00  0.00     0.009 A 
ATOM     65  C   UNL A   1      38.039  29.129  30.170  1.00  0.00     0.009 A 
ATOM     66  C   UNL A   1      36.927  30.034  27.776  1.00  0.00     0.001 A 
ATOM     67  C   UNL A   1      36.665  29.360  30.080  1.00  0.00     0.001 A 
ATOM     68  C   UNL A   1      36.111  29.818  28.886  1.00  0.00     0.000 A 
ENDBRANCH  49  63
BRANCH  50  69
ATOM     69  C   UNL A   1      48.491  26.681  29.537  1.00  0.00    -0.014 A 
ATOM     70  C   UNL A   1      48.976  26.056  30.696  1.00  0.00     0.009 A 
ATOM     71  C   UNL A   1      49.381  26.925  28.478  1.00  0.00     0.009 A 
ATOM     72  C   UNL A   1      50.322  25.702  30.801  1.00  0.00     0.001 A 
ATOM     73  C   UNL A   1      50.721  26.542  28.574  1.00  0.00     0.001 A 
ATOM     74  C   UNL A   1      51.192  25.939  29.738  1.00  0.00     0.000 A 
ENDBRANCH  50  69
BRANCH  62  75
ATOM     75  C   UNL A   1      44.987  32.495  31.135  1.00  0.00    -0.014 A 
ATOM     76  C   UNL A   1      45.311  33.569  30.293  1.00  0.00     0.009 A 
ATOM     77  C   UNL A   1      44.982  32.697  32.526  1.00  0.00     0.009 A 
ATOM     78  C   UNL A   1      45.642  34.813  30.833  1.00  0.00     0.001 A 
ATOM     79  C   UNL A   1      45.283  33.950  33.060  1.00  0.00     0.001 A 
ATOM     80  C   UNL A   1      45.619  35.005  32.214  1.00  0.00     0.000 A 
ENDBRANCH  62  75
ENDBRANCH  36  37
ENDBRANCH  28  31
ENDBRANCH  26  27
ENDBRANCH  25  26
ENDBRANCH   1  25
TORSDOF 14
ENDMDL
MODEL 2
REMARK VINA RESULT:     -11.1      2.506      3.832
REMARK SMILES Cc1cc(Br)cc2c1O[C@H](C(F)(F)F)C(C(=O)NCCCCCCNC(=O)c1ccc(-c3c4nc(c(-c5ccccc5)c5ccc([nH]5)c(-c5ccccc5)c5nc(c(-c6ccccc6)c6ccc3[nH]6)C=C5)C=C4)cc1)=C2
REMARK SMILES IDX 22 1 21 2 20 3 19 4 18 5 16 6 17 7 15 9 1 10 2 11 3 12 8 13
REMARK SMILES IDX 4 14 7 15 9 16 5 17 6 18 76 19 10 20 11 21 12 22 13 23 14 24
REMARK SMILES IDX 23 25 24 26 25 27 26 28 27 30 28 31 29 32 75 33 30 34 74 35
REMARK SMILES IDX 31 36 32 37 33 38 68 39 34 40 73 41 67 42 69 43 35 44 72 45
REMARK SMILES IDX 66 46 65 47 36 49 58 50 43 51 57 52 44 53 47 54 56 55 70 56
REMARK SMILES IDX 45 57 46 58 55 60 71 61 48 62 37 63 38 64 42 65 39 66 41 67
REMARK SMILES IDX 40 68 59 69 60 70 64 71 61 72 63 73 62 74 49 75 50 76 54 77
REMARK SMILES IDX 51 78 53 79 52 80
REMARK H PARENT 18 8 25 29 69 48 47 59
REMARK Flexibility Score: inf
ROOT
ATOM      1  C   UNL A   1      35.887  21.164  24.844  1.00  0.00     0.002 C 
ENDROOT
BRANCH   1   2
ATOM      2  C   UNL A   1      35.851  22.221  25.956  1.00  0.00     0.002 C 
BRANCH   2   3
ATOM      3  C   UNL A   1      34.575  22.228  26.799  1.00  0.00     0.021 C 
BRANCH   3   4
ATOM      4  C   UNL A   1      33.354  21.705  26.051  1.00  0.00     0.116 C 
BRANCH   4   5
ATOM      5  N   UNL A   1      32.118  22.214  26.615  1.00  0.00    -0.352 N 
ATOM      6  C   UNL A   1      31.419  23.373  26.589  1.00  0.00     0.251 C 
ATOM      7  O   UNL A   1      30.353  23.362  27.213  1.00  0.00    -0.270 OA
ATOM      8  H   UNL A   1      31.665  21.534  27.164  1.00  0.00     0.163 HD
BRANCH   6   9
ATOM      9  C   UNL A   1      31.847  24.617  25.883  1.00  0.00     0.067 C 
ATOM     10  C   UNL A   1      33.842  28.094  22.695  1.00  0.00     0.048 C 
ATOM     11  C   UNL A   1      33.255  28.146  24.077  1.00  0.00    -0.007 A 
ATOM     12  C   UNL A   1      33.156  29.356  24.771  1.00  0.00     0.023 A 
ATOM     13  C   UNL A   1      32.810  26.974  24.702  1.00  0.00     0.130 A 
ATOM     14  C   UNL A   1      32.621  29.379  26.060  1.00  0.00     0.019 A 
ATOM     15  C   UNL A   1      32.280  26.992  25.995  1.00  0.00     0.019 A 
ATOM     16  O   UNL A   1      32.972  25.816  23.999  1.00  0.00    -0.475 OA
ATOM     17  Br  UNL A   1      32.502  31.024  26.987  1.00  0.00    -0.051 Br
ATOM     18  C   UNL A   1      32.185  28.207  26.677  1.00  0.00     0.027 A 
ATOM     19  C   UNL A   1      31.879  25.739  26.626  1.00  0.00     0.025 C 
ATOM     20  C   UNL A   1      32.201  24.668  24.426  1.00  0.00     0.314 C 
BRANCH  20  21
ATOM     21  C   UNL A   1      30.977  24.518  23.506  1.00  0.00     0.429 C 
ATOM     22  F   UNL A   1      29.896  25.134  24.052  1.00  0.00    -0.167 F 
ATOM     23  F   UNL A   1      31.159  25.082  22.289  1.00  0.00    -0.167 F 
ATOM     24  F   UNL A   1      30.640  23.225  23.294  1.00  0.00    -0.167 F 
ENDBRANCH  20  21
ENDBRANCH   6   9
ENDBRANCH   4   5
ENDBRANCH   3   4
ENDBRANCH   2   3
ENDBRANCH   1   2
BRANCH   1  25
ATOM     25  C   UNL A   1      36.994  20.115  24.980  1.00  0.00     0.021 C 
BRANCH  25  26
ATOM     26  C   UNL A   1      38.347  20.684  25.390  1.00  0.00     0.116 C 
BRANCH  26  27
ATOM     27  N   UNL A   1      39.339  19.636  25.563  1.00  0.00    -0.352 N 
ATOM     28  C   UNL A   1      40.646  19.740  25.962  1.00  0.00     0.251 C 
ATOM     29  H   UNL A   1      39.029  18.723  25.365  1.00  0.00     0.163 HD
ATOM     30  O   UNL A   1      41.413  18.790  25.836  1.00  0.00    -0.269 OA
BRANCH  28  31
ATOM     31  C   UNL A   1      41.129  21.009  26.537  1.00  0.00     0.039 A 
ATOM     32  C   UNL A   1      41.711  21.956  25.693  1.00  0.00     0.014 A 
ATOM     33  C   UNL A   1      41.010  21.257  27.908  1.00  0.00     0.014 A 
ATOM     34  C   UNL A   1      42.132  23.177  26.219  1.00  0.00     0.010 A 
ATOM     35  C   UNL A   1      41.360  22.501  28.417  1.00  0.00     0.010 A 
ATOM     36  C   UNL A   1      41.937  23.467  27.580  1.00  0.00    -0.014 A 
BRANCH  36  37
ATOM     37  C   UNL A   1      42.356  24.770  28.149  1.00  0.00     0.031 A 
ATOM     38  C   UNL A   1      41.346  25.868  28.330  1.00  0.00     0.074 A 
ATOM     39  C   UNL A   1      43.647  24.972  28.476  1.00  0.00     0.049 A 
ATOM     40  N   UNL A   1      41.521  27.081  28.788  1.00  0.00    -0.248 NA
ATOM     41  C   UNL A   1      39.959  25.573  27.930  1.00  0.00     0.031 C 
ATOM     42  C   UNL A   1      44.722  23.988  28.329  1.00  0.00     0.029 A 
ATOM     43  N   UNL A   1      44.273  26.070  29.009  1.00  0.00    -0.354 N 
ATOM     44  C   UNL A   1      40.274  27.689  28.730  1.00  0.00     0.074 A 
ATOM     45  C   UNL A   1      39.362  26.737  28.137  1.00  0.00     0.031 C 
ATOM     46  C   UNL A   1      45.865  24.514  28.801  1.00  0.00     0.029 A 
ATOM     47  C   UNL A   1      45.614  25.883  29.240  1.00  0.00     0.049 A 
ATOM     48  H   UNL A   1      43.804  26.914  29.206  1.00  0.00     0.167 HD
ATOM     49  C   UNL A   1      39.913  28.919  29.162  1.00  0.00     0.031 A 
ATOM     50  C   UNL A   1      46.537  26.720  29.750  1.00  0.00     0.031 A 
ATOM     51  C   UNL A   1      40.819  29.862  29.760  1.00  0.00     0.049 A 
ATOM     52  C   UNL A   1      46.119  28.102  30.171  1.00  0.00     0.074 A 
ATOM     53  C   UNL A   1      40.543  31.123  30.256  1.00  0.00     0.029 A 
ATOM     54  N   UNL A   1      42.175  29.645  29.944  1.00  0.00    -0.354 N 
ATOM     55  N   UNL A   1      44.926  28.644  30.154  1.00  0.00    -0.248 NA
ATOM     56  C   UNL A   1      47.175  28.985  30.687  1.00  0.00     0.031 C 
ATOM     57  C   UNL A   1      41.742  31.692  30.690  1.00  0.00     0.029 A 
ATOM     58  C   UNL A   1      42.754  30.760  30.522  1.00  0.00     0.049 A 
ATOM     59  H   UNL A   1      42.656  28.820  29.699  1.00  0.00     0.167 HD
ATOM     60  C   UNL A   1      45.081  29.920  30.680  1.00  0.00     0.074 A 
ATOM     61  C   UNL A   1      46.481  30.064  31.024  1.00  0.00     0.031 C 
ATOM     62  C   UNL A   1      44.149  30.886  30.860  1.00  0.00     0.031 A 
BRANCH  49  63
ATOM     63  C   UNL A   1      38.472  29.317  29.015  1.00  0.00    -0.014 A 
ATOM     64  C   UNL A   1      37.588  29.240  30.104  1.00  0.00     0.009 A 
ATOM     65  C   UNL A   1      38.008  29.842  27.800  1.00  0.00     0.009 A 
ATOM     66  C   UNL A   1      36.264  29.663  29.971  1.00  0.00     0.001 A 
ATOM     67  C   UNL A   1      36.691  30.291  27.679  1.00  0.00     0.001 A 
ATOM     68  C   UNL A   1      35.819  30.196  28.762  1.00  0.00     0.000 A 
ENDBRANCH  49  63
BRANCH  50  69
ATOM     69  C   UNL A   1      47.944  26.266  29.913  1.00  0.00    -0.014 A 
ATOM     70  C   UNL A   1      48.843  26.341  28.837  1.00  0.00     0.009 A 
ATOM     71  C   UNL A   1      48.400  25.760  31.140  1.00  0.00     0.009 A 
ATOM     72  C   UNL A   1      50.160  25.900  28.981  1.00  0.00     0.001 A 
ATOM     73  C   UNL A   1      49.727  25.348  31.290  1.00  0.00     0.001 A 
ATOM     74  C   UNL A   1      50.603  25.410  30.209  1.00  0.00     0.000 A 
ENDBRANCH  50  69
BRANCH  62  75
ATOM     75  C   UNL A   1      44.598  32.182  31.473  1.00  0.00    -0.014 A 
ATOM     76  C   UNL A   1      45.002  33.262  30.674  1.00  0.00     0.009 A 
ATOM     77  C   UNL A   1      44.534  32.352  32.867  1.00  0.00     0.009 A 
ATOM     78  C   UNL A   1      45.355  34.479  31.260  1.00  0.00     0.001 A 
ATOM     79  C   UNL A   1      44.857  33.579  33.446  1.00  0.00     0.001 A 
ATOM     80  C   UNL A   1      45.273  34.639  32.643  1.00  0.00     0.000 A 
ENDBRANCH  62  75
ENDBRANCH  36  37
ENDBRANCH  28  31
ENDBRANCH  26  27
ENDBRANCH  25  26
ENDBRANCH   1  25
TORSDOF 14
ENDMDL
MODEL 3
REMARK VINA RESULT:     -11.1      0.331      5.902
REMARK SMILES Cc1cc(Br)cc2c1O[C@H](C(F)(F)F)C(C(=O)NCCCCCCNC(=O)c1ccc(-c3c4nc(c(-c5ccccc5)c5ccc([nH]5)c(-c5ccccc5)c5nc(c(-c6ccccc6)c6ccc3[nH]6)C=C5)C=C4)cc1)=C2
REMARK SMILES IDX 22 1 21 2 20 3 19 4 18 5 16 6 17 7 15 9 1 10 2 11 3 12 8 13
REMARK SMILES IDX 4 14 7 15 9 16 5 17 6 18 76 19 10 20 11 21 12 22 13 23 14 24
REMARK SMILES IDX 23 25 24 26 25 27 26 28 27 30 28 31 29 32 75 33 30 34 74 35
REMARK SMILES IDX 31 36 32 37 33 38 68 39 34 40 73 41 67 42 69 43 35 44 72 45
REMARK SMILES IDX 66 46 65 47 36 49 58 50 43 51 57 52 44 53 47 54 56 55 70 56
REMARK SMILES IDX 45 57 46 58 55 60 71 61 48 62 37 63 38 64 42 65 39 66 41 67
REMARK SMILES IDX 40 68 59 69 60 70 64 71 61 72 63 73 62 74 49 75 50 76 54 77
REMARK SMILES IDX 51 78 53 79 52 80
REMARK H PARENT 18 8 25 29 69 48 47 59
REMARK Flexibility Score: inf
ROOT
ATOM      1  C   UNL A   1      36.948  21.113  24.661  1.00  0.00     0.002 C 
ENDROOT
BRANCH   1   2
ATOM      2  C   UNL A   1      37.365  22.532  25.072  1.00  0.00     0.002 C 
BRANCH   2   3
ATOM      3  C   UNL A   1      36.428  23.216  26.068  1.00  0.00     0.021 C 
BRANCH   3   4
ATOM      4  C   UNL A   1      35.544  24.283  25.433  1.00  0.00     0.116 C 
BRANCH   4   5
ATOM      5  N   UNL A   1      34.189  24.239  25.950  1.00  0.00    -0.352 N 
ATOM      6  C   UNL A   1      33.108  23.432  25.832  1.00  0.00     0.251 C 
ATOM      7  O   UNL A   1      32.125  23.766  26.500  1.00  0.00    -0.270 OA
ATOM      8  H   UNL A   1      34.006  25.001  26.546  1.00  0.00     0.163 HD
BRANCH   6   9
ATOM      9  C   UNL A   1      33.037  22.213  24.973  1.00  0.00     0.067 C 
ATOM     10  C   UNL A   1      31.913  18.657  21.463  1.00  0.00     0.048 C 
ATOM     11  C   UNL A   1      32.685  18.659  22.752  1.00  0.00    -0.007 A 
ATOM     12  C   UNL A   1      33.304  17.495  23.219  1.00  0.00     0.023 A 
ATOM     13  C   UNL A   1      32.785  19.828  23.517  1.00  0.00     0.130 A 
ATOM     14  C   UNL A   1      34.004  17.515  24.427  1.00  0.00     0.019 A 
ATOM     15  C   UNL A   1      33.480  19.850  24.729  1.00  0.00     0.019 A 
ATOM     16  O   UNL A   1      32.124  20.921  23.037  1.00  0.00    -0.475 OA
ATOM     17  Br  UNL A   1      34.829  15.930  25.049  1.00  0.00    -0.051 Br
ATOM     18  C   UNL A   1      34.095  18.682  25.185  1.00  0.00     0.027 A 
ATOM     19  C   UNL A   1      33.511  21.078  25.517  1.00  0.00     0.025 C 
ATOM     20  C   UNL A   1      32.504  22.211  23.571  1.00  0.00     0.314 C 
BRANCH  20  21
ATOM     21  C   UNL A   1      33.443  22.910  22.572  1.00  0.00     0.429 C 
ATOM     22  F   UNL A   1      33.116  22.570  21.298  1.00  0.00    -0.167 F 
ATOM     23  F   UNL A   1      33.367  24.260  22.634  1.00  0.00    -0.167 F 
ATOM     24  F   UNL A   1      34.740  22.580  22.759  1.00  0.00    -0.167 F 
ENDBRANCH  20  21
ENDBRANCH   6   9
ENDBRANCH   4   5
ENDBRANCH   3   4
ENDBRANCH   2   3
ENDBRANCH   1   2
BRANCH   1  25
ATOM     25  C   UNL A   1      38.062  20.063  24.733  1.00  0.00     0.021 C 
BRANCH  25  26
ATOM     26  C   UNL A   1      38.930  20.158  25.981  1.00  0.00     0.116 C 
BRANCH  26  27
ATOM     27  N   UNL A   1      40.101  19.301  25.885  1.00  0.00    -0.352 N 
ATOM     28  C   UNL A   1      41.424  19.629  26.019  1.00  0.00     0.251 C 
ATOM     29  H   UNL A   1      39.917  18.353  25.697  1.00  0.00     0.163 HD
ATOM     30  O   UNL A   1      42.299  18.835  25.682  1.00  0.00    -0.269 OA
BRANCH  28  31
ATOM     31  C   UNL A   1      41.793  20.949  26.563  1.00  0.00     0.039 A 
ATOM     32  C   UNL A   1      42.155  21.967  25.680  1.00  0.00     0.014 A 
ATOM     33  C   UNL A   1      41.785  21.174  27.943  1.00  0.00     0.014 A 
ATOM     34  C   UNL A   1      42.464  23.231  26.181  1.00  0.00     0.010 A 
ATOM     35  C   UNL A   1      42.019  22.452  28.434  1.00  0.00     0.010 A 
ATOM     36  C   UNL A   1      42.374  23.489  27.559  1.00  0.00    -0.014 A 
BRANCH  36  37
ATOM     37  C   UNL A   1      42.675  24.834  28.104  1.00  0.00     0.031 A 
ATOM     38  C   UNL A   1      44.088  25.197  28.465  1.00  0.00     0.074 A 
ATOM     39  C   UNL A   1      41.675  25.715  28.298  1.00  0.00     0.049 A 
ATOM     40  N   UNL A   1      44.547  26.311  28.974  1.00  0.00    -0.248 NA
ATOM     41  C   UNL A   1      45.120  24.171  28.239  1.00  0.00     0.031 C 
ATOM     42  C   UNL A   1      40.261  25.470  28.003  1.00  0.00     0.029 A 
ATOM     43  N   UNL A   1      41.696  26.998  28.783  1.00  0.00    -0.354 N 
ATOM     44  C   UNL A   1      45.914  26.118  29.129  1.00  0.00     0.074 A 
ATOM     45  C   UNL A   1      46.204  24.763  28.720  1.00  0.00     0.031 C 
ATOM     46  C   UNL A   1      39.559  26.583  28.273  1.00  0.00     0.029 A 
ATOM     47  C   UNL A   1      40.461  27.601  28.801  1.00  0.00     0.049 A 
ATOM     48  H   UNL A   1      42.519  27.445  29.088  1.00  0.00     0.167 HD
ATOM     49  C   UNL A   1      46.850  27.002  29.547  1.00  0.00     0.031 A 
ATOM     50  C   UNL A   1      40.099  28.835  29.198  1.00  0.00     0.031 A 
ATOM     51  C   UNL A   1      46.562  28.353  29.945  1.00  0.00     0.049 A 
ATOM     52  C   UNL A   1      41.152  29.779  29.710  1.00  0.00     0.074 A 
ATOM     53  C   UNL A   1      47.446  29.334  30.355  1.00  0.00     0.029 A 
ATOM     54  N   UNL A   1      45.295  28.912  29.982  1.00  0.00    -0.354 N 
ATOM     55  N   UNL A   1      42.447  29.597  29.804  1.00  0.00    -0.248 NA
ATOM     56  C   UNL A   1      40.694  31.100  30.162  1.00  0.00     0.031 C 
ATOM     57  C   UNL A   1      46.708  30.471  30.694  1.00  0.00     0.029 A 
ATOM     58  C   UNL A   1      45.371  30.218  30.434  1.00  0.00     0.049 A 
ATOM     59  H   UNL A   1      44.464  28.449  29.725  1.00  0.00     0.167 HD
ATOM     60  C   UNL A   1      42.962  30.787  30.302  1.00  0.00     0.074 A 
ATOM     61  C   UNL A   1      41.842  31.690  30.471  1.00  0.00     0.031 C 
ATOM     62  C   UNL A   1      44.246  31.103  30.594  1.00  0.00     0.031 A 
BRANCH  49  63
ATOM     63  C   UNL A   1      48.280  26.542  29.582  1.00  0.00    -0.014 A 
ATOM     64  C   UNL A   1      49.141  26.778  28.498  1.00  0.00     0.009 A 
ATOM     65  C   UNL A   1      48.793  25.933  30.737  1.00  0.00     0.009 A 
ATOM     66  C   UNL A   1      50.481  26.394  28.563  1.00  0.00     0.001 A 
ATOM     67  C   UNL A   1      50.141  25.576  30.810  1.00  0.00     0.001 A 
ATOM     68  C   UNL A   1      50.982  25.802  29.722  1.00  0.00     0.000 A 
ENDBRANCH  49  63
BRANCH  50  69
ATOM     69  C   UNL A   1      38.676  29.259  29.106  1.00  0.00    -0.014 A 
ATOM     70  C   UNL A   1      38.169  29.789  27.909  1.00  0.00     0.009 A 
ATOM     71  C   UNL A   1      37.815  29.135  30.208  1.00  0.00     0.009 A 
ATOM     72  C   UNL A   1      36.839  30.204  27.825  1.00  0.00     0.001 A 
ATOM     73  C   UNL A   1      36.477  29.523  30.111  1.00  0.00     0.001 A 
ATOM     74  C   UNL A   1      35.992  30.065  28.923  1.00  0.00     0.000 A 
ENDBRANCH  50  69
BRANCH  62  75
ATOM     75  C   UNL A   1      44.524  32.487  31.110  1.00  0.00    -0.014 A 
ATOM     76  C   UNL A   1      44.551  32.757  32.486  1.00  0.00     0.009 A 
ATOM     77  C   UNL A   1      44.845  33.514  30.207  1.00  0.00     0.009 A 
ATOM     78  C   UNL A   1      44.874  34.034  32.947  1.00  0.00     0.001 A 
ATOM     79  C   UNL A   1      45.197  34.781  30.673  1.00  0.00     0.001 A 
ATOM     80  C   UNL A   1      45.205  35.042  32.042  1.00  0.00     0.000 A 
ENDBRANCH  62  75
ENDBRANCH  36  37
ENDBRANCH  28  31
ENDBRANCH  26  27
ENDBRANCH  25  26
ENDBRANCH   1  25
TORSDOF 14
ENDMDL
