MODEL 1
REMARK VINA RESULT:     -10.8      0.000      0.000
REMARK SMILES O=C(COc1ccccc1C[NH+]1CCC2(CC[NH2+]CC2)CC1)NCCCCCCNC(=O)c1ccc(-c2c3nc(c(-c4ccccc4)c4ccc([nH]4)c(-c4ccccc4)c4nc(c(-c5ccccc5)c5ccc2[nH]5)C=C4)C=C3)cc1
REMARK SMILES IDX 25 1 24 2 23 3 1 4 2 5 3 7 4 8 5 9 6 10 10 11 7 12 9 13 8 14
REMARK SMILES IDX 11 15 12 16 13 17 22 18 14 20 21 21 15 22 16 23 20 24 17 25
REMARK SMILES IDX 19 26 18 27 26 30 27 31 28 32 29 33 30 34 31 35 32 37 33 38
REMARK SMILES IDX 34 39 80 40 35 41 79 42 36 43 37 44 38 45 73 46 39 47 78 48
REMARK SMILES IDX 72 49 74 50 40 51 77 52 71 53 70 54 41 56 63 57 48 58 62 59
REMARK SMILES IDX 49 60 52 61 61 62 75 63 50 64 51 65 60 67 76 68 53 69 42 70
REMARK SMILES IDX 43 71 47 72 44 73 46 74 45 75 64 76 65 77 69 78 66 79 68 80
REMARK SMILES IDX 67 81 54 82 55 83 59 84 56 85 58 86 57 87
REMARK H PARENT 23 6 12 19 18 28 18 29 30 36 74 55 52 66
REMARK Flexibility Score: inf
ROOT
ATOM      1  C   UNL A   1      40.168  22.705  27.341  1.00  0.00     0.021 C 
ENDROOT
BRANCH   1   2
ATOM      2  C   UNL A   1      39.377  23.670  26.467  1.00  0.00     0.116 C 
BRANCH   2   3
ATOM      3  N   UNL A   1      38.416  23.034  25.584  1.00  0.00    -0.353 N 
ATOM      4  O   UNL A   1      36.553  24.184  26.305  1.00  0.00    -0.271 OA
ATOM      5  C   UNL A   1      37.114  23.487  25.464  1.00  0.00     0.257 C 
ATOM      6  H   UNL A   1      38.702  22.256  25.053  1.00  0.00     0.163 HD
BRANCH   5   7
ATOM      7  C   UNL A   1      36.441  23.091  24.144  1.00  0.00     0.329 C 
BRANCH   7   8
ATOM      8  O   UNL A   1      35.067  23.525  24.108  1.00  0.00    -0.483 OA
BRANCH   8   9
ATOM      9  C   UNL A   1      34.204  22.470  23.944  1.00  0.00     0.128 A 
ATOM     10  C   UNL A   1      34.401  21.350  24.759  1.00  0.00     0.047 A 
ATOM     11  C   UNL A   1      33.209  22.454  22.955  1.00  0.00     0.048 A 
ATOM     12  C   UNL A   1      33.558  20.240  24.651  1.00  0.00     0.004 A 
ATOM     13  C   UNL A   1      32.290  21.386  22.957  1.00  0.00     0.013 A 
ATOM     14  C   UNL A   1      32.478  20.275  23.777  1.00  0.00     0.001 A 
BRANCH  11  15
ATOM     15  C   UNL A   1      33.114  23.464  21.838  1.00  0.00     0.302 C 
BRANCH  15  16
ATOM     16  N   UNL A   1      32.179  24.583  22.005  1.00  0.00    -0.331 N 
ATOM     17  C   UNL A   1      31.762  24.909  23.361  1.00  0.00     0.263 C 
ATOM     18  C   UNL A   1      32.404  25.746  21.163  1.00  0.00     0.263 C 
ATOM     19  H   UNL A   1      31.345  24.151  21.609  1.00  0.00     0.348 HD
ATOM     20  C   UNL A   1      32.534  26.024  24.064  1.00  0.00     0.069 C 
ATOM     21  C   UNL A   1      33.277  26.825  21.809  1.00  0.00     0.069 C 
ATOM     22  C   UNL A   1      32.770  27.278  23.193  1.00  0.00    -0.008 C 
ATOM     23  C   UNL A   1      31.486  28.120  23.002  1.00  0.00     0.069 C 
ATOM     24  C   UNL A   1      33.865  28.152  23.859  1.00  0.00     0.069 C 
ATOM     25  C   UNL A   1      31.101  28.947  24.227  1.00  0.00     0.261 C 
ATOM     26  C   UNL A   1      33.351  28.925  25.070  1.00  0.00     0.261 C 
ATOM     27  N   UNL A   1      32.212  29.767  24.706  1.00  0.00    -0.346 N 
ATOM     28  H   UNL A   1      31.911  30.296  25.524  1.00  0.00     0.346 HD
ATOM     29  H   UNL A   1      32.498  30.403  23.962  1.00  0.00     0.346 HD
ENDBRANCH  15  16
ENDBRANCH  11  15
ENDBRANCH   8   9
ENDBRANCH   7   8
ENDBRANCH   5   7
ENDBRANCH   2   3
ENDBRANCH   1   2
BRANCH   1  30
ATOM     30  C   UNL A   1      41.216  21.844  26.628  1.00  0.00     0.002 C 
BRANCH  30  31
ATOM     31  C   UNL A   1      42.081  20.933  27.504  1.00  0.00     0.002 C 
BRANCH  31  32
ATOM     32  C   UNL A   1      42.557  19.627  26.867  1.00  0.00     0.021 C 
BRANCH  32  33
ATOM     33  C   UNL A   1      42.432  19.555  25.349  1.00  0.00     0.116 C 
BRANCH  33  34
ATOM     34  N   UNL A   1      43.610  18.999  24.702  1.00  0.00    -0.352 N 
ATOM     35  C   UNL A   1      44.795  19.610  24.372  1.00  0.00     0.251 C 
ATOM     36  H   UNL A   1      43.550  18.045  24.465  1.00  0.00     0.163 HD
ATOM     37  O   UNL A   1      45.641  19.004  23.716  1.00  0.00    -0.269 OA
BRANCH  35  38
ATOM     38  C   UNL A   1      45.046  21.010  24.777  1.00  0.00     0.039 A 
ATOM     39  C   UNL A   1      44.725  22.038  23.886  1.00  0.00     0.014 A 
ATOM     40  C   UNL A   1      45.590  21.311  26.028  1.00  0.00     0.014 A 
ATOM     41  C   UNL A   1      44.884  23.369  24.278  1.00  0.00     0.010 A 
ATOM     42  C   UNL A   1      45.672  22.637  26.446  1.00  0.00     0.010 A 
ATOM     43  C   UNL A   1      45.323  23.679  25.575  1.00  0.00    -0.014 A 
BRANCH  43  44
ATOM     44  C   UNL A   1      45.422  25.087  26.041  1.00  0.00     0.031 A 
ATOM     45  C   UNL A   1      46.744  25.804  26.010  1.00  0.00     0.074 A 
ATOM     46  C   UNL A   1      44.335  25.700  26.550  1.00  0.00     0.049 A 
ATOM     47  N   UNL A   1      47.040  27.009  26.428  1.00  0.00    -0.248 NA
ATOM     48  C   UNL A   1      47.891  25.061  25.464  1.00  0.00     0.031 C 
ATOM     49  C   UNL A   1      43.003  25.104  26.669  1.00  0.00     0.029 A 
ATOM     50  N   UNL A   1      44.181  26.962  27.068  1.00  0.00    -0.354 N 
ATOM     51  C   UNL A   1      48.403  27.160  26.209  1.00  0.00     0.074 A 
ATOM     52  C   UNL A   1      48.888  25.906  25.674  1.00  0.00     0.031 C 
ATOM     53  C   UNL A   1      42.162  26.009  27.197  1.00  0.00     0.029 A 
ATOM     54  C   UNL A   1      42.902  27.230  27.496  1.00  0.00     0.049 A 
ATOM     55  H   UNL A   1      44.917  27.614  27.128  1.00  0.00     0.167 HD
ATOM     56  C   UNL A   1      49.181  28.250  26.415  1.00  0.00     0.031 A 
ATOM     57  C   UNL A   1      42.386  28.332  28.072  1.00  0.00     0.031 A 
ATOM     58  C   UNL A   1      48.699  29.498  26.943  1.00  0.00     0.049 A 
ATOM     59  C   UNL A   1      43.277  29.518  28.317  1.00  0.00     0.074 A 
ATOM     60  C   UNL A   1      49.397  30.677  27.140  1.00  0.00     0.029 A 
ATOM     61  N   UNL A   1      47.398  29.727  27.366  1.00  0.00    -0.354 N 
ATOM     62  N   UNL A   1      44.549  29.669  28.038  1.00  0.00    -0.248 NA
ATOM     63  C   UNL A   1      42.655  30.693  28.944  1.00  0.00     0.031 C 
ATOM     64  C   UNL A   1      48.533  31.601  27.737  1.00  0.00     0.029 A 
ATOM     65  C   UNL A   1      47.281  31.019  27.849  1.00  0.00     0.049 A 
ATOM     66  H   UNL A   1      46.668  29.069  27.327  1.00  0.00     0.167 HD
ATOM     67  C   UNL A   1      44.872  30.962  28.428  1.00  0.00     0.074 A 
ATOM     68  C   UNL A   1      43.658  31.559  28.945  1.00  0.00     0.031 C 
ATOM     69  C   UNL A   1      46.066  31.600  28.362  1.00  0.00     0.031 A 
BRANCH  56  70
ATOM     70  C   UNL A   1      50.642  28.133  26.076  1.00  0.00    -0.014 A 
ATOM     71  C   UNL A   1      51.121  28.437  24.791  1.00  0.00     0.009 A 
ATOM     72  C   UNL A   1      51.560  27.747  27.065  1.00  0.00     0.009 A 
ATOM     73  C   UNL A   1      52.480  28.317  24.493  1.00  0.00     0.001 A 
ATOM     74  C   UNL A   1      52.924  27.660  26.775  1.00  0.00     0.001 A 
ATOM     75  C   UNL A   1      53.380  27.934  25.486  1.00  0.00     0.000 A 
ENDBRANCH  56  70
BRANCH  57  76
ATOM     76  C   UNL A   1      40.948  28.372  28.452  1.00  0.00    -0.014 A 
ATOM     77  C   UNL A   1      39.997  28.926  27.582  1.00  0.00     0.009 A 
ATOM     78  C   UNL A   1      40.521  27.869  29.691  1.00  0.00     0.009 A 
ATOM     79  C   UNL A   1      38.653  29.003  27.957  1.00  0.00     0.001 A 
ATOM     80  C   UNL A   1      39.172  27.917  30.049  1.00  0.00     0.001 A 
ATOM     81  C   UNL A   1      38.241  28.494  29.188  1.00  0.00     0.000 A 
ENDBRANCH  57  76
BRANCH  69  82
ATOM     82  C   UNL A   1      46.111  33.031  28.822  1.00  0.00    -0.014 A 
ATOM     83  C   UNL A   1      45.836  34.092  27.944  1.00  0.00     0.009 A 
ATOM     84  C   UNL A   1      46.391  33.318  30.167  1.00  0.00     0.009 A 
ATOM     85  C   UNL A   1      45.879  35.412  28.399  1.00  0.00     0.001 A 
ATOM     86  C   UNL A   1      46.400  34.635  30.626  1.00  0.00     0.001 A 
ATOM     87  C   UNL A   1      46.153  35.682  29.738  1.00  0.00     0.000 A 
ENDBRANCH  69  82
ENDBRANCH  43  44
ENDBRANCH  35  38
ENDBRANCH  33  34
ENDBRANCH  32  33
ENDBRANCH  31  32
ENDBRANCH  30  31
ENDBRANCH   1  30
TORSDOF 17
ENDMDL
MODEL 2
REMARK VINA RESULT:     -10.7      6.316     11.810
REMARK SMILES O=C(COc1ccccc1C[NH+]1CCC2(CC[NH2+]CC2)CC1)NCCCCCCNC(=O)c1ccc(-c2c3nc(c(-c4ccccc4)c4ccc([nH]4)c(-c4ccccc4)c4nc(c(-c5ccccc5)c5ccc2[nH]5)C=C4)C=C3)cc1
REMARK SMILES IDX 25 1 24 2 23 3 1 4 2 5 3 7 4 8 5 9 6 10 10 11 7 12 9 13 8 14
REMARK SMILES IDX 11 15 12 16 13 17 22 18 14 20 21 21 15 22 16 23 20 24 17 25
REMARK SMILES IDX 19 26 18 27 26 30 27 31 28 32 29 33 30 34 31 35 32 37 33 38
REMARK SMILES IDX 34 39 80 40 35 41 79 42 36 43 37 44 38 45 73 46 39 47 78 48
REMARK SMILES IDX 72 49 74 50 40 51 77 52 71 53 70 54 41 56 63 57 48 58 62 59
REMARK SMILES IDX 49 60 52 61 61 62 75 63 50 64 51 65 60 67 76 68 53 69 42 70
REMARK SMILES IDX 43 71 47 72 44 73 46 74 45 75 64 76 65 77 69 78 66 79 68 80
REMARK SMILES IDX 67 81 54 82 55 83 59 84 56 85 58 86 57 87
REMARK H PARENT 23 6 12 19 18 28 18 29 30 36 74 55 52 66
REMARK Flexibility Score: inf
ROOT
ATOM      1  C   UNL A   1      34.604  32.265  28.860  1.00  0.00     0.021 C 
ENDROOT
BRANCH   1   2
ATOM      2  C   UNL A   1      35.075  31.031  28.099  1.00  0.00     0.116 C 
BRANCH   2   3
ATOM      3  N   UNL A   1      34.320  30.742  26.894  1.00  0.00    -0.353 N 
ATOM      4  O   UNL A   1      33.825  28.545  27.381  1.00  0.00    -0.271 OA
ATOM      5  C   UNL A   1      33.609  29.565  26.734  1.00  0.00     0.257 C 
ATOM      6  H   UNL A   1      34.313  31.406  26.166  1.00  0.00     0.163 HD
BRANCH   5   7
ATOM      7  C   UNL A   1      32.470  29.665  25.711  1.00  0.00     0.329 C 
BRANCH   7   8
ATOM      8  O   UNL A   1      32.493  28.553  24.795  1.00  0.00    -0.483 OA
BRANCH   8   9
ATOM      9  C   UNL A   1      31.240  28.258  24.319  1.00  0.00     0.128 A 
ATOM     10  C   UNL A   1      30.543  29.285  23.672  1.00  0.00     0.047 A 
ATOM     11  C   UNL A   1      30.624  27.015  24.531  1.00  0.00     0.048 A 
ATOM     12  C   UNL A   1      29.264  29.056  23.159  1.00  0.00     0.004 A 
ATOM     13  C   UNL A   1      29.395  26.767  23.889  1.00  0.00     0.013 A 
ATOM     14  C   UNL A   1      28.706  27.785  23.233  1.00  0.00     0.001 A 
BRANCH  11  15
ATOM     15  C   UNL A   1      31.154  25.961  25.471  1.00  0.00     0.302 C 
BRANCH  15  16
ATOM     16  N   UNL A   1      32.416  25.300  25.117  1.00  0.00    -0.331 N 
ATOM     17  C   UNL A   1      33.096  24.552  26.164  1.00  0.00     0.263 C 
ATOM     18  C   UNL A   1      32.469  24.664  23.811  1.00  0.00     0.263 C 
ATOM     19  H   UNL A   1      33.003  26.127  25.011  1.00  0.00     0.348 HD
ATOM     20  C   UNL A   1      32.831  23.048  26.212  1.00  0.00     0.069 C 
ATOM     21  C   UNL A   1      32.090  23.181  23.822  1.00  0.00     0.069 C 
ATOM     22  C   UNL A   1      32.899  22.348  24.835  1.00  0.00    -0.008 C 
ATOM     23  C   UNL A   1      34.349  22.200  24.315  1.00  0.00     0.069 C 
ATOM     24  C   UNL A   1      32.249  20.945  24.954  1.00  0.00     0.069 C 
ATOM     25  C   UNL A   1      35.145  21.094  25.005  1.00  0.00     0.261 C 
ATOM     26  C   UNL A   1      33.146  19.934  25.663  1.00  0.00     0.261 C 
ATOM     27  N   UNL A   1      34.436  19.816  24.985  1.00  0.00    -0.346 N 
ATOM     28  H   UNL A   1      35.001  19.111  25.459  1.00  0.00     0.346 HD
ATOM     29  H   UNL A   1      34.274  19.543  24.015  1.00  0.00     0.346 HD
ENDBRANCH  15  16
ENDBRANCH  11  15
ENDBRANCH   8   9
ENDBRANCH   7   8
ENDBRANCH   5   7
ENDBRANCH   2   3
ENDBRANCH   1   2
BRANCH   1  30
ATOM     30  C   UNL A   1      35.494  33.508  28.759  1.00  0.00     0.002 C 
BRANCH  30  31
ATOM     31  C   UNL A   1      34.904  34.730  28.050  1.00  0.00     0.002 C 
BRANCH  31  32
ATOM     32  C   UNL A   1      33.998  35.633  28.888  1.00  0.00     0.021 C 
BRANCH  32  33
ATOM     33  C   UNL A   1      32.917  34.914  29.689  1.00  0.00     0.116 C 
BRANCH  33  34
ATOM     34  N   UNL A   1      32.386  35.715  30.782  1.00  0.00    -0.352 N 
ATOM     35  C   UNL A   1      32.797  35.787  32.090  1.00  0.00     0.251 C 
ATOM     36  H   UNL A   1      31.619  36.288  30.550  1.00  0.00     0.163 HD
ATOM     37  O   UNL A   1      32.146  36.437  32.907  1.00  0.00    -0.269 OA
BRANCH  35  38
ATOM     38  C   UNL A   1      34.005  35.057  32.530  1.00  0.00     0.039 A 
ATOM     39  C   UNL A   1      33.867  33.757  33.024  1.00  0.00     0.014 A 
ATOM     40  C   UNL A   1      35.270  35.646  32.454  1.00  0.00     0.014 A 
ATOM     41  C   UNL A   1      35.003  33.024  33.374  1.00  0.00     0.010 A 
ATOM     42  C   UNL A   1      36.404  34.887  32.727  1.00  0.00     0.010 A 
ATOM     43  C   UNL A   1      36.283  33.570  33.192  1.00  0.00    -0.014 A 
BRANCH  43  44
ATOM     44  C   UNL A   1      37.508  32.779  33.481  1.00  0.00     0.031 A 
ATOM     45  C   UNL A   1      38.278  33.011  34.752  1.00  0.00     0.074 A 
ATOM     46  C   UNL A   1      37.963  31.896  32.570  1.00  0.00     0.049 A 
ATOM     47  N   UNL A   1      39.397  32.464  35.151  1.00  0.00    -0.248 NA
ATOM     48  C   UNL A   1      37.732  34.009  35.687  1.00  0.00     0.031 C 
ATOM     49  C   UNL A   1      37.330  31.604  31.282  1.00  0.00     0.029 A 
ATOM     50  N   UNL A   1      39.070  31.085  32.587  1.00  0.00    -0.354 N 
ATOM     51  C   UNL A   1      39.696  33.060  36.370  1.00  0.00     0.074 A 
ATOM     52  C   UNL A   1      38.671  34.050  36.619  1.00  0.00     0.031 C 
ATOM     53  C   UNL A   1      38.042  30.658  30.647  1.00  0.00     0.029 A 
ATOM     54  C   UNL A   1      39.204  30.312  31.458  1.00  0.00     0.049 A 
ATOM     55  H   UNL A   1      39.708  31.060  33.337  1.00  0.00     0.167 HD
ATOM     56  C   UNL A   1      40.719  32.795  37.217  1.00  0.00     0.031 A 
ATOM     57  C   UNL A   1      40.160  29.429  31.111  1.00  0.00     0.031 A 
ATOM     58  C   UNL A   1      41.736  31.808  36.972  1.00  0.00     0.049 A 
ATOM     59  C   UNL A   1      41.301  29.173  32.057  1.00  0.00     0.074 A 
ATOM     60  C   UNL A   1      42.785  31.429  37.792  1.00  0.00     0.029 A 
ATOM     61  N   UNL A   1      41.837  31.048  35.817  1.00  0.00    -0.354 N 
ATOM     62  N   UNL A   1      41.530  29.695  33.238  1.00  0.00    -0.248 NA
ATOM     63  C   UNL A   1      42.310  28.196  31.625  1.00  0.00     0.031 C 
ATOM     64  C   UNL A   1      43.554  30.482  37.108  1.00  0.00     0.029 A 
ATOM     65  C   UNL A   1      42.946  30.223  35.891  1.00  0.00     0.049 A 
ATOM     66  H   UNL A   1      41.212  31.089  35.057  1.00  0.00     0.167 HD
ATOM     67  C   UNL A   1      42.689  29.088  33.703  1.00  0.00     0.074 A 
ATOM     68  C   UNL A   1      43.106  28.147  32.684  1.00  0.00     0.031 C 
ATOM     69  C   UNL A   1      43.350  29.291  34.869  1.00  0.00     0.031 A 
BRANCH  56  70
ATOM     70  C   UNL A   1      40.793  33.598  38.488  1.00  0.00    -0.014 A 
ATOM     71  C   UNL A   1      41.527  34.794  38.555  1.00  0.00     0.009 A 
ATOM     72  C   UNL A   1      40.089  33.172  39.626  1.00  0.00     0.009 A 
ATOM     73  C   UNL A   1      41.589  35.522  39.744  1.00  0.00     0.001 A 
ATOM     74  C   UNL A   1      40.125  33.920  40.805  1.00  0.00     0.001 A 
ATOM     75  C   UNL A   1      40.883  35.087  40.866  1.00  0.00     0.000 A 
ENDBRANCH  56  70
BRANCH  57  76
ATOM     76  C   UNL A   1      40.077  28.710  29.811  1.00  0.00    -0.014 A 
ATOM     77  C   UNL A   1      40.588  29.292  28.642  1.00  0.00     0.009 A 
ATOM     78  C   UNL A   1      39.473  27.446  29.731  1.00  0.00     0.009 A 
ATOM     79  C   UNL A   1      40.469  28.637  27.413  1.00  0.00     0.001 A 
ATOM     80  C   UNL A   1      39.387  26.778  28.507  1.00  0.00     0.001 A 
ATOM     81  C   UNL A   1      39.874  27.378  27.348  1.00  0.00     0.000 A 
ENDBRANCH  57  76
BRANCH  69  82
ATOM     82  C   UNL A   1      44.569  28.449  35.126  1.00  0.00    -0.014 A 
ATOM     83  C   UNL A   1      44.473  27.183  35.725  1.00  0.00     0.009 A 
ATOM     84  C   UNL A   1      45.831  28.917  34.724  1.00  0.00     0.009 A 
ATOM     85  C   UNL A   1      45.621  26.419  35.948  1.00  0.00     0.001 A 
ATOM     86  C   UNL A   1      46.971  28.138  34.918  1.00  0.00     0.001 A 
ATOM     87  C   UNL A   1      46.867  26.894  35.539  1.00  0.00     0.000 A 
ENDBRANCH  69  82
ENDBRANCH  43  44
ENDBRANCH  35  38
ENDBRANCH  33  34
ENDBRANCH  32  33
ENDBRANCH  31  32
ENDBRANCH  30  31
ENDBRANCH   1  30
TORSDOF 17
ENDMDL
MODEL 3
REMARK VINA RESULT:     -10.7      2.184      3.354
REMARK SMILES O=C(COc1ccccc1C[NH+]1CCC2(CC[NH2+]CC2)CC1)NCCCCCCNC(=O)c1ccc(-c2c3nc(c(-c4ccccc4)c4ccc([nH]4)c(-c4ccccc4)c4nc(c(-c5ccccc5)c5ccc2[nH]5)C=C4)C=C3)cc1
REMARK SMILES IDX 25 1 24 2 23 3 1 4 2 5 3 7 4 8 5 9 6 10 10 11 7 12 9 13 8 14
REMARK SMILES IDX 11 15 12 16 13 17 22 18 14 20 21 21 15 22 16 23 20 24 17 25
REMARK SMILES IDX 19 26 18 27 26 30 27 31 28 32 29 33 30 34 31 35 32 37 33 38
REMARK SMILES IDX 34 39 80 40 35 41 79 42 36 43 37 44 38 45 73 46 39 47 78 48
REMARK SMILES IDX 72 49 74 50 40 51 77 52 71 53 70 54 41 56 63 57 48 58 62 59
REMARK SMILES IDX 49 60 52 61 61 62 75 63 50 64 51 65 60 67 76 68 53 69 42 70
REMARK SMILES IDX 43 71 47 72 44 73 46 74 45 75 64 76 65 77 69 78 66 79 68 80
REMARK SMILES IDX 67 81 54 82 55 83 59 84 56 85 58 86 57 87
REMARK H PARENT 23 6 12 19 18 28 18 29 30 36 74 55 52 66
REMARK Flexibility Score: inf
ROOT
ATOM      1  C   UNL A   1      34.617  21.041  26.042  1.00  0.00     0.021 C 
ENDROOT
BRANCH   1   2
ATOM      2  C   UNL A   1      33.247  20.458  26.368  1.00  0.00     0.116 C 
BRANCH   2   3
ATOM      3  N   UNL A   1      32.150  21.403  26.267  1.00  0.00    -0.353 N 
ATOM      4  O   UNL A   1      32.595  22.572  28.202  1.00  0.00    -0.271 OA
ATOM      5  C   UNL A   1      32.037  22.493  27.112  1.00  0.00     0.257 C 
ATOM      6  H   UNL A   1      31.465  21.263  25.574  1.00  0.00     0.163 HD
BRANCH   5   7
ATOM      7  C   UNL A   1      31.194  23.638  26.535  1.00  0.00     0.329 C 
BRANCH   7   8
ATOM      8  O   UNL A   1      32.016  24.775  26.204  1.00  0.00    -0.483 OA
BRANCH   8   9
ATOM      9  C   UNL A   1      32.972  24.458  25.271  1.00  0.00     0.128 A 
ATOM     10  C   UNL A   1      34.305  24.725  25.605  1.00  0.00     0.047 A 
ATOM     11  C   UNL A   1      32.651  23.965  23.998  1.00  0.00     0.048 A 
ATOM     12  C   UNL A   1      35.331  24.425  24.706  1.00  0.00     0.004 A 
ATOM     13  C   UNL A   1      33.707  23.545  23.165  1.00  0.00     0.013 A 
ATOM     14  C   UNL A   1      35.035  23.798  23.502  1.00  0.00     0.001 A 
BRANCH  11  15
ATOM     15  C   UNL A   1      31.252  23.935  23.433  1.00  0.00     0.302 C 
BRANCH  15  16
ATOM     16  N   UNL A   1      30.679  25.202  22.961  1.00  0.00    -0.331 N 
ATOM     17  C   UNL A   1      29.786  25.909  23.867  1.00  0.00     0.263 C 
ATOM     18  C   UNL A   1      31.565  26.074  22.208  1.00  0.00     0.263 C 
ATOM     19  H   UNL A   1      30.041  24.833  22.256  1.00  0.00     0.348 HD
ATOM     20  C   UNL A   1      30.409  27.016  24.716  1.00  0.00     0.069 C 
ATOM     21  C   UNL A   1      32.292  27.115  23.064  1.00  0.00     0.069 C 
ATOM     22  C   UNL A   1      31.343  27.966  23.932  1.00  0.00    -0.008 C 
ATOM     23  C   UNL A   1      30.566  28.940  23.014  1.00  0.00     0.069 C 
ATOM     24  C   UNL A   1      32.194  28.779  24.943  1.00  0.00     0.069 C 
ATOM     25  C   UNL A   1      29.893  30.089  23.760  1.00  0.00     0.261 C 
ATOM     26  C   UNL A   1      31.403  29.895  25.619  1.00  0.00     0.261 C 
ATOM     27  N   UNL A   1      30.829  30.803  24.627  1.00  0.00    -0.346 N 
ATOM     28  H   UNL A   1      30.336  31.556  25.106  1.00  0.00     0.346 HD
ATOM     29  H   UNL A   1      31.583  31.185  24.055  1.00  0.00     0.346 HD
ENDBRANCH  15  16
ENDBRANCH  11  15
ENDBRANCH   8   9
ENDBRANCH   7   8
ENDBRANCH   5   7
ENDBRANCH   2   3
ENDBRANCH   1   2
BRANCH   1  30
ATOM     30  C   UNL A   1      35.409  20.341  24.933  1.00  0.00     0.002 C 
BRANCH  30  31
ATOM     31  C   UNL A   1      36.853  20.801  24.713  1.00  0.00     0.002 C 
BRANCH  31  32
ATOM     32  C   UNL A   1      37.944  19.760  24.961  1.00  0.00     0.021 C 
BRANCH  32  33
ATOM     33  C   UNL A   1      39.123  20.235  25.805  1.00  0.00     0.116 C 
BRANCH  33  34
ATOM     34  N   UNL A   1      40.223  19.283  25.840  1.00  0.00    -0.352 N 
ATOM     35  C   UNL A   1      41.550  19.494  26.123  1.00  0.00     0.251 C 
ATOM     36  H   UNL A   1      39.981  18.351  25.632  1.00  0.00     0.163 HD
ATOM     37  O   UNL A   1      42.364  18.581  25.987  1.00  0.00    -0.269 OA
BRANCH  35  38
ATOM     38  C   UNL A   1      42.013  20.829  26.558  1.00  0.00     0.039 A 
ATOM     39  C   UNL A   1      42.404  21.758  25.590  1.00  0.00     0.014 A 
ATOM     40  C   UNL A   1      42.059  21.169  27.913  1.00  0.00     0.014 A 
ATOM     41  C   UNL A   1      42.773  23.048  25.976  1.00  0.00     0.010 A 
ATOM     42  C   UNL A   1      42.349  22.477  28.289  1.00  0.00     0.010 A 
ATOM     43  C   UNL A   1      42.711  23.430  27.326  1.00  0.00    -0.014 A 
BRANCH  43  44
ATOM     44  C   UNL A   1      43.020  24.820  27.750  1.00  0.00     0.031 A 
ATOM     45  C   UNL A   1      44.447  25.251  27.952  1.00  0.00     0.074 A 
ATOM     46  C   UNL A   1      42.014  25.677  28.016  1.00  0.00     0.049 A 
ATOM     47  N   UNL A   1      44.911  26.400  28.375  1.00  0.00    -0.248 NA
ATOM     48  C   UNL A   1      45.490  24.252  27.666  1.00  0.00     0.031 C 
ATOM     49  C   UNL A   1      40.587  25.372  27.895  1.00  0.00     0.029 A 
ATOM     50  N   UNL A   1      42.040  26.979  28.448  1.00  0.00    -0.354 N 
ATOM     51  C   UNL A   1      46.292  26.256  28.420  1.00  0.00     0.074 A 
ATOM     52  C   UNL A   1      46.588  24.893  28.036  1.00  0.00     0.031 C 
ATOM     53  C   UNL A   1      39.876  26.466  28.216  1.00  0.00     0.029 A 
ATOM     54  C   UNL A   1      40.791  27.531  28.609  1.00  0.00     0.049 A 
ATOM     55  H   UNL A   1      42.874  27.472  28.626  1.00  0.00     0.167 HD
ATOM     56  C   UNL A   1      47.232  27.179  28.733  1.00  0.00     0.031 A 
ATOM     57  C   UNL A   1      40.424  28.756  29.033  1.00  0.00     0.031 A 
ATOM     58  C   UNL A   1      46.939  28.535  29.113  1.00  0.00     0.049 A 
ATOM     59  C   UNL A   1      41.487  29.753  29.403  1.00  0.00     0.074 A 
ATOM     60  C   UNL A   1      47.823  29.561  29.398  1.00  0.00     0.029 A 
ATOM     61  N   UNL A   1      45.662  29.053  29.265  1.00  0.00    -0.354 N 
ATOM     62  N   UNL A   1      42.792  29.622  29.372  1.00  0.00    -0.248 NA
ATOM     63  C   UNL A   1      41.025  31.074  29.855  1.00  0.00     0.031 C 
ATOM     64  C   UNL A   1      47.081  30.682  29.782  1.00  0.00     0.029 A 
ATOM     65  C   UNL A   1      45.735  30.375  29.669  1.00  0.00     0.049 A 
ATOM     66  H   UNL A   1      44.827  28.555  29.109  1.00  0.00     0.167 HD
ATOM     67  C   UNL A   1      43.305  30.850  29.770  1.00  0.00     0.074 A 
ATOM     68  C   UNL A   1      42.172  31.717  30.019  1.00  0.00     0.031 C 
ATOM     69  C   UNL A   1      44.599  31.227  29.914  1.00  0.00     0.031 A 
BRANCH  56  70
ATOM     70  C   UNL A   1      48.673  26.744  28.690  1.00  0.00    -0.014 A 
ATOM     71  C   UNL A   1      49.440  26.872  27.520  1.00  0.00     0.009 A 
ATOM     72  C   UNL A   1      49.283  26.231  29.846  1.00  0.00     0.009 A 
ATOM     73  C   UNL A   1      50.773  26.458  27.497  1.00  0.00     0.001 A 
ATOM     74  C   UNL A   1      50.626  25.848  29.829  1.00  0.00     0.001 A 
ATOM     75  C   UNL A   1      51.366  25.951  28.653  1.00  0.00     0.000 A 
ENDBRANCH  56  70
BRANCH  57  76
ATOM     76  C   UNL A   1      38.983  29.114  29.124  1.00  0.00    -0.014 A 
ATOM     77  C   UNL A   1      38.299  29.603  28.001  1.00  0.00     0.009 A 
ATOM     78  C   UNL A   1      38.289  28.981  30.336  1.00  0.00     0.009 A 
ATOM     79  C   UNL A   1      36.957  29.981  28.098  1.00  0.00     0.001 A 
ATOM     80  C   UNL A   1      36.938  29.328  30.421  1.00  0.00     0.001 A 
ATOM     81  C   UNL A   1      36.277  29.838  29.306  1.00  0.00     0.000 A 
ENDBRANCH  57  76
BRANCH  69  82
ATOM     82  C   UNL A   1      44.862  32.650  30.322  1.00  0.00    -0.014 A 
ATOM     83  C   UNL A   1      45.009  33.011  31.670  1.00  0.00     0.009 A 
ATOM     84  C   UNL A   1      45.006  33.638  29.334  1.00  0.00     0.009 A 
ATOM     85  C   UNL A   1      45.259  34.341  32.021  1.00  0.00     0.001 A 
ATOM     86  C   UNL A   1      45.288  34.958  29.686  1.00  0.00     0.001 A 
ATOM     87  C   UNL A   1      45.405  35.310  31.030  1.00  0.00     0.000 A 
ENDBRANCH  69  82
ENDBRANCH  43  44
ENDBRANCH  35  38
ENDBRANCH  33  34
ENDBRANCH  32  33
ENDBRANCH  31  32
ENDBRANCH  30  31
ENDBRANCH   1  30
TORSDOF 17
ENDMDL
