MODEL 1
REMARK VINA RESULT:     -10.6      0.000      0.000
REMARK SMILES Cc1ccc([C@@H](C)[N@@H+]2CCO[C@H](CC(=O)NCCCCCCNC(=O)c3ccc(-c4c5nc(c(-c6ccccc6)c6ccc([nH]6)c(-c6ccccc6)c6nc(c(-c7ccccc7)c7ccc4[nH]7)C=C6)C=C5)cc3)C2)o1
REMARK SMILES IDX 19 1 18 2 17 3 16 4 14 5 15 6 13 8 12 9 8 10 9 11 74 12
REMARK SMILES IDX 10 14 11 15 6 16 7 17 5 18 1 19 2 20 3 21 75 22 4 23 20 24
REMARK SMILES IDX 21 25 22 26 23 27 24 28 25 30 26 31 27 32 73 33 28 34 72 35
REMARK SMILES IDX 29 36 30 37 31 38 66 39 32 40 71 41 65 42 67 43 33 44 70 45
REMARK SMILES IDX 64 46 63 47 34 49 56 50 41 51 55 52 42 53 45 54 54 55 68 56
REMARK SMILES IDX 43 57 44 58 53 60 69 61 46 62 35 63 36 64 40 65 37 66 39 67
REMARK SMILES IDX 38 68 57 69 58 70 62 71 59 72 61 73 60 74 47 75 48 76 52 77
REMARK SMILES IDX 49 78 51 79 50 80
REMARK H PARENT 16 7 8 13 23 29 67 48 45 59
REMARK Flexibility Score: inf
ROOT
ATOM      1  C   UNL A   1      35.556  21.295  25.640  1.00  0.00     0.002 C 
ENDROOT
BRANCH   1   2
ATOM      2  C   UNL A   1      34.160  20.946  26.155  1.00  0.00     0.021 C 
BRANCH   2   3
ATOM      3  C   UNL A   1      33.864  21.636  27.487  1.00  0.00     0.116 C 
BRANCH   3   4
ATOM      4  N   UNL A   1      32.557  22.244  27.450  1.00  0.00    -0.356 N 
ATOM      5  C   UNL A   1      32.212  23.497  27.049  1.00  0.00     0.222 C 
ATOM      6  O   UNL A   1      31.040  23.847  27.214  1.00  0.00    -0.275 OA
ATOM      7  H   UNL A   1      31.814  21.675  27.755  1.00  0.00     0.163 HD
BRANCH   5   8
ATOM      8  C   UNL A   1      33.172  24.362  26.264  1.00  0.00     0.138 C 
BRANCH   8   9
ATOM      9  C   UNL A   1      33.327  24.284  24.744  1.00  0.00     0.182 C 
ATOM     10  N   UNL A   1      31.817  26.047  23.639  1.00  0.00    -0.322 N 
ATOM     11  C   UNL A   1      31.371  25.017  22.716  1.00  0.00     0.291 C 
ATOM     12  C   UNL A   1      33.146  25.708  24.144  1.00  0.00     0.295 C 
ATOM     13  H   UNL A   1      31.977  26.925  23.146  1.00  0.00     0.348 HD
ATOM     14  C   UNL A   1      31.426  23.617  23.317  1.00  0.00     0.222 C 
ATOM     15  O   UNL A   1      32.606  23.261  24.048  1.00  0.00    -0.366 OA
BRANCH  10  16
ATOM     16  C   UNL A   1      30.801  26.729  24.460  1.00  0.00     0.248 C 
ATOM     17  C   UNL A   1      29.818  27.516  23.582  1.00  0.00     0.084 C 
BRANCH  16  18
ATOM     18  C   UNL A   1      31.232  27.556  25.650  1.00  0.00     0.161 A 
ATOM     19  C   UNL A   1      32.372  30.824  26.599  1.00  0.00     0.087 C 
ATOM     20  C   UNL A   1      31.857  29.437  26.635  1.00  0.00     0.101 A 
ATOM     21  C   UNL A   1      31.677  28.516  27.642  1.00  0.00     0.046 A 
ATOM     22  O   UNL A   1      31.515  28.880  25.440  1.00  0.00    -0.460 OA
ATOM     23  C   UNL A   1      31.276  27.309  27.012  1.00  0.00     0.052 A 
ENDBRANCH  16  18
ENDBRANCH  10  16
ENDBRANCH   8   9
ENDBRANCH   5   8
ENDBRANCH   3   4
ENDBRANCH   2   3
ENDBRANCH   1   2
BRANCH   1  24
ATOM     24  C   UNL A   1      36.282  20.108  24.995  1.00  0.00     0.002 C 
BRANCH  24  25
ATOM     25  C   UNL A   1      37.750  20.359  24.630  1.00  0.00     0.021 C 
BRANCH  25  26
ATOM     26  C   UNL A   1      38.695  20.518  25.816  1.00  0.00     0.116 C 
BRANCH  26  27
ATOM     27  N   UNL A   1      39.763  19.530  25.811  1.00  0.00    -0.352 N 
ATOM     28  C   UNL A   1      41.095  19.681  26.090  1.00  0.00     0.251 C 
ATOM     29  H   UNL A   1      39.487  18.617  25.570  1.00  0.00     0.163 HD
ATOM     30  O   UNL A   1      41.881  18.761  25.866  1.00  0.00    -0.269 OA
BRANCH  28  31
ATOM     31  C   UNL A   1      41.595  20.958  26.636  1.00  0.00     0.039 A 
ATOM     32  C   UNL A   1      42.067  21.929  25.751  1.00  0.00     0.014 A 
ATOM     33  C   UNL A   1      41.602  21.194  28.013  1.00  0.00     0.014 A 
ATOM     34  C   UNL A   1      42.494  23.163  26.244  1.00  0.00     0.010 A 
ATOM     35  C   UNL A   1      41.954  22.451  28.496  1.00  0.00     0.010 A 
ATOM     36  C   UNL A   1      42.408  23.446  27.617  1.00  0.00    -0.014 A 
BRANCH  36  37
ATOM     37  C   UNL A   1      42.782  24.780  28.148  1.00  0.00     0.031 A 
ATOM     38  C   UNL A   1      41.733  25.835  28.362  1.00  0.00     0.074 A 
ATOM     39  C   UNL A   1      44.079  25.064  28.377  1.00  0.00     0.049 A 
ATOM     40  N   UNL A   1      41.875  27.069  28.776  1.00  0.00    -0.248 NA
ATOM     41  C   UNL A   1      40.345  25.464  28.043  1.00  0.00     0.031 C 
ATOM     42  C   UNL A   1      45.196  24.141  28.166  1.00  0.00     0.029 A 
ATOM     43  N   UNL A   1      44.676  26.212  28.831  1.00  0.00    -0.354 N 
ATOM     44  C   UNL A   1      40.603  27.625  28.749  1.00  0.00     0.074 A 
ATOM     45  C   UNL A   1      39.710  26.613  28.229  1.00  0.00     0.031 C 
ATOM     46  C   UNL A   1      46.340  24.751  28.514  1.00  0.00     0.029 A 
ATOM     47  C   UNL A   1      46.043  26.118  28.929  1.00  0.00     0.049 A 
ATOM     48  H   UNL A   1      44.173  27.026  29.063  1.00  0.00     0.167 HD
ATOM     49  C   UNL A   1      40.210  28.862  29.136  1.00  0.00     0.031 A 
ATOM     50  C   UNL A   1      46.958  27.032  29.303  1.00  0.00     0.031 A 
ATOM     51  C   UNL A   1      41.100  29.867  29.653  1.00  0.00     0.049 A 
ATOM     52  C   UNL A   1      46.501  28.402  29.717  1.00  0.00     0.074 A 
ATOM     53  C   UNL A   1      40.790  31.128  30.135  1.00  0.00     0.029 A 
ATOM     54  N   UNL A   1      42.478  29.731  29.744  1.00  0.00    -0.354 N 
ATOM     55  N   UNL A   1      45.284  28.887  29.764  1.00  0.00    -0.248 NA
ATOM     56  C   UNL A   1      47.543  29.347  30.141  1.00  0.00     0.031 C 
ATOM     57  C   UNL A   1      41.987  31.778  30.454  1.00  0.00     0.029 A 
ATOM     58  C   UNL A   1      43.036  30.898  30.239  1.00  0.00     0.049 A 
ATOM     59  H   UNL A   1      42.984  28.925  29.493  1.00  0.00     0.167 HD
ATOM     60  C   UNL A   1      45.409  30.183  30.247  1.00  0.00     0.074 A 
ATOM     61  C   UNL A   1      46.820  30.402  30.493  1.00  0.00     0.031 C 
ATOM     62  C   UNL A   1      44.444  31.107  30.469  1.00  0.00     0.031 A 
BRANCH  49  63
ATOM     63  C   UNL A   1      38.751  29.202  28.988  1.00  0.00    -0.014 A 
ATOM     64  C   UNL A   1      38.218  29.633  27.761  1.00  0.00     0.009 A 
ATOM     65  C   UNL A   1      37.891  29.070  30.088  1.00  0.00     0.009 A 
ATOM     66  C   UNL A   1      36.867  29.970  27.654  1.00  0.00     0.001 A 
ATOM     67  C   UNL A   1      36.532  29.373  29.970  1.00  0.00     0.001 A 
ATOM     68  C   UNL A   1      36.025  29.835  28.757  1.00  0.00     0.000 A 
ENDBRANCH  49  63
BRANCH  50  69
ATOM     69  C   UNL A   1      48.400  26.672  29.310  1.00  0.00    -0.014 A 
ATOM     70  C   UNL A   1      49.193  26.870  28.170  1.00  0.00     0.009 A 
ATOM     71  C   UNL A   1      48.997  26.144  30.467  1.00  0.00     0.009 A 
ATOM     72  C   UNL A   1      50.547  26.526  28.180  1.00  0.00     0.001 A 
ATOM     73  C   UNL A   1      50.357  25.831  30.484  1.00  0.00     0.001 A 
ATOM     74  C   UNL A   1      51.129  26.013  29.338  1.00  0.00     0.000 A 
ENDBRANCH  50  69
BRANCH  62  75
ATOM     75  C   UNL A   1      44.874  32.433  31.033  1.00  0.00    -0.014 A 
ATOM     76  C   UNL A   1      45.194  33.516  30.198  1.00  0.00     0.009 A 
ATOM     77  C   UNL A   1      44.919  32.613  32.425  1.00  0.00     0.009 A 
ATOM     78  C   UNL A   1      45.584  34.739  30.747  1.00  0.00     0.001 A 
ATOM     79  C   UNL A   1      45.277  33.847  32.970  1.00  0.00     0.001 A 
ATOM     80  C   UNL A   1      45.620  34.906  32.130  1.00  0.00     0.000 A 
ENDBRANCH  62  75
ENDBRANCH  36  37
ENDBRANCH  28  31
ENDBRANCH  26  27
ENDBRANCH  25  26
ENDBRANCH  24  25
ENDBRANCH   1  24
TORSDOF 16
ENDMDL
MODEL 2
REMARK VINA RESULT:     -10.6      1.287      6.163
REMARK SMILES Cc1ccc([C@@H](C)[N@@H+]2CCO[C@H](CC(=O)NCCCCCCNC(=O)c3ccc(-c4c5nc(c(-c6ccccc6)c6ccc([nH]6)c(-c6ccccc6)c6nc(c(-c7ccccc7)c7ccc4[nH]7)C=C6)C=C5)cc3)C2)o1
REMARK SMILES IDX 19 1 18 2 17 3 16 4 14 5 15 6 13 8 12 9 8 10 9 11 74 12
REMARK SMILES IDX 10 14 11 15 6 16 7 17 5 18 1 19 2 20 3 21 75 22 4 23 20 24
REMARK SMILES IDX 21 25 22 26 23 27 24 28 25 30 26 31 27 32 73 33 28 34 72 35
REMARK SMILES IDX 29 36 30 37 31 38 66 39 32 40 71 41 65 42 67 43 33 44 70 45
REMARK SMILES IDX 64 46 63 47 34 49 56 50 41 51 55 52 42 53 45 54 54 55 68 56
REMARK SMILES IDX 43 57 44 58 53 60 69 61 46 62 35 63 36 64 40 65 37 66 39 67
REMARK SMILES IDX 38 68 57 69 58 70 62 71 59 72 61 73 60 74 47 75 48 76 52 77
REMARK SMILES IDX 49 78 51 79 50 80
REMARK H PARENT 16 7 8 13 23 29 67 48 45 59
REMARK Flexibility Score: inf
ROOT
ATOM      1  C   UNL A   1      37.055  22.243  24.437  1.00  0.00     0.002 C 
ENDROOT
BRANCH   1   2
ATOM      2  C   UNL A   1      36.184  23.272  25.156  1.00  0.00     0.021 C 
BRANCH   2   3
ATOM      3  C   UNL A   1      34.704  23.088  24.821  1.00  0.00     0.116 C 
BRANCH   3   4
ATOM      4  N   UNL A   1      34.502  23.182  23.396  1.00  0.00    -0.356 N 
ATOM      5  C   UNL A   1      33.551  23.876  22.716  1.00  0.00     0.222 C 
ATOM      6  O   UNL A   1      33.494  23.718  21.493  1.00  0.00    -0.275 OA
ATOM      7  H   UNL A   1      35.139  22.677  22.842  1.00  0.00     0.163 HD
BRANCH   5   8
ATOM      8  C   UNL A   1      32.718  24.938  23.396  1.00  0.00     0.138 C 
BRANCH   8   9
ATOM      9  C   UNL A   1      31.399  25.467  22.829  1.00  0.00     0.182 C 
ATOM     10  N   UNL A   1      31.641  27.967  22.282  1.00  0.00    -0.322 N 
ATOM     11  C   UNL A   1      30.371  28.188  22.952  1.00  0.00     0.291 C 
ATOM     12  C   UNL A   1      31.705  26.590  21.798  1.00  0.00     0.295 C 
ATOM     13  H   UNL A   1      31.695  28.514  21.424  1.00  0.00     0.348 HD
ATOM     14  C   UNL A   1      30.095  27.170  24.052  1.00  0.00     0.222 C 
ATOM     15  O   UNL A   1      30.354  25.793  23.754  1.00  0.00    -0.366 OA
BRANCH  10  16
ATOM     16  C   UNL A   1      32.823  28.693  22.781  1.00  0.00     0.248 C 
ATOM     17  C   UNL A   1      34.085  28.299  22.000  1.00  0.00     0.084 C 
BRANCH  16  18
ATOM     18  C   UNL A   1      33.106  28.731  24.266  1.00  0.00     0.161 A 
ATOM     19  C   UNL A   1      32.721  30.765  27.198  1.00  0.00     0.087 C 
ATOM     20  C   UNL A   1      32.981  29.629  26.285  1.00  0.00     0.101 A 
ATOM     21  C   UNL A   1      33.557  28.390  26.449  1.00  0.00     0.046 A 
ATOM     22  O   UNL A   1      32.639  29.804  24.978  1.00  0.00    -0.460 OA
ATOM     23  C   UNL A   1      33.639  27.814  25.155  1.00  0.00     0.052 A 
ENDBRANCH  16  18
ENDBRANCH  10  16
ENDBRANCH   8   9
ENDBRANCH   5   8
ENDBRANCH   3   4
ENDBRANCH   2   3
ENDBRANCH   1   2
BRANCH   1  24
ATOM     24  C   UNL A   1      36.728  20.794  24.819  1.00  0.00     0.002 C 
BRANCH  24  25
ATOM     25  C   UNL A   1      37.931  19.844  24.876  1.00  0.00     0.021 C 
BRANCH  25  26
ATOM     26  C   UNL A   1      39.021  20.237  25.868  1.00  0.00     0.116 C 
BRANCH  26  27
ATOM     27  N   UNL A   1      40.171  19.347  25.810  1.00  0.00    -0.352 N 
ATOM     28  C   UNL A   1      41.495  19.614  26.033  1.00  0.00     0.251 C 
ATOM     29  H   UNL A   1      39.966  18.413  25.574  1.00  0.00     0.163 HD
ATOM     30  O   UNL A   1      42.349  18.768  25.769  1.00  0.00    -0.269 OA
BRANCH  28  31
ATOM     31  C   UNL A   1      41.903  20.927  26.566  1.00  0.00     0.039 A 
ATOM     32  C   UNL A   1      42.332  21.912  25.674  1.00  0.00     0.014 A 
ATOM     33  C   UNL A   1      41.868  21.186  27.939  1.00  0.00     0.014 A 
ATOM     34  C   UNL A   1      42.671  23.178  26.154  1.00  0.00     0.010 A 
ATOM     35  C   UNL A   1      42.132  22.470  28.407  1.00  0.00     0.010 A 
ATOM     36  C   UNL A   1      42.540  23.477  27.520  1.00  0.00    -0.014 A 
BRANCH  36  37
ATOM     37  C   UNL A   1      42.820  24.840  28.035  1.00  0.00     0.031 A 
ATOM     38  C   UNL A   1      44.211  25.224  28.456  1.00  0.00     0.074 A 
ATOM     39  C   UNL A   1      41.806  25.714  28.185  1.00  0.00     0.049 A 
ATOM     40  N   UNL A   1      44.638  26.351  28.967  1.00  0.00    -0.248 NA
ATOM     41  C   UNL A   1      45.256  24.198  28.306  1.00  0.00     0.031 C 
ATOM     42  C   UNL A   1      40.404  25.448  27.856  1.00  0.00     0.029 A 
ATOM     43  N   UNL A   1      41.798  27.002  28.658  1.00  0.00    -0.354 N 
ATOM     44  C   UNL A   1      45.991  26.162  29.219  1.00  0.00     0.074 A 
ATOM     45  C   UNL A   1      46.303  24.799  28.852  1.00  0.00     0.031 C 
ATOM     46  C   UNL A   1      39.677  26.546  28.114  1.00  0.00     0.029 A 
ATOM     47  C   UNL A   1      40.551  27.576  28.667  1.00  0.00     0.049 A 
ATOM     48  H   UNL A   1      42.609  27.468  28.965  1.00  0.00     0.167 HD
ATOM     49  C   UNL A   1      46.895  27.050  29.698  1.00  0.00     0.031 A 
ATOM     50  C   UNL A   1      40.150  28.793  29.081  1.00  0.00     0.031 A 
ATOM     51  C   UNL A   1      46.582  28.406  30.061  1.00  0.00     0.049 A 
ATOM     52  C   UNL A   1      41.169  29.757  29.620  1.00  0.00     0.074 A 
ATOM     53  C   UNL A   1      47.440  29.403  30.493  1.00  0.00     0.029 A 
ATOM     54  N   UNL A   1      45.307  28.953  30.048  1.00  0.00    -0.354 N 
ATOM     55  N   UNL A   1      42.461  29.592  29.774  1.00  0.00    -0.248 NA
ATOM     56  C   UNL A   1      40.676  31.079  30.030  1.00  0.00     0.031 C 
ATOM     57  C   UNL A   1      46.675  30.531  30.805  1.00  0.00     0.029 A 
ATOM     58  C   UNL A   1      45.350  30.262  30.500  1.00  0.00     0.049 A 
ATOM     59  H   UNL A   1      44.492  28.480  29.762  1.00  0.00     0.167 HD
ATOM     60  C   UNL A   1      42.940  30.796  30.275  1.00  0.00     0.074 A 
ATOM     61  C   UNL A   1      41.802  31.686  30.381  1.00  0.00     0.031 C 
ATOM     62  C   UNL A   1      44.208  31.134  30.612  1.00  0.00     0.031 A 
BRANCH  49  63
ATOM     63  C   UNL A   1      48.309  26.566  29.879  1.00  0.00    -0.014 A 
ATOM     64  C   UNL A   1      49.257  26.666  28.847  1.00  0.00     0.009 A 
ATOM     65  C   UNL A   1      48.705  26.019  31.109  1.00  0.00     0.009 A 
ATOM     66  C   UNL A   1      50.556  26.185  29.027  1.00  0.00     0.001 A 
ATOM     67  C   UNL A   1      50.015  25.570  31.299  1.00  0.00     0.001 A 
ATOM     68  C   UNL A   1      50.934  25.642  30.254  1.00  0.00     0.000 A 
ENDBRANCH  49  63
BRANCH  50  69
ATOM     69  C   UNL A   1      38.714  29.168  28.991  1.00  0.00    -0.014 A 
ATOM     70  C   UNL A   1      38.171  29.635  27.785  1.00  0.00     0.009 A 
ATOM     71  C   UNL A   1      37.875  29.042  30.109  1.00  0.00     0.009 A 
ATOM     72  C   UNL A   1      36.822  29.990  27.706  1.00  0.00     0.001 A 
ATOM     73  C   UNL A   1      36.520  29.368  30.019  1.00  0.00     0.001 A 
ATOM     74  C   UNL A   1      35.997  29.850  28.821  1.00  0.00     0.000 A 
ENDBRANCH  50  69
BRANCH  62  75
ATOM     75  C   UNL A   1      44.440  32.536  31.103  1.00  0.00    -0.014 A 
ATOM     76  C   UNL A   1      44.394  32.852  32.470  1.00  0.00     0.009 A 
ATOM     77  C   UNL A   1      44.753  33.550  30.183  1.00  0.00     0.009 A 
ATOM     78  C   UNL A   1      44.620  34.160  32.901  1.00  0.00     0.001 A 
ATOM     79  C   UNL A   1      45.013  34.850  30.620  1.00  0.00     0.001 A 
ATOM     80  C   UNL A   1      44.935  35.156  31.978  1.00  0.00     0.000 A 
ENDBRANCH  62  75
ENDBRANCH  36  37
ENDBRANCH  28  31
ENDBRANCH  26  27
ENDBRANCH  25  26
ENDBRANCH  24  25
ENDBRANCH   1  24
TORSDOF 16
ENDMDL
MODEL 3
REMARK VINA RESULT:     -10.4      4.207      9.459
REMARK SMILES Cc1ccc([C@@H](C)[N@@H+]2CCO[C@H](CC(=O)NCCCCCCNC(=O)c3ccc(-c4c5nc(c(-c6ccccc6)c6ccc([nH]6)c(-c6ccccc6)c6nc(c(-c7ccccc7)c7ccc4[nH]7)C=C6)C=C5)cc3)C2)o1
REMARK SMILES IDX 19 1 18 2 17 3 16 4 14 5 15 6 13 8 12 9 8 10 9 11 74 12
REMARK SMILES IDX 10 14 11 15 6 16 7 17 5 18 1 19 2 20 3 21 75 22 4 23 20 24
REMARK SMILES IDX 21 25 22 26 23 27 24 28 25 30 26 31 27 32 73 33 28 34 72 35
REMARK SMILES IDX 29 36 30 37 31 38 66 39 32 40 71 41 65 42 67 43 33 44 70 45
REMARK SMILES IDX 64 46 63 47 34 49 56 50 41 51 55 52 42 53 45 54 54 55 68 56
REMARK SMILES IDX 43 57 44 58 53 60 69 61 46 62 35 63 36 64 40 65 37 66 39 67
REMARK SMILES IDX 38 68 57 69 58 70 62 71 59 72 61 73 60 74 47 75 48 76 52 77
REMARK SMILES IDX 49 78 51 79 50 80
REMARK H PARENT 16 7 8 13 23 29 67 48 45 59
REMARK Flexibility Score: inf
ROOT
ATOM      1  C   UNL A   1      32.818  29.990  27.165  1.00  0.00     0.002 C 
ENDROOT
BRANCH   1   2
ATOM      2  C   UNL A   1      32.764  28.464  27.223  1.00  0.00     0.021 C 
BRANCH   2   3
ATOM      3  C   UNL A   1      31.404  27.932  26.770  1.00  0.00     0.116 C 
BRANCH   3   4
ATOM      4  N   UNL A   1      31.242  26.563  27.193  1.00  0.00    -0.356 N 
ATOM      5  C   UNL A   1      31.507  25.422  26.502  1.00  0.00     0.222 C 
ATOM      6  O   UNL A   1      31.180  24.351  27.022  1.00  0.00    -0.275 OA
ATOM      7  H   UNL A   1      30.893  26.437  28.105  1.00  0.00     0.163 HD
BRANCH   5   8
ATOM      8  C   UNL A   1      32.336  25.445  25.238  1.00  0.00     0.138 C 
BRANCH   8   9
ATOM      9  C   UNL A   1      31.816  25.967  23.898  1.00  0.00     0.182 C 
ATOM     10  N   UNL A   1      32.140  24.167  22.092  1.00  0.00    -0.322 N 
ATOM     11  C   UNL A   1      32.687  25.200  21.229  1.00  0.00     0.291 C 
ATOM     12  C   UNL A   1      31.248  24.775  23.076  1.00  0.00     0.295 C 
ATOM     13  H   UNL A   1      31.518  23.552  21.567  1.00  0.00     0.348 HD
ATOM     14  C   UNL A   1      33.356  26.329  22.003  1.00  0.00     0.222 C 
ATOM     15  O   UNL A   1      32.663  26.844  23.145  1.00  0.00    -0.366 OA
BRANCH  10  16
ATOM     16  C   UNL A   1      32.986  22.999  22.396  1.00  0.00     0.248 C 
ATOM     17  C   UNL A   1      32.154  21.709  22.439  1.00  0.00     0.084 C 
BRANCH  16  18
ATOM     18  C   UNL A   1      33.945  23.053  23.563  1.00  0.00     0.161 A 
ATOM     19  C   UNL A   1      34.393  21.948  26.949  1.00  0.00     0.087 C 
ATOM     20  C   UNL A   1      34.626  22.502  25.597  1.00  0.00     0.101 A 
ATOM     21  C   UNL A   1      35.651  23.225  25.029  1.00  0.00     0.046 A 
ATOM     22  O   UNL A   1      33.627  22.333  24.686  1.00  0.00    -0.460 OA
ATOM     23  C   UNL A   1      35.215  23.579  23.725  1.00  0.00     0.052 A 
ENDBRANCH  16  18
ENDBRANCH  10  16
ENDBRANCH   8   9
ENDBRANCH   5   8
ENDBRANCH   3   4
ENDBRANCH   2   3
ENDBRANCH   1   2
BRANCH   1  24
ATOM     24  C   UNL A   1      31.586  30.619  26.505  1.00  0.00     0.002 C 
BRANCH  24  25
ATOM     25  C   UNL A   1      31.475  32.142  26.642  1.00  0.00     0.021 C 
BRANCH  25  26
ATOM     26  C   UNL A   1      32.706  32.832  27.224  1.00  0.00     0.116 C 
BRANCH  26  27
ATOM     27  N   UNL A   1      32.434  34.203  27.627  1.00  0.00    -0.352 N 
ATOM     28  C   UNL A   1      33.009  34.953  28.617  1.00  0.00     0.251 C 
ATOM     29  H   UNL A   1      31.731  34.660  27.110  1.00  0.00     0.163 HD
ATOM     30  O   UNL A   1      32.528  36.044  28.924  1.00  0.00    -0.269 OA
BRANCH  28  31
ATOM     31  C   UNL A   1      34.191  34.443  29.337  1.00  0.00     0.039 A 
ATOM     32  C   UNL A   1      34.010  33.822  30.575  1.00  0.00     0.014 A 
ATOM     33  C   UNL A   1      35.473  34.581  28.798  1.00  0.00     0.014 A 
ATOM     34  C   UNL A   1      35.109  33.286  31.246  1.00  0.00     0.010 A 
ATOM     35  C   UNL A   1      36.557  33.978  29.431  1.00  0.00     0.010 A 
ATOM     36  C   UNL A   1      36.386  33.328  30.663  1.00  0.00    -0.014 A 
BRANCH  36  37
ATOM     37  C   UNL A   1      37.551  32.693  31.326  1.00  0.00     0.031 A 
ATOM     38  C   UNL A   1      38.228  31.505  30.701  1.00  0.00     0.074 A 
ATOM     39  C   UNL A   1      37.961  33.147  32.526  1.00  0.00     0.049 A 
ATOM     40  N   UNL A   1      39.230  30.794  31.151  1.00  0.00    -0.248 NA
ATOM     41  C   UNL A   1      37.692  31.039  29.412  1.00  0.00     0.031 C 
ATOM     42  C   UNL A   1      37.360  34.263  33.259  1.00  0.00     0.029 A 
ATOM     43  N   UNL A   1      38.977  32.721  33.344  1.00  0.00    -0.354 N 
ATOM     44  C   UNL A   1      39.430  29.788  30.215  1.00  0.00     0.074 A 
ATOM     45  C   UNL A   1      38.414  29.949  29.198  1.00  0.00     0.031 C 
ATOM     46  C   UNL A   1      38.033  34.449  34.405  1.00  0.00     0.029 A 
ATOM     47  C   UNL A   1      39.082  33.440  34.509  1.00  0.00     0.049 A 
ATOM     48  H   UNL A   1      39.571  31.969  33.118  1.00  0.00     0.167 HD
ATOM     49  C   UNL A   1      40.382  28.825  30.195  1.00  0.00     0.031 A 
ATOM     50  C   UNL A   1      39.924  33.300  35.551  1.00  0.00     0.031 A 
ATOM     51  C   UNL A   1      41.392  28.667  31.208  1.00  0.00     0.049 A 
ATOM     52  C   UNL A   1      40.965  32.217  35.513  1.00  0.00     0.074 A 
ATOM     53  C   UNL A   1      42.442  27.766  31.245  1.00  0.00     0.029 A 
ATOM     54  N   UNL A   1      41.470  29.421  32.370  1.00  0.00    -0.354 N 
ATOM     55  N   UNL A   1      41.194  31.325  34.581  1.00  0.00    -0.248 NA
ATOM     56  C   UNL A   1      41.871  32.132  36.666  1.00  0.00     0.031 C 
ATOM     57  C   UNL A   1      43.115  27.930  32.461  1.00  0.00     0.029 A 
ATOM     58  C   UNL A   1      42.528  28.981  33.148  1.00  0.00     0.049 A 
ATOM     59  H   UNL A   1      40.863  30.159  32.607  1.00  0.00     0.167 HD
ATOM     60  C   UNL A   1      42.286  30.588  35.020  1.00  0.00     0.074 A 
ATOM     61  C   UNL A   1      42.683  31.150  36.296  1.00  0.00     0.031 C 
ATOM     62  C   UNL A   1      42.906  29.542  34.422  1.00  0.00     0.031 A 
BRANCH  49  63
ATOM     63  C   UNL A   1      40.357  27.851  29.048  1.00  0.00    -0.014 A 
ATOM     64  C   UNL A   1      39.647  26.641  29.126  1.00  0.00     0.009 A 
ATOM     65  C   UNL A   1      41.040  28.157  27.861  1.00  0.00     0.009 A 
ATOM     66  C   UNL A   1      39.660  25.740  28.060  1.00  0.00     0.001 A 
ATOM     67  C   UNL A   1      41.023  27.270  26.782  1.00  0.00     0.001 A 
ATOM     68  C   UNL A   1      40.344  26.058  26.887  1.00  0.00     0.000 A 
ENDBRANCH  49  63
BRANCH  50  69
ATOM     69  C   UNL A   1      39.817  34.219  36.714  1.00  0.00    -0.014 A 
ATOM     70  C   UNL A   1      40.489  35.451  36.717  1.00  0.00     0.009 A 
ATOM     71  C   UNL A   1      39.026  33.876  37.822  1.00  0.00     0.009 A 
ATOM     72  C   UNL A   1      40.389  36.309  37.814  1.00  0.00     0.001 A 
ATOM     73  C   UNL A   1      38.903  34.750  38.904  1.00  0.00     0.001 A 
ATOM     74  C   UNL A   1      39.591  35.961  38.903  1.00  0.00     0.000 A 
ENDBRANCH  50  69
BRANCH  62  75
ATOM     75  C   UNL A   1      44.098  28.952  35.123  1.00  0.00    -0.014 A 
ATOM     76  C   UNL A   1      45.394  29.448  34.910  1.00  0.00     0.009 A 
ATOM     77  C   UNL A   1      43.914  27.910  36.046  1.00  0.00     0.009 A 
ATOM     78  C   UNL A   1      46.483  28.888  35.579  1.00  0.00     0.001 A 
ATOM     79  C   UNL A   1      45.001  27.375  36.739  1.00  0.00     0.001 A 
ATOM     80  C   UNL A   1      46.286  27.858  36.496  1.00  0.00     0.000 A 
ENDBRANCH  62  75
ENDBRANCH  36  37
ENDBRANCH  28  31
ENDBRANCH  26  27
ENDBRANCH  25  26
ENDBRANCH  24  25
ENDBRANCH   1  24
TORSDOF 16
ENDMDL
