MODEL 1
REMARK VINA RESULT:     -11.4      0.000      0.000
REMARK SMILES C[C@@H]1CC[C@H](C)[N@H+]1Cc1cc2c(cc1Cl)C=C(C(=O)NCCCCCCNC(=O)c1ccc(-c3c4nc(c(-c5ccccc5)c5ccc([nH]5)c(-c5ccccc5)c5nc(c(-c6ccccc6)c6ccc3[nH]6)C=C5)C=C4)cc1)[C@@H](C(F)(F)F)O2
REMARK SMILES IDX 23 1 22 2 21 3 20 4 18 5 19 6 17 8 9 9 10 10 14 11 11 12
REMARK SMILES IDX 13 13 15 14 12 15 83 16 16 17 78 18 8 19 7 20 6 21 5 22 4 23
REMARK SMILES IDX 3 24 2 25 1 27 79 28 80 29 81 30 82 31 24 32 25 33 26 34
REMARK SMILES IDX 27 35 28 36 29 38 30 39 31 40 77 41 32 42 76 43 33 44 34 45
REMARK SMILES IDX 35 46 70 47 36 48 75 49 69 50 71 51 37 52 74 53 68 54 67 55
REMARK SMILES IDX 38 57 60 58 45 59 59 60 46 61 49 62 58 63 72 64 47 65 48 66
REMARK SMILES IDX 57 68 73 69 50 70 39 71 40 72 44 73 41 74 43 75 42 76 61 77
REMARK SMILES IDX 62 78 66 79 63 80 65 81 64 82 51 83 52 84 56 85 53 86 55 87
REMARK SMILES IDX 54 88
REMARK H PARENT 20 7 7 26 27 37 71 56 49 67
REMARK Flexibility Score: inf
ROOT
ATOM      1  C   UNL A   1      39.972  21.839  26.703  1.00  0.00     0.002 C 
ENDROOT
BRANCH   1   2
ATOM      2  C   UNL A   1      39.057  21.126  25.701  1.00  0.00     0.021 C 
BRANCH   2   3
ATOM      3  C   UNL A   1      37.593  21.539  25.796  1.00  0.00     0.116 C 
BRANCH   3   4
ATOM      4  N   UNL A   1      36.717  20.482  25.332  1.00  0.00    -0.352 N 
ATOM      5  C   UNL A   1      35.427  20.357  24.951  1.00  0.00     0.251 C 
ATOM      6  O   UNL A   1      35.089  19.216  24.621  1.00  0.00    -0.270 OA
ATOM      7  H   UNL A   1      37.190  19.620  25.282  1.00  0.00     0.163 HD
BRANCH   5   8
ATOM      8  C   UNL A   1      34.431  21.465  24.896  1.00  0.00     0.067 C 
ATOM      9  C   UNL A   1      31.833  25.589  23.565  1.00  0.00     0.029 A 
ATOM     10  C   UNL A   1      31.551  24.455  24.352  1.00  0.00     0.058 A 
ATOM     11  C   UNL A   1      33.120  25.695  23.010  1.00  0.00     0.050 A 
ATOM     12  C   UNL A   1      32.492  23.442  24.502  1.00  0.00     0.128 A 
ATOM     13  C   UNL A   1      34.026  24.631  23.091  1.00  0.00     0.033 A 
ATOM     14  Cl  UNL A   1      33.717  27.148  22.286  1.00  0.00    -0.084 Cl
ATOM     15  C   UNL A   1      33.706  23.492  23.824  1.00  0.00     0.019 A 
ATOM     16  O   UNL A   1      32.164  22.396  25.318  1.00  0.00    -0.475 OA
ATOM     17  C   UNL A   1      34.612  22.355  23.902  1.00  0.00     0.025 C 
ATOM     18  C   UNL A   1      33.307  21.676  25.872  1.00  0.00     0.314 C 
BRANCH   9  19
ATOM     19  C   UNL A   1      30.728  26.611  23.360  1.00  0.00     0.301 C 
BRANCH  19  20
ATOM     20  N   UNL A   1      30.698  27.751  24.291  1.00  0.00    -0.327 N 
ATOM     21  C   UNL A   1      29.160  29.542  23.542  1.00  0.00     0.075 C 
ATOM     22  C   UNL A   1      30.607  29.096  23.706  1.00  0.00     0.181 C 
ATOM     23  C   UNL A   1      31.364  30.000  24.678  1.00  0.00     0.071 C 
ATOM     24  C   UNL A   1      32.440  29.081  25.216  1.00  0.00     0.071 C 
ATOM     25  C   UNL A   1      31.727  27.741  25.337  1.00  0.00     0.181 C 
ATOM     26  H   UNL A   1      29.795  27.565  24.727  1.00  0.00     0.348 HD
ATOM     27  C   UNL A   1      31.049  27.562  26.694  1.00  0.00     0.075 C 
ENDBRANCH  19  20
ENDBRANCH   9  19
BRANCH  18  28
ATOM     28  C   UNL A   1      33.789  22.352  27.172  1.00  0.00     0.429 C 
ATOM     29  F   UNL A   1      32.735  22.809  27.893  1.00  0.00    -0.167 F 
ATOM     30  F   UNL A   1      34.458  21.493  27.980  1.00  0.00    -0.167 F 
ATOM     31  F   UNL A   1      34.613  23.399  26.949  1.00  0.00    -0.167 F 
ENDBRANCH  18  28
ENDBRANCH   5   8
ENDBRANCH   3   4
ENDBRANCH   2   3
ENDBRANCH   1   2
BRANCH   1  32
ATOM     32  C   UNL A   1      41.194  21.036  27.166  1.00  0.00     0.002 C 
BRANCH  32  33
ATOM     33  C   UNL A   1      42.346  20.955  26.163  1.00  0.00     0.021 C 
BRANCH  33  34
ATOM     34  C   UNL A   1      42.620  22.245  25.402  1.00  0.00     0.116 C 
BRANCH  34  35
ATOM     35  N   UNL A   1      44.037  22.560  25.327  1.00  0.00    -0.352 N 
ATOM     36  C   UNL A   1      44.716  23.622  25.875  1.00  0.00     0.251 C 
ATOM     37  H   UNL A   1      44.586  21.925  24.812  1.00  0.00     0.163 HD
ATOM     38  O   UNL A   1      45.889  23.826  25.594  1.00  0.00    -0.269 OA
BRANCH  36  39
ATOM     39  C   UNL A   1      43.999  24.541  26.785  1.00  0.00     0.039 A 
ATOM     40  C   UNL A   1      44.073  25.922  26.596  1.00  0.00     0.014 A 
ATOM     41  C   UNL A   1      43.281  24.012  27.860  1.00  0.00     0.014 A 
ATOM     42  C   UNL A   1      43.569  26.775  27.572  1.00  0.00     0.010 A 
ATOM     43  C   UNL A   1      42.701  24.873  28.795  1.00  0.00     0.010 A 
ATOM     44  C   UNL A   1      42.882  26.261  28.684  1.00  0.00    -0.014 A 
BRANCH  44  45
ATOM     45  C   UNL A   1      42.360  27.197  29.712  1.00  0.00     0.031 A 
ATOM     46  C   UNL A   1      41.074  27.946  29.491  1.00  0.00     0.074 A 
ATOM     47  C   UNL A   1      43.025  27.326  30.876  1.00  0.00     0.049 A 
ATOM     48  N   UNL A   1      40.462  28.778  30.298  1.00  0.00    -0.248 NA
ATOM     49  C   UNL A   1      40.383  27.743  28.208  1.00  0.00     0.031 C 
ATOM     50  C   UNL A   1      44.277  26.642  31.210  1.00  0.00     0.029 A 
ATOM     51  N   UNL A   1      42.731  28.050  32.003  1.00  0.00    -0.354 N 
ATOM     52  C   UNL A   1      39.329  29.206  29.616  1.00  0.00     0.074 A 
ATOM     53  C   UNL A   1      39.348  28.565  28.320  1.00  0.00     0.031 C 
ATOM     54  C   UNL A   1      44.614  26.939  32.473  1.00  0.00     0.029 A 
ATOM     55  C   UNL A   1      43.642  27.881  33.016  1.00  0.00     0.049 A 
ATOM     56  H   UNL A   1      41.942  28.636  32.079  1.00  0.00     0.167 HD
ATOM     57  C   UNL A   1      38.358  30.049  30.040  1.00  0.00     0.031 A 
ATOM     58  C   UNL A   1      43.705  28.431  34.245  1.00  0.00     0.031 A 
ATOM     59  C   UNL A   1      38.334  30.674  31.335  1.00  0.00     0.049 A 
ATOM     60  C   UNL A   1      42.626  29.380  34.678  1.00  0.00     0.074 A 
ATOM     61  C   UNL A   1      37.381  31.534  31.853  1.00  0.00     0.029 A 
ATOM     62  N   UNL A   1      39.299  30.506  32.315  1.00  0.00    -0.354 N 
ATOM     63  N   UNL A   1      41.560  29.766  34.021  1.00  0.00    -0.248 NA
ATOM     64  C   UNL A   1      42.755  29.967  36.019  1.00  0.00     0.031 C 
ATOM     65  C   UNL A   1      37.795  31.927  33.127  1.00  0.00     0.029 A 
ATOM     66  C   UNL A   1      38.972  31.262  33.429  1.00  0.00     0.049 A 
ATOM     67  H   UNL A   1      40.097  29.935  32.234  1.00  0.00     0.167 HD
ATOM     68  C   UNL A   1      40.885  30.633  34.871  1.00  0.00     0.074 A 
ATOM     69  C   UNL A   1      41.649  30.696  36.100  1.00  0.00     0.031 C 
ATOM     70  C   UNL A   1      39.739  31.318  34.645  1.00  0.00     0.031 A 
BRANCH  57  71
ATOM     71  C   UNL A   1      37.227  30.361  29.100  1.00  0.00    -0.014 A 
ATOM     72  C   UNL A   1      37.038  31.679  28.651  1.00  0.00     0.009 A 
ATOM     73  C   UNL A   1      36.281  29.383  28.755  1.00  0.00     0.009 A 
ATOM     74  C   UNL A   1      35.914  32.016  27.895  1.00  0.00     0.001 A 
ATOM     75  C   UNL A   1      35.171  29.719  27.976  1.00  0.00     0.001 A 
ATOM     76  C   UNL A   1      34.983  31.036  27.556  1.00  0.00     0.000 A 
ENDBRANCH  57  71
BRANCH  58  77
ATOM     77  C   UNL A   1      44.841  28.083  35.138  1.00  0.00    -0.014 A 
ATOM     78  C   UNL A   1      46.033  28.825  35.089  1.00  0.00     0.009 A 
ATOM     79  C   UNL A   1      44.765  26.979  35.999  1.00  0.00     0.009 A 
ATOM     80  C   UNL A   1      47.134  28.452  35.859  1.00  0.00     0.001 A 
ATOM     81  C   UNL A   1      45.860  26.628  36.793  1.00  0.00     0.001 A 
ATOM     82  C   UNL A   1      47.045  27.356  36.715  1.00  0.00     0.000 A 
ENDBRANCH  58  77
BRANCH  70  83
ATOM     83  C   UNL A   1      39.219  32.197  35.747  1.00  0.00    -0.014 A 
ATOM     84  C   UNL A   1      38.282  31.687  36.661  1.00  0.00     0.009 A 
ATOM     85  C   UNL A   1      39.571  33.553  35.818  1.00  0.00     0.009 A 
ATOM     86  C   UNL A   1      37.696  32.521  37.614  1.00  0.00     0.001 A 
ATOM     87  C   UNL A   1      39.005  34.379  36.791  1.00  0.00     0.001 A 
ATOM     88  C   UNL A   1      38.061  33.865  37.680  1.00  0.00     0.000 A 
ENDBRANCH  70  83
ENDBRANCH  44  45
ENDBRANCH  36  39
ENDBRANCH  34  35
ENDBRANCH  33  34
ENDBRANCH  32  33
ENDBRANCH   1  32
TORSDOF 16
ENDMDL
MODEL 2
REMARK VINA RESULT:     -11.2      3.257      8.425
REMARK SMILES C[C@@H]1CC[C@H](C)[N@H+]1Cc1cc2c(cc1Cl)C=C(C(=O)NCCCCCCNC(=O)c1ccc(-c3c4nc(c(-c5ccccc5)c5ccc([nH]5)c(-c5ccccc5)c5nc(c(-c6ccccc6)c6ccc3[nH]6)C=C5)C=C4)cc1)[C@@H](C(F)(F)F)O2
REMARK SMILES IDX 23 1 22 2 21 3 20 4 18 5 19 6 17 8 9 9 10 10 14 11 11 12
REMARK SMILES IDX 13 13 15 14 12 15 83 16 16 17 78 18 8 19 7 20 6 21 5 22 4 23
REMARK SMILES IDX 3 24 2 25 1 27 79 28 80 29 81 30 82 31 24 32 25 33 26 34
REMARK SMILES IDX 27 35 28 36 29 38 30 39 31 40 77 41 32 42 76 43 33 44 34 45
REMARK SMILES IDX 35 46 70 47 36 48 75 49 69 50 71 51 37 52 74 53 68 54 67 55
REMARK SMILES IDX 38 57 60 58 45 59 59 60 46 61 49 62 58 63 72 64 47 65 48 66
REMARK SMILES IDX 57 68 73 69 50 70 39 71 40 72 44 73 41 74 43 75 42 76 61 77
REMARK SMILES IDX 62 78 66 79 63 80 65 81 64 82 51 83 52 84 56 85 53 86 55 87
REMARK SMILES IDX 54 88
REMARK H PARENT 20 7 7 26 27 37 71 56 49 67
REMARK Flexibility Score: inf
ROOT
ATOM      1  C   UNL A   1      34.139  30.205  27.267  1.00  0.00     0.002 C 
ENDROOT
BRANCH   1   2
ATOM      2  C   UNL A   1      33.303  30.046  25.993  1.00  0.00     0.021 C 
BRANCH   2   3
ATOM      3  C   UNL A   1      31.797  30.064  26.233  1.00  0.00     0.116 C 
BRANCH   3   4
ATOM      4  N   UNL A   1      31.067  30.155  24.984  1.00  0.00    -0.352 N 
ATOM      5  C   UNL A   1      30.743  29.333  23.962  1.00  0.00     0.251 C 
ATOM      6  O   UNL A   1      30.080  29.858  23.062  1.00  0.00    -0.270 OA
ATOM      7  H   UNL A   1      30.709  31.061  24.842  1.00  0.00     0.163 HD
BRANCH   5   8
ATOM      8  C   UNL A   1      31.113  27.893  23.860  1.00  0.00     0.067 C 
ATOM      9  C   UNL A   1      31.863  22.996  24.856  1.00  0.00     0.029 A 
ATOM     10  C   UNL A   1      31.755  23.760  23.677  1.00  0.00     0.058 A 
ATOM     11  C   UNL A   1      31.787  23.678  26.084  1.00  0.00     0.050 A 
ATOM     12  C   UNL A   1      31.502  25.126  23.734  1.00  0.00     0.128 A 
ATOM     13  C   UNL A   1      31.442  25.034  26.132  1.00  0.00     0.033 A 
ATOM     14  Cl  UNL A   1      32.200  22.945  27.595  1.00  0.00    -0.084 Cl
ATOM     15  C   UNL A   1      31.282  25.758  24.954  1.00  0.00     0.019 A 
ATOM     16  O   UNL A   1      31.459  25.807  22.550  1.00  0.00    -0.475 OA
ATOM     17  C   UNL A   1      30.893  27.161  24.969  1.00  0.00     0.025 C 
ATOM     18  C   UNL A   1      31.738  27.236  22.661  1.00  0.00     0.314 C 
BRANCH   9  19
ATOM     19  C   UNL A   1      32.040  21.493  24.724  1.00  0.00     0.301 C 
BRANCH  19  20
ATOM     20  N   UNL A   1      33.380  21.015  24.351  1.00  0.00    -0.327 N 
ATOM     21  C   UNL A   1      33.367  18.652  23.608  1.00  0.00     0.075 C 
ATOM     22  C   UNL A   1      33.728  19.633  24.714  1.00  0.00     0.181 C 
ATOM     23  C   UNL A   1      35.234  19.660  24.969  1.00  0.00     0.071 C 
ATOM     24  C   UNL A   1      35.453  21.053  25.518  1.00  0.00     0.071 C 
ATOM     25  C   UNL A   1      34.492  21.906  24.702  1.00  0.00     0.181 C 
ATOM     26  H   UNL A   1      33.267  21.026  23.337  1.00  0.00     0.348 HD
ATOM     27  C   UNL A   1      35.128  22.432  23.416  1.00  0.00     0.075 C 
ENDBRANCH  19  20
ENDBRANCH   9  19
BRANCH  18  28
ATOM     28  C   UNL A   1      33.257  27.493  22.588  1.00  0.00     0.429 C 
ATOM     29  F   UNL A   1      33.793  27.557  23.832  1.00  0.00    -0.167 F 
ATOM     30  F   UNL A   1      33.916  26.501  21.941  1.00  0.00    -0.167 F 
ATOM     31  F   UNL A   1      33.568  28.645  21.953  1.00  0.00    -0.167 F 
ENDBRANCH  18  28
ENDBRANCH   5   8
ENDBRANCH   3   4
ENDBRANCH   2   3
ENDBRANCH   1   2
BRANCH   1  32
ATOM     32  C   UNL A   1      34.506  31.648  27.637  1.00  0.00     0.002 C 
BRANCH  32  33
ATOM     33  C   UNL A   1      33.330  32.553  28.005  1.00  0.00     0.021 C 
BRANCH  33  34
ATOM     34  C   UNL A   1      33.645  34.042  27.997  1.00  0.00     0.116 C 
BRANCH  34  35
ATOM     35  N   UNL A   1      33.247  34.705  29.228  1.00  0.00    -0.352 N 
ATOM     36  C   UNL A   1      33.752  34.544  30.497  1.00  0.00     0.251 C 
ATOM     37  H   UNL A   1      32.516  35.358  29.141  1.00  0.00     0.163 HD
ATOM     38  O   UNL A   1      33.206  35.069  31.457  1.00  0.00    -0.269 OA
BRANCH  36  39
ATOM     39  C   UNL A   1      34.947  33.696  30.693  1.00  0.00     0.039 A 
ATOM     40  C   UNL A   1      34.873  32.541  31.475  1.00  0.00     0.014 A 
ATOM     41  C   UNL A   1      36.160  34.086  30.120  1.00  0.00     0.014 A 
ATOM     42  C   UNL A   1      36.042  31.871  31.818  1.00  0.00     0.010 A 
ATOM     43  C   UNL A   1      37.321  33.359  30.398  1.00  0.00     0.010 A 
ATOM     44  C   UNL A   1      37.279  32.274  31.288  1.00  0.00    -0.014 A 
BRANCH  44  45
ATOM     45  C   UNL A   1      38.510  31.542  31.678  1.00  0.00     0.031 A 
ATOM     46  C   UNL A   1      39.039  30.416  30.832  1.00  0.00     0.074 A 
ATOM     47  C   UNL A   1      39.185  31.935  32.775  1.00  0.00     0.049 A 
ATOM     48  N   UNL A   1      40.116  29.691  31.012  1.00  0.00    -0.248 NA
ATOM     49  C   UNL A   1      38.268  30.050  29.633  1.00  0.00     0.031 C 
ATOM     50  C   UNL A   1      38.777  33.022  33.669  1.00  0.00     0.029 A 
ATOM     51  N   UNL A   1      40.367  31.491  33.311  1.00  0.00    -0.354 N 
ATOM     52  C   UNL A   1      40.142  28.780  29.963  1.00  0.00     0.074 A 
ATOM     53  C   UNL A   1      38.962  29.021  29.164  1.00  0.00     0.031 C 
ATOM     54  C   UNL A   1      39.717  33.192  34.609  1.00  0.00     0.029 A 
ATOM     55  C   UNL A   1      40.761  32.189  34.426  1.00  0.00     0.049 A 
ATOM     56  H   UNL A   1      40.884  30.742  32.933  1.00  0.00     0.167 HD
ATOM     57  C   UNL A   1      41.073  27.836  29.689  1.00  0.00     0.031 A 
ATOM     58  C   UNL A   1      41.834  32.038  35.226  1.00  0.00     0.031 A 
ATOM     59  C   UNL A   1      42.254  27.607  30.478  1.00  0.00     0.049 A 
ATOM     60  C   UNL A   1      42.837  30.967  34.911  1.00  0.00     0.074 A 
ATOM     61  C   UNL A   1      43.259  26.679  30.267  1.00  0.00     0.029 A 
ATOM     62  N   UNL A   1      42.593  28.312  31.622  1.00  0.00    -0.354 N 
ATOM     63  N   UNL A   1      42.847  30.120  33.911  1.00  0.00    -0.248 NA
ATOM     64  C   UNL A   1      43.977  30.831  35.829  1.00  0.00     0.031 C 
ATOM     65  C   UNL A   1      44.178  26.786  31.311  1.00  0.00     0.029 A 
ATOM     66  C   UNL A   1      43.782  27.826  32.137  1.00  0.00     0.049 A 
ATOM     67  H   UNL A   1      42.067  29.049  32.011  1.00  0.00     0.167 HD
ATOM     68  C   UNL A   1      43.996  29.357  34.072  1.00  0.00     0.074 A 
ATOM     69  C   UNL A   1      44.671  29.858  35.252  1.00  0.00     0.031 C 
ATOM     70  C   UNL A   1      44.444  28.330  33.312  1.00  0.00     0.031 A 
BRANCH  57  71
ATOM     71  C   UNL A   1      40.866  26.961  28.485  1.00  0.00    -0.014 A 
ATOM     72  C   UNL A   1      41.386  27.354  27.241  1.00  0.00     0.009 A 
ATOM     73  C   UNL A   1      40.058  25.815  28.552  1.00  0.00     0.009 A 
ATOM     74  C   UNL A   1      41.084  26.631  26.085  1.00  0.00     0.001 A 
ATOM     75  C   UNL A   1      39.779  25.079  27.398  1.00  0.00     0.001 A 
ATOM     76  C   UNL A   1      40.284  25.493  26.165  1.00  0.00     0.000 A 
ENDBRANCH  57  71
BRANCH  58  77
ATOM     77  C   UNL A   1      41.995  32.934  36.401  1.00  0.00    -0.014 A 
ATOM     78  C   UNL A   1      41.405  32.601  37.632  1.00  0.00     0.009 A 
ATOM     79  C   UNL A   1      42.685  34.149  36.287  1.00  0.00     0.009 A 
ATOM     80  C   UNL A   1      41.476  33.477  38.714  1.00  0.00     0.001 A 
ATOM     81  C   UNL A   1      42.782  35.010  37.384  1.00  0.00     0.001 A 
ATOM     82  C   UNL A   1      42.169  34.680  38.591  1.00  0.00     0.000 A 
ENDBRANCH  58  77
BRANCH  70  83
ATOM     83  C   UNL A   1      45.733  27.670  33.713  1.00  0.00    -0.014 A 
ATOM     84  C   UNL A   1      45.719  26.634  34.661  1.00  0.00     0.009 A 
ATOM     85  C   UNL A   1      46.965  28.141  33.236  1.00  0.00     0.009 A 
ATOM     86  C   UNL A   1      46.914  26.093  35.136  1.00  0.00     0.001 A 
ATOM     87  C   UNL A   1      48.159  27.579  33.692  1.00  0.00     0.001 A 
ATOM     88  C   UNL A   1      48.133  26.564  34.649  1.00  0.00     0.000 A 
ENDBRANCH  70  83
ENDBRANCH  44  45
ENDBRANCH  36  39
ENDBRANCH  34  35
ENDBRANCH  33  34
ENDBRANCH  32  33
ENDBRANCH   1  32
TORSDOF 16
ENDMDL
MODEL 3
REMARK VINA RESULT:     -11.1      3.290      9.272
REMARK SMILES C[C@@H]1CC[C@H](C)[N@H+]1Cc1cc2c(cc1Cl)C=C(C(=O)NCCCCCCNC(=O)c1ccc(-c3c4nc(c(-c5ccccc5)c5ccc([nH]5)c(-c5ccccc5)c5nc(c(-c6ccccc6)c6ccc3[nH]6)C=C5)C=C4)cc1)[C@@H](C(F)(F)F)O2
REMARK SMILES IDX 23 1 22 2 21 3 20 4 18 5 19 6 17 8 9 9 10 10 14 11 11 12
REMARK SMILES IDX 13 13 15 14 12 15 83 16 16 17 78 18 8 19 7 20 6 21 5 22 4 23
REMARK SMILES IDX 3 24 2 25 1 27 79 28 80 29 81 30 82 31 24 32 25 33 26 34
REMARK SMILES IDX 27 35 28 36 29 38 30 39 31 40 77 41 32 42 76 43 33 44 34 45
REMARK SMILES IDX 35 46 70 47 36 48 75 49 69 50 71 51 37 52 74 53 68 54 67 55
REMARK SMILES IDX 38 57 60 58 45 59 59 60 46 61 49 62 58 63 72 64 47 65 48 66
REMARK SMILES IDX 57 68 73 69 50 70 39 71 40 72 44 73 41 74 43 75 42 76 61 77
REMARK SMILES IDX 62 78 66 79 63 80 65 81 64 82 51 83 52 84 56 85 53 86 55 87
REMARK SMILES IDX 54 88
REMARK H PARENT 20 7 7 26 27 37 71 56 49 67
REMARK Flexibility Score: inf
ROOT
ATOM      1  C   UNL A   1      33.613  30.156  27.348  1.00  0.00     0.002 C 
ENDROOT
BRANCH   1   2
ATOM      2  C   UNL A   1      32.999  30.069  25.947  1.00  0.00     0.021 C 
BRANCH   2   3
ATOM      3  C   UNL A   1      31.475  30.038  25.938  1.00  0.00     0.116 C 
BRANCH   3   4
ATOM      4  N   UNL A   1      30.955  30.094  24.587  1.00  0.00    -0.352 N 
ATOM      5  C   UNL A   1      30.769  29.237  23.559  1.00  0.00     0.251 C 
ATOM      6  O   UNL A   1      30.275  29.739  22.545  1.00  0.00    -0.270 OA
ATOM      7  H   UNL A   1      30.658  31.003  24.353  1.00  0.00     0.163 HD
BRANCH   5   8
ATOM      8  C   UNL A   1      31.098  27.783  23.576  1.00  0.00     0.067 C 
ATOM      9  C   UNL A   1      31.621  22.943  24.930  1.00  0.00     0.029 A 
ATOM     10  C   UNL A   1      31.620  23.631  23.700  1.00  0.00     0.058 A 
ATOM     11  C   UNL A   1      31.482  23.705  26.104  1.00  0.00     0.050 A 
ATOM     12  C   UNL A   1      31.408  25.004  23.653  1.00  0.00     0.128 A 
ATOM     13  C   UNL A   1      31.179  25.071  26.042  1.00  0.00     0.033 A 
ATOM     14  Cl  UNL A   1      31.766  23.061  27.683  1.00  0.00    -0.084 Cl
ATOM     15  C   UNL A   1      31.123  25.720  24.812  1.00  0.00     0.019 A 
ATOM     16  O   UNL A   1      31.468  25.608  22.428  1.00  0.00    -0.475 OA
ATOM     17  C   UNL A   1      30.779  27.131  24.709  1.00  0.00     0.025 C 
ATOM     18  C   UNL A   1      31.784  27.032  22.468  1.00  0.00     0.314 C 
BRANCH   9  19
ATOM     19  C   UNL A   1      31.759  21.431  24.905  1.00  0.00     0.301 C 
BRANCH  19  20
ATOM     20  N   UNL A   1      33.017  20.889  24.368  1.00  0.00    -0.327 N 
ATOM     21  C   UNL A   1      32.702  18.700  23.253  1.00  0.00     0.075 C 
ATOM     22  C   UNL A   1      33.227  19.438  24.477  1.00  0.00     0.181 C 
ATOM     23  C   UNL A   1      34.738  19.268  24.628  1.00  0.00     0.071 C 
ATOM     24  C   UNL A   1      35.138  20.519  25.380  1.00  0.00     0.071 C 
ATOM     25  C   UNL A   1      34.237  21.591  24.782  1.00  0.00     0.181 C 
ATOM     26  H   UNL A   1      32.854  21.083  23.380  1.00  0.00     0.348 HD
ATOM     27  C   UNL A   1      34.861  22.259  23.558  1.00  0.00     0.075 C 
ENDBRANCH  19  20
ENDBRANCH   9  19
BRANCH  18  28
ATOM     28  C   UNL A   1      33.312  27.243  22.487  1.00  0.00     0.429 C 
ATOM     29  F   UNL A   1      33.944  26.227  21.847  1.00  0.00    -0.167 F 
ATOM     30  F   UNL A   1      33.682  28.381  21.850  1.00  0.00    -0.167 F 
ATOM     31  F   UNL A   1      33.820  27.314  23.737  1.00  0.00    -0.167 F 
ENDBRANCH  18  28
ENDBRANCH   5   8
ENDBRANCH   3   4
ENDBRANCH   2   3
ENDBRANCH   1   2
BRANCH   1  32
ATOM     32  C   UNL A   1      34.185  31.526  27.733  1.00  0.00     0.002 C 
BRANCH  32  33
ATOM     33  C   UNL A   1      33.157  32.645  27.900  1.00  0.00     0.021 C 
BRANCH  33  34
ATOM     34  C   UNL A   1      33.751  34.022  28.163  1.00  0.00     0.116 C 
BRANCH  34  35
ATOM     35  N   UNL A   1      33.419  34.532  29.483  1.00  0.00    -0.352 N 
ATOM     36  C   UNL A   1      34.002  34.240  30.693  1.00  0.00     0.251 C 
ATOM     37  H   UNL A   1      32.673  35.174  29.515  1.00  0.00     0.163 HD
ATOM     38  O   UNL A   1      33.508  34.640  31.738  1.00  0.00    -0.269 OA
BRANCH  36  39
ATOM     39  C   UNL A   1      35.221  33.403  30.720  1.00  0.00     0.039 A 
ATOM     40  C   UNL A   1      35.243  32.210  31.446  1.00  0.00     0.014 A 
ATOM     41  C   UNL A   1      36.363  33.842  30.046  1.00  0.00     0.014 A 
ATOM     42  C   UNL A   1      36.448  31.543  31.631  1.00  0.00     0.010 A 
ATOM     43  C   UNL A   1      37.555  33.121  30.164  1.00  0.00     0.010 A 
ATOM     44  C   UNL A   1      37.618  31.993  30.997  1.00  0.00    -0.014 A 
BRANCH  44  45
ATOM     45  C   UNL A   1      38.891  31.262  31.219  1.00  0.00     0.031 A 
ATOM     46  C   UNL A   1      39.821  31.652  32.335  1.00  0.00     0.074 A 
ATOM     47  C   UNL A   1      39.181  30.202  30.440  1.00  0.00     0.049 A 
ATOM     48  N   UNL A   1      40.957  31.101  32.687  1.00  0.00    -0.248 NA
ATOM     49  C   UNL A   1      39.436  32.805  33.166  1.00  0.00     0.031 C 
ATOM     50  C   UNL A   1      38.351  29.720  29.333  1.00  0.00     0.029 A 
ATOM     51  N   UNL A   1      40.232  29.321  30.475  1.00  0.00    -0.354 N 
ATOM     52  C   UNL A   1      41.425  31.846  33.762  1.00  0.00     0.074 A 
ATOM     53  C   UNL A   1      40.468  32.905  33.993  1.00  0.00     0.031 C 
ATOM     54  C   UNL A   1      38.898  28.605  28.829  1.00  0.00     0.029 A 
ATOM     55  C   UNL A   1      40.146  28.328  29.531  1.00  0.00     0.049 A 
ATOM     56  H   UNL A   1      40.977  29.395  31.115  1.00  0.00     0.167 HD
ATOM     57  C   UNL A   1      42.548  31.655  34.495  1.00  0.00     0.031 A 
ATOM     58  C   UNL A   1      40.981  27.309  29.247  1.00  0.00     0.031 A 
ATOM     59  C   UNL A   1      43.492  30.593  34.272  1.00  0.00     0.049 A 
ATOM     60  C   UNL A   1      42.229  27.137  30.061  1.00  0.00     0.074 A 
ATOM     61  C   UNL A   1      44.651  30.316  34.976  1.00  0.00     0.029 A 
ATOM     62  N   UNL A   1      43.385  29.632  33.280  1.00  0.00    -0.354 N 
ATOM     63  N   UNL A   1      42.651  27.848  31.078  1.00  0.00    -0.248 NA
ATOM     64  C   UNL A   1      43.116  26.023  29.693  1.00  0.00     0.031 C 
ATOM     65  C   UNL A   1      45.274  29.220  34.377  1.00  0.00     0.029 A 
ATOM     66  C   UNL A   1      44.469  28.773  33.342  1.00  0.00     0.049 A 
ATOM     67  H   UNL A   1      42.650  29.569  32.629  1.00  0.00     0.167 HD
ATOM     68  C   UNL A   1      43.846  27.264  31.479  1.00  0.00     0.074 A 
ATOM     69  C   UNL A   1      44.069  26.125  30.612  1.00  0.00     0.031 C 
ATOM     70  C   UNL A   1      44.682  27.645  32.474  1.00  0.00     0.031 A 
BRANCH  57  71
ATOM     71  C   UNL A   1      42.837  32.614  35.616  1.00  0.00    -0.014 A 
ATOM     72  C   UNL A   1      43.642  33.741  35.379  1.00  0.00     0.009 A 
ATOM     73  C   UNL A   1      42.417  32.343  36.928  1.00  0.00     0.009 A 
ATOM     74  C   UNL A   1      44.039  34.563  36.435  1.00  0.00     0.001 A 
ATOM     75  C   UNL A   1      42.795  33.183  37.978  1.00  0.00     0.001 A 
ATOM     76  C   UNL A   1      43.614  34.286  37.732  1.00  0.00     0.000 A 
ENDBRANCH  57  71
BRANCH  58  77
ATOM     77  C   UNL A   1      40.645  26.385  28.132  1.00  0.00    -0.014 A 
ATOM     78  C   UNL A   1      41.177  26.599  26.849  1.00  0.00     0.009 A 
ATOM     79  C   UNL A   1      39.750  25.323  28.325  1.00  0.00     0.009 A 
ATOM     80  C   UNL A   1      40.797  25.790  25.778  1.00  0.00     0.001 A 
ATOM     81  C   UNL A   1      39.398  24.494  27.257  1.00  0.00     0.001 A 
ATOM     82  C   UNL A   1      39.911  24.735  25.984  1.00  0.00     0.000 A 
ENDBRANCH  58  77
BRANCH  70  83
ATOM     83  C   UNL A   1      45.922  26.827  32.700  1.00  0.00    -0.014 A 
ATOM     84  C   UNL A   1      45.902  25.773  33.628  1.00  0.00     0.009 A 
ATOM     85  C   UNL A   1      47.133  27.162  32.076  1.00  0.00     0.009 A 
ATOM     86  C   UNL A   1      47.073  25.082  33.941  1.00  0.00     0.001 A 
ATOM     87  C   UNL A   1      48.298  26.451  32.370  1.00  0.00     0.001 A 
ATOM     88  C   UNL A   1      48.269  25.419  33.309  1.00  0.00     0.000 A 
ENDBRANCH  70  83
ENDBRANCH  44  45
ENDBRANCH  36  39
ENDBRANCH  34  35
ENDBRANCH  33  34
ENDBRANCH  32  33
ENDBRANCH   1  32
TORSDOF 16
ENDMDL
