MODEL 1
REMARK VINA RESULT:     -10.4      0.000      0.000
REMARK SMILES O=C(NCCCCCCNC(=O)c1ccc(SC[C@H]2COc3ccccc32)o1)c1ccc(-c2c3nc(c(-c4ccccc4)c4ccc([nH]4)c(-c4ccccc4)c4nc(c(-c5ccccc5)c5ccc2[nH]5)C=C4)C=C3)cc1
REMARK SMILES IDX 7 1 6 2 5 3 4 4 3 5 1 6 2 7 29 9 30 10 76 11 31 12 75 13
REMARK SMILES IDX 32 14 33 15 34 16 69 17 35 18 74 19 68 20 70 21 36 22 73 23
REMARK SMILES IDX 67 24 66 25 37 27 59 28 44 29 58 30 45 31 48 32 57 33 71 34
REMARK SMILES IDX 46 35 47 36 56 38 72 39 49 40 38 41 39 42 43 43 40 44 42 45
REMARK SMILES IDX 41 46 60 47 61 48 65 49 62 50 64 51 63 52 50 53 51 54 55 55
REMARK SMILES IDX 52 56 54 57 53 58 8 59 9 60 10 61 11 62 12 64 13 65 14 66
REMARK SMILES IDX 28 67 15 68 16 69 17 70 18 71 19 72 20 73 27 74 21 75 22 76
REMARK SMILES IDX 26 77 23 78 25 79 24 80
REMARK H PARENT 3 8 70 26 48 37 10 63
REMARK Flexibility Score: inf
ROOT
ATOM      1  C   UNL A   1      38.646  23.679  26.276  1.00  0.00     0.002 C 
ENDROOT
BRANCH   1   2
ATOM      2  C   UNL A   1      39.584  22.615  26.854  1.00  0.00     0.002 C 
BRANCH   2   3
ATOM      3  C   UNL A   1      39.707  21.331  26.031  1.00  0.00     0.021 C 
BRANCH   3   4
ATOM      4  C   UNL A   1      40.411  20.173  26.732  1.00  0.00     0.116 C 
BRANCH   4   5
ATOM      5  N   UNL A   1      41.624  19.759  26.047  1.00  0.00    -0.352 N 
ATOM      6  O   UNL A   1      43.622  20.005  25.033  1.00  0.00    -0.269 OA
ATOM      7  C   UNL A   1      42.755  20.481  25.759  1.00  0.00     0.251 C 
ATOM      8  H   UNL A   1      41.636  18.822  25.744  1.00  0.00     0.163 HD
BRANCH   7   9
ATOM      9  C   UNL A   1      42.926  21.847  26.302  1.00  0.00     0.039 A 
ATOM     10  C   UNL A   1      43.030  22.071  27.678  1.00  0.00     0.014 A 
ATOM     11  C   UNL A   1      43.014  22.918  25.408  1.00  0.00     0.014 A 
ATOM     12  C   UNL A   1      43.110  23.374  28.165  1.00  0.00     0.010 A 
ATOM     13  C   UNL A   1      43.153  24.220  25.896  1.00  0.00     0.010 A 
ATOM     14  C   UNL A   1      43.175  24.459  27.278  1.00  0.00    -0.014 A 
BRANCH  14  15
ATOM     15  C   UNL A   1      43.301  25.842  27.800  1.00  0.00     0.031 A 
ATOM     16  C   UNL A   1      44.650  26.434  28.092  1.00  0.00     0.074 A 
ATOM     17  C   UNL A   1      42.187  26.564  28.022  1.00  0.00     0.049 A 
ATOM     18  N   UNL A   1      44.945  27.611  28.586  1.00  0.00    -0.248 NA
ATOM     19  C   UNL A   1      45.823  25.595  27.797  1.00  0.00     0.031 C 
ATOM     20  C   UNL A   1      40.820  26.103  27.781  1.00  0.00     0.029 A 
ATOM     21  N   UNL A   1      42.032  27.840  28.502  1.00  0.00    -0.354 N 
ATOM     22  C   UNL A   1      46.330  27.646  28.682  1.00  0.00     0.074 A 
ATOM     23  C   UNL A   1      46.818  26.367  28.212  1.00  0.00     0.031 C 
ATOM     24  C   UNL A   1      39.964  27.089  28.093  1.00  0.00     0.029 A 
ATOM     25  C   UNL A   1      40.719  28.229  28.601  1.00  0.00     0.049 A 
ATOM     26  H   UNL A   1      42.787  28.420  28.752  1.00  0.00     0.167 HD
ATOM     27  C   UNL A   1      47.124  28.652  29.121  1.00  0.00     0.031 A 
ATOM     28  C   UNL A   1      40.177  29.369  29.069  1.00  0.00     0.031 A 
ATOM     29  C   UNL A   1      46.641  29.926  29.589  1.00  0.00     0.049 A 
ATOM     30  C   UNL A   1      41.075  30.458  29.577  1.00  0.00     0.074 A 
ATOM     31  C   UNL A   1      47.371  31.019  30.023  1.00  0.00     0.029 A 
ATOM     32  N   UNL A   1      45.303  30.273  29.689  1.00  0.00    -0.354 N 
ATOM     33  N   UNL A   1      42.385  30.486  29.634  1.00  0.00    -0.248 NA
ATOM     34  C   UNL A   1      40.420  31.671  30.085  1.00  0.00     0.031 C 
ATOM     35  C   UNL A   1      46.473  32.014  30.423  1.00  0.00     0.029 A 
ATOM     36  C   UNL A   1      45.185  31.556  30.197  1.00  0.00     0.049 A 
ATOM     37  H   UNL A   1      44.548  29.693  29.437  1.00  0.00     0.167 HD
ATOM     38  C   UNL A   1      42.712  31.724  30.167  1.00  0.00     0.074 A 
ATOM     39  C   UNL A   1      41.466  32.423  30.406  1.00  0.00     0.031 C 
ATOM     40  C   UNL A   1      43.939  32.236  30.433  1.00  0.00     0.031 A 
BRANCH  27  41
ATOM     41  C   UNL A   1      48.604  28.402  29.143  1.00  0.00    -0.014 A 
ATOM     42  C   UNL A   1      49.389  28.570  27.992  1.00  0.00     0.009 A 
ATOM     43  C   UNL A   1      49.228  28.023  30.342  1.00  0.00     0.009 A 
ATOM     44  C   UNL A   1      50.765  28.329  28.034  1.00  0.00     0.001 A 
ATOM     45  C   UNL A   1      50.606  27.805  30.387  1.00  0.00     0.001 A 
ATOM     46  C   UNL A   1      51.372  27.950  29.230  1.00  0.00     0.000 A 
ENDBRANCH  27  41
BRANCH  28  47
ATOM     47  C   UNL A   1      38.702  29.525  29.080  1.00  0.00    -0.014 A 
ATOM     48  C   UNL A   1      38.019  29.923  27.922  1.00  0.00     0.009 A 
ATOM     49  C   UNL A   1      37.968  29.239  30.241  1.00  0.00     0.009 A 
ATOM     50  C   UNL A   1      36.628  30.042  27.930  1.00  0.00     0.001 A 
ATOM     51  C   UNL A   1      36.576  29.335  30.240  1.00  0.00     0.001 A 
ATOM     52  C   UNL A   1      35.908  29.741  29.086  1.00  0.00     0.000 A 
ENDBRANCH  28  47
BRANCH  40  53
ATOM     53  C   UNL A   1      43.991  33.631  30.984  1.00  0.00    -0.014 A 
ATOM     54  C   UNL A   1      44.033  34.746  30.135  1.00  0.00     0.009 A 
ATOM     55  C   UNL A   1      43.957  33.829  32.373  1.00  0.00     0.009 A 
ATOM     56  C   UNL A   1      44.067  36.036  30.668  1.00  0.00     0.001 A 
ATOM     57  C   UNL A   1      43.969  35.120  32.903  1.00  0.00     0.001 A 
ATOM     58  C   UNL A   1      44.031  36.222  32.050  1.00  0.00     0.000 A 
ENDBRANCH  40  53
ENDBRANCH  14  15
ENDBRANCH   7   9
ENDBRANCH   4   5
ENDBRANCH   3   4
ENDBRANCH   2   3
ENDBRANCH   1   2
BRANCH   1  59
ATOM     59  C   UNL A   1      37.458  23.144  25.465  1.00  0.00     0.021 C 
BRANCH  59  60
ATOM     60  C   UNL A   1      36.098  23.732  25.847  1.00  0.00     0.116 C 
BRANCH  60  61
ATOM     61  N   UNL A   1      35.415  22.898  26.820  1.00  0.00    -0.349 N 
ATOM     62  C   UNL A   1      34.176  22.311  26.728  1.00  0.00     0.287 C 
ATOM     63  H   UNL A   1      35.906  22.731  27.657  1.00  0.00     0.163 HD
ATOM     64  O   UNL A   1      33.691  21.824  27.751  1.00  0.00    -0.266 OA
BRANCH  62  65
ATOM     65  C   UNL A   1      33.531  22.272  25.441  1.00  0.00     0.192 A 
ATOM     66  C   UNL A   1      33.703  21.435  24.357  1.00  0.00     0.057 A 
ATOM     67  O   UNL A   1      32.560  23.188  25.162  1.00  0.00    -0.445 OA
ATOM     68  C   UNL A   1      32.781  21.864  23.373  1.00  0.00     0.058 A 
ATOM     69  C   UNL A   1      32.123  22.966  23.886  1.00  0.00     0.161 A 
BRANCH  69  70
ATOM     70  S   UNL A   1      30.949  24.035  23.155  1.00  0.00    -0.088 SA
BRANCH  70  71
ATOM     71  C   UNL A   1      31.448  25.667  23.779  1.00  0.00     0.090 C 
BRANCH  71  72
ATOM     72  C   UNL A   1      30.439  26.400  24.683  1.00  0.00     0.071 C 
ATOM     73  C   UNL A   1      30.064  25.743  26.021  1.00  0.00     0.239 C 
ATOM     74  C   UNL A   1      31.102  27.609  25.262  1.00  0.00     0.001 A 
ATOM     75  O   UNL A   1      31.070  26.093  27.002  1.00  0.00    -0.493 OA
ATOM     76  C   UNL A   1      31.484  27.327  26.569  1.00  0.00     0.122 A 
ATOM     77  C   UNL A   1      31.435  28.814  24.671  1.00  0.00     0.008 A 
ATOM     78  C   UNL A   1      32.232  28.207  27.321  1.00  0.00     0.047 A 
ATOM     79  C   UNL A   1      32.173  29.732  25.425  1.00  0.00     0.001 A 
ATOM     80  C   UNL A   1      32.577  29.427  26.738  1.00  0.00     0.004 A 
ENDBRANCH  71  72
ENDBRANCH  70  71
ENDBRANCH  69  70
ENDBRANCH  62  65
ENDBRANCH  60  61
ENDBRANCH  59  60
ENDBRANCH   1  59
TORSDOF 16
ENDMDL
MODEL 2
REMARK VINA RESULT:     -10.4      3.302      8.828
REMARK SMILES O=C(NCCCCCCNC(=O)c1ccc(SC[C@H]2COc3ccccc32)o1)c1ccc(-c2c3nc(c(-c4ccccc4)c4ccc([nH]4)c(-c4ccccc4)c4nc(c(-c5ccccc5)c5ccc2[nH]5)C=C4)C=C3)cc1
REMARK SMILES IDX 7 1 6 2 5 3 4 4 3 5 1 6 2 7 29 9 30 10 76 11 31 12 75 13
REMARK SMILES IDX 32 14 33 15 34 16 69 17 35 18 74 19 68 20 70 21 36 22 73 23
REMARK SMILES IDX 67 24 66 25 37 27 59 28 44 29 58 30 45 31 48 32 57 33 71 34
REMARK SMILES IDX 46 35 47 36 56 38 72 39 49 40 38 41 39 42 43 43 40 44 42 45
REMARK SMILES IDX 41 46 60 47 61 48 65 49 62 50 64 51 63 52 50 53 51 54 55 55
REMARK SMILES IDX 52 56 54 57 53 58 8 59 9 60 10 61 11 62 12 64 13 65 14 66
REMARK SMILES IDX 28 67 15 68 16 69 17 70 18 71 19 72 20 73 27 74 21 75 22 76
REMARK SMILES IDX 26 77 23 78 25 79 24 80
REMARK H PARENT 3 8 70 26 48 37 10 63
REMARK Flexibility Score: inf
ROOT
ATOM      1  C   UNL A   1      32.612  30.035  27.096  1.00  0.00     0.002 C 
ENDROOT
BRANCH   1   2
ATOM      2  C   UNL A   1      31.435  30.776  26.454  1.00  0.00     0.002 C 
BRANCH   2   3
ATOM      3  C   UNL A   1      31.351  32.272  26.768  1.00  0.00     0.021 C 
BRANCH   3   4
ATOM      4  C   UNL A   1      32.664  32.922  27.196  1.00  0.00     0.116 C 
BRANCH   4   5
ATOM      5  N   UNL A   1      32.461  34.160  27.929  1.00  0.00    -0.352 N 
ATOM      6  O   UNL A   1      32.783  35.686  29.557  1.00  0.00    -0.269 OA
ATOM      7  C   UNL A   1      33.197  34.701  28.953  1.00  0.00     0.251 C 
ATOM      8  H   UNL A   1      31.679  34.689  27.650  1.00  0.00     0.163 HD
BRANCH   7   9
ATOM      9  C   UNL A   1      34.482  34.087  29.353  1.00  0.00     0.039 A 
ATOM     10  C   UNL A   1      35.659  34.341  28.641  1.00  0.00     0.014 A 
ATOM     11  C   UNL A   1      34.510  33.264  30.483  1.00  0.00     0.014 A 
ATOM     12  C   UNL A   1      36.837  33.685  28.991  1.00  0.00     0.010 A 
ATOM     13  C   UNL A   1      35.706  32.654  30.869  1.00  0.00     0.010 A 
ATOM     14  C   UNL A   1      36.872  32.838  30.110  1.00  0.00    -0.014 A 
BRANCH  14  15
ATOM     15  C   UNL A   1      38.139  32.175  30.503  1.00  0.00     0.031 A 
ATOM     16  C   UNL A   1      39.059  32.808  31.509  1.00  0.00     0.074 A 
ATOM     17  C   UNL A   1      38.466  30.997  29.941  1.00  0.00     0.049 A 
ATOM     18  N   UNL A   1      40.221  32.388  31.941  1.00  0.00    -0.248 NA
ATOM     19  C   UNL A   1      38.620  34.081  32.102  1.00  0.00     0.031 C 
ATOM     20  C   UNL A   1      37.659  30.280  28.952  1.00  0.00     0.029 A 
ATOM     21  N   UNL A   1      39.565  30.196  30.121  1.00  0.00    -0.354 N 
ATOM     22  C   UNL A   1      40.663  33.352  32.837  1.00  0.00     0.074 A 
ATOM     23  C   UNL A   1      39.653  34.388  32.875  1.00  0.00     0.031 C 
ATOM     24  C   UNL A   1      38.279  29.135  28.628  1.00  0.00     0.029 A 
ATOM     25  C   UNL A   1      39.546  29.062  29.348  1.00  0.00     0.049 A 
ATOM     26  H   UNL A   1      40.296  30.413  30.743  1.00  0.00     0.167 HD
ATOM     27  C   UNL A   1      41.806  33.373  33.564  1.00  0.00     0.031 A 
ATOM     28  C   UNL A   1      40.457  28.080  29.213  1.00  0.00     0.031 A 
ATOM     29  C   UNL A   1      42.813  32.344  33.529  1.00  0.00     0.049 A 
ATOM     30  C   UNL A   1      41.728  28.139  30.007  1.00  0.00     0.074 A 
ATOM     31  C   UNL A   1      43.989  32.262  34.255  1.00  0.00     0.029 A 
ATOM     32  N   UNL A   1      42.764  31.220  32.719  1.00  0.00    -0.354 N 
ATOM     33  N   UNL A   1      42.118  29.044  30.872  1.00  0.00    -0.248 NA
ATOM     34  C   UNL A   1      42.685  27.043  29.805  1.00  0.00     0.031 C 
ATOM     35  C   UNL A   1      44.671  31.107  33.854  1.00  0.00     0.029 A 
ATOM     36  C   UNL A   1      43.898  30.449  32.912  1.00  0.00     0.049 A 
ATOM     37  H   UNL A   1      42.030  31.002  32.099  1.00  0.00     0.167 HD
ATOM     38  C   UNL A   1      43.355  28.618  31.331  1.00  0.00     0.074 A 
ATOM     39  C   UNL A   1      43.647  27.369  30.658  1.00  0.00     0.031 C 
ATOM     40  C   UNL A   1      44.176  29.211  32.233  1.00  0.00     0.031 A 
BRANCH  27  41
ATOM     41  C   UNL A   1      42.043  34.568  34.442  1.00  0.00    -0.014 A 
ATOM     42  C   UNL A   1      42.725  35.698  33.966  1.00  0.00     0.009 A 
ATOM     43  C   UNL A   1      41.548  34.576  35.755  1.00  0.00     0.009 A 
ATOM     44  C   UNL A   1      42.938  36.799  34.800  1.00  0.00     0.001 A 
ATOM     45  C   UNL A   1      41.741  35.686  36.580  1.00  0.00     0.001 A 
ATOM     46  C   UNL A   1      42.444  36.793  36.104  1.00  0.00     0.000 A 
ENDBRANCH  27  41
BRANCH  28  47
ATOM     47  C   UNL A   1      40.188  26.960  28.278  1.00  0.00    -0.014 A 
ATOM     48  C   UNL A   1      40.645  27.013  26.954  1.00  0.00     0.009 A 
ATOM     49  C   UNL A   1      39.506  25.816  28.720  1.00  0.00     0.009 A 
ATOM     50  C   UNL A   1      40.413  25.944  26.086  1.00  0.00     0.001 A 
ATOM     51  C   UNL A   1      39.296  24.740  27.857  1.00  0.00     0.001 A 
ATOM     52  C   UNL A   1      39.746  24.807  26.539  1.00  0.00     0.000 A 
ENDBRANCH  28  47
BRANCH  40  53
ATOM     53  C   UNL A   1      45.454  28.497  32.564  1.00  0.00    -0.014 A 
ATOM     54  C   UNL A   1      45.511  27.557  33.603  1.00  0.00     0.009 A 
ATOM     55  C   UNL A   1      46.604  28.744  31.799  1.00  0.00     0.009 A 
ATOM     56  C   UNL A   1      46.707  26.893  33.886  1.00  0.00     0.001 A 
ATOM     57  C   UNL A   1      47.792  28.063  32.070  1.00  0.00     0.001 A 
ATOM     58  C   UNL A   1      47.844  27.144  33.119  1.00  0.00     0.000 A 
ENDBRANCH  40  53
ENDBRANCH  14  15
ENDBRANCH   7   9
ENDBRANCH   4   5
ENDBRANCH   3   4
ENDBRANCH   2   3
ENDBRANCH   1   2
BRANCH   1  59
ATOM     59  C   UNL A   1      32.549  28.504  27.023  1.00  0.00     0.021 C 
BRANCH  59  60
ATOM     60  C   UNL A   1      33.715  27.843  26.285  1.00  0.00     0.116 C 
BRANCH  60  61
ATOM     61  N   UNL A   1      34.020  28.538  25.048  1.00  0.00    -0.349 N 
ATOM     62  C   UNL A   1      33.449  28.376  23.809  1.00  0.00     0.287 C 
ATOM     63  H   UNL A   1      34.733  29.216  25.104  1.00  0.00     0.163 HD
ATOM     64  O   UNL A   1      34.001  28.909  22.845  1.00  0.00    -0.266 OA
BRANCH  62  65
ATOM     65  C   UNL A   1      32.225  27.623  23.713  1.00  0.00     0.192 A 
ATOM     66  C   UNL A   1      30.912  28.024  23.571  1.00  0.00     0.057 A 
ATOM     67  O   UNL A   1      32.285  26.261  23.758  1.00  0.00    -0.445 OA
ATOM     68  C   UNL A   1      30.138  26.841  23.519  1.00  0.00     0.058 A 
ATOM     69  C   UNL A   1      31.008  25.779  23.676  1.00  0.00     0.161 A 
BRANCH  69  70
ATOM     70  S   UNL A   1      30.700  24.063  23.816  1.00  0.00    -0.088 SA
BRANCH  70  71
ATOM     71  C   UNL A   1      32.272  23.425  24.467  1.00  0.00     0.090 C 
BRANCH  71  72
ATOM     72  C   UNL A   1      33.103  22.539  23.520  1.00  0.00     0.071 C 
ATOM     73  C   UNL A   1      33.658  23.181  22.239  1.00  0.00     0.239 C 
ATOM     74  C   UNL A   1      34.425  22.260  24.162  1.00  0.00     0.001 A 
ATOM     75  O   UNL A   1      34.898  23.855  22.562  1.00  0.00    -0.493 OA
ATOM     76  C   UNL A   1      35.382  23.096  23.597  1.00  0.00     0.122 A 
ATOM     77  C   UNL A   1      34.748  21.423  25.214  1.00  0.00     0.008 A 
ATOM     78  C   UNL A   1      36.674  23.159  24.072  1.00  0.00     0.047 A 
ATOM     79  C   UNL A   1      36.060  21.452  25.696  1.00  0.00     0.001 A 
ATOM     80  C   UNL A   1      37.015  22.320  25.135  1.00  0.00     0.004 A 
ENDBRANCH  71  72
ENDBRANCH  70  71
ENDBRANCH  69  70
ENDBRANCH  62  65
ENDBRANCH  60  61
ENDBRANCH  59  60
ENDBRANCH   1  59
TORSDOF 16
ENDMDL
MODEL 3
REMARK VINA RESULT:     -10.4      4.354     10.425
REMARK SMILES O=C(NCCCCCCNC(=O)c1ccc(SC[C@H]2COc3ccccc32)o1)c1ccc(-c2c3nc(c(-c4ccccc4)c4ccc([nH]4)c(-c4ccccc4)c4nc(c(-c5ccccc5)c5ccc2[nH]5)C=C4)C=C3)cc1
REMARK SMILES IDX 7 1 6 2 5 3 4 4 3 5 1 6 2 7 29 9 30 10 76 11 31 12 75 13
REMARK SMILES IDX 32 14 33 15 34 16 69 17 35 18 74 19 68 20 70 21 36 22 73 23
REMARK SMILES IDX 67 24 66 25 37 27 59 28 44 29 58 30 45 31 48 32 57 33 71 34
REMARK SMILES IDX 46 35 47 36 56 38 72 39 49 40 38 41 39 42 43 43 40 44 42 45
REMARK SMILES IDX 41 46 60 47 61 48 65 49 62 50 64 51 63 52 50 53 51 54 55 55
REMARK SMILES IDX 52 56 54 57 53 58 8 59 9 60 10 61 11 62 12 64 13 65 14 66
REMARK SMILES IDX 28 67 15 68 16 69 17 70 18 71 19 72 20 73 27 74 21 75 22 76
REMARK SMILES IDX 26 77 23 78 25 79 24 80
REMARK H PARENT 3 8 70 26 48 37 10 63
REMARK Flexibility Score: inf
ROOT
ATOM      1  C   UNL A   1      38.185  34.315  29.561  1.00  0.00     0.002 C 
ENDROOT
BRANCH   1   2
ATOM      2  C   UNL A   1      37.342  33.123  29.099  1.00  0.00     0.002 C 
BRANCH   2   3
ATOM      3  C   UNL A   1      35.889  33.445  28.744  1.00  0.00     0.021 C 
BRANCH   3   4
ATOM      4  C   UNL A   1      34.841  32.604  29.467  1.00  0.00     0.116 C 
BRANCH   4   5
ATOM      5  N   UNL A   1      34.152  31.684  28.577  1.00  0.00    -0.352 N 
ATOM      6  O   UNL A   1      33.935  30.003  27.091  1.00  0.00    -0.269 OA
ATOM      7  C   UNL A   1      34.628  30.572  27.929  1.00  0.00     0.251 C 
ATOM      8  H   UNL A   1      33.203  31.890  28.414  1.00  0.00     0.163 HD
BRANCH   7   9
ATOM      9  C   UNL A   1      35.988  30.065  28.219  1.00  0.00     0.039 A 
ATOM     10  C   UNL A   1      36.293  29.475  29.449  1.00  0.00     0.014 A 
ATOM     11  C   UNL A   1      36.964  30.159  27.223  1.00  0.00     0.014 A 
ATOM     12  C   UNL A   1      37.601  29.080  29.723  1.00  0.00     0.010 A 
ATOM     13  C   UNL A   1      38.262  29.708  27.479  1.00  0.00     0.010 A 
ATOM     14  C   UNL A   1      38.596  29.191  28.740  1.00  0.00    -0.014 A 
BRANCH  14  15
ATOM     15  C   UNL A   1      39.978  28.732  29.022  1.00  0.00     0.031 A 
ATOM     16  C   UNL A   1      40.975  29.646  29.676  1.00  0.00     0.074 A 
ATOM     17  C   UNL A   1      40.338  27.482  28.677  1.00  0.00     0.049 A 
ATOM     18  N   UNL A   1      42.233  29.424  29.963  1.00  0.00    -0.248 NA
ATOM     19  C   UNL A   1      40.500  30.987  30.052  1.00  0.00     0.031 C 
ATOM     20  C   UNL A   1      39.464  26.498  28.036  1.00  0.00     0.029 A 
ATOM     21  N   UNL A   1      41.535  26.827  28.816  1.00  0.00    -0.354 N 
ATOM     22  C   UNL A   1      42.706  30.600  30.530  1.00  0.00     0.074 A 
ATOM     23  C   UNL A   1      41.605  31.540  30.532  1.00  0.00     0.031 C 
ATOM     24  C   UNL A   1      40.147  25.357  27.857  1.00  0.00     0.029 A 
ATOM     25  C   UNL A   1      41.516  25.546  28.324  1.00  0.00     0.049 A 
ATOM     26  H   UNL A   1      42.330  27.236  29.228  1.00  0.00     0.167 HD
ATOM     27  C   UNL A   1      43.944  30.872  31.008  1.00  0.00     0.031 A 
ATOM     28  C   UNL A   1      42.497  24.628  28.236  1.00  0.00     0.031 A 
ATOM     29  C   UNL A   1      45.041  29.939  31.008  1.00  0.00     0.049 A 
ATOM     30  C   UNL A   1      43.868  24.962  28.745  1.00  0.00     0.074 A 
ATOM     31  C   UNL A   1      46.323  30.114  31.500  1.00  0.00     0.029 A 
ATOM     32  N   UNL A   1      44.985  28.657  30.484  1.00  0.00    -0.354 N 
ATOM     33  N   UNL A   1      44.291  26.070  29.305  1.00  0.00    -0.248 NA
ATOM     34  C   UNL A   1      44.895  23.921  28.609  1.00  0.00     0.031 C 
ATOM     35  C   UNL A   1      47.055  28.950  31.237  1.00  0.00     0.029 A 
ATOM     36  C   UNL A   1      46.215  28.036  30.622  1.00  0.00     0.049 A 
ATOM     37  H   UNL A   1      44.188  28.248  30.074  1.00  0.00     0.167 HD
ATOM     38  C   UNL A   1      45.628  25.853  29.605  1.00  0.00     0.074 A 
ATOM     39  C   UNL A   1      45.943  24.506  29.176  1.00  0.00     0.031 C 
ATOM     40  C   UNL A   1      46.515  26.698  30.187  1.00  0.00     0.031 A 
BRANCH  27  41
ATOM     41  C   UNL A   1      44.187  32.253  31.546  1.00  0.00    -0.014 A 
ATOM     42  C   UNL A   1      44.118  32.522  32.921  1.00  0.00     0.009 A 
ATOM     43  C   UNL A   1      44.521  33.294  30.665  1.00  0.00     0.009 A 
ATOM     44  C   UNL A   1      44.344  33.815  33.401  1.00  0.00     0.001 A 
ATOM     45  C   UNL A   1      44.769  34.580  31.148  1.00  0.00     0.001 A 
ATOM     46  C   UNL A   1      44.672  34.841  32.515  1.00  0.00     0.000 A 
ENDBRANCH  27  41
BRANCH  28  47
ATOM     47  C   UNL A   1      42.205  23.305  27.633  1.00  0.00    -0.014 A 
ATOM     48  C   UNL A   1      41.624  22.285  28.399  1.00  0.00     0.009 A 
ATOM     49  C   UNL A   1      42.474  23.070  26.276  1.00  0.00     0.009 A 
ATOM     50  C   UNL A   1      41.327  21.050  27.819  1.00  0.00     0.001 A 
ATOM     51  C   UNL A   1      42.155  21.843  25.692  1.00  0.00     0.001 A 
ATOM     52  C   UNL A   1      41.586  20.833  26.466  1.00  0.00     0.000 A 
ENDBRANCH  28  47
BRANCH  40  53
ATOM     53  C   UNL A   1      47.902  26.175  30.419  1.00  0.00    -0.014 A 
ATOM     54  C   UNL A   1      48.284  25.658  31.665  1.00  0.00     0.009 A 
ATOM     55  C   UNL A   1      48.826  26.167  29.362  1.00  0.00     0.009 A 
ATOM     56  C   UNL A   1      49.575  25.163  31.856  1.00  0.00     0.001 A 
ATOM     57  C   UNL A   1      50.109  25.652  29.550  1.00  0.00     0.001 A 
ATOM     58  C   UNL A   1      50.485  25.158  30.799  1.00  0.00     0.000 A 
ENDBRANCH  40  53
ENDBRANCH  14  15
ENDBRANCH   7   9
ENDBRANCH   4   5
ENDBRANCH   3   4
ENDBRANCH   2   3
ENDBRANCH   1   2
BRANCH   1  59
ATOM     59  C   UNL A   1      38.185  34.579  31.073  1.00  0.00     0.021 C 
BRANCH  59  60
ATOM     60  C   UNL A   1      38.715  33.428  31.931  1.00  0.00     0.116 C 
BRANCH  60  61
ATOM     61  N   UNL A   1      37.962  33.297  33.166  1.00  0.00    -0.349 N 
ATOM     62  C   UNL A   1      37.743  32.171  33.922  1.00  0.00     0.287 C 
ATOM     63  H   UNL A   1      37.554  34.127  33.505  1.00  0.00     0.163 HD
ATOM     64  O   UNL A   1      36.896  32.233  34.815  1.00  0.00    -0.266 OA
BRANCH  62  65
ATOM     65  C   UNL A   1      38.534  30.999  33.649  1.00  0.00     0.192 A 
ATOM     66  C   UNL A   1      38.194  29.767  33.129  1.00  0.00     0.057 A 
ATOM     67  O   UNL A   1      39.871  31.030  33.918  1.00  0.00    -0.445 OA
ATOM     68  C   UNL A   1      39.391  29.014  33.075  1.00  0.00     0.058 A 
ATOM     69  C   UNL A   1      40.393  29.807  33.603  1.00  0.00     0.161 A 
BRANCH  69  70
ATOM     70  S   UNL A   1      42.074  29.453  33.929  1.00  0.00    -0.088 SA
BRANCH  70  71
ATOM     71  C   UNL A   1      42.090  27.638  34.025  1.00  0.00     0.090 C 
BRANCH  71  72
ATOM     72  C   UNL A   1      43.188  27.001  34.897  1.00  0.00     0.071 C 
ATOM     73  C   UNL A   1      42.775  26.406  36.252  1.00  0.00     0.239 C 
ATOM     74  C   UNL A   1      43.618  25.716  34.266  1.00  0.00     0.001 A 
ATOM     75  O   UNL A   1      42.285  25.061  36.033  1.00  0.00    -0.493 OA
ATOM     76  C   UNL A   1      43.010  24.661  34.938  1.00  0.00     0.122 A 
ATOM     77  C   UNL A   1      44.391  25.487  33.141  1.00  0.00     0.008 A 
ATOM     78  C   UNL A   1      43.114  23.357  34.507  1.00  0.00     0.047 A 
ATOM     79  C   UNL A   1      44.531  24.167  32.701  1.00  0.00     0.001 A 
ATOM     80  C   UNL A   1      43.890  23.110  33.373  1.00  0.00     0.004 A 
ENDBRANCH  71  72
ENDBRANCH  70  71
ENDBRANCH  69  70
ENDBRANCH  62  65
ENDBRANCH  60  61
ENDBRANCH  59  60
ENDBRANCH   1  59
TORSDOF 16
ENDMDL
