MODEL 1
REMARK VINA RESULT:     -12.1      0.000      0.000
REMARK SMILES NS(=O)(=O)c1ccc(-n2nc(C(F)F)cc2-c2ccc(C(=O)NCCCCCCNC(=O)c3ccc(-c4c5nc(c(-c6ccccc6)c6ccc([nH]6)c(-c6ccccc6)c6nc(c(-c7ccccc7)c7ccc4[nH]7)C=C6)C=C5)cc3)cc2)cc1
REMARK SMILES IDX 25 1 24 2 23 3 21 4 22 5 20 7 17 8 18 9 82 10 19 11 81 12
REMARK SMILES IDX 16 13 9 14 10 15 11 16 15 17 8 18 5 19 6 20 84 21 7 22 83 23
REMARK SMILES IDX 2 24 3 25 4 26 1 27 12 30 13 31 14 32 26 33 27 34 28 35
REMARK SMILES IDX 29 36 30 37 31 38 32 40 33 41 34 42 80 43 35 44 79 45 36 46
REMARK SMILES IDX 37 47 38 48 73 49 39 50 78 51 72 52 74 53 40 54 77 55 71 56
REMARK SMILES IDX 70 57 41 59 63 60 48 61 62 62 49 63 52 64 61 65 75 66 50 67
REMARK SMILES IDX 51 68 60 70 76 71 53 72 42 73 43 74 47 75 44 76 46 77 45 78
REMARK SMILES IDX 64 79 65 80 69 81 66 82 68 83 67 84 54 85 55 86 59 87 56 88
REMARK SMILES IDX 58 89 57 90
REMARK H PARENT 23 6 1 28 1 29 30 39 74 58 52 69
REMARK Flexibility Score: inf
ROOT
ATOM      1  C   UNL A   1      35.157  32.890  30.037  1.00  0.00     0.021 C 
ENDROOT
BRANCH   1   2
ATOM      2  C   UNL A   1      34.555  31.958  28.982  1.00  0.00     0.116 C 
BRANCH   2   3
ATOM      3  N   UNL A   1      35.456  30.852  28.726  1.00  0.00    -0.352 N 
ATOM      4  C   UNL A   1      35.333  29.729  27.952  1.00  0.00     0.251 C 
ATOM      5  O   UNL A   1      36.275  28.938  27.922  1.00  0.00    -0.269 OA
ATOM      6  H   UNL A   1      36.316  30.921  29.198  1.00  0.00     0.163 HD
BRANCH   4   7
ATOM      7  C   UNL A   1      34.144  29.475  27.095  1.00  0.00     0.039 A 
ATOM      8  C   UNL A   1      31.995  29.151  25.318  1.00  0.00     0.000 A 
ATOM      9  C   UNL A   1      33.312  29.072  24.851  1.00  0.00     0.011 A 
ATOM     10  C   UNL A   1      31.757  29.346  26.679  1.00  0.00     0.011 A 
ATOM     11  C   UNL A   1      34.379  29.238  25.734  1.00  0.00     0.014 A 
ATOM     12  C   UNL A   1      32.828  29.456  27.567  1.00  0.00     0.014 A 
BRANCH   8  13
ATOM     13  C   UNL A   1      30.870  28.957  24.413  1.00  0.00     0.075 A 
ATOM     14  N   UNL A   1      30.385  27.721  24.011  1.00  0.00    -0.233 N 
ATOM     15  N   UNL A   1      29.480  27.835  23.010  1.00  0.00    -0.166 NA
ATOM     16  C   UNL A   1      29.233  29.156  22.919  1.00  0.00     0.129 A 
ATOM     17  C   UNL A   1      30.117  29.894  23.740  1.00  0.00     0.060 A 
BRANCH  14  18
ATOM     18  C   UNL A   1      30.765  26.452  24.518  1.00  0.00     0.065 A 
ATOM     19  C   UNL A   1      31.741  24.123  25.672  1.00  0.00     0.082 A 
ATOM     20  C   UNL A   1      30.742  24.842  26.328  1.00  0.00     0.024 A 
ATOM     21  C   UNL A   1      32.223  24.534  24.422  1.00  0.00     0.024 A 
ATOM     22  C   UNL A   1      30.258  26.013  25.753  1.00  0.00     0.030 A 
ATOM     23  C   UNL A   1      31.711  25.690  23.826  1.00  0.00     0.030 A 
BRANCH  19  24
ATOM     24  S   UNL A   1      32.418  22.683  26.440  1.00  0.00     0.238 S 
ATOM     25  O   UNL A   1      32.153  22.740  27.867  1.00  0.00    -0.207 OA
ATOM     26  O   UNL A   1      33.725  22.442  25.900  1.00  0.00    -0.207 OA
BRANCH  24  27
ATOM     27  N   UNL A   1      31.423  21.460  25.864  1.00  0.00    -0.225 NA
ATOM     28  H   UNL A   1      31.379  21.509  24.846  1.00  0.00     0.137 HD
ATOM     29  H   UNL A   1      30.487  21.571  26.251  1.00  0.00     0.137 HD
ENDBRANCH  24  27
ENDBRANCH  19  24
ENDBRANCH  14  18
BRANCH  16  30
ATOM     30  C   UNL A   1      28.154  29.729  22.048  1.00  0.00     0.393 C 
ATOM     31  F   UNL A   1      26.936  29.739  22.651  1.00  0.00    -0.203 F 
ATOM     32  F   UNL A   1      28.432  31.019  21.705  1.00  0.00    -0.203 F 
ENDBRANCH  16  30
ENDBRANCH   8  13
ENDBRANCH   4   7
ENDBRANCH   2   3
ENDBRANCH   1   2
BRANCH   1  33
ATOM     33  C   UNL A   1      34.841  32.457  31.473  1.00  0.00     0.002 C 
BRANCH  33  34
ATOM     34  C   UNL A   1      35.979  31.724  32.200  1.00  0.00     0.002 C 
BRANCH  34  35
ATOM     35  C   UNL A   1      36.691  32.520  33.305  1.00  0.00     0.021 C 
BRANCH  35  36
ATOM     36  C   UNL A   1      38.135  32.862  32.967  1.00  0.00     0.116 C 
BRANCH  36  37
ATOM     37  N   UNL A   1      38.220  33.789  31.841  1.00  0.00    -0.352 N 
ATOM     38  C   UNL A   1      39.059  33.752  30.752  1.00  0.00     0.251 C 
ATOM     39  H   UNL A   1      37.589  34.545  31.865  1.00  0.00     0.163 HD
ATOM     40  O   UNL A   1      39.274  34.759  30.086  1.00  0.00    -0.269 OA
BRANCH  38  41
ATOM     41  C   UNL A   1      39.704  32.480  30.396  1.00  0.00     0.039 A 
ATOM     42  C   UNL A   1      41.086  32.319  30.523  1.00  0.00     0.014 A 
ATOM     43  C   UNL A   1      38.899  31.433  29.956  1.00  0.00     0.014 A 
ATOM     44  C   UNL A   1      41.639  31.066  30.280  1.00  0.00     0.010 A 
ATOM     45  C   UNL A   1      39.423  30.168  29.855  1.00  0.00     0.010 A 
ATOM     46  C   UNL A   1      40.797  29.986  29.969  1.00  0.00    -0.014 A 
BRANCH  46  47
ATOM     47  C   UNL A   1      41.337  28.631  29.898  1.00  0.00     0.031 A 
ATOM     48  C   UNL A   1      42.003  28.180  31.147  1.00  0.00     0.074 A 
ATOM     49  C   UNL A   1      41.061  27.769  28.895  1.00  0.00     0.049 A 
ATOM     50  N   UNL A   1      43.262  27.968  31.338  1.00  0.00    -0.248 NA
ATOM     51  C   UNL A   1      41.190  28.088  32.373  1.00  0.00     0.031 C 
ATOM     52  C   UNL A   1      40.122  27.973  27.783  1.00  0.00     0.029 A 
ATOM     53  N   UNL A   1      41.457  26.475  28.720  1.00  0.00    -0.354 N 
ATOM     54  C   UNL A   1      43.367  27.478  32.638  1.00  0.00     0.074 A 
ATOM     55  C   UNL A   1      42.116  27.778  33.284  1.00  0.00     0.031 C 
ATOM     56  C   UNL A   1      39.830  26.785  27.213  1.00  0.00     0.029 A 
ATOM     57  C   UNL A   1      40.704  25.778  27.782  1.00  0.00     0.049 A 
ATOM     58  H   UNL A   1      42.208  26.071  29.213  1.00  0.00     0.167 HD
ATOM     59  C   UNL A   1      44.329  26.567  32.955  1.00  0.00     0.031 A 
ATOM     60  C   UNL A   1      40.780  24.461  27.480  1.00  0.00     0.031 A 
ATOM     61  C   UNL A   1      45.315  26.472  31.908  1.00  0.00     0.049 A 
ATOM     62  C   UNL A   1      42.103  23.972  27.913  1.00  0.00     0.074 A 
ATOM     63  C   UNL A   1      46.364  27.223  31.430  1.00  0.00     0.029 A 
ATOM     64  N   UNL A   1      44.981  25.567  30.936  1.00  0.00    -0.354 N 
ATOM     65  N   UNL A   1      43.220  24.368  27.372  1.00  0.00    -0.248 NA
ATOM     66  C   UNL A   1      42.236  23.278  29.187  1.00  0.00     0.031 C 
ATOM     67  C   UNL A   1      46.525  26.849  30.061  1.00  0.00     0.029 A 
ATOM     68  C   UNL A   1      45.603  25.852  29.752  1.00  0.00     0.049 A 
ATOM     69  H   UNL A   1      44.369  24.808  31.072  1.00  0.00     0.167 HD
ATOM     70  C   UNL A   1      44.117  24.379  28.421  1.00  0.00     0.074 A 
ATOM     71  C   UNL A   1      43.523  23.529  29.445  1.00  0.00     0.031 C 
ATOM     72  C   UNL A   1      45.086  25.336  28.503  1.00  0.00     0.031 A 
BRANCH  59  73
ATOM     73  C   UNL A   1      44.095  25.379  33.874  1.00  0.00    -0.014 A 
ATOM     74  C   UNL A   1      44.528  25.482  35.211  1.00  0.00     0.009 A 
ATOM     75  C   UNL A   1      43.778  24.085  33.420  1.00  0.00     0.009 A 
ATOM     76  C   UNL A   1      44.714  24.349  36.014  1.00  0.00     0.001 A 
ATOM     77  C   UNL A   1      43.930  22.954  34.230  1.00  0.00     0.001 A 
ATOM     78  C   UNL A   1      44.425  23.083  35.518  1.00  0.00     0.000 A 
ENDBRANCH  59  73
BRANCH  60  79
ATOM     79  C   UNL A   1      39.726  23.552  26.990  1.00  0.00    -0.014 A 
ATOM     80  C   UNL A   1      38.484  24.050  26.569  1.00  0.00     0.009 A 
ATOM     81  C   UNL A   1      40.042  22.216  26.677  1.00  0.00     0.009 A 
ATOM     82  C   UNL A   1      37.610  23.255  25.818  1.00  0.00     0.001 A 
ATOM     83  C   UNL A   1      39.168  21.423  25.927  1.00  0.00     0.001 A 
ATOM     84  C   UNL A   1      37.960  21.948  25.482  1.00  0.00     0.000 A 
ENDBRANCH  60  79
BRANCH  72  85
ATOM     85  C   UNL A   1      45.500  26.019  27.232  1.00  0.00    -0.014 A 
ATOM     86  C   UNL A   1      46.534  25.563  26.400  1.00  0.00     0.009 A 
ATOM     87  C   UNL A   1      44.757  27.138  26.829  1.00  0.00     0.009 A 
ATOM     88  C   UNL A   1      46.831  26.231  25.206  1.00  0.00     0.001 A 
ATOM     89  C   UNL A   1      45.040  27.792  25.630  1.00  0.00     0.001 A 
ATOM     90  C   UNL A   1      46.080  27.342  24.822  1.00  0.00     0.000 A 
ENDBRANCH  72  85
ENDBRANCH  46  47
ENDBRANCH  38  41
ENDBRANCH  36  37
ENDBRANCH  35  36
ENDBRANCH  34  35
ENDBRANCH  33  34
ENDBRANCH   1  33
TORSDOF 18
ENDMDL
MODEL 2
REMARK VINA RESULT:     -12.0      3.803      7.896
REMARK SMILES NS(=O)(=O)c1ccc(-n2nc(C(F)F)cc2-c2ccc(C(=O)NCCCCCCNC(=O)c3ccc(-c4c5nc(c(-c6ccccc6)c6ccc([nH]6)c(-c6ccccc6)c6nc(c(-c7ccccc7)c7ccc4[nH]7)C=C6)C=C5)cc3)cc2)cc1
REMARK SMILES IDX 25 1 24 2 23 3 21 4 22 5 20 7 17 8 18 9 82 10 19 11 81 12
REMARK SMILES IDX 16 13 9 14 10 15 11 16 15 17 8 18 5 19 6 20 84 21 7 22 83 23
REMARK SMILES IDX 2 24 3 25 4 26 1 27 12 30 13 31 14 32 26 33 27 34 28 35
REMARK SMILES IDX 29 36 30 37 31 38 32 40 33 41 34 42 80 43 35 44 79 45 36 46
REMARK SMILES IDX 37 47 38 48 73 49 39 50 78 51 72 52 74 53 40 54 77 55 71 56
REMARK SMILES IDX 70 57 41 59 63 60 48 61 62 62 49 63 52 64 61 65 75 66 50 67
REMARK SMILES IDX 51 68 60 70 76 71 53 72 42 73 43 74 47 75 44 76 46 77 45 78
REMARK SMILES IDX 64 79 65 80 69 81 66 82 68 83 67 84 54 85 55 86 59 87 56 88
REMARK SMILES IDX 58 89 57 90
REMARK H PARENT 23 6 1 28 1 29 30 39 74 58 52 69
REMARK Flexibility Score: inf
ROOT
ATOM      1  C   UNL A   1      31.437  28.619  24.918  1.00  0.00     0.021 C 
ENDROOT
BRANCH   1   2
ATOM      2  C   UNL A   1      32.144  27.887  23.774  1.00  0.00     0.116 C 
BRANCH   2   3
ATOM      3  N   UNL A   1      31.374  26.724  23.381  1.00  0.00    -0.352 N 
ATOM      4  C   UNL A   1      31.667  25.386  23.381  1.00  0.00     0.251 C 
ATOM      5  O   UNL A   1      30.807  24.603  22.980  1.00  0.00    -0.269 OA
ATOM      6  H   UNL A   1      30.472  26.936  23.050  1.00  0.00     0.163 HD
BRANCH   4   7
ATOM      7  C   UNL A   1      32.946  24.849  23.917  1.00  0.00     0.039 A 
ATOM      8  C   UNL A   1      35.321  23.636  24.796  1.00  0.00     0.000 A 
ATOM      9  C   UNL A   1      35.006  23.659  23.432  1.00  0.00     0.011 A 
ATOM     10  C   UNL A   1      34.470  24.258  25.710  1.00  0.00     0.011 A 
ATOM     11  C   UNL A   1      33.823  24.258  22.997  1.00  0.00     0.014 A 
ATOM     12  C   UNL A   1      33.316  24.904  25.263  1.00  0.00     0.014 A 
BRANCH   8  13
ATOM     13  C   UNL A   1      36.562  23.035  25.264  1.00  0.00     0.075 A 
ATOM     14  N   UNL A   1      36.758  21.675  25.451  1.00  0.00    -0.233 N 
ATOM     15  N   UNL A   1      37.924  21.416  26.090  1.00  0.00    -0.166 NA
ATOM     16  C   UNL A   1      38.568  22.597  26.122  1.00  0.00     0.129 A 
ATOM     17  C   UNL A   1      37.732  23.643  25.664  1.00  0.00     0.060 A 
BRANCH  14  18
ATOM     18  C   UNL A   1      35.878  20.628  25.073  1.00  0.00     0.065 A 
ATOM     19  C   UNL A   1      34.170  18.483  24.640  1.00  0.00     0.082 A 
ATOM     20  C   UNL A   1      33.634  19.718  25.003  1.00  0.00     0.024 A 
ATOM     21  C   UNL A   1      35.549  18.323  24.446  1.00  0.00     0.024 A 
ATOM     22  C   UNL A   1      34.491  20.791  25.227  1.00  0.00     0.030 A 
ATOM     23  C   UNL A   1      36.407  19.410  24.635  1.00  0.00     0.030 A 
BRANCH  19  24
ATOM     24  S   UNL A   1      33.092  17.097  24.438  1.00  0.00     0.238 S 
ATOM     25  O   UNL A   1      31.841  17.368  25.122  1.00  0.00    -0.207 OA
ATOM     26  O   UNL A   1      33.845  15.893  24.641  1.00  0.00    -0.207 OA
BRANCH  24  27
ATOM     27  N   UNL A   1      32.715  17.162  22.804  1.00  0.00    -0.225 NA
ATOM     28  H   UNL A   1      31.782  17.558  22.686  1.00  0.00     0.137 HD
ATOM     29  H   UNL A   1      32.737  16.221  22.412  1.00  0.00     0.137 HD
ENDBRANCH  24  27
ENDBRANCH  19  24
ENDBRANCH  14  18
BRANCH  16  30
ATOM     30  C   UNL A   1      39.985  22.745  26.591  1.00  0.00     0.393 C 
ATOM     31  F   UNL A   1      40.163  22.336  27.876  1.00  0.00    -0.203 F 
ATOM     32  F   UNL A   1      40.838  22.008  25.824  1.00  0.00    -0.203 F 
ENDBRANCH  16  30
ENDBRANCH   8  13
ENDBRANCH   4   7
ENDBRANCH   2   3
ENDBRANCH   1   2
BRANCH   1  33
ATOM     33  C   UNL A   1      31.543  27.886  26.260  1.00  0.00     0.002 C 
BRANCH  33  34
ATOM     34  C   UNL A   1      32.632  28.411  27.208  1.00  0.00     0.002 C 
BRANCH  34  35
ATOM     35  C   UNL A   1      33.839  29.083  26.535  1.00  0.00     0.021 C 
BRANCH  35  36
ATOM     36  C   UNL A   1      35.133  28.924  27.319  1.00  0.00     0.116 C 
BRANCH  36  37
ATOM     37  N   UNL A   1      35.250  29.928  28.374  1.00  0.00    -0.352 N 
ATOM     38  C   UNL A   1      36.241  30.081  29.316  1.00  0.00     0.251 C 
ATOM     39  H   UNL A   1      34.518  30.586  28.417  1.00  0.00     0.163 HD
ATOM     40  O   UNL A   1      36.041  30.719  30.343  1.00  0.00    -0.269 OA
BRANCH  38  41
ATOM     41  C   UNL A   1      37.552  29.462  29.073  1.00  0.00     0.039 A 
ATOM     42  C   UNL A   1      38.340  29.860  27.990  1.00  0.00     0.014 A 
ATOM     43  C   UNL A   1      37.998  28.489  29.964  1.00  0.00     0.014 A 
ATOM     44  C   UNL A   1      39.618  29.327  27.861  1.00  0.00     0.010 A 
ATOM     45  C   UNL A   1      39.305  28.073  29.917  1.00  0.00     0.010 A 
ATOM     46  C   UNL A   1      40.106  28.450  28.845  1.00  0.00    -0.014 A 
BRANCH  46  47
ATOM     47  C   UNL A   1      41.504  28.031  28.827  1.00  0.00     0.031 A 
ATOM     48  C   UNL A   1      41.785  26.901  27.905  1.00  0.00     0.074 A 
ATOM     49  C   UNL A   1      42.503  28.738  29.401  1.00  0.00     0.049 A 
ATOM     50  N   UNL A   1      42.107  25.690  28.214  1.00  0.00    -0.248 NA
ATOM     51  C   UNL A   1      41.540  27.103  26.465  1.00  0.00     0.031 C 
ATOM     52  C   UNL A   1      42.403  30.060  30.034  1.00  0.00     0.029 A 
ATOM     53  N   UNL A   1      43.845  28.492  29.429  1.00  0.00    -0.354 N 
ATOM     54  C   UNL A   1      42.348  25.045  27.004  1.00  0.00     0.074 A 
ATOM     55  C   UNL A   1      41.780  25.883  25.980  1.00  0.00     0.031 C 
ATOM     56  C   UNL A   1      43.634  30.603  30.145  1.00  0.00     0.029 A 
ATOM     57  C   UNL A   1      44.612  29.596  29.782  1.00  0.00     0.049 A 
ATOM     58  H   UNL A   1      44.234  27.613  29.217  1.00  0.00     0.167 HD
ATOM     59  C   UNL A   1      43.291  24.065  26.921  1.00  0.00     0.031 A 
ATOM     60  C   UNL A   1      45.962  29.694  29.783  1.00  0.00     0.031 A 
ATOM     61  C   UNL A   1      43.705  23.634  28.233  1.00  0.00     0.049 A 
ATOM     62  C   UNL A   1      46.515  28.328  29.845  1.00  0.00     0.074 A 
ATOM     63  C   UNL A   1      43.192  22.877  29.261  1.00  0.00     0.029 A 
ATOM     64  N   UNL A   1      44.732  24.382  28.745  1.00  0.00    -0.354 N 
ATOM     65  N   UNL A   1      46.369  27.546  30.876  1.00  0.00    -0.248 NA
ATOM     66  C   UNL A   1      46.962  27.674  28.622  1.00  0.00     0.031 C 
ATOM     67  C   UNL A   1      43.839  23.336  30.449  1.00  0.00     0.029 A 
ATOM     68  C   UNL A   1      44.757  24.328  30.111  1.00  0.00     0.049 A 
ATOM     69  H   UNL A   1      45.371  24.893  28.198  1.00  0.00     0.167 HD
ATOM     70  C   UNL A   1      46.266  26.283  30.330  1.00  0.00     0.074 A 
ATOM     71  C   UNL A   1      46.825  26.396  28.989  1.00  0.00     0.031 C 
ATOM     72  C   UNL A   1      45.436  25.349  30.878  1.00  0.00     0.031 A 
BRANCH  59  73
ATOM     73  C   UNL A   1      44.243  23.909  25.747  1.00  0.00    -0.014 A 
ATOM     74  C   UNL A   1      44.200  22.704  25.015  1.00  0.00     0.009 A 
ATOM     75  C   UNL A   1      45.369  24.726  25.533  1.00  0.00     0.009 A 
ATOM     76  C   UNL A   1      45.260  22.305  24.191  1.00  0.00     0.001 A 
ATOM     77  C   UNL A   1      46.415  24.346  24.684  1.00  0.00     0.001 A 
ATOM     78  C   UNL A   1      46.373  23.123  24.034  1.00  0.00     0.000 A 
ENDBRANCH  59  73
BRANCH  60  79
ATOM     79  C   UNL A   1      46.812  30.880  29.569  1.00  0.00    -0.014 A 
ATOM     80  C   UNL A   1      47.229  31.672  30.650  1.00  0.00     0.009 A 
ATOM     81  C   UNL A   1      47.443  31.076  28.326  1.00  0.00     0.009 A 
ATOM     82  C   UNL A   1      48.276  32.592  30.504  1.00  0.00     0.001 A 
ATOM     83  C   UNL A   1      48.487  31.995  28.182  1.00  0.00     0.001 A 
ATOM     84  C   UNL A   1      48.915  32.740  29.275  1.00  0.00     0.000 A 
ENDBRANCH  60  79
BRANCH  72  85
ATOM     85  C   UNL A   1      45.065  25.510  32.324  1.00  0.00    -0.014 A 
ATOM     86  C   UNL A   1      45.827  25.003  33.388  1.00  0.00     0.009 A 
ATOM     87  C   UNL A   1      43.924  26.270  32.616  1.00  0.00     0.009 A 
ATOM     88  C   UNL A   1      45.437  25.234  34.712  1.00  0.00     0.001 A 
ATOM     89  C   UNL A   1      43.547  26.517  33.936  1.00  0.00     0.001 A 
ATOM     90  C   UNL A   1      44.299  25.994  34.984  1.00  0.00     0.000 A 
ENDBRANCH  72  85
ENDBRANCH  46  47
ENDBRANCH  38  41
ENDBRANCH  36  37
ENDBRANCH  35  36
ENDBRANCH  34  35
ENDBRANCH  33  34
ENDBRANCH   1  33
TORSDOF 18
ENDMDL
MODEL 3
REMARK VINA RESULT:     -11.9      3.637      5.987
REMARK SMILES NS(=O)(=O)c1ccc(-n2nc(C(F)F)cc2-c2ccc(C(=O)NCCCCCCNC(=O)c3ccc(-c4c5nc(c(-c6ccccc6)c6ccc([nH]6)c(-c6ccccc6)c6nc(c(-c7ccccc7)c7ccc4[nH]7)C=C6)C=C5)cc3)cc2)cc1
REMARK SMILES IDX 25 1 24 2 23 3 21 4 22 5 20 7 17 8 18 9 82 10 19 11 81 12
REMARK SMILES IDX 16 13 9 14 10 15 11 16 15 17 8 18 5 19 6 20 84 21 7 22 83 23
REMARK SMILES IDX 2 24 3 25 4 26 1 27 12 30 13 31 14 32 26 33 27 34 28 35
REMARK SMILES IDX 29 36 30 37 31 38 32 40 33 41 34 42 80 43 35 44 79 45 36 46
REMARK SMILES IDX 37 47 38 48 73 49 39 50 78 51 72 52 74 53 40 54 77 55 71 56
REMARK SMILES IDX 70 57 41 59 63 60 48 61 62 62 49 63 52 64 61 65 75 66 50 67
REMARK SMILES IDX 51 68 60 70 76 71 53 72 42 73 43 74 47 75 44 76 46 77 45 78
REMARK SMILES IDX 64 79 65 80 69 81 66 82 68 83 67 84 54 85 55 86 59 87 56 88
REMARK SMILES IDX 58 89 57 90
REMARK H PARENT 23 6 1 28 1 29 30 39 74 58 52 69
REMARK Flexibility Score: inf
ROOT
ATOM      1  C   UNL A   1      32.347  27.980  23.938  1.00  0.00     0.021 C 
ENDROOT
BRANCH   1   2
ATOM      2  C   UNL A   1      31.040  27.602  24.641  1.00  0.00     0.116 C 
BRANCH   2   3
ATOM      3  N   UNL A   1      30.458  26.436  24.007  1.00  0.00    -0.352 N 
ATOM      4  C   UNL A   1      30.945  25.175  23.780  1.00  0.00     0.251 C 
ATOM      5  O   UNL A   1      30.218  24.368  23.204  1.00  0.00    -0.269 OA
ATOM      6  H   UNL A   1      29.542  26.576  23.677  1.00  0.00     0.163 HD
BRANCH   4   7
ATOM      7  C   UNL A   1      32.277  24.733  24.270  1.00  0.00     0.039 A 
ATOM      8  C   UNL A   1      34.791  23.733  25.020  1.00  0.00     0.000 A 
ATOM      9  C   UNL A   1      34.522  24.022  23.678  1.00  0.00     0.011 A 
ATOM     10  C   UNL A   1      33.819  23.987  25.989  1.00  0.00     0.011 A 
ATOM     11  C   UNL A   1      33.270  24.515  23.306  1.00  0.00     0.014 A 
ATOM     12  C   UNL A   1      32.589  24.532  25.618  1.00  0.00     0.014 A 
BRANCH   8  13
ATOM     13  C   UNL A   1      36.099  23.240  25.428  1.00  0.00     0.075 A 
ATOM     14  N   UNL A   1      36.437  21.899  25.541  1.00  0.00    -0.233 N 
ATOM     15  N   UNL A   1      37.641  21.730  26.139  1.00  0.00    -0.166 NA
ATOM     16  C   UNL A   1      38.163  22.968  26.216  1.00  0.00     0.129 A 
ATOM     17  C   UNL A   1      37.213  23.944  25.832  1.00  0.00     0.060 A 
BRANCH  14  18
ATOM     18  C   UNL A   1      35.656  20.788  25.131  1.00  0.00     0.065 A 
ATOM     19  C   UNL A   1      34.136  18.518  24.635  1.00  0.00     0.082 A 
ATOM     20  C   UNL A   1      33.493  19.711  24.967  1.00  0.00     0.024 A 
ATOM     21  C   UNL A   1      35.530  18.463  24.505  1.00  0.00     0.024 A 
ATOM     22  C   UNL A   1      34.255  20.846  25.221  1.00  0.00     0.030 A 
ATOM     23  C   UNL A   1      36.294  19.612  24.725  1.00  0.00     0.030 A 
BRANCH  19  24
ATOM     24  S   UNL A   1      33.176  17.054  24.394  1.00  0.00     0.238 S 
ATOM     25  O   UNL A   1      32.047  17.074  25.308  1.00  0.00    -0.207 OA
ATOM     26  O   UNL A   1      34.064  15.934  24.278  1.00  0.00    -0.207 OA
BRANCH  24  27
ATOM     27  N   UNL A   1      32.508  17.301  22.875  1.00  0.00    -0.225 NA
ATOM     28  H   UNL A   1      31.557  17.657  22.976  1.00  0.00     0.137 HD
ATOM     29  H   UNL A   1      32.488  16.419  22.364  1.00  0.00     0.137 HD
ENDBRANCH  24  27
ENDBRANCH  19  24
ENDBRANCH  14  18
BRANCH  16  30
ATOM     30  C   UNL A   1      39.571  23.237  26.659  1.00  0.00     0.393 C 
ATOM     31  F   UNL A   1      39.648  24.191  27.624  1.00  0.00    -0.203 F 
ATOM     32  F   UNL A   1      40.148  22.113  27.172  1.00  0.00    -0.203 F 
ENDBRANCH  16  30
ENDBRANCH   8  13
ENDBRANCH   4   7
ENDBRANCH   2   3
ENDBRANCH   1   2
BRANCH   1  33
ATOM     33  C   UNL A   1      33.501  28.244  24.912  1.00  0.00     0.002 C 
BRANCH  33  34
ATOM     34  C   UNL A   1      33.190  27.950  26.388  1.00  0.00     0.002 C 
BRANCH  34  35
ATOM     35  C   UNL A   1      33.046  29.179  27.299  1.00  0.00     0.021 C 
BRANCH  35  36
ATOM     36  C   UNL A   1      33.996  30.311  26.941  1.00  0.00     0.116 C 
BRANCH  36  37
ATOM     37  N   UNL A   1      33.969  31.375  27.942  1.00  0.00    -0.352 N 
ATOM     38  C   UNL A   1      34.829  31.597  28.992  1.00  0.00     0.251 C 
ATOM     39  H   UNL A   1      33.232  32.022  27.853  1.00  0.00     0.163 HD
ATOM     40  O   UNL A   1      34.495  32.288  29.947  1.00  0.00    -0.269 OA
BRANCH  38  41
ATOM     41  C   UNL A   1      36.166  30.986  28.955  1.00  0.00     0.039 A 
ATOM     42  C   UNL A   1      37.315  31.777  29.029  1.00  0.00     0.014 A 
ATOM     43  C   UNL A   1      36.256  29.599  28.869  1.00  0.00     0.014 A 
ATOM     44  C   UNL A   1      38.555  31.151  29.101  1.00  0.00     0.010 A 
ATOM     45  C   UNL A   1      37.463  28.982  29.082  1.00  0.00     0.010 A 
ATOM     46  C   UNL A   1      38.621  29.748  29.152  1.00  0.00    -0.014 A 
BRANCH  46  47
ATOM     47  C   UNL A   1      39.893  29.082  29.417  1.00  0.00     0.031 A 
ATOM     48  C   UNL A   1      40.235  28.987  30.860  1.00  0.00     0.074 A 
ATOM     49  C   UNL A   1      40.589  28.401  28.481  1.00  0.00     0.049 A 
ATOM     50  N   UNL A   1      41.177  29.604  31.491  1.00  0.00    -0.248 NA
ATOM     51  C   UNL A   1      39.334  28.219  31.738  1.00  0.00     0.031 C 
ATOM     52  C   UNL A   1      40.174  28.117  27.100  1.00  0.00     0.029 A 
ATOM     53  N   UNL A   1      41.757  27.704  28.593  1.00  0.00    -0.354 N 
ATOM     54  C   UNL A   1      41.141  29.113  32.793  1.00  0.00     0.074 A 
ATOM     55  C   UNL A   1      39.875  28.444  32.937  1.00  0.00     0.031 C 
ATOM     56  C   UNL A   1      40.928  27.116  26.598  1.00  0.00     0.029 A 
ATOM     57  C   UNL A   1      41.996  26.832  27.537  1.00  0.00     0.049 A 
ATOM     58  H   UNL A   1      42.373  27.808  29.354  1.00  0.00     0.167 HD
ATOM     59  C   UNL A   1      42.290  28.995  33.517  1.00  0.00     0.031 A 
ATOM     60  C   UNL A   1      42.999  25.932  27.424  1.00  0.00     0.031 A 
ATOM     61  C   UNL A   1      43.373  29.707  32.886  1.00  0.00     0.049 A 
ATOM     62  C   UNL A   1      44.085  26.347  28.333  1.00  0.00     0.074 A 
ATOM     63  C   UNL A   1      43.765  31.015  32.715  1.00  0.00     0.029 A 
ATOM     64  N   UNL A   1      44.046  28.952  31.962  1.00  0.00    -0.354 N 
ATOM     65  N   UNL A   1      44.775  27.439  28.166  1.00  0.00    -0.248 NA
ATOM     66  C   UNL A   1      44.209  25.723  29.644  1.00  0.00     0.031 C 
ATOM     67  C   UNL A   1      44.566  31.035  31.532  1.00  0.00     0.029 A 
ATOM     68  C   UNL A   1      44.677  29.737  31.038  1.00  0.00     0.049 A 
ATOM     69  H   UNL A   1      44.072  27.968  31.964  1.00  0.00     0.167 HD
ATOM     70  C   UNL A   1      45.042  27.869  29.449  1.00  0.00     0.074 A 
ATOM     71  C   UNL A   1      44.849  26.698  30.295  1.00  0.00     0.031 C 
ATOM     72  C   UNL A   1      45.064  29.199  29.752  1.00  0.00     0.031 A 
BRANCH  59  73
ATOM     73  C   UNL A   1      42.597  27.816  34.425  1.00  0.00    -0.014 A 
ATOM     74  C   UNL A   1      42.562  28.026  35.818  1.00  0.00     0.009 A 
ATOM     75  C   UNL A   1      43.220  26.631  33.990  1.00  0.00     0.009 A 
ATOM     76  C   UNL A   1      43.189  27.148  36.711  1.00  0.00     0.001 A 
ATOM     77  C   UNL A   1      43.818  25.733  34.882  1.00  0.00     0.001 A 
ATOM     78  C   UNL A   1      43.827  26.006  36.241  1.00  0.00     0.000 A 
ENDBRANCH  59  73
BRANCH  60  79
ATOM     79  C   UNL A   1      43.022  24.643  26.707  1.00  0.00    -0.014 A 
ATOM     80  C   UNL A   1      43.167  24.598  25.312  1.00  0.00     0.009 A 
ATOM     81  C   UNL A   1      43.178  23.443  27.426  1.00  0.00     0.009 A 
ATOM     82  C   UNL A   1      43.505  23.403  24.664  1.00  0.00     0.001 A 
ATOM     83  C   UNL A   1      43.516  22.251  26.778  1.00  0.00     0.001 A 
ATOM     84  C   UNL A   1      43.697  22.235  25.399  1.00  0.00     0.000 A 
ENDBRANCH  60  79
BRANCH  72  85
ATOM     85  C   UNL A   1      45.322  30.165  28.632  1.00  0.00    -0.014 A 
ATOM     86  C   UNL A   1      46.603  30.489  28.158  1.00  0.00     0.009 A 
ATOM     87  C   UNL A   1      44.207  30.715  27.984  1.00  0.00     0.009 A 
ATOM     88  C   UNL A   1      46.759  31.366  27.079  1.00  0.00     0.001 A 
ATOM     89  C   UNL A   1      44.361  31.572  26.895  1.00  0.00     0.001 A 
ATOM     90  C   UNL A   1      45.637  31.903  26.446  1.00  0.00     0.000 A 
ENDBRANCH  72  85
ENDBRANCH  46  47
ENDBRANCH  38  41
ENDBRANCH  36  37
ENDBRANCH  35  36
ENDBRANCH  34  35
ENDBRANCH  33  34
ENDBRANCH   1  33
TORSDOF 18
ENDMDL
