MODEL 1
REMARK VINA RESULT:     -11.0      0.000      0.000
REMARK SMILES CC[C@@H]1CCCN(S(=O)(=O)c2cc(C(=O)NCCCCCCNC(=O)c3ccc(-c4c5nc(c(-c6ccccc6)c6ccc([nH]6)c(-c6ccccc6)c6nc(c(-c7ccccc7)c7ccc4[nH]7)C=C6)C=C5)cc3)ccc2F)C1
REMARK SMILES IDX 19 1 18 2 17 3 16 4 14 5 15 6 13 8 11 9 12 10 76 11 75 12
REMARK SMILES IDX 77 13 74 14 8 15 9 16 10 17 7 18 3 19 4 20 78 21 5 22 6 23
REMARK SMILES IDX 2 24 1 25 20 26 21 27 22 28 23 29 24 30 25 32 26 33 27 34
REMARK SMILES IDX 73 35 28 36 72 37 29 38 30 39 31 40 66 41 32 42 71 43 65 44
REMARK SMILES IDX 67 45 33 46 70 47 64 48 63 49 34 51 56 52 41 53 55 54 42 55
REMARK SMILES IDX 45 56 54 57 68 58 43 59 44 60 53 62 69 63 46 64 35 65 36 66
REMARK SMILES IDX 40 67 37 68 39 69 38 70 57 71 58 72 62 73 59 74 61 75 60 76
REMARK SMILES IDX 47 77 48 78 52 79 49 80 51 81 50 82
REMARK H PARENT 16 7 23 31 67 50 45 61
REMARK Flexibility Score: inf
ROOT
ATOM      1  C   UNL A   1      32.825  29.141  25.550  1.00  0.00     0.002 C 
ENDROOT
BRANCH   1   2
ATOM      2  C   UNL A   1      33.667  28.540  24.415  1.00  0.00     0.021 C 
BRANCH   2   3
ATOM      3  C   UNL A   1      33.226  28.975  23.015  1.00  0.00     0.116 C 
BRANCH   3   4
ATOM      4  N   UNL A   1      33.113  27.837  22.124  1.00  0.00    -0.352 N 
ATOM      5  C   UNL A   1      32.317  26.723  22.100  1.00  0.00     0.251 C 
ATOM      6  O   UNL A   1      32.442  25.980  21.125  1.00  0.00    -0.269 OA
ATOM      7  H   UNL A   1      33.749  27.872  21.373  1.00  0.00     0.163 HD
BRANCH   5   8
ATOM      8  C   UNL A   1      31.320  26.352  23.153  1.00  0.00     0.041 A 
ATOM      9  C   UNL A   1      30.805  24.867  25.033  1.00  0.00     0.119 A 
ATOM     10  C   UNL A   1      31.635  25.240  23.965  1.00  0.00     0.038 A 
ATOM     11  C   UNL A   1      29.659  25.602  25.299  1.00  0.00     0.143 A 
ATOM     12  C   UNL A   1      29.316  26.682  24.495  1.00  0.00     0.041 A 
ATOM     13  F   UNL A   1      28.846  25.297  26.318  1.00  0.00    -0.206 F 
ATOM     14  C   UNL A   1      30.157  27.072  23.448  1.00  0.00     0.017 A 
BRANCH   9  15
ATOM     15  S   UNL A   1      31.317  23.617  26.171  1.00  0.00     0.246 S 
ATOM     16  O   UNL A   1      30.406  22.492  26.047  1.00  0.00    -0.207 OA
ATOM     17  O   UNL A   1      31.504  24.250  27.457  1.00  0.00    -0.207 OA
BRANCH  15  18
ATOM     18  N   UNL A   1      32.877  23.089  25.643  1.00  0.00    -0.197 NA
ATOM     19  C   UNL A   1      35.270  22.739  26.370  1.00  0.00     0.004 C 
ATOM     20  C   UNL A   1      35.276  21.408  25.607  1.00  0.00     0.006 C 
ATOM     21  C   UNL A   1      33.839  23.093  26.801  1.00  0.00     0.106 C 
ATOM     22  C   UNL A   1      34.293  21.431  24.451  1.00  0.00     0.017 C 
ATOM     23  C   UNL A   1      32.890  21.779  24.932  1.00  0.00     0.102 C 
BRANCH  19  24
ATOM     24  C   UNL A   1      36.047  23.852  25.625  1.00  0.00     0.001 C 
ATOM     25  C   UNL A   1      37.077  23.426  24.590  1.00  0.00     0.004 C 
ENDBRANCH  19  24
ENDBRANCH  15  18
ENDBRANCH   9  15
ENDBRANCH   5   8
ENDBRANCH   3   4
ENDBRANCH   2   3
ENDBRANCH   1   2
BRANCH   1  26
ATOM     26  C   UNL A   1      31.641  30.010  25.102  1.00  0.00     0.002 C 
BRANCH  26  27
ATOM     27  C   UNL A   1      31.249  31.134  26.067  1.00  0.00     0.021 C 
BRANCH  27  28
ATOM     28  C   UNL A   1      32.381  31.630  26.962  1.00  0.00     0.116 C 
BRANCH  28  29
ATOM     29  N   UNL A   1      32.208  33.026  27.332  1.00  0.00    -0.352 N 
ATOM     30  C   UNL A   1      32.966  33.817  28.157  1.00  0.00     0.251 C 
ATOM     31  H   UNL A   1      31.428  33.471  26.927  1.00  0.00     0.163 HD
ATOM     32  O   UNL A   1      32.537  34.908  28.522  1.00  0.00    -0.269 OA
BRANCH  30  33
ATOM     33  C   UNL A   1      34.294  33.362  28.621  1.00  0.00     0.039 A 
ATOM     34  C   UNL A   1      34.379  32.631  29.809  1.00  0.00     0.014 A 
ATOM     35  C   UNL A   1      35.458  33.692  27.919  1.00  0.00     0.014 A 
ATOM     36  C   UNL A   1      35.622  32.193  30.270  1.00  0.00     0.010 A 
ATOM     37  C   UNL A   1      36.690  33.201  28.344  1.00  0.00     0.010 A 
ATOM     38  C   UNL A   1      36.785  32.455  29.528  1.00  0.00    -0.014 A 
BRANCH  38  39
ATOM     39  C   UNL A   1      38.106  31.950  29.980  1.00  0.00     0.031 A 
ATOM     40  C   UNL A   1      38.645  30.647  29.459  1.00  0.00     0.074 A 
ATOM     41  C   UNL A   1      38.798  32.643  30.905  1.00  0.00     0.049 A 
ATOM     42  N   UNL A   1      39.767  30.041  29.756  1.00  0.00    -0.248 NA
ATOM     43  C   UNL A   1      37.803  29.916  28.499  1.00  0.00     0.031 C 
ATOM     44  C   UNL A   1      38.359  33.893  31.529  1.00  0.00     0.029 A 
ATOM     45  N   UNL A   1      40.013  32.387  31.487  1.00  0.00    -0.354 N 
ATOM     46  C   UNL A   1      39.755  28.852  29.038  1.00  0.00     0.074 A 
ATOM     47  C   UNL A   1      38.498  28.801  28.325  1.00  0.00     0.031 C 
ATOM     48  C   UNL A   1      39.304  34.307  32.389  1.00  0.00     0.029 A 
ATOM     49  C   UNL A   1      40.395  33.340  32.399  1.00  0.00     0.049 A 
ATOM     50  H   UNL A   1      40.559  31.597  31.271  1.00  0.00     0.167 HD
ATOM     51  C   UNL A   1      40.713  27.896  28.965  1.00  0.00     0.031 A 
ATOM     52  C   UNL A   1      41.503  33.427  33.160  1.00  0.00     0.031 A 
ATOM     53  C   UNL A   1      41.970  27.952  29.661  1.00  0.00     0.049 A 
ATOM     54  C   UNL A   1      42.560  32.365  33.044  1.00  0.00     0.074 A 
ATOM     55  C   UNL A   1      43.035  27.071  29.591  1.00  0.00     0.029 A 
ATOM     56  N   UNL A   1      42.330  28.946  30.558  1.00  0.00    -0.354 N 
ATOM     57  N   UNL A   1      42.571  31.290  32.296  1.00  0.00    -0.248 NA
ATOM     58  C   UNL A   1      43.764  32.540  33.869  1.00  0.00     0.031 C 
ATOM     59  C   UNL A   1      44.021  27.506  30.485  1.00  0.00     0.029 A 
ATOM     60  C   UNL A   1      43.591  28.686  31.070  1.00  0.00     0.049 A 
ATOM     61  H   UNL A   1      41.773  29.722  30.796  1.00  0.00     0.167 HD
ATOM     62  C   UNL A   1      43.788  30.668  32.544  1.00  0.00     0.074 A 
ATOM     63  C   UNL A   1      44.495  31.499  33.497  1.00  0.00     0.031 C 
ATOM     64  C   UNL A   1      44.276  29.514  32.028  1.00  0.00     0.031 A 
BRANCH  51  65
ATOM     65  C   UNL A   1      40.425  26.695  28.107  1.00  0.00    -0.014 A 
ATOM     66  C   UNL A   1      40.910  26.606  26.792  1.00  0.00     0.009 A 
ATOM     67  C   UNL A   1      39.680  25.627  28.628  1.00  0.00     0.009 A 
ATOM     68  C   UNL A   1      40.622  25.489  26.005  1.00  0.00     0.001 A 
ATOM     69  C   UNL A   1      39.417  24.498  27.849  1.00  0.00     0.001 A 
ATOM     70  C   UNL A   1      39.878  24.435  26.535  1.00  0.00     0.000 A 
ENDBRANCH  51  65
BRANCH  52  71
ATOM     71  C   UNL A   1      41.676  34.577  34.081  1.00  0.00    -0.014 A 
ATOM     72  C   UNL A   1      41.215  34.507  35.404  1.00  0.00     0.009 A 
ATOM     73  C   UNL A   1      42.317  35.749  33.645  1.00  0.00     0.009 A 
ATOM     74  C   UNL A   1      41.373  35.594  36.267  1.00  0.00     0.001 A 
ATOM     75  C   UNL A   1      42.497  36.824  34.517  1.00  0.00     0.001 A 
ATOM     76  C   UNL A   1      42.019  36.749  35.825  1.00  0.00     0.000 A 
ENDBRANCH  52  71
BRANCH  64  77
ATOM     77  C   UNL A   1      45.647  29.093  32.473  1.00  0.00    -0.014 A 
ATOM     78  C   UNL A   1      46.795  29.500  31.777  1.00  0.00     0.009 A 
ATOM     79  C   UNL A   1      45.792  28.301  33.623  1.00  0.00     0.009 A 
ATOM     80  C   UNL A   1      48.060  29.093  32.203  1.00  0.00     0.001 A 
ATOM     81  C   UNL A   1      47.060  27.918  34.062  1.00  0.00     0.001 A 
ATOM     82  C   UNL A   1      48.192  28.306  33.347  1.00  0.00     0.000 A 
ENDBRANCH  64  77
ENDBRANCH  38  39
ENDBRANCH  30  33
ENDBRANCH  28  29
ENDBRANCH  27  28
ENDBRANCH  26  27
ENDBRANCH   1  26
TORSDOF 16
ENDMDL
MODEL 2
REMARK VINA RESULT:     -10.9      2.240      6.650
REMARK SMILES CC[C@@H]1CCCN(S(=O)(=O)c2cc(C(=O)NCCCCCCNC(=O)c3ccc(-c4c5nc(c(-c6ccccc6)c6ccc([nH]6)c(-c6ccccc6)c6nc(c(-c7ccccc7)c7ccc4[nH]7)C=C6)C=C5)cc3)ccc2F)C1
REMARK SMILES IDX 19 1 18 2 17 3 16 4 14 5 15 6 13 8 11 9 12 10 76 11 75 12
REMARK SMILES IDX 77 13 74 14 8 15 9 16 10 17 7 18 3 19 4 20 78 21 5 22 6 23
REMARK SMILES IDX 2 24 1 25 20 26 21 27 22 28 23 29 24 30 25 32 26 33 27 34
REMARK SMILES IDX 73 35 28 36 72 37 29 38 30 39 31 40 66 41 32 42 71 43 65 44
REMARK SMILES IDX 67 45 33 46 70 47 64 48 63 49 34 51 56 52 41 53 55 54 42 55
REMARK SMILES IDX 45 56 54 57 68 58 43 59 44 60 53 62 69 63 46 64 35 65 36 66
REMARK SMILES IDX 40 67 37 68 39 69 38 70 57 71 58 72 62 73 59 74 61 75 60 76
REMARK SMILES IDX 47 77 48 78 52 79 49 80 51 81 50 82
REMARK H PARENT 16 7 23 31 67 50 45 61
REMARK Flexibility Score: inf
ROOT
ATOM      1  C   UNL A   1      33.697  28.832  23.387  1.00  0.00     0.002 C 
ENDROOT
BRANCH   1   2
ATOM      2  C   UNL A   1      34.089  27.382  23.064  1.00  0.00     0.021 C 
BRANCH   2   3
ATOM      3  C   UNL A   1      33.323  26.779  21.882  1.00  0.00     0.116 C 
BRANCH   3   4
ATOM      4  N   UNL A   1      31.993  27.343  21.777  1.00  0.00    -0.352 N 
ATOM      5  C   UNL A   1      30.848  27.226  22.520  1.00  0.00     0.251 C 
ATOM      6  O   UNL A   1      29.896  27.928  22.176  1.00  0.00    -0.269 OA
ATOM      7  H   UNL A   1      31.888  27.940  21.001  1.00  0.00     0.163 HD
BRANCH   5   8
ATOM      8  C   UNL A   1      30.675  26.324  23.702  1.00  0.00     0.041 A 
ATOM      9  C   UNL A   1      31.066  24.090  24.631  1.00  0.00     0.119 A 
ATOM     10  C   UNL A   1      31.108  24.988  23.552  1.00  0.00     0.038 A 
ATOM     11  C   UNL A   1      30.596  24.521  25.862  1.00  0.00     0.143 A 
ATOM     12  C   UNL A   1      30.139  25.823  26.022  1.00  0.00     0.041 A 
ATOM     13  F   UNL A   1      30.555  23.707  26.925  1.00  0.00    -0.206 F 
ATOM     14  C   UNL A   1      30.207  26.727  24.958  1.00  0.00     0.017 A 
BRANCH   9  15
ATOM     15  S   UNL A   1      31.808  22.493  24.495  1.00  0.00     0.246 S 
ATOM     16  O   UNL A   1      31.762  22.091  23.100  1.00  0.00    -0.207 OA
ATOM     17  O   UNL A   1      31.209  21.649  25.504  1.00  0.00    -0.207 OA
BRANCH  15  18
ATOM     18  N   UNL A   1      33.470  22.691  24.930  1.00  0.00    -0.197 NA
ATOM     19  C   UNL A   1      35.835  22.624  24.046  1.00  0.00     0.004 C 
ATOM     20  C   UNL A   1      36.142  23.888  24.861  1.00  0.00     0.006 C 
ATOM     21  C   UNL A   1      34.338  22.568  23.706  1.00  0.00     0.106 C 
ATOM     22  C   UNL A   1      35.248  23.988  26.083  1.00  0.00     0.017 C 
ATOM     23  C   UNL A   1      33.777  23.934  25.690  1.00  0.00     0.102 C 
BRANCH  19  24
ATOM     24  C   UNL A   1      36.432  21.348  24.688  1.00  0.00     0.001 C 
ATOM     25  C   UNL A   1      37.898  21.376  25.092  1.00  0.00     0.004 C 
ENDBRANCH  19  24
ENDBRANCH  15  18
ENDBRANCH   9  15
ENDBRANCH   5   8
ENDBRANCH   3   4
ENDBRANCH   2   3
ENDBRANCH   1   2
BRANCH   1  26
ATOM     26  C   UNL A   1      33.243  29.086  24.831  1.00  0.00     0.002 C 
BRANCH  26  27
ATOM     27  C   UNL A   1      33.605  27.987  25.836  1.00  0.00     0.021 C 
BRANCH  27  28
ATOM     28  C   UNL A   1      33.441  28.384  27.301  1.00  0.00     0.116 C 
BRANCH  28  29
ATOM     29  N   UNL A   1      33.420  29.828  27.472  1.00  0.00    -0.352 N 
ATOM     30  C   UNL A   1      34.361  30.661  28.020  1.00  0.00     0.251 C 
ATOM     31  H   UNL A   1      32.606  30.275  27.144  1.00  0.00     0.163 HD
ATOM     32  O   UNL A   1      34.071  31.826  28.277  1.00  0.00    -0.269 OA
BRANCH  30  33
ATOM     33  C   UNL A   1      35.724  30.166  28.311  1.00  0.00     0.039 A 
ATOM     34  C   UNL A   1      36.678  30.178  27.290  1.00  0.00     0.014 A 
ATOM     35  C   UNL A   1      36.051  29.645  29.567  1.00  0.00     0.014 A 
ATOM     36  C   UNL A   1      37.970  29.713  27.538  1.00  0.00     0.010 A 
ATOM     37  C   UNL A   1      37.358  29.241  29.834  1.00  0.00     0.010 A 
ATOM     38  C   UNL A   1      38.327  29.263  28.820  1.00  0.00    -0.014 A 
BRANCH  38  39
ATOM     39  C   UNL A   1      39.712  28.814  29.111  1.00  0.00     0.031 A 
ATOM     40  C   UNL A   1      40.689  29.739  29.782  1.00  0.00     0.074 A 
ATOM     41  C   UNL A   1      40.106  27.587  28.720  1.00  0.00     0.049 A 
ATOM     42  N   UNL A   1      41.943  29.527  30.096  1.00  0.00    -0.248 NA
ATOM     43  C   UNL A   1      40.204  31.086  30.121  1.00  0.00     0.031 C 
ATOM     44  C   UNL A   1      39.270  26.615  28.012  1.00  0.00     0.029 A 
ATOM     45  N   UNL A   1      41.314  26.952  28.856  1.00  0.00    -0.354 N 
ATOM     46  C   UNL A   1      42.399  30.717  30.649  1.00  0.00     0.074 A 
ATOM     47  C   UNL A   1      41.303  31.659  30.589  1.00  0.00     0.031 C 
ATOM     48  C   UNL A   1      39.985  25.499  27.797  1.00  0.00     0.029 A 
ATOM     49  C   UNL A   1      41.332  25.687  28.324  1.00  0.00     0.049 A 
ATOM     50  H   UNL A   1      42.094  27.365  29.293  1.00  0.00     0.167 HD
ATOM     51  C   UNL A   1      43.617  30.995  31.175  1.00  0.00     0.031 A 
ATOM     52  C   UNL A   1      42.322  24.776  28.266  1.00  0.00     0.031 A 
ATOM     53  C   UNL A   1      44.702  30.055  31.249  1.00  0.00     0.049 A 
ATOM     54  C   UNL A   1      43.656  25.101  28.876  1.00  0.00     0.074 A 
ATOM     55  C   UNL A   1      45.947  30.219  31.832  1.00  0.00     0.029 A 
ATOM     56  N   UNL A   1      44.673  28.774  30.720  1.00  0.00    -0.354 N 
ATOM     57  N   UNL A   1      44.046  26.202  29.471  1.00  0.00    -0.248 NA
ATOM     58  C   UNL A   1      44.682  24.050  28.817  1.00  0.00     0.031 C 
ATOM     59  C   UNL A   1      46.689  29.052  31.612  1.00  0.00     0.029 A 
ATOM     60  C   UNL A   1      45.888  28.145  30.938  1.00  0.00     0.049 A 
ATOM     61  H   UNL A   1      43.903  28.371  30.257  1.00  0.00     0.167 HD
ATOM     62  C   UNL A   1      45.354  25.971  29.876  1.00  0.00     0.074 A 
ATOM     63  C   UNL A   1      45.683  24.618  29.475  1.00  0.00     0.031 C 
ATOM     64  C   UNL A   1      46.205  26.804  30.522  1.00  0.00     0.031 A 
BRANCH  51  65
ATOM     65  C   UNL A   1      43.839  32.386  31.701  1.00  0.00    -0.014 A 
ATOM     66  C   UNL A   1      43.669  32.687  33.062  1.00  0.00     0.009 A 
ATOM     67  C   UNL A   1      44.250  33.405  30.828  1.00  0.00     0.009 A 
ATOM     68  C   UNL A   1      43.868  33.988  33.530  1.00  0.00     0.001 A 
ATOM     69  C   UNL A   1      44.476  34.699  31.303  1.00  0.00     0.001 A 
ATOM     70  C   UNL A   1      44.274  34.991  32.651  1.00  0.00     0.000 A 
ENDBRANCH  51  65
BRANCH  52  71
ATOM     71  C   UNL A   1      42.078  23.461  27.624  1.00  0.00    -0.014 A 
ATOM     72  C   UNL A   1      41.464  22.422  28.339  1.00  0.00     0.009 A 
ATOM     73  C   UNL A   1      42.445  23.241  26.286  1.00  0.00     0.009 A 
ATOM     74  C   UNL A   1      41.242  21.182  27.736  1.00  0.00     0.001 A 
ATOM     75  C   UNL A   1      42.199  22.010  25.677  1.00  0.00     0.001 A 
ATOM     76  C   UNL A   1      41.604  20.979  26.404  1.00  0.00     0.000 A 
ENDBRANCH  52  71
BRANCH  64  77
ATOM     77  C   UNL A   1      47.569  26.266  30.849  1.00  0.00    -0.014 A 
ATOM     78  C   UNL A   1      47.861  25.748  32.119  1.00  0.00     0.009 A 
ATOM     79  C   UNL A   1      48.567  26.254  29.861  1.00  0.00     0.009 A 
ATOM     80  C   UNL A   1      49.137  25.259  32.405  1.00  0.00     0.001 A 
ATOM     81  C   UNL A   1      49.834  25.740  30.143  1.00  0.00     0.001 A 
ATOM     82  C   UNL A   1      50.120  25.252  31.416  1.00  0.00     0.000 A 
ENDBRANCH  64  77
ENDBRANCH  38  39
ENDBRANCH  30  33
ENDBRANCH  28  29
ENDBRANCH  27  28
ENDBRANCH  26  27
ENDBRANCH   1  26
TORSDOF 16
ENDMDL
MODEL 3
REMARK VINA RESULT:     -10.8      0.592      5.788
REMARK SMILES CC[C@@H]1CCCN(S(=O)(=O)c2cc(C(=O)NCCCCCCNC(=O)c3ccc(-c4c5nc(c(-c6ccccc6)c6ccc([nH]6)c(-c6ccccc6)c6nc(c(-c7ccccc7)c7ccc4[nH]7)C=C6)C=C5)cc3)ccc2F)C1
REMARK SMILES IDX 19 1 18 2 17 3 16 4 14 5 15 6 13 8 11 9 12 10 76 11 75 12
REMARK SMILES IDX 77 13 74 14 8 15 9 16 10 17 7 18 3 19 4 20 78 21 5 22 6 23
REMARK SMILES IDX 2 24 1 25 20 26 21 27 22 28 23 29 24 30 25 32 26 33 27 34
REMARK SMILES IDX 73 35 28 36 72 37 29 38 30 39 31 40 66 41 32 42 71 43 65 44
REMARK SMILES IDX 67 45 33 46 70 47 64 48 63 49 34 51 56 52 41 53 55 54 42 55
REMARK SMILES IDX 45 56 54 57 68 58 43 59 44 60 53 62 69 63 46 64 35 65 36 66
REMARK SMILES IDX 40 67 37 68 39 69 38 70 57 71 58 72 62 73 59 74 61 75 60 76
REMARK SMILES IDX 47 77 48 78 52 79 49 80 51 81 50 82
REMARK H PARENT 16 7 23 31 67 50 45 61
REMARK Flexibility Score: inf
ROOT
ATOM      1  C   UNL A   1      33.135  29.040  25.399  1.00  0.00     0.002 C 
ENDROOT
BRANCH   1   2
ATOM      2  C   UNL A   1      34.037  28.524  24.269  1.00  0.00     0.021 C 
BRANCH   2   3
ATOM      3  C   UNL A   1      33.567  28.919  22.866  1.00  0.00     0.116 C 
BRANCH   3   4
ATOM      4  N   UNL A   1      33.485  27.764  21.996  1.00  0.00    -0.352 N 
ATOM      5  C   UNL A   1      32.666  26.666  21.944  1.00  0.00     0.251 C 
ATOM      6  O   UNL A   1      32.836  25.899  20.996  1.00  0.00    -0.269 OA
ATOM      7  H   UNL A   1      34.168  27.767  21.286  1.00  0.00     0.163 HD
BRANCH   5   8
ATOM      8  C   UNL A   1      31.596  26.341  22.939  1.00  0.00     0.041 A 
ATOM      9  C   UNL A   1      30.928  24.912  24.813  1.00  0.00     0.119 A 
ATOM     10  C   UNL A   1      31.833  25.241  23.792  1.00  0.00     0.038 A 
ATOM     11  C   UNL A   1      29.785  25.678  24.989  1.00  0.00     0.143 A 
ATOM     12  C   UNL A   1      29.520  26.746  24.142  1.00  0.00     0.041 A 
ATOM     13  F   UNL A   1      28.902  25.414  25.961  1.00  0.00    -0.206 F 
ATOM     14  C   UNL A   1      30.434  27.094  23.143  1.00  0.00     0.017 A 
BRANCH   9  15
ATOM     15  S   UNL A   1      31.337  23.676  26.008  1.00  0.00     0.246 S 
ATOM     16  O   UNL A   1      30.417  22.565  25.841  1.00  0.00    -0.207 OA
ATOM     17  O   UNL A   1      31.444  24.332  27.291  1.00  0.00    -0.207 OA
BRANCH  15  18
ATOM     18  N   UNL A   1      32.921  23.113  25.601  1.00  0.00    -0.197 NA
ATOM     19  C   UNL A   1      35.284  22.867  26.457  1.00  0.00     0.004 C 
ATOM     20  C   UNL A   1      35.330  21.464  25.839  1.00  0.00     0.006 C 
ATOM     21  C   UNL A   1      33.834  23.248  26.791  1.00  0.00     0.106 C 
ATOM     22  C   UNL A   1      34.396  21.355  24.647  1.00  0.00     0.017 C 
ATOM     23  C   UNL A   1      32.972  21.737  25.032  1.00  0.00     0.102 C 
BRANCH  19  24
ATOM     24  C   UNL A   1      36.084  23.904  25.631  1.00  0.00     0.001 C 
ATOM     25  C   UNL A   1      37.575  23.665  25.446  1.00  0.00     0.004 C 
ENDBRANCH  19  24
ENDBRANCH  15  18
ENDBRANCH   9  15
ENDBRANCH   5   8
ENDBRANCH   3   4
ENDBRANCH   2   3
ENDBRANCH   1   2
BRANCH   1  26
ATOM     26  C   UNL A   1      31.908  29.845  24.947  1.00  0.00     0.002 C 
BRANCH  26  27
ATOM     27  C   UNL A   1      31.405  30.892  25.946  1.00  0.00     0.021 C 
BRANCH  27  28
ATOM     28  C   UNL A   1      32.452  31.376  26.945  1.00  0.00     0.116 C 
BRANCH  28  29
ATOM     29  N   UNL A   1      32.323  32.799  27.219  1.00  0.00    -0.352 N 
ATOM     30  C   UNL A   1      33.083  33.611  28.021  1.00  0.00     0.251 C 
ATOM     31  H   UNL A   1      31.578  33.247  26.756  1.00  0.00     0.163 HD
ATOM     32  O   UNL A   1      32.687  34.740  28.299  1.00  0.00    -0.269 OA
BRANCH  30  33
ATOM     33  C   UNL A   1      34.373  33.136  28.564  1.00  0.00     0.039 A 
ATOM     34  C   UNL A   1      34.373  32.393  29.749  1.00  0.00     0.014 A 
ATOM     35  C   UNL A   1      35.583  33.458  27.942  1.00  0.00     0.014 A 
ATOM     36  C   UNL A   1      35.578  31.936  30.284  1.00  0.00     0.010 A 
ATOM     37  C   UNL A   1      36.780  32.948  28.440  1.00  0.00     0.010 A 
ATOM     38  C   UNL A   1      36.789  32.189  29.621  1.00  0.00    -0.014 A 
BRANCH  38  39
ATOM     39  C   UNL A   1      38.073  31.665  30.152  1.00  0.00     0.031 A 
ATOM     40  C   UNL A   1      38.777  32.368  31.279  1.00  0.00     0.074 A 
ATOM     41  C   UNL A   1      38.633  30.582  29.580  1.00  0.00     0.049 A 
ATOM     42  N   UNL A   1      39.914  32.067  31.856  1.00  0.00    -0.248 NA
ATOM     43  C   UNL A   1      38.135  33.581  31.809  1.00  0.00     0.031 C 
ATOM     44  C   UNL A   1      38.077  29.841  28.445  1.00  0.00     0.029 A 
ATOM     45  N   UNL A   1      39.799  29.921  29.871  1.00  0.00    -0.354 N 
ATOM     46  C   UNL A   1      40.131  33.063  32.800  1.00  0.00     0.074 A 
ATOM     47  C   UNL A   1      39.034  33.998  32.690  1.00  0.00     0.031 C 
ATOM     48  C   UNL A   1      38.892  28.815  28.152  1.00  0.00     0.029 A 
ATOM     49  C   UNL A   1      40.036  28.842  29.055  1.00  0.00     0.049 A 
ATOM     50  H   UNL A   1      40.407  30.195  30.595  1.00  0.00     0.167 HD
ATOM     51  C   UNL A   1      41.146  33.179  33.691  1.00  0.00     0.031 A 
ATOM     52  C   UNL A   1      41.062  27.970  29.036  1.00  0.00     0.031 A 
ATOM     53  C   UNL A   1      42.229  32.241  33.813  1.00  0.00     0.049 A 
ATOM     54  C   UNL A   1      42.164  28.107  30.049  1.00  0.00     0.074 A 
ATOM     55  C   UNL A   1      43.262  32.232  34.735  1.00  0.00     0.029 A 
ATOM     56  N   UNL A   1      42.422  31.148  32.984  1.00  0.00    -0.354 N 
ATOM     57  N   UNL A   1      42.311  29.006  30.991  1.00  0.00    -0.248 NA
ATOM     58  C   UNL A   1      43.232  27.098  30.002  1.00  0.00     0.031 C 
ATOM     59  C   UNL A   1      44.108  31.158  34.431  1.00  0.00     0.029 A 
ATOM     60  C   UNL A   1      43.572  30.471  33.354  1.00  0.00     0.049 A 
ATOM     61  H   UNL A   1      41.830  30.890  32.241  1.00  0.00     0.167 HD
ATOM     62  C   UNL A   1      43.477  28.662  31.662  1.00  0.00     0.074 A 
ATOM     63  C   UNL A   1      43.985  27.461  31.031  1.00  0.00     0.031 C 
ATOM     64  C   UNL A   1      44.072  29.285  32.708  1.00  0.00     0.031 A 
BRANCH  51  65
ATOM     65  C   UNL A   1      41.133  34.378  34.599  1.00  0.00    -0.014 A 
ATOM     66  C   UNL A   1      40.455  34.355  35.828  1.00  0.00     0.009 A 
ATOM     67  C   UNL A   1      41.832  35.538  34.231  1.00  0.00     0.009 A 
ATOM     68  C   UNL A   1      40.443  35.483  36.652  1.00  0.00     0.001 A 
ATOM     69  C   UNL A   1      41.842  36.655  35.070  1.00  0.00     0.001 A 
ATOM     70  C   UNL A   1      41.139  36.630  36.273  1.00  0.00     0.000 A 
ENDBRANCH  51  65
BRANCH  52  71
ATOM     71  C   UNL A   1      41.080  26.874  28.035  1.00  0.00    -0.014 A 
ATOM     72  C   UNL A   1      40.546  25.616  28.347  1.00  0.00     0.009 A 
ATOM     73  C   UNL A   1      41.618  27.087  26.755  1.00  0.00     0.009 A 
ATOM     74  C   UNL A   1      40.571  24.584  27.406  1.00  0.00     0.001 A 
ATOM     75  C   UNL A   1      41.618  26.062  25.808  1.00  0.00     0.001 A 
ATOM     76  C   UNL A   1      41.101  24.810  26.135  1.00  0.00     0.000 A 
ENDBRANCH  52  71
BRANCH  64  77
ATOM     77  C   UNL A   1      45.332  28.666  33.244  1.00  0.00    -0.014 A 
ATOM     78  C   UNL A   1      46.591  29.039  32.751  1.00  0.00     0.009 A 
ATOM     79  C   UNL A   1      45.257  27.717  34.275  1.00  0.00     0.009 A 
ATOM     80  C   UNL A   1      47.751  28.448  33.257  1.00  0.00     0.001 A 
ATOM     81  C   UNL A   1      46.420  27.148  34.798  1.00  0.00     0.001 A 
ATOM     82  C   UNL A   1      47.664  27.506  34.281  1.00  0.00     0.000 A 
ENDBRANCH  64  77
ENDBRANCH  38  39
ENDBRANCH  30  33
ENDBRANCH  28  29
ENDBRANCH  27  28
ENDBRANCH  26  27
ENDBRANCH   1  26
TORSDOF 16
ENDMDL
