MODEL 1
REMARK VINA RESULT:     -10.3      0.000      0.000
REMARK SMILES COc1ccccc1C[C@H](C[C@@H]1CCCCO1)C(=O)NCCCCCCNC(=O)c1ccc(-c2c3nc(c(-c4ccccc4)c4ccc([nH]4)c(-c4ccccc4)c4nc(c(-c5ccccc5)c5ccc2[nH]5)C=C4)C=C3)cc1
REMARK SMILES IDX 23 1 22 2 21 3 20 4 18 5 19 6 10 8 9 9 8 10 3 11 4 12 5 13
REMARK SMILES IDX 7 14 6 15 2 16 1 17 11 18 12 19 13 20 17 21 14 22 16 23
REMARK SMILES IDX 15 24 24 25 25 26 26 27 27 28 28 29 29 31 30 32 31 33 77 34
REMARK SMILES IDX 32 35 76 36 33 37 34 38 35 39 70 40 36 41 75 42 69 43 71 44
REMARK SMILES IDX 37 45 74 46 68 47 67 48 38 50 60 51 45 52 59 53 46 54 49 55
REMARK SMILES IDX 58 56 72 57 47 58 48 59 57 61 73 62 50 63 39 64 40 65 44 66
REMARK SMILES IDX 41 67 43 68 42 69 61 70 62 71 66 72 63 73 65 74 64 75 51 76
REMARK SMILES IDX 52 77 56 78 53 79 55 80 54 81
REMARK H PARENT 20 7 27 30 71 49 49 60
REMARK Flexibility Score: inf
ROOT
ATOM      1  C   UNL A   1      31.396  26.014  26.259  1.00  0.00     0.002 C 
ENDROOT
BRANCH   1   2
ATOM      2  C   UNL A   1      32.524  24.979  26.220  1.00  0.00     0.021 C 
BRANCH   2   3
ATOM      3  C   UNL A   1      32.068  23.530  26.318  1.00  0.00     0.116 C 
BRANCH   3   4
ATOM      4  N   UNL A   1      31.836  22.917  25.031  1.00  0.00    -0.356 N 
ATOM      5  C   UNL A   1      32.493  21.904  24.417  1.00  0.00     0.223 C 
ATOM      6  O   UNL A   1      31.947  21.398  23.432  1.00  0.00    -0.275 OA
ATOM      7  H   UNL A   1      31.084  23.294  24.520  1.00  0.00     0.163 HD
BRANCH   5   8
ATOM      8  C   UNL A   1      33.850  21.391  24.882  1.00  0.00     0.085 C 
BRANCH   8   9
ATOM      9  C   UNL A   1      35.032  21.895  24.018  1.00  0.00     0.053 C 
BRANCH   9  10
ATOM     10  C   UNL A   1      36.339  22.248  24.693  1.00  0.00    -0.005 A 
ATOM     11  C   UNL A   1      37.428  21.389  24.909  1.00  0.00     0.122 A 
ATOM     12  C   UNL A   1      38.486  21.811  25.734  1.00  0.00     0.047 A 
ATOM     13  C   UNL A   1      38.509  23.083  26.303  1.00  0.00     0.004 A 
ATOM     14  C   UNL A   1      36.421  23.559  25.220  1.00  0.00     0.007 A 
ATOM     15  C   UNL A   1      37.481  23.969  26.028  1.00  0.00     0.001 A 
BRANCH  11  16
ATOM     16  O   UNL A   1      37.573  20.084  24.527  1.00  0.00    -0.496 OA
ATOM     17  C   UNL A   1      38.453  19.250  25.260  1.00  0.00     0.278 C 
ENDBRANCH  11  16
ENDBRANCH   9  10
ENDBRANCH   8   9
BRANCH   8  18
ATOM     18  C   UNL A   1      33.853  19.912  25.318  1.00  0.00     0.046 C 
BRANCH  18  19
ATOM     19  C   UNL A   1      33.903  18.810  24.228  1.00  0.00     0.119 C 
ATOM     20  C   UNL A   1      32.598  18.035  24.087  1.00  0.00     0.032 C 
ATOM     21  O   UNL A   1      35.030  17.949  24.279  1.00  0.00    -0.378 OA
ATOM     22  C   UNL A   1      32.402  17.132  25.283  1.00  0.00     0.005 C 
ATOM     23  C   UNL A   1      34.957  16.754  25.053  1.00  0.00     0.160 C 
ATOM     24  C   UNL A   1      33.584  16.194  25.432  1.00  0.00     0.029 C 
ENDBRANCH  18  19
ENDBRANCH   8  18
ENDBRANCH   5   8
ENDBRANCH   3   4
ENDBRANCH   2   3
ENDBRANCH   1   2
BRANCH   1  25
ATOM     25  C   UNL A   1      31.811  27.478  26.069  1.00  0.00     0.002 C 
BRANCH  25  26
ATOM     26  C   UNL A   1      32.238  28.224  27.333  1.00  0.00     0.021 C 
BRANCH  26  27
ATOM     27  C   UNL A   1      33.645  28.802  27.291  1.00  0.00     0.116 C 
BRANCH  27  28
ATOM     28  N   UNL A   1      33.684  30.193  27.705  1.00  0.00    -0.352 N 
ATOM     29  C   UNL A   1      34.691  30.876  28.346  1.00  0.00     0.251 C 
ATOM     30  H   UNL A   1      32.879  30.720  27.499  1.00  0.00     0.163 HD
ATOM     31  O   UNL A   1      34.505  32.000  28.784  1.00  0.00    -0.269 OA
BRANCH  29  32
ATOM     32  C   UNL A   1      36.001  30.216  28.526  1.00  0.00     0.039 A 
ATOM     33  C   UNL A   1      36.916  30.231  27.470  1.00  0.00     0.014 A 
ATOM     34  C   UNL A   1      36.335  29.620  29.744  1.00  0.00     0.014 A 
ATOM     35  C   UNL A   1      38.198  29.716  27.665  1.00  0.00     0.010 A 
ATOM     36  C   UNL A   1      37.634  29.177  29.960  1.00  0.00     0.010 A 
ATOM     37  C   UNL A   1      38.580  29.227  28.925  1.00  0.00    -0.014 A 
BRANCH  37  38
ATOM     38  C   UNL A   1      39.970  28.782  29.193  1.00  0.00     0.031 A 
ATOM     39  C   UNL A   1      40.949  29.718  29.843  1.00  0.00     0.074 A 
ATOM     40  C   UNL A   1      40.369  27.563  28.783  1.00  0.00     0.049 A 
ATOM     41  N   UNL A   1      42.224  29.543  30.082  1.00  0.00    -0.248 NA
ATOM     42  C   UNL A   1      40.432  31.032  30.256  1.00  0.00     0.031 C 
ATOM     43  C   UNL A   1      39.521  26.570  28.120  1.00  0.00     0.029 A 
ATOM     44  N   UNL A   1      41.598  26.955  28.856  1.00  0.00    -0.354 N 
ATOM     45  C   UNL A   1      42.662  30.725  30.663  1.00  0.00     0.074 A 
ATOM     46  C   UNL A   1      41.532  31.629  30.689  1.00  0.00     0.031 C 
ATOM     47  C   UNL A   1      40.245  25.466  27.877  1.00  0.00     0.029 A 
ATOM     48  C   UNL A   1      41.618  25.691  28.317  1.00  0.00     0.049 A 
ATOM     49  H   UNL A   1      42.388  27.384  29.256  1.00  0.00     0.167 HD
ATOM     50  C   UNL A   1      43.890  31.027  31.150  1.00  0.00     0.031 A 
ATOM     51  C   UNL A   1      42.633  24.816  28.182  1.00  0.00     0.031 A 
ATOM     52  C   UNL A   1      45.015  30.131  31.114  1.00  0.00     0.049 A 
ATOM     53  C   UNL A   1      44.001  25.200  28.669  1.00  0.00     0.074 A 
ATOM     54  C   UNL A   1      46.290  30.327  31.615  1.00  0.00     0.029 A 
ATOM     55  N   UNL A   1      45.001  28.871  30.535  1.00  0.00    -0.354 N 
ATOM     56  N   UNL A   1      44.387  26.299  29.269  1.00  0.00    -0.248 NA
ATOM     57  C   UNL A   1      45.075  24.217  28.461  1.00  0.00     0.031 C 
ATOM     58  C   UNL A   1      47.065  29.210  31.286  1.00  0.00     0.029 A 
ATOM     59  C   UNL A   1      46.255  28.292  30.637  1.00  0.00     0.049 A 
ATOM     60  H   UNL A   1      44.217  28.451  30.115  1.00  0.00     0.167 HD
ATOM     61  C   UNL A   1      45.740  26.130  29.537  1.00  0.00     0.074 A 
ATOM     62  C   UNL A   1      46.103  24.816  29.045  1.00  0.00     0.031 C 
ATOM     63  C   UNL A   1      46.603  26.985  30.138  1.00  0.00     0.031 A 
BRANCH  50  64
ATOM     64  C   UNL A   1      44.076  32.395  31.747  1.00  0.00    -0.014 A 
ATOM     65  C   UNL A   1      44.348  33.511  30.940  1.00  0.00     0.009 A 
ATOM     66  C   UNL A   1      43.962  32.576  33.135  1.00  0.00     0.009 A 
ATOM     67  C   UNL A   1      44.550  34.769  31.512  1.00  0.00     0.001 A 
ATOM     68  C   UNL A   1      44.132  33.840  33.702  1.00  0.00     0.001 A 
ATOM     69  C   UNL A   1      44.438  34.932  32.892  1.00  0.00     0.000 A 
ENDBRANCH  50  64
BRANCH  51  70
ATOM     70  C   UNL A   1      42.390  23.484  27.568  1.00  0.00    -0.014 A 
ATOM     71  C   UNL A   1      42.610  23.286  26.196  1.00  0.00     0.009 A 
ATOM     72  C   UNL A   1      41.936  22.406  28.343  1.00  0.00     0.009 A 
ATOM     73  C   UNL A   1      42.358  22.044  25.611  1.00  0.00     0.001 A 
ATOM     74  C   UNL A   1      41.714  21.157  27.761  1.00  0.00     0.001 A 
ATOM     75  C   UNL A   1      41.916  20.979  26.394  1.00  0.00     0.000 A 
ENDBRANCH  51  70
BRANCH  63  76
ATOM     76  C   UNL A   1      48.018  26.515  30.329  1.00  0.00    -0.014 A 
ATOM     77  C   UNL A   1      48.408  25.828  31.489  1.00  0.00     0.009 A 
ATOM     78  C   UNL A   1      48.961  26.720  29.309  1.00  0.00     0.009 A 
ATOM     79  C   UNL A   1      49.723  25.380  31.634  1.00  0.00     0.001 A 
ATOM     80  C   UNL A   1      50.265  26.244  29.445  1.00  0.00     0.001 A 
ATOM     81  C   UNL A   1      50.647  25.582  30.609  1.00  0.00     0.000 A 
ENDBRANCH  63  76
ENDBRANCH  37  38
ENDBRANCH  29  32
ENDBRANCH  27  28
ENDBRANCH  26  27
ENDBRANCH  25  26
ENDBRANCH   1  25
TORSDOF 18
ENDMDL
MODEL 2
REMARK VINA RESULT:     -10.2      3.709      8.034
REMARK SMILES COc1ccccc1C[C@H](C[C@@H]1CCCCO1)C(=O)NCCCCCCNC(=O)c1ccc(-c2c3nc(c(-c4ccccc4)c4ccc([nH]4)c(-c4ccccc4)c4nc(c(-c5ccccc5)c5ccc2[nH]5)C=C4)C=C3)cc1
REMARK SMILES IDX 23 1 22 2 21 3 20 4 18 5 19 6 10 8 9 9 8 10 3 11 4 12 5 13
REMARK SMILES IDX 7 14 6 15 2 16 1 17 11 18 12 19 13 20 17 21 14 22 16 23
REMARK SMILES IDX 15 24 24 25 25 26 26 27 27 28 28 29 29 31 30 32 31 33 77 34
REMARK SMILES IDX 32 35 76 36 33 37 34 38 35 39 70 40 36 41 75 42 69 43 71 44
REMARK SMILES IDX 37 45 74 46 68 47 67 48 38 50 60 51 45 52 59 53 46 54 49 55
REMARK SMILES IDX 58 56 72 57 47 58 48 59 57 61 73 62 50 63 39 64 40 65 44 66
REMARK SMILES IDX 41 67 43 68 42 69 61 70 62 71 66 72 63 73 65 74 64 75 51 76
REMARK SMILES IDX 52 77 56 78 53 79 55 80 54 81
REMARK H PARENT 20 7 27 30 71 49 49 60
REMARK Flexibility Score: inf
ROOT
ATOM      1  C   UNL A   1      32.540  29.305  26.659  1.00  0.00     0.002 C 
ENDROOT
BRANCH   1   2
ATOM      2  C   UNL A   1      31.570  28.141  26.884  1.00  0.00     0.021 C 
BRANCH   2   3
ATOM      3  C   UNL A   1      32.119  26.768  26.522  1.00  0.00     0.116 C 
BRANCH   3   4
ATOM      4  N   UNL A   1      31.262  25.684  26.939  1.00  0.00    -0.356 N 
ATOM      5  C   UNL A   1      30.968  24.518  26.316  1.00  0.00     0.223 C 
ATOM      6  O   UNL A   1      30.407  23.648  26.991  1.00  0.00    -0.275 OA
ATOM      7  H   UNL A   1      30.824  25.810  27.811  1.00  0.00     0.163 HD
BRANCH   5   8
ATOM      8  C   UNL A   1      31.285  24.256  24.849  1.00  0.00     0.085 C 
BRANCH   8   9
ATOM      9  C   UNL A   1      30.250  24.865  23.873  1.00  0.00     0.053 C 
BRANCH   9  10
ATOM     10  C   UNL A   1      30.437  26.288  23.396  1.00  0.00    -0.005 A 
ATOM     11  C   UNL A   1      31.610  26.845  22.864  1.00  0.00     0.122 A 
ATOM     12  C   UNL A   1      31.683  28.235  22.661  1.00  0.00     0.047 A 
ATOM     13  C   UNL A   1      30.601  29.072  22.924  1.00  0.00     0.004 A 
ATOM     14  C   UNL A   1      29.328  27.148  23.584  1.00  0.00     0.007 A 
ATOM     15  C   UNL A   1      29.410  28.522  23.369  1.00  0.00     0.001 A 
BRANCH  11  16
ATOM     16  O   UNL A   1      32.808  26.233  22.618  1.00  0.00    -0.496 OA
ATOM     17  C   UNL A   1      32.920  25.375  21.495  1.00  0.00     0.278 C 
ENDBRANCH  11  16
ENDBRANCH   9  10
ENDBRANCH   8   9
BRANCH   8  18
ATOM     18  C   UNL A   1      31.802  22.832  24.557  1.00  0.00     0.046 C 
BRANCH  18  19
ATOM     19  C   UNL A   1      33.332  22.587  24.506  1.00  0.00     0.119 C 
ATOM     20  C   UNL A   1      33.724  21.133  24.739  1.00  0.00     0.032 C 
ATOM     21  O   UNL A   1      34.122  23.480  25.276  1.00  0.00    -0.378 OA
ATOM     22  C   UNL A   1      33.505  20.765  26.189  1.00  0.00     0.005 C 
ATOM     23  C   UNL A   1      34.421  23.151  26.631  1.00  0.00     0.160 C 
ATOM     24  C   UNL A   1      34.292  21.697  27.091  1.00  0.00     0.029 C 
ENDBRANCH  18  19
ENDBRANCH   8  18
ENDBRANCH   5   8
ENDBRANCH   3   4
ENDBRANCH   2   3
ENDBRANCH   1   2
BRANCH   1  25
ATOM     25  C   UNL A   1      31.971  30.534  25.940  1.00  0.00     0.002 C 
BRANCH  25  26
ATOM     26  C   UNL A   1      31.609  31.724  26.829  1.00  0.00     0.021 C 
BRANCH  26  27
ATOM     27  C   UNL A   1      32.795  32.547  27.310  1.00  0.00     0.116 C 
BRANCH  27  28
ATOM     28  N   UNL A   1      32.441  33.932  27.564  1.00  0.00    -0.352 N 
ATOM     29  C   UNL A   1      32.978  34.808  28.477  1.00  0.00     0.251 C 
ATOM     30  H   UNL A   1      31.715  34.293  27.006  1.00  0.00     0.163 HD
ATOM     31  O   UNL A   1      32.454  35.889  28.692  1.00  0.00    -0.269 OA
BRANCH  29  32
ATOM     32  C   UNL A   1      34.192  34.409  29.222  1.00  0.00     0.039 A 
ATOM     33  C   UNL A   1      34.049  33.842  30.491  1.00  0.00     0.014 A 
ATOM     34  C   UNL A   1      35.457  34.560  28.651  1.00  0.00     0.014 A 
ATOM     35  C   UNL A   1      35.175  33.353  31.155  1.00  0.00     0.010 A 
ATOM     36  C   UNL A   1      36.566  34.006  29.279  1.00  0.00     0.010 A 
ATOM     37  C   UNL A   1      36.434  33.391  30.534  1.00  0.00    -0.014 A 
BRANCH  37  38
ATOM     38  C   UNL A   1      37.627  32.774  31.165  1.00  0.00     0.031 A 
ATOM     39  C   UNL A   1      38.267  31.564  30.546  1.00  0.00     0.074 A 
ATOM     40  C   UNL A   1      38.085  33.257  32.336  1.00  0.00     0.049 A 
ATOM     41  N   UNL A   1      39.260  30.836  30.991  1.00  0.00    -0.248 NA
ATOM     42  C   UNL A   1      37.702  31.098  29.269  1.00  0.00     0.031 C 
ATOM     43  C   UNL A   1      37.537  34.412  33.050  1.00  0.00     0.029 A 
ATOM     44  N   UNL A   1      39.115  32.829  33.136  1.00  0.00    -0.354 N 
ATOM     45  C   UNL A   1      39.431  29.823  30.057  1.00  0.00     0.074 A 
ATOM     46  C   UNL A   1      38.405  29.997  29.051  1.00  0.00     0.031 C 
ATOM     47  C   UNL A   1      38.255  34.620  34.165  1.00  0.00     0.029 A 
ATOM     48  C   UNL A   1      39.279  33.585  34.272  1.00  0.00     0.049 A 
ATOM     49  H   UNL A   1      39.682  32.055  32.917  1.00  0.00     0.167 HD
ATOM     50  C   UNL A   1      40.369  28.847  30.027  1.00  0.00     0.031 A 
ATOM     51  C   UNL A   1      40.148  33.452  35.291  1.00  0.00     0.031 A 
ATOM     52  C   UNL A   1      41.382  28.669  31.034  1.00  0.00     0.049 A 
ATOM     53  C   UNL A   1      41.136  32.320  35.269  1.00  0.00     0.074 A 
ATOM     54  C   UNL A   1      42.401  27.734  31.076  1.00  0.00     0.029 A 
ATOM     55  N   UNL A   1      41.495  29.438  32.182  1.00  0.00    -0.354 N 
ATOM     56  N   UNL A   1      41.324  31.405  34.350  1.00  0.00    -0.248 NA
ATOM     57  C   UNL A   1      42.035  32.206  36.427  1.00  0.00     0.031 C 
ATOM     58  C   UNL A   1      43.096  27.900  32.279  1.00  0.00     0.029 A 
ATOM     59  C   UNL A   1      42.548  28.978  32.956  1.00  0.00     0.049 A 
ATOM     60  H   UNL A   1      40.915  30.199  32.412  1.00  0.00     0.167 HD
ATOM     61  C   UNL A   1      42.379  30.624  34.803  1.00  0.00     0.074 A 
ATOM     62  C   UNL A   1      42.799  31.182  36.072  1.00  0.00     0.031 C 
ATOM     63  C   UNL A   1      42.951  29.542  34.219  1.00  0.00     0.031 A 
BRANCH  50  64
ATOM     64  C   UNL A   1      40.325  27.885  28.872  1.00  0.00    -0.014 A 
ATOM     65  C   UNL A   1      41.004  28.156  27.672  1.00  0.00     0.009 A 
ATOM     66  C   UNL A   1      39.607  26.684  28.986  1.00  0.00     0.009 A 
ATOM     67  C   UNL A   1      40.927  27.269  26.597  1.00  0.00     0.001 A 
ATOM     68  C   UNL A   1      39.560  25.783  27.921  1.00  0.00     0.001 A 
ATOM     69  C   UNL A   1      40.208  26.082  26.724  1.00  0.00     0.000 A 
ENDBRANCH  50  64
BRANCH  51  70
ATOM     70  C   UNL A   1      40.132  34.425  36.415  1.00  0.00    -0.014 A 
ATOM     71  C   UNL A   1      40.930  35.579  36.364  1.00  0.00     0.009 A 
ATOM     72  C   UNL A   1      39.327  34.208  37.544  1.00  0.00     0.009 A 
ATOM     73  C   UNL A   1      40.938  36.482  37.429  1.00  0.00     0.001 A 
ATOM     74  C   UNL A   1      39.315  35.128  38.594  1.00  0.00     0.001 A 
ATOM     75  C   UNL A   1      40.127  36.259  38.540  1.00  0.00     0.000 A 
ENDBRANCH  51  70
BRANCH  63  76
ATOM     76  C   UNL A   1      44.115  28.910  34.930  1.00  0.00    -0.014 A 
ATOM     77  C   UNL A   1      43.930  27.860  35.843  1.00  0.00     0.009 A 
ATOM     78  C   UNL A   1      45.420  29.340  34.643  1.00  0.00     0.009 A 
ATOM     79  C   UNL A   1      45.028  27.272  36.473  1.00  0.00     0.001 A 
ATOM     80  C   UNL A   1      46.517  28.730  35.252  1.00  0.00     0.001 A 
ATOM     81  C   UNL A   1      46.320  27.702  36.172  1.00  0.00     0.000 A 
ENDBRANCH  63  76
ENDBRANCH  37  38
ENDBRANCH  29  32
ENDBRANCH  27  28
ENDBRANCH  26  27
ENDBRANCH  25  26
ENDBRANCH   1  25
TORSDOF 18
ENDMDL
MODEL 3
REMARK VINA RESULT:     -10.2      3.121      5.287
REMARK SMILES COc1ccccc1C[C@H](C[C@@H]1CCCCO1)C(=O)NCCCCCCNC(=O)c1ccc(-c2c3nc(c(-c4ccccc4)c4ccc([nH]4)c(-c4ccccc4)c4nc(c(-c5ccccc5)c5ccc2[nH]5)C=C4)C=C3)cc1
REMARK SMILES IDX 23 1 22 2 21 3 20 4 18 5 19 6 10 8 9 9 8 10 3 11 4 12 5 13
REMARK SMILES IDX 7 14 6 15 2 16 1 17 11 18 12 19 13 20 17 21 14 22 16 23
REMARK SMILES IDX 15 24 24 25 25 26 26 27 27 28 28 29 29 31 30 32 31 33 77 34
REMARK SMILES IDX 32 35 76 36 33 37 34 38 35 39 70 40 36 41 75 42 69 43 71 44
REMARK SMILES IDX 37 45 74 46 68 47 67 48 38 50 60 51 45 52 59 53 46 54 49 55
REMARK SMILES IDX 58 56 72 57 47 58 48 59 57 61 73 62 50 63 39 64 40 65 44 66
REMARK SMILES IDX 41 67 43 68 42 69 61 70 62 71 66 72 63 73 65 74 64 75 51 76
REMARK SMILES IDX 52 77 56 78 53 79 55 80 54 81
REMARK H PARENT 20 7 27 30 71 49 49 60
REMARK Flexibility Score: inf
ROOT
ATOM      1  C   UNL A   1      32.336  29.272  26.439  1.00  0.00     0.002 C 
ENDROOT
BRANCH   1   2
ATOM      2  C   UNL A   1      31.517  27.993  26.233  1.00  0.00     0.021 C 
BRANCH   2   3
ATOM      3  C   UNL A   1      32.256  26.700  26.548  1.00  0.00     0.116 C 
BRANCH   3   4
ATOM      4  N   UNL A   1      31.378  25.624  26.944  1.00  0.00    -0.356 N 
ATOM      5  C   UNL A   1      31.049  24.484  26.292  1.00  0.00     0.223 C 
ATOM      6  O   UNL A   1      30.476  23.609  26.948  1.00  0.00    -0.275 OA
ATOM      7  H   UNL A   1      30.953  25.736  27.824  1.00  0.00     0.163 HD
BRANCH   5   8
ATOM      8  C   UNL A   1      31.344  24.257  24.814  1.00  0.00     0.085 C 
BRANCH   8   9
ATOM      9  C   UNL A   1      30.224  24.766  23.873  1.00  0.00     0.053 C 
BRANCH   9  10
ATOM     10  C   UNL A   1      30.290  26.184  23.351  1.00  0.00    -0.005 A 
ATOM     11  C   UNL A   1      31.395  26.801  22.743  1.00  0.00     0.122 A 
ATOM     12  C   UNL A   1      31.363  28.186  22.501  1.00  0.00     0.047 A 
ATOM     13  C   UNL A   1      30.242  28.958  22.801  1.00  0.00     0.004 A 
ATOM     14  C   UNL A   1      29.138  26.974  23.578  1.00  0.00     0.007 A 
ATOM     15  C   UNL A   1      29.116  28.345  23.324  1.00  0.00     0.001 A 
BRANCH  11  16
ATOM     16  O   UNL A   1      32.616  26.262  22.447  1.00  0.00    -0.496 OA
ATOM     17  C   UNL A   1      32.744  25.448  21.293  1.00  0.00     0.278 C 
ENDBRANCH  11  16
ENDBRANCH   9  10
ENDBRANCH   8   9
BRANCH   8  18
ATOM     18  C   UNL A   1      31.986  22.891  24.498  1.00  0.00     0.046 C 
BRANCH  18  19
ATOM     19  C   UNL A   1      33.488  22.840  24.115  1.00  0.00     0.119 C 
ATOM     20  C   UNL A   1      34.210  21.608  24.648  1.00  0.00     0.032 C 
ATOM     21  O   UNL A   1      34.222  24.031  24.355  1.00  0.00    -0.378 OA
ATOM     22  C   UNL A   1      34.384  21.718  26.145  1.00  0.00     0.005 C 
ATOM     23  C   UNL A   1      34.862  24.211  25.616  1.00  0.00     0.160 C 
ATOM     24  C   UNL A   1      35.135  22.988  26.495  1.00  0.00     0.029 C 
ENDBRANCH  18  19
ENDBRANCH   8  18
ENDBRANCH   5   8
ENDBRANCH   3   4
ENDBRANCH   2   3
ENDBRANCH   1   2
BRANCH   1  25
ATOM     25  C   UNL A   1      31.758  30.554  25.828  1.00  0.00     0.002 C 
BRANCH  25  26
ATOM     26  C   UNL A   1      31.525  31.713  26.797  1.00  0.00     0.021 C 
BRANCH  26  27
ATOM     27  C   UNL A   1      32.784  32.454  27.223  1.00  0.00     0.116 C 
BRANCH  27  28
ATOM     28  N   UNL A   1      32.518  33.834  27.588  1.00  0.00    -0.352 N 
ATOM     29  C   UNL A   1      33.154  34.620  28.519  1.00  0.00     0.251 C 
ATOM     30  H   UNL A   1      31.779  34.266  27.101  1.00  0.00     0.163 HD
ATOM     31  O   UNL A   1      32.700  35.708  28.835  1.00  0.00    -0.269 OA
BRANCH  29  32
ATOM     32  C   UNL A   1      34.387  34.115  29.159  1.00  0.00     0.039 A 
ATOM     33  C   UNL A   1      34.282  33.375  30.339  1.00  0.00     0.014 A 
ATOM     34  C   UNL A   1      35.634  34.340  28.572  1.00  0.00     0.014 A 
ATOM     35  C   UNL A   1      35.424  32.792  30.888  1.00  0.00     0.010 A 
ATOM     36  C   UNL A   1      36.758  33.697  29.078  1.00  0.00     0.010 A 
ATOM     37  C   UNL A   1      36.663  32.912  30.237  1.00  0.00    -0.014 A 
BRANCH  37  38
ATOM     38  C   UNL A   1      37.870  32.207  30.734  1.00  0.00     0.031 A 
ATOM     39  C   UNL A   1      38.673  32.788  31.862  1.00  0.00     0.074 A 
ATOM     40  C   UNL A   1      38.284  31.083  30.118  1.00  0.00     0.049 A 
ATOM     41  N   UNL A   1      39.799  32.365  32.378  1.00  0.00    -0.248 NA
ATOM     42  C   UNL A   1      38.153  34.020  32.476  1.00  0.00     0.031 C 
ATOM     43  C   UNL A   1      37.605  30.430  28.996  1.00  0.00     0.029 A 
ATOM     44  N   UNL A   1      39.384  30.294  30.344  1.00  0.00    -0.354 N 
ATOM     45  C   UNL A   1      40.127  33.282  33.367  1.00  0.00     0.074 A 
ATOM     46  C   UNL A   1      39.111  34.313  33.342  1.00  0.00     0.031 C 
ATOM     47  C   UNL A   1      38.285  29.324  28.655  1.00  0.00     0.029 A 
ATOM     48  C   UNL A   1      39.474  29.218  29.495  1.00  0.00     0.049 A 
ATOM     49  H   UNL A   1      40.046  30.482  31.049  1.00  0.00     0.167 HD
ATOM     50  C   UNL A   1      41.168  33.260  34.233  1.00  0.00     0.031 A 
ATOM     51  C   UNL A   1      40.415  28.260  29.396  1.00  0.00     0.031 A 
ATOM     52  C   UNL A   1      42.182  32.239  34.250  1.00  0.00     0.049 A 
ATOM     53  C   UNL A   1      41.596  28.294  30.324  1.00  0.00     0.074 A 
ATOM     54  C   UNL A   1      43.256  32.106  35.111  1.00  0.00     0.029 A 
ATOM     55  N   UNL A   1      42.252  31.183  33.355  1.00  0.00    -0.354 N 
ATOM     56  N   UNL A   1      41.862  29.135  31.293  1.00  0.00    -0.248 NA
ATOM     57  C   UNL A   1      42.607  27.242  30.144  1.00  0.00     0.031 C 
ATOM     58  C   UNL A   1      44.010  31.001  34.701  1.00  0.00     0.029 A 
ATOM     59  C   UNL A   1      43.370  30.411  33.623  1.00  0.00     0.049 A 
ATOM     60  H   UNL A   1      41.603  31.007  32.637  1.00  0.00     0.167 HD
ATOM     61  C   UNL A   1      43.054  28.699  31.858  1.00  0.00     0.074 A 
ATOM     62  C   UNL A   1      43.451  27.510  31.130  1.00  0.00     0.031 C 
ATOM     63  C   UNL A   1      43.755  29.233  32.887  1.00  0.00     0.031 A 
BRANCH  50  64
ATOM     64  C   UNL A   1      41.264  34.389  35.222  1.00  0.00    -0.014 A 
ATOM     65  C   UNL A   1      40.639  34.314  36.478  1.00  0.00     0.009 A 
ATOM     66  C   UNL A   1      42.003  35.540  34.902  1.00  0.00     0.009 A 
ATOM     67  C   UNL A   1      40.712  35.384  37.372  1.00  0.00     0.001 A 
ATOM     68  C   UNL A   1      42.102  36.594  35.811  1.00  0.00     0.001 A 
ATOM     69  C   UNL A   1      41.446  36.521  37.039  1.00  0.00     0.000 A 
ENDBRANCH  50  64
BRANCH  51  70
ATOM     70  C   UNL A   1      40.272  27.178  28.387  1.00  0.00    -0.014 A 
ATOM     71  C   UNL A   1      39.559  26.009  28.698  1.00  0.00     0.009 A 
ATOM     72  C   UNL A   1      40.848  27.301  27.113  1.00  0.00     0.009 A 
ATOM     73  C   UNL A   1      39.444  24.980  27.761  1.00  0.00     0.001 A 
ATOM     74  C   UNL A   1      40.707  26.282  26.169  1.00  0.00     0.001 A 
ATOM     75  C   UNL A   1      40.013  25.119  26.497  1.00  0.00     0.000 A 
ENDBRANCH  51  70
BRANCH  63  76
ATOM     76  C   UNL A   1      45.008  28.519  33.312  1.00  0.00    -0.014 A 
ATOM     77  C   UNL A   1      44.970  27.476  34.251  1.00  0.00     0.009 A 
ATOM     78  C   UNL A   1      46.236  28.862  32.725  1.00  0.00     0.009 A 
ATOM     79  C   UNL A   1      46.143  26.811  34.613  1.00  0.00     0.001 A 
ATOM     80  C   UNL A   1      47.401  28.175  33.066  1.00  0.00     0.001 A 
ATOM     81  C   UNL A   1      47.355  27.156  34.016  1.00  0.00     0.000 A 
ENDBRANCH  63  76
ENDBRANCH  37  38
ENDBRANCH  29  32
ENDBRANCH  27  28
ENDBRANCH  26  27
ENDBRANCH  25  26
ENDBRANCH   1  25
TORSDOF 18
ENDMDL
