MODEL 1
REMARK VINA RESULT:     -11.3      0.000      0.000
REMARK SMILES C[C@@]1(CN2C(=O)c3ccc(C(=O)NCCCCCCNC(=O)c4ccc(-c5c6nc(c(-c7ccccc7)c7ccc([nH]7)c(-c7ccccc7)c7nc(c(-c8ccccc8)c8ccc5[nH]8)C=C7)C=C6)cc4)cc3C2=O)CCCO1
REMARK SMILES IDX 16 1 15 2 14 3 13 4 11 5 12 6 10 8 4 9 5 10 73 11 6 12 7 13
REMARK SMILES IDX 72 14 74 15 8 16 71 17 9 18 3 19 2 20 1 21 75 22 78 23 76 24
REMARK SMILES IDX 77 25 17 26 18 27 19 28 20 29 21 30 22 32 23 33 24 34 70 35
REMARK SMILES IDX 25 36 69 37 26 38 27 39 28 40 63 41 29 42 68 43 62 44 64 45
REMARK SMILES IDX 30 46 67 47 61 48 60 49 31 51 53 52 38 53 52 54 39 55 42 56
REMARK SMILES IDX 51 57 65 58 40 59 41 60 50 62 66 63 43 64 32 65 33 66 37 67
REMARK SMILES IDX 34 68 36 69 35 70 54 71 55 72 59 73 56 74 58 75 57 76 44 77
REMARK SMILES IDX 45 78 49 79 46 80 48 81 47 82
REMARK H PARENT 13 7 20 31 64 50 42 61
REMARK Flexibility Score: inf
ROOT
ATOM      1  C   UNL A   1      31.274  30.379  24.781  1.00  0.00     0.002 C 
ENDROOT
BRANCH   1   2
ATOM      2  C   UNL A   1      30.725  28.998  24.398  1.00  0.00     0.021 C 
BRANCH   2   3
ATOM      3  C   UNL A   1      30.876  28.686  22.907  1.00  0.00     0.116 C 
BRANCH   3   4
ATOM      4  N   UNL A   1      32.223  28.987  22.472  1.00  0.00    -0.352 N 
ATOM      5  C   UNL A   1      33.440  28.424  22.742  1.00  0.00     0.251 C 
ATOM      6  O   UNL A   1      34.425  28.927  22.201  1.00  0.00    -0.269 OA
ATOM      7  H   UNL A   1      32.273  29.752  21.855  1.00  0.00     0.163 HD
BRANCH   5   8
ATOM      8  C   UNL A   1      33.637  27.230  23.616  1.00  0.00     0.040 A 
ATOM      9  N   UNL A   1      34.102  22.743  24.540  1.00  0.00    -0.271 N 
ATOM     10  C   UNL A   1      34.211  23.579  25.611  1.00  0.00     0.261 C 
ATOM     11  C   UNL A   1      33.949  23.435  23.366  1.00  0.00     0.261 C 
ATOM     12  O   UNL A   1      34.439  23.321  26.779  1.00  0.00    -0.269 OA
ATOM     13  C   UNL A   1      34.012  24.928  25.105  1.00  0.00     0.053 A 
ATOM     14  C   UNL A   1      33.860  24.850  23.736  1.00  0.00     0.054 A 
ATOM     15  O   UNL A   1      33.930  23.028  22.223  1.00  0.00    -0.269 OA
ATOM     16  C   UNL A   1      33.992  26.126  25.781  1.00  0.00     0.015 A 
ATOM     17  C   UNL A   1      33.670  25.980  22.964  1.00  0.00     0.028 A 
ATOM     18  C   UNL A   1      33.834  27.286  25.015  1.00  0.00     0.015 A 
BRANCH   9  19
ATOM     19  C   UNL A   1      34.157  21.295  24.640  1.00  0.00     0.164 C 
BRANCH  19  20
ATOM     20  C   UNL A   1      32.752  20.634  24.738  1.00  0.00     0.084 C 
ATOM     21  C   UNL A   1      31.701  21.550  25.366  1.00  0.00     0.044 C 
ATOM     22  C   UNL A   1      32.829  19.308  25.498  1.00  0.00     0.039 C 
ATOM     23  O   UNL A   1      32.302  20.285  23.411  1.00  0.00    -0.373 OA
ATOM     24  C   UNL A   1      33.203  18.325  24.416  1.00  0.00     0.031 C 
ATOM     25  C   UNL A   1      32.481  18.878  23.206  1.00  0.00     0.161 C 
ENDBRANCH  19  20
ENDBRANCH   9  19
ENDBRANCH   5   8
ENDBRANCH   3   4
ENDBRANCH   2   3
ENDBRANCH   1   2
BRANCH   1  26
ATOM     26  C   UNL A   1      31.477  30.590  26.286  1.00  0.00     0.002 C 
BRANCH  26  27
ATOM     27  C   UNL A   1      31.399  32.048  26.740  1.00  0.00     0.021 C 
BRANCH  27  28
ATOM     28  C   UNL A   1      32.694  32.568  27.351  1.00  0.00     0.116 C 
BRANCH  28  29
ATOM     29  N   UNL A   1      32.555  33.948  27.792  1.00  0.00    -0.352 N 
ATOM     30  C   UNL A   1      33.277  34.623  28.743  1.00  0.00     0.251 C 
ATOM     31  H   UNL A   1      31.846  34.468  27.349  1.00  0.00     0.163 HD
ATOM     32  O   UNL A   1      32.879  35.692  29.191  1.00  0.00    -0.269 OA
BRANCH  30  33
ATOM     33  C   UNL A   1      34.542  34.039  29.228  1.00  0.00     0.039 A 
ATOM     34  C   UNL A   1      34.540  33.265  30.389  1.00  0.00     0.014 A 
ATOM     35  C   UNL A   1      35.726  34.251  28.517  1.00  0.00     0.014 A 
ATOM     36  C   UNL A   1      35.722  32.653  30.809  1.00  0.00     0.010 A 
ATOM     37  C   UNL A   1      36.881  33.577  28.889  1.00  0.00     0.010 A 
ATOM     38  C   UNL A   1      36.893  32.779  30.043  1.00  0.00    -0.014 A 
BRANCH  38  39
ATOM     39  C   UNL A   1      38.154  32.103  30.432  1.00  0.00     0.031 A 
ATOM     40  C   UNL A   1      39.101  32.784  31.383  1.00  0.00     0.074 A 
ATOM     41  C   UNL A   1      38.483  30.922  29.876  1.00  0.00     0.049 A 
ATOM     42  N   UNL A   1      40.298  32.415  31.762  1.00  0.00    -0.248 NA
ATOM     43  C   UNL A   1      38.652  34.060  31.964  1.00  0.00     0.031 C 
ATOM     44  C   UNL A   1      37.659  30.171  28.926  1.00  0.00     0.029 A 
ATOM     45  N   UNL A   1      39.606  30.148  30.025  1.00  0.00    -0.354 N 
ATOM     46  C   UNL A   1      40.748  33.420  32.610  1.00  0.00     0.074 A 
ATOM     47  C   UNL A   1      39.724  34.439  32.644  1.00  0.00     0.031 C 
ATOM     48  C   UNL A   1      38.295  29.035  28.596  1.00  0.00     0.029 A 
ATOM     49  C   UNL A   1      39.589  29.000  29.269  1.00  0.00     0.049 A 
ATOM     50  H   UNL A   1      40.354  30.392  30.616  1.00  0.00     0.167 HD
ATOM     51  C   UNL A   1      41.903  33.478  33.314  1.00  0.00     0.031 A 
ATOM     52  C   UNL A   1      40.518  28.037  29.124  1.00  0.00     0.031 A 
ATOM     53  C   UNL A   1      42.918  32.461  33.280  1.00  0.00     0.049 A 
ATOM     54  C   UNL A   1      41.816  28.153  29.878  1.00  0.00     0.074 A 
ATOM     55  C   UNL A   1      44.108  32.408  33.985  1.00  0.00     0.029 A 
ATOM     56  N   UNL A   1      42.863  31.318  32.499  1.00  0.00    -0.354 N 
ATOM     57  N   UNL A   1      42.205  29.083  30.716  1.00  0.00    -0.248 NA
ATOM     58  C   UNL A   1      42.798  27.080  29.671  1.00  0.00     0.031 C 
ATOM     59  C   UNL A   1      44.800  31.261  33.586  1.00  0.00     0.029 A 
ATOM     60  C   UNL A   1      44.009  30.565  32.687  1.00  0.00     0.049 A 
ATOM     61  H   UNL A   1      42.120  31.077  31.900  1.00  0.00     0.167 HD
ATOM     62  C   UNL A   1      43.459  28.686  31.166  1.00  0.00     0.074 A 
ATOM     63  C   UNL A   1      43.758  27.428  30.516  1.00  0.00     0.031 C 
ATOM     64  C   UNL A   1      44.285  29.307  32.043  1.00  0.00     0.031 A 
BRANCH  51  65
ATOM     65  C   UNL A   1      42.129  34.689  34.177  1.00  0.00    -0.014 A 
ATOM     66  C   UNL A   1      42.732  35.848  33.661  1.00  0.00     0.009 A 
ATOM     67  C   UNL A   1      41.697  34.687  35.513  1.00  0.00     0.009 A 
ATOM     68  C   UNL A   1      42.931  36.964  34.475  1.00  0.00     0.001 A 
ATOM     69  C   UNL A   1      41.868  35.817  36.314  1.00  0.00     0.001 A 
ATOM     70  C   UNL A   1      42.494  36.950  35.799  1.00  0.00     0.000 A 
ENDBRANCH  51  65
BRANCH  52  71
ATOM     71  C   UNL A   1      40.264  26.873  28.233  1.00  0.00    -0.014 A 
ATOM     72  C   UNL A   1      40.742  26.871  26.913  1.00  0.00     0.009 A 
ATOM     73  C   UNL A   1      39.524  25.770  28.685  1.00  0.00     0.009 A 
ATOM     74  C   UNL A   1      40.449  25.809  26.054  1.00  0.00     0.001 A 
ATOM     75  C   UNL A   1      39.262  24.694  27.835  1.00  0.00     0.001 A 
ATOM     76  C   UNL A   1      39.712  24.720  26.517  1.00  0.00     0.000 A 
ENDBRANCH  52  71
BRANCH  64  77
ATOM     77  C   UNL A   1      45.568  28.610  32.399  1.00  0.00    -0.014 A 
ATOM     78  C   UNL A   1      45.635  27.687  33.454  1.00  0.00     0.009 A 
ATOM     79  C   UNL A   1      46.715  28.838  31.620  1.00  0.00     0.009 A 
ATOM     80  C   UNL A   1      46.834  27.028  33.738  1.00  0.00     0.001 A 
ATOM     81  C   UNL A   1      47.900  28.153  31.885  1.00  0.00     0.001 A 
ATOM     82  C   UNL A   1      47.961  27.255  32.949  1.00  0.00     0.000 A 
ENDBRANCH  64  77
ENDBRANCH  38  39
ENDBRANCH  30  33
ENDBRANCH  28  29
ENDBRANCH  27  28
ENDBRANCH  26  27
ENDBRANCH   1  26
TORSDOF 15
ENDMDL
MODEL 2
REMARK VINA RESULT:     -11.3      3.051      9.053
REMARK SMILES C[C@@]1(CN2C(=O)c3ccc(C(=O)NCCCCCCNC(=O)c4ccc(-c5c6nc(c(-c7ccccc7)c7ccc([nH]7)c(-c7ccccc7)c7nc(c(-c8ccccc8)c8ccc5[nH]8)C=C7)C=C6)cc4)cc3C2=O)CCCO1
REMARK SMILES IDX 16 1 15 2 14 3 13 4 11 5 12 6 10 8 4 9 5 10 73 11 6 12 7 13
REMARK SMILES IDX 72 14 74 15 8 16 71 17 9 18 3 19 2 20 1 21 75 22 78 23 76 24
REMARK SMILES IDX 77 25 17 26 18 27 19 28 20 29 21 30 22 32 23 33 24 34 70 35
REMARK SMILES IDX 25 36 69 37 26 38 27 39 28 40 63 41 29 42 68 43 62 44 64 45
REMARK SMILES IDX 30 46 67 47 61 48 60 49 31 51 53 52 38 53 52 54 39 55 42 56
REMARK SMILES IDX 51 57 65 58 40 59 41 60 50 62 66 63 43 64 32 65 33 66 37 67
REMARK SMILES IDX 34 68 36 69 35 70 54 71 55 72 59 73 56 74 58 75 57 76 44 77
REMARK SMILES IDX 45 78 49 79 46 80 48 81 47 82
REMARK H PARENT 13 7 20 31 64 50 42 61
REMARK Flexibility Score: inf
ROOT
ATOM      1  C   UNL A   1      34.884  21.406  25.027  1.00  0.00     0.002 C 
ENDROOT
BRANCH   1   2
ATOM      2  C   UNL A   1      35.247  22.714  24.312  1.00  0.00     0.021 C 
BRANCH   2   3
ATOM      3  C   UNL A   1      34.712  23.957  25.029  1.00  0.00     0.116 C 
BRANCH   3   4
ATOM      4  N   UNL A   1      33.644  23.586  25.932  1.00  0.00    -0.352 N 
ATOM      5  C   UNL A   1      32.548  24.253  26.408  1.00  0.00     0.251 C 
ATOM      6  O   UNL A   1      31.813  23.645  27.185  1.00  0.00    -0.269 OA
ATOM      7  H   UNL A   1      33.721  22.667  26.273  1.00  0.00     0.163 HD
BRANCH   5   8
ATOM      8  C   UNL A   1      32.180  25.647  26.018  1.00  0.00     0.040 A 
ATOM      9  N   UNL A   1      30.570  28.928  23.216  1.00  0.00    -0.271 N 
ATOM     10  C   UNL A   1      30.941  29.345  24.460  1.00  0.00     0.261 C 
ATOM     11  C   UNL A   1      30.686  27.568  23.079  1.00  0.00     0.261 C 
ATOM     12  O   UNL A   1      30.887  30.456  24.956  1.00  0.00    -0.269 OA
ATOM     13  C   UNL A   1      31.433  28.169  25.161  1.00  0.00     0.053 A 
ATOM     14  C   UNL A   1      31.274  27.080  24.329  1.00  0.00     0.054 A 
ATOM     15  O   UNL A   1      30.348  26.850  22.161  1.00  0.00    -0.269 OA
ATOM     16  C   UNL A   1      31.953  28.057  26.430  1.00  0.00     0.015 A 
ATOM     17  C   UNL A   1      31.637  25.808  24.726  1.00  0.00     0.028 A 
ATOM     18  C   UNL A   1      32.298  26.773  26.865  1.00  0.00     0.015 A 
BRANCH   9  19
ATOM     19  C   UNL A   1      30.100  29.823  22.174  1.00  0.00     0.164 C 
BRANCH  19  20
ATOM     20  C   UNL A   1      28.602  30.212  22.332  1.00  0.00     0.084 C 
ATOM     21  C   UNL A   1      27.748  29.087  22.918  1.00  0.00     0.044 C 
ATOM     22  C   UNL A   1      28.021  30.684  20.997  1.00  0.00     0.039 C 
ATOM     23  O   UNL A   1      28.502  31.352  23.213  1.00  0.00    -0.373 OA
ATOM     24  C   UNL A   1      28.387  32.148  20.973  1.00  0.00     0.031 C 
ATOM     25  C   UNL A   1      28.288  32.536  22.433  1.00  0.00     0.161 C 
ENDBRANCH  19  20
ENDBRANCH   9  19
ENDBRANCH   5   8
ENDBRANCH   3   4
ENDBRANCH   2   3
ENDBRANCH   1   2
BRANCH   1  26
ATOM     26  C   UNL A   1      35.977  20.332  24.986  1.00  0.00     0.002 C 
BRANCH  26  27
ATOM     27  C   UNL A   1      37.344  20.833  24.519  1.00  0.00     0.021 C 
BRANCH  27  28
ATOM     28  C   UNL A   1      38.342  21.030  25.652  1.00  0.00     0.116 C 
BRANCH  28  29
ATOM     29  N   UNL A   1      39.307  19.939  25.704  1.00  0.00    -0.352 N 
ATOM     30  C   UNL A   1      40.649  19.992  25.980  1.00  0.00     0.251 C 
ATOM     31  H   UNL A   1      38.946  19.043  25.514  1.00  0.00     0.163 HD
ATOM     32  O   UNL A   1      41.378  19.039  25.732  1.00  0.00    -0.269 OA
BRANCH  30  33
ATOM     33  C   UNL A   1      41.208  21.220  26.576  1.00  0.00     0.039 A 
ATOM     34  C   UNL A   1      41.783  22.185  25.747  1.00  0.00     0.014 A 
ATOM     35  C   UNL A   1      41.147  21.416  27.958  1.00  0.00     0.014 A 
ATOM     36  C   UNL A   1      42.248  23.378  26.303  1.00  0.00     0.010 A 
ATOM     37  C   UNL A   1      41.535  22.634  28.498  1.00  0.00     0.010 A 
ATOM     38  C   UNL A   1      42.097  23.623  27.677  1.00  0.00    -0.014 A 
BRANCH  38  39
ATOM     39  C   UNL A   1      42.535  24.900  28.293  1.00  0.00     0.031 A 
ATOM     40  C   UNL A   1      41.534  26.002  28.512  1.00  0.00     0.074 A 
ATOM     41  C   UNL A   1      43.835  25.096  28.580  1.00  0.00     0.049 A 
ATOM     42  N   UNL A   1      41.732  27.226  28.931  1.00  0.00    -0.248 NA
ATOM     43  C   UNL A   1      40.129  25.695  28.194  1.00  0.00     0.031 C 
ATOM     44  C   UNL A   1      44.905  24.113  28.394  1.00  0.00     0.029 A 
ATOM     45  N   UNL A   1      44.481  26.197  29.083  1.00  0.00    -0.354 N 
ATOM     46  C   UNL A   1      40.483  27.835  28.910  1.00  0.00     0.074 A 
ATOM     47  C   UNL A   1      39.547  26.868  28.384  1.00  0.00     0.031 C 
ATOM     48  C   UNL A   1      46.068  24.647  28.801  1.00  0.00     0.029 A 
ATOM     49  C   UNL A   1      45.836  26.024  29.226  1.00  0.00     0.049 A 
ATOM     50  H   UNL A   1      44.018  27.033  29.319  1.00  0.00     0.167 HD
ATOM     51  C   UNL A   1      40.144  29.082  29.314  1.00  0.00     0.031 A 
ATOM     52  C   UNL A   1      46.788  26.882  29.640  1.00  0.00     0.031 A 
ATOM     53  C   UNL A   1      41.078  30.040  29.840  1.00  0.00     0.049 A 
ATOM     54  C   UNL A   1      46.390  28.280  30.034  1.00  0.00     0.074 A 
ATOM     55  C   UNL A   1      40.828  31.317  30.311  1.00  0.00     0.029 A 
ATOM     56  N   UNL A   1      42.441  29.826  29.964  1.00  0.00    -0.354 N 
ATOM     57  N   UNL A   1      45.197  28.825  30.058  1.00  0.00    -0.248 NA
ATOM     58  C   UNL A   1      47.471  29.178  30.464  1.00  0.00     0.031 C 
ATOM     59  C   UNL A   1      42.049  31.896  30.666  1.00  0.00     0.029 A 
ATOM     60  C   UNL A   1      43.050  30.955  30.482  1.00  0.00     0.049 A 
ATOM     61  H   UNL A   1      42.908  28.993  29.720  1.00  0.00     0.167 HD
ATOM     62  C   UNL A   1      45.380  30.113  30.544  1.00  0.00     0.074 A 
ATOM     63  C   UNL A   1      46.795  30.265  30.811  1.00  0.00     0.031 C 
ATOM     64  C   UNL A   1      44.457  31.083  30.756  1.00  0.00     0.031 A 
BRANCH  51  65
ATOM     65  C   UNL A   1      38.699  29.480  29.195  1.00  0.00    -0.014 A 
ATOM     66  C   UNL A   1      38.172  29.955  27.983  1.00  0.00     0.009 A 
ATOM     67  C   UNL A   1      37.841  29.341  30.298  1.00  0.00     0.009 A 
ATOM     68  C   UNL A   1      36.827  30.317  27.889  1.00  0.00     0.001 A 
ATOM     69  C   UNL A   1      36.490  29.672  30.191  1.00  0.00     0.001 A 
ATOM     70  C   UNL A   1      35.986  30.170  28.991  1.00  0.00     0.000 A 
ENDBRANCH  51  65
BRANCH  52  71
ATOM     71  C   UNL A   1      48.210  26.455  29.710  1.00  0.00    -0.014 A 
ATOM     72  C   UNL A   1      48.713  25.843  30.869  1.00  0.00     0.009 A 
ATOM     73  C   UNL A   1      49.081  26.677  28.632  1.00  0.00     0.009 A 
ATOM     74  C   UNL A   1      50.064  25.500  30.962  1.00  0.00     0.001 A 
ATOM     75  C   UNL A   1      50.424  26.302  28.715  1.00  0.00     0.001 A 
ATOM     76  C   UNL A   1      50.917  25.727  29.883  1.00  0.00     0.000 A 
ENDBRANCH  52  71
BRANCH  64  77
ATOM     77  C   UNL A   1      44.934  32.376  31.357  1.00  0.00    -0.014 A 
ATOM     78  C   UNL A   1      45.324  33.459  30.556  1.00  0.00     0.009 A 
ATOM     79  C   UNL A   1      44.931  32.528  32.753  1.00  0.00     0.009 A 
ATOM     80  C   UNL A   1      45.728  34.660  31.144  1.00  0.00     0.001 A 
ATOM     81  C   UNL A   1      45.303  33.739  33.336  1.00  0.00     0.001 A 
ATOM     82  C   UNL A   1      45.709  34.802  32.531  1.00  0.00     0.000 A 
ENDBRANCH  64  77
ENDBRANCH  38  39
ENDBRANCH  30  33
ENDBRANCH  28  29
ENDBRANCH  27  28
ENDBRANCH  26  27
ENDBRANCH   1  26
TORSDOF 15
ENDMDL
MODEL 3
REMARK VINA RESULT:     -11.2      1.866      6.095
REMARK SMILES C[C@@]1(CN2C(=O)c3ccc(C(=O)NCCCCCCNC(=O)c4ccc(-c5c6nc(c(-c7ccccc7)c7ccc([nH]7)c(-c7ccccc7)c7nc(c(-c8ccccc8)c8ccc5[nH]8)C=C7)C=C6)cc4)cc3C2=O)CCCO1
REMARK SMILES IDX 16 1 15 2 14 3 13 4 11 5 12 6 10 8 4 9 5 10 73 11 6 12 7 13
REMARK SMILES IDX 72 14 74 15 8 16 71 17 9 18 3 19 2 20 1 21 75 22 78 23 76 24
REMARK SMILES IDX 77 25 17 26 18 27 19 28 20 29 21 30 22 32 23 33 24 34 70 35
REMARK SMILES IDX 25 36 69 37 26 38 27 39 28 40 63 41 29 42 68 43 62 44 64 45
REMARK SMILES IDX 30 46 67 47 61 48 60 49 31 51 53 52 38 53 52 54 39 55 42 56
REMARK SMILES IDX 51 57 65 58 40 59 41 60 50 62 66 63 43 64 32 65 33 66 37 67
REMARK SMILES IDX 34 68 36 69 35 70 54 71 55 72 59 73 56 74 58 75 57 76 44 77
REMARK SMILES IDX 45 78 49 79 46 80 48 81 47 82
REMARK H PARENT 13 7 20 31 64 50 42 61
REMARK Flexibility Score: inf
ROOT
ATOM      1  C   UNL A   1      32.330  29.825  25.625  1.00  0.00     0.002 C 
ENDROOT
BRANCH   1   2
ATOM      2  C   UNL A   1      32.294  28.545  24.779  1.00  0.00     0.021 C 
BRANCH   2   3
ATOM      3  C   UNL A   1      33.687  27.990  24.474  1.00  0.00     0.116 C 
BRANCH   3   4
ATOM      4  N   UNL A   1      33.759  27.562  23.093  1.00  0.00    -0.352 N 
ATOM      5  C   UNL A   1      33.488  26.377  22.466  1.00  0.00     0.251 C 
ATOM      6  O   UNL A   1      33.655  26.334  21.247  1.00  0.00    -0.269 OA
ATOM      7  H   UNL A   1      34.064  28.269  22.479  1.00  0.00     0.163 HD
BRANCH   5   8
ATOM      8  C   UNL A   1      32.975  25.159  23.161  1.00  0.00     0.040 A 
ATOM      9  N   UNL A   1      33.265  20.947  24.999  1.00  0.00    -0.271 N 
ATOM     10  C   UNL A   1      32.050  21.557  25.111  1.00  0.00     0.261 C 
ATOM     11  C   UNL A   1      34.195  21.768  24.414  1.00  0.00     0.261 C 
ATOM     12  O   UNL A   1      31.030  21.165  25.649  1.00  0.00    -0.269 OA
ATOM     13  C   UNL A   1      32.173  22.848  24.454  1.00  0.00     0.053 A 
ATOM     14  C   UNL A   1      33.479  22.988  24.032  1.00  0.00     0.054 A 
ATOM     15  O   UNL A   1      35.386  21.600  24.255  1.00  0.00    -0.269 OA
ATOM     16  C   UNL A   1      31.228  23.830  24.262  1.00  0.00     0.015 A 
ATOM     17  C   UNL A   1      33.911  24.129  23.384  1.00  0.00     0.028 A 
ATOM     18  C   UNL A   1      31.651  25.006  23.636  1.00  0.00     0.015 A 
BRANCH   9  19
ATOM     19  C   UNL A   1      33.533  19.596  25.460  1.00  0.00     0.164 C 
BRANCH  19  20
ATOM     20  C   UNL A   1      33.191  18.509  24.401  1.00  0.00     0.084 C 
ATOM     21  C   UNL A   1      32.523  19.080  23.149  1.00  0.00     0.044 C 
ATOM     22  C   UNL A   1      32.323  17.408  25.016  1.00  0.00     0.039 C 
ATOM     23  O   UNL A   1      34.408  17.849  23.993  1.00  0.00    -0.373 OA
ATOM     24  C   UNL A   1      33.345  16.478  25.623  1.00  0.00     0.031 C 
ATOM     25  C   UNL A   1      34.499  16.577  24.648  1.00  0.00     0.161 C 
ENDBRANCH  19  20
ENDBRANCH   9  19
ENDBRANCH   5   8
ENDBRANCH   3   4
ENDBRANCH   2   3
ENDBRANCH   1   2
BRANCH   1  26
ATOM     26  C   UNL A   1      31.158  30.784  25.380  1.00  0.00     0.002 C 
BRANCH  26  27
ATOM     27  C   UNL A   1      31.024  31.901  26.416  1.00  0.00     0.021 C 
BRANCH  27  28
ATOM     28  C   UNL A   1      32.361  32.440  26.909  1.00  0.00     0.116 C 
BRANCH  28  29
ATOM     29  N   UNL A   1      32.250  33.830  27.328  1.00  0.00    -0.352 N 
ATOM     30  C   UNL A   1      32.938  34.486  28.317  1.00  0.00     0.251 C 
ATOM     31  H   UNL A   1      31.592  34.372  26.836  1.00  0.00     0.163 HD
ATOM     32  O   UNL A   1      32.556  35.576  28.729  1.00  0.00    -0.269 OA
BRANCH  30  33
ATOM     33  C   UNL A   1      34.145  33.858  28.886  1.00  0.00     0.039 A 
ATOM     34  C   UNL A   1      35.398  34.411  28.617  1.00  0.00     0.014 A 
ATOM     35  C   UNL A   1      34.026  32.728  29.699  1.00  0.00     0.014 A 
ATOM     36  C   UNL A   1      36.533  33.860  29.212  1.00  0.00     0.010 A 
ATOM     37  C   UNL A   1      35.145  32.231  30.354  1.00  0.00     0.010 A 
ATOM     38  C   UNL A   1      36.410  32.787  30.110  1.00  0.00    -0.014 A 
BRANCH  38  39
ATOM     39  C   UNL A   1      37.590  32.208  30.799  1.00  0.00     0.031 A 
ATOM     40  C   UNL A   1      38.348  31.079  30.155  1.00  0.00     0.074 A 
ATOM     41  C   UNL A   1      37.930  32.641  32.028  1.00  0.00     0.049 A 
ATOM     42  N   UNL A   1      39.333  30.366  30.637  1.00  0.00    -0.248 NA
ATOM     43  C   UNL A   1      37.925  30.685  28.800  1.00  0.00     0.031 C 
ATOM     44  C   UNL A   1      37.261  33.715  32.766  1.00  0.00     0.029 A 
ATOM     45  N   UNL A   1      38.922  32.223  32.877  1.00  0.00    -0.354 N 
ATOM     46  C   UNL A   1      39.634  29.432  29.653  1.00  0.00     0.074 A 
ATOM     47  C   UNL A   1      38.693  29.630  28.575  1.00  0.00     0.031 C 
ATOM     48  C   UNL A   1      37.877  33.885  33.947  1.00  0.00     0.029 A 
ATOM     49  C   UNL A   1      38.949  32.903  34.071  1.00  0.00     0.049 A 
ATOM     50  H   UNL A   1      39.555  31.502  32.654  1.00  0.00     0.167 HD
ATOM     51  C   UNL A   1      40.621  28.505  29.641  1.00  0.00     0.031 A 
ATOM     52  C   UNL A   1      39.739  32.742  35.150  1.00  0.00     0.031 A 
ATOM     53  C   UNL A   1      41.558  28.312  30.713  1.00  0.00     0.049 A 
ATOM     54  C   UNL A   1      40.794  31.669  35.130  1.00  0.00     0.074 A 
ATOM     55  C   UNL A   1      42.618  27.425  30.782  1.00  0.00     0.029 A 
ATOM     56  N   UNL A   1      41.548  29.018  31.905  1.00  0.00    -0.354 N 
ATOM     57  N   UNL A   1      41.101  30.827  34.172  1.00  0.00    -0.248 NA
ATOM     58  C   UNL A   1      41.618  31.530  36.339  1.00  0.00     0.031 C 
ATOM     59  C   UNL A   1      43.213  27.555  32.041  1.00  0.00     0.029 A 
ATOM     60  C   UNL A   1      42.568  28.571  32.727  1.00  0.00     0.049 A 
ATOM     61  H   UNL A   1      40.909  29.733  32.135  1.00  0.00     0.167 HD
ATOM     62  C   UNL A   1      42.177  30.089  34.647  1.00  0.00     0.074 A 
ATOM     63  C   UNL A   1      42.476  30.587  35.973  1.00  0.00     0.031 C 
ATOM     64  C   UNL A   1      42.860  29.089  34.038  1.00  0.00     0.031 A 
BRANCH  51  65
ATOM     65  C   UNL A   1      40.731  27.625  28.426  1.00  0.00    -0.014 A 
ATOM     66  C   UNL A   1      40.047  26.400  28.350  1.00  0.00     0.009 A 
ATOM     67  C   UNL A   1      41.496  28.042  27.326  1.00  0.00     0.009 A 
ATOM     68  C   UNL A   1      40.157  25.597  27.214  1.00  0.00     0.001 A 
ATOM     69  C   UNL A   1      41.577  27.252  26.178  1.00  0.00     0.001 A 
ATOM     70  C   UNL A   1      40.917  26.026  26.127  1.00  0.00     0.000 A 
ENDBRANCH  51  65
BRANCH  52  71
ATOM     71  C   UNL A   1      39.572  33.614  36.343  1.00  0.00    -0.014 A 
ATOM     72  C   UNL A   1      40.215  34.860  36.408  1.00  0.00     0.009 A 
ATOM     73  C   UNL A   1      38.792  33.199  37.433  1.00  0.00     0.009 A 
ATOM     74  C   UNL A   1      40.114  35.652  37.554  1.00  0.00     0.001 A 
ATOM     75  C   UNL A   1      38.664  34.009  38.564  1.00  0.00     0.001 A 
ATOM     76  C   UNL A   1      39.335  35.227  38.629  1.00  0.00     0.000 A 
ENDBRANCH  52  71
BRANCH  64  77
ATOM     77  C   UNL A   1      44.035  28.505  34.770  1.00  0.00    -0.014 A 
ATOM     78  C   UNL A   1      45.316  29.068  34.673  1.00  0.00     0.009 A 
ATOM     79  C   UNL A   1      43.838  27.406  35.624  1.00  0.00     0.009 A 
ATOM     80  C   UNL A   1      46.382  28.524  35.394  1.00  0.00     0.001 A 
ATOM     81  C   UNL A   1      44.896  26.887  36.368  1.00  0.00     0.001 A 
ATOM     82  C   UNL A   1      46.169  27.441  36.246  1.00  0.00     0.000 A 
ENDBRANCH  64  77
ENDBRANCH  38  39
ENDBRANCH  30  33
ENDBRANCH  28  29
ENDBRANCH  27  28
ENDBRANCH  26  27
ENDBRANCH   1  26
TORSDOF 15
ENDMDL
