MODEL 1
REMARK VINA RESULT:     -11.3      0.000      0.000
REMARK SMILES C[C@](Nc1ccc(C(N)=O)nn1)(C(=O)NCCCCCCNC(=O)c1ccc(-c2c3nc(c(-c4ccccc4)c4ccc([nH]4)c(-c4ccccc4)c4nc(c(-c5ccccc5)c5ccc2[nH]5)C=C4)C=C3)cc1)c1ccccc1
REMARK SMILES IDX 18 1 17 2 16 3 15 4 13 5 14 6 2 8 1 9 73 10 74 11 78 12
REMARK SMILES IDX 75 13 77 14 76 15 3 16 4 18 5 19 12 20 6 21 11 22 7 23 8 24
REMARK SMILES IDX 9 25 10 26 19 29 20 30 21 31 22 32 23 33 24 35 25 36 26 37
REMARK SMILES IDX 72 38 27 39 71 40 28 41 29 42 30 43 65 44 31 45 70 46 64 47
REMARK SMILES IDX 66 48 32 49 69 50 63 51 62 52 33 54 55 55 40 56 54 57 41 58
REMARK SMILES IDX 44 59 53 60 67 61 42 62 43 63 52 65 68 66 45 67 34 68 35 69
REMARK SMILES IDX 39 70 36 71 38 72 37 73 56 74 57 75 61 76 58 77 60 78 59 79
REMARK SMILES IDX 46 80 47 81 51 82 48 83 50 84 49 85
REMARK H PARENT 15 7 3 17 9 27 9 28 22 34 66 53 44 64
REMARK Flexibility Score: inf
ROOT
ATOM      1  C   UNL A   1      34.586  20.403  24.632  1.00  0.00     0.002 C 
ENDROOT
BRANCH   1   2
ATOM      2  C   UNL A   1      33.274  20.367  25.438  1.00  0.00     0.021 C 
BRANCH   2   3
ATOM      3  C   UNL A   1      32.156  21.263  24.897  1.00  0.00     0.116 C 
BRANCH   3   4
ATOM      4  N   UNL A   1      31.525  21.968  25.989  1.00  0.00    -0.354 N 
ATOM      5  C   UNL A   1      31.426  23.266  26.365  1.00  0.00     0.250 C 
ATOM      6  O   UNL A   1      30.974  23.393  27.513  1.00  0.00    -0.272 OA
ATOM      7  H   UNL A   1      31.057  21.361  26.607  1.00  0.00     0.163 HD
BRANCH   5   8
ATOM      8  C   UNL A   1      31.725  24.511  25.423  1.00  0.00     0.140 C 
ATOM      9  C   UNL A   1      31.466  25.770  26.285  1.00  0.00     0.051 C 
BRANCH   8  10
ATOM     10  C   UNL A   1      33.193  24.367  24.956  1.00  0.00    -0.013 A 
ATOM     11  C   UNL A   1      34.233  24.494  25.909  1.00  0.00     0.007 A 
ATOM     12  C   UNL A   1      33.548  24.049  23.635  1.00  0.00     0.007 A 
ATOM     13  C   UNL A   1      35.557  24.208  25.574  1.00  0.00     0.000 A 
ATOM     14  C   UNL A   1      34.877  23.776  23.301  1.00  0.00     0.000 A 
ATOM     15  C   UNL A   1      35.874  23.831  24.273  1.00  0.00     0.000 A 
ENDBRANCH   8  10
BRANCH   8  16
ATOM     16  N   UNL A   1      30.813  24.572  24.229  1.00  0.00    -0.351 N 
ATOM     17  H   UNL A   1      30.484  23.735  23.828  1.00  0.00     0.163 HD
BRANCH  16  18
ATOM     18  C   UNL A   1      30.426  25.797  23.677  1.00  0.00     0.149 A 
ATOM     19  C   UNL A   1      31.260  26.580  22.891  1.00  0.00     0.051 A 
ATOM     20  N   UNL A   1      29.176  26.253  23.916  1.00  0.00    -0.132 NA
ATOM     21  C   UNL A   1      30.874  27.833  22.428  1.00  0.00     0.040 A 
ATOM     22  N   UNL A   1      28.757  27.508  23.452  1.00  0.00    -0.143 NA
ATOM     23  C   UNL A   1      29.611  28.275  22.737  1.00  0.00     0.150 A 
BRANCH  23  24
ATOM     24  C   UNL A   1      29.182  29.623  22.280  1.00  0.00     0.269 C 
ATOM     25  N   UNL A   1      29.656  30.701  22.973  1.00  0.00    -0.364 N 
ATOM     26  O   UNL A   1      28.435  29.773  21.319  1.00  0.00    -0.268 OA
ATOM     27  H   UNL A   1      30.254  30.566  23.743  1.00  0.00     0.160 HD
ATOM     28  H   UNL A   1      29.399  31.612  22.702  1.00  0.00     0.160 HD
ENDBRANCH  23  24
ENDBRANCH  16  18
ENDBRANCH   8  16
ENDBRANCH   5   8
ENDBRANCH   3   4
ENDBRANCH   2   3
ENDBRANCH   1   2
BRANCH   1  29
ATOM     29  C   UNL A   1      35.862  20.597  25.457  1.00  0.00     0.002 C 
BRANCH  29  30
ATOM     30  C   UNL A   1      37.154  20.636  24.642  1.00  0.00     0.021 C 
BRANCH  30  31
ATOM     31  C   UNL A   1      38.408  20.948  25.451  1.00  0.00     0.116 C 
BRANCH  31  32
ATOM     32  N   UNL A   1      39.312  19.812  25.541  1.00  0.00    -0.352 N 
ATOM     33  C   UNL A   1      40.614  19.782  25.976  1.00  0.00     0.251 C 
ATOM     34  H   UNL A   1      38.939  18.947  25.252  1.00  0.00     0.163 HD
ATOM     35  O   UNL A   1      41.294  18.770  25.847  1.00  0.00    -0.269 OA
BRANCH  33  36
ATOM     36  C   UNL A   1      41.203  20.998  26.574  1.00  0.00     0.039 A 
ATOM     37  C   UNL A   1      41.848  21.916  25.741  1.00  0.00     0.014 A 
ATOM     38  C   UNL A   1      41.092  21.244  27.945  1.00  0.00     0.014 A 
ATOM     39  C   UNL A   1      42.319  23.116  26.274  1.00  0.00     0.010 A 
ATOM     40  C   UNL A   1      41.496  22.470  28.461  1.00  0.00     0.010 A 
ATOM     41  C   UNL A   1      42.111  23.420  27.630  1.00  0.00    -0.014 A 
BRANCH  41  42
ATOM     42  C   UNL A   1      42.516  24.730  28.195  1.00  0.00     0.031 A 
ATOM     43  C   UNL A   1      41.497  25.816  28.394  1.00  0.00     0.074 A 
ATOM     44  C   UNL A   1      43.816  24.968  28.460  1.00  0.00     0.049 A 
ATOM     45  N   UNL A   1      41.671  27.046  28.811  1.00  0.00    -0.248 NA
ATOM     46  C   UNL A   1      40.103  25.486  28.055  1.00  0.00     0.031 C 
ATOM     47  C   UNL A   1      44.909  24.013  28.268  1.00  0.00     0.029 A 
ATOM     48  N   UNL A   1      44.438  26.095  28.936  1.00  0.00    -0.354 N 
ATOM     49  C   UNL A   1      40.415  27.638  28.768  1.00  0.00     0.074 A 
ATOM     50  C   UNL A   1      39.499  26.651  28.238  1.00  0.00     0.031 C 
ATOM     51  C   UNL A   1      46.064  24.587  28.640  1.00  0.00     0.029 A 
ATOM     52  C   UNL A   1      45.800  25.961  29.057  1.00  0.00     0.049 A 
ATOM     53  H   UNL A   1      43.956  26.920  29.168  1.00  0.00     0.167 HD
ATOM     54  C   UNL A   1      40.053  28.885  29.154  1.00  0.00     0.031 A 
ATOM     55  C   UNL A   1      46.735  26.847  29.447  1.00  0.00     0.031 A 
ATOM     56  C   UNL A   1      40.963  29.864  29.683  1.00  0.00     0.049 A 
ATOM     57  C   UNL A   1      46.313  28.231  29.853  1.00  0.00     0.074 A 
ATOM     58  C   UNL A   1      40.684  31.133  30.157  1.00  0.00     0.029 A 
ATOM     59  N   UNL A   1      42.334  29.686  29.800  1.00  0.00    -0.354 N 
ATOM     60  N   UNL A   1      45.109  28.751  29.881  1.00  0.00    -0.248 NA
ATOM     61  C   UNL A   1      47.376  29.146  30.290  1.00  0.00     0.031 C 
ATOM     62  C   UNL A   1      41.893  31.744  30.508  1.00  0.00     0.029 A 
ATOM     63  C   UNL A   1      42.917  30.833  30.309  1.00  0.00     0.049 A 
ATOM     64  H   UNL A   1      42.820  28.865  29.556  1.00  0.00     0.167 HD
ATOM     65  C   UNL A   1      45.267  30.045  30.360  1.00  0.00     0.074 A 
ATOM     66  C   UNL A   1      46.681  30.224  30.626  1.00  0.00     0.031 C 
ATOM     67  C   UNL A   1      44.326  31.000  30.561  1.00  0.00     0.031 A 
BRANCH  54  68
ATOM     68  C   UNL A   1      38.605  29.261  29.000  1.00  0.00    -0.014 A 
ATOM     69  C   UNL A   1      37.696  29.108  30.060  1.00  0.00     0.009 A 
ATOM     70  C   UNL A   1      38.146  29.796  27.786  1.00  0.00     0.009 A 
ATOM     71  C   UNL A   1      36.350  29.443  29.893  1.00  0.00     0.001 A 
ATOM     72  C   UNL A   1      36.808  30.160  27.633  1.00  0.00     0.001 A 
ATOM     73  C   UNL A   1      35.909  29.972  28.681  1.00  0.00     0.000 A 
ENDBRANCH  54  68
BRANCH  55  74
ATOM     74  C   UNL A   1      48.167  26.449  29.475  1.00  0.00    -0.014 A 
ATOM     75  C   UNL A   1      48.989  26.656  28.356  1.00  0.00     0.009 A 
ATOM     76  C   UNL A   1      48.722  25.868  30.625  1.00  0.00     0.009 A 
ATOM     77  C   UNL A   1      50.329  26.266  28.381  1.00  0.00     0.001 A 
ATOM     78  C   UNL A   1      50.071  25.506  30.658  1.00  0.00     0.001 A 
ATOM     79  C   UNL A   1      50.870  25.696  29.533  1.00  0.00     0.000 A 
ENDBRANCH  55  74
BRANCH  67  80
ATOM     80  C   UNL A   1      44.790  32.316  31.117  1.00  0.00    -0.014 A 
ATOM     81  C   UNL A   1      44.881  32.532  32.500  1.00  0.00     0.009 A 
ATOM     82  C   UNL A   1      45.187  33.339  30.240  1.00  0.00     0.009 A 
ATOM     83  C   UNL A   1      45.330  33.758  32.996  1.00  0.00     0.001 A 
ATOM     84  C   UNL A   1      45.664  34.552  30.739  1.00  0.00     0.001 A 
ATOM     85  C   UNL A   1      45.727  34.764  32.115  1.00  0.00     0.000 A 
ENDBRANCH  67  80
ENDBRANCH  41  42
ENDBRANCH  33  36
ENDBRANCH  31  32
ENDBRANCH  30  31
ENDBRANCH  29  30
ENDBRANCH   1  29
TORSDOF 17
ENDMDL
MODEL 2
REMARK VINA RESULT:     -11.2      3.174      8.671
REMARK SMILES C[C@](Nc1ccc(C(N)=O)nn1)(C(=O)NCCCCCCNC(=O)c1ccc(-c2c3nc(c(-c4ccccc4)c4ccc([nH]4)c(-c4ccccc4)c4nc(c(-c5ccccc5)c5ccc2[nH]5)C=C4)C=C3)cc1)c1ccccc1
REMARK SMILES IDX 18 1 17 2 16 3 15 4 13 5 14 6 2 8 1 9 73 10 74 11 78 12
REMARK SMILES IDX 75 13 77 14 76 15 3 16 4 18 5 19 12 20 6 21 11 22 7 23 8 24
REMARK SMILES IDX 9 25 10 26 19 29 20 30 21 31 22 32 23 33 24 35 25 36 26 37
REMARK SMILES IDX 72 38 27 39 71 40 28 41 29 42 30 43 65 44 31 45 70 46 64 47
REMARK SMILES IDX 66 48 32 49 69 50 63 51 62 52 33 54 55 55 40 56 54 57 41 58
REMARK SMILES IDX 44 59 53 60 67 61 42 62 43 63 52 65 68 66 45 67 34 68 35 69
REMARK SMILES IDX 39 70 36 71 38 72 37 73 56 74 57 75 61 76 58 77 60 78 59 79
REMARK SMILES IDX 46 80 47 81 51 82 48 83 50 84 49 85
REMARK H PARENT 15 7 3 17 9 27 9 28 22 34 66 53 44 64
REMARK Flexibility Score: inf
ROOT
ATOM      1  C   UNL A   1      30.669  29.316  24.502  1.00  0.00     0.002 C 
ENDROOT
BRANCH   1   2
ATOM      2  C   UNL A   1      31.129  28.920  23.086  1.00  0.00     0.021 C 
BRANCH   2   3
ATOM      3  C   UNL A   1      30.640  27.551  22.605  1.00  0.00     0.116 C 
BRANCH   3   4
ATOM      4  N   UNL A   1      31.661  26.926  21.796  1.00  0.00    -0.354 N 
ATOM      5  C   UNL A   1      32.692  26.079  22.035  1.00  0.00     0.250 C 
ATOM      6  O   UNL A   1      33.460  25.981  21.066  1.00  0.00    -0.272 OA
ATOM      7  H   UNL A   1      31.593  27.175  20.846  1.00  0.00     0.163 HD
BRANCH   5   8
ATOM      8  C   UNL A   1      32.857  25.197  23.347  1.00  0.00     0.140 C 
ATOM      9  C   UNL A   1      34.154  24.375  23.148  1.00  0.00     0.051 C 
BRANCH   8  10
ATOM     10  C   UNL A   1      32.922  26.185  24.537  1.00  0.00    -0.013 A 
ATOM     11  C   UNL A   1      31.952  26.087  25.564  1.00  0.00     0.007 A 
ATOM     12  C   UNL A   1      33.941  27.140  24.684  1.00  0.00     0.007 A 
ATOM     13  C   UNL A   1      32.062  26.838  26.734  1.00  0.00     0.000 A 
ATOM     14  C   UNL A   1      34.041  27.899  25.852  1.00  0.00     0.000 A 
ATOM     15  C   UNL A   1      33.119  27.730  26.884  1.00  0.00     0.000 A 
ENDBRANCH   8  10
BRANCH   8  16
ATOM     16  N   UNL A   1      31.723  24.230  23.549  1.00  0.00    -0.351 N 
ATOM     17  H   UNL A   1      30.797  24.537  23.417  1.00  0.00     0.163 HD
BRANCH  16  18
ATOM     18  C   UNL A   1      31.962  22.903  23.920  1.00  0.00     0.149 A 
ATOM     19  C   UNL A   1      32.210  21.886  23.009  1.00  0.00     0.051 A 
ATOM     20  N   UNL A   1      31.952  22.583  25.234  1.00  0.00    -0.132 NA
ATOM     21  C   UNL A   1      32.359  20.562  23.406  1.00  0.00     0.040 A 
ATOM     22  N   UNL A   1      32.111  21.257  25.662  1.00  0.00    -0.143 NA
ATOM     23  C   UNL A   1      32.294  20.278  24.747  1.00  0.00     0.150 A 
BRANCH  23  24
ATOM     24  C   UNL A   1      32.420  18.866  25.198  1.00  0.00     0.269 C 
ATOM     25  N   UNL A   1      32.924  18.650  26.449  1.00  0.00    -0.364 N 
ATOM     26  O   UNL A   1      32.085  17.926  24.485  1.00  0.00    -0.268 OA
ATOM     27  H   UNL A   1      33.189  19.414  27.011  1.00  0.00     0.160 HD
ATOM     28  H   UNL A   1      33.021  17.731  26.789  1.00  0.00     0.160 HD
ENDBRANCH  23  24
ENDBRANCH  16  18
ENDBRANCH   8  16
ENDBRANCH   5   8
ENDBRANCH   3   4
ENDBRANCH   2   3
ENDBRANCH   1   2
BRANCH   1  29
ATOM     29  C   UNL A   1      31.260  30.620  25.047  1.00  0.00     0.002 C 
BRANCH  29  30
ATOM     30  C   UNL A   1      31.546  30.618  26.548  1.00  0.00     0.021 C 
BRANCH  30  31
ATOM     31  C   UNL A   1      32.729  31.480  26.972  1.00  0.00     0.116 C 
BRANCH  31  32
ATOM     32  N   UNL A   1      32.337  32.840  27.310  1.00  0.00    -0.352 N 
ATOM     33  C   UNL A   1      32.976  33.741  28.124  1.00  0.00     0.251 C 
ATOM     34  H   UNL A   1      31.500  33.156  26.899  1.00  0.00     0.163 HD
ATOM     35  O   UNL A   1      32.437  34.799  28.432  1.00  0.00    -0.269 OA
BRANCH  33  36
ATOM     36  C   UNL A   1      34.314  33.410  28.657  1.00  0.00     0.039 A 
ATOM     37  C   UNL A   1      34.408  32.733  29.875  1.00  0.00     0.014 A 
ATOM     38  C   UNL A   1      35.468  33.740  27.941  1.00  0.00     0.014 A 
ATOM     39  C   UNL A   1      35.657  32.323  30.341  1.00  0.00     0.010 A 
ATOM     40  C   UNL A   1      36.704  33.268  28.369  1.00  0.00     0.010 A 
ATOM     41  C   UNL A   1      36.811  32.553  29.573  1.00  0.00    -0.014 A 
BRANCH  41  42
ATOM     42  C   UNL A   1      38.135  32.040  30.001  1.00  0.00     0.031 A 
ATOM     43  C   UNL A   1      38.633  30.715  29.496  1.00  0.00     0.074 A 
ATOM     44  C   UNL A   1      38.856  32.733  30.904  1.00  0.00     0.049 A 
ATOM     45  N   UNL A   1      39.731  30.072  29.809  1.00  0.00    -0.248 NA
ATOM     46  C   UNL A   1      37.774  30.008  28.534  1.00  0.00     0.031 C 
ATOM     47  C   UNL A   1      38.463  34.009  31.506  1.00  0.00     0.029 A 
ATOM     48  N   UNL A   1      40.068  32.451  31.484  1.00  0.00    -0.354 N 
ATOM     49  C   UNL A   1      39.684  28.882  29.096  1.00  0.00     0.074 A 
ATOM     50  C   UNL A   1      38.430  28.868  28.375  1.00  0.00     0.031 C 
ATOM     51  C   UNL A   1      39.423  34.409  32.354  1.00  0.00     0.029 A 
ATOM     52  C   UNL A   1      40.479  33.400  32.389  1.00  0.00     0.049 A 
ATOM     53  H   UNL A   1      40.593  31.647  31.273  1.00  0.00     0.167 HD
ATOM     54  C   UNL A   1      40.612  27.896  29.031  1.00  0.00     0.031 A 
ATOM     55  C   UNL A   1      41.574  33.450  33.169  1.00  0.00     0.031 A 
ATOM     56  C   UNL A   1      41.859  27.912  29.746  1.00  0.00     0.049 A 
ATOM     57  C   UNL A   1      42.581  32.337  33.094  1.00  0.00     0.074 A 
ATOM     58  C   UNL A   1      42.890  26.990  29.701  1.00  0.00     0.029 A 
ATOM     59  N   UNL A   1      42.243  28.896  30.644  1.00  0.00    -0.354 N 
ATOM     60  N   UNL A   1      42.559  31.253  32.356  1.00  0.00    -0.248 NA
ATOM     61  C   UNL A   1      43.766  32.457  33.954  1.00  0.00     0.031 C 
ATOM     62  C   UNL A   1      43.872  27.388  30.614  1.00  0.00     0.029 A 
ATOM     63  C   UNL A   1      43.480  28.589  31.182  1.00  0.00     0.049 A 
ATOM     64  H   UNL A   1      41.712  29.696  30.866  1.00  0.00     0.167 HD
ATOM     65  C   UNL A   1      43.736  30.576  32.643  1.00  0.00     0.074 A 
ATOM     66  C   UNL A   1      44.457  31.379  33.610  1.00  0.00     0.031 C 
ATOM     67  C   UNL A   1      44.181  29.394  32.150  1.00  0.00     0.031 A 
BRANCH  54  68
ATOM     68  C   UNL A   1      40.296  26.709  28.164  1.00  0.00    -0.014 A 
ATOM     69  C   UNL A   1      39.527  25.638  28.647  1.00  0.00     0.009 A 
ATOM     70  C   UNL A   1      40.754  26.669  26.838  1.00  0.00     0.009 A 
ATOM     71  C   UNL A   1      39.260  24.533  27.835  1.00  0.00     0.001 A 
ATOM     72  C   UNL A   1      40.459  25.579  26.018  1.00  0.00     0.001 A 
ATOM     73  C   UNL A   1      39.723  24.507  26.520  1.00  0.00     0.000 A 
ENDBRANCH  54  68
BRANCH  55  74
ATOM     74  C   UNL A   1      41.777  34.599  34.089  1.00  0.00    -0.014 A 
ATOM     75  C   UNL A   1      41.317  34.546  35.414  1.00  0.00     0.009 A 
ATOM     76  C   UNL A   1      42.442  35.755  33.648  1.00  0.00     0.009 A 
ATOM     77  C   UNL A   1      41.496  35.635  36.270  1.00  0.00     0.001 A 
ATOM     78  C   UNL A   1      42.645  36.831  34.515  1.00  0.00     0.001 A 
ATOM     79  C   UNL A   1      42.164  36.773  35.821  1.00  0.00     0.000 A 
ENDBRANCH  55  74
BRANCH  67  80
ATOM     80  C   UNL A   1      45.520  28.909  32.631  1.00  0.00    -0.014 A 
ATOM     81  C   UNL A   1      46.689  29.144  31.892  1.00  0.00     0.009 A 
ATOM     82  C   UNL A   1      45.616  28.246  33.865  1.00  0.00     0.009 A 
ATOM     83  C   UNL A   1      47.925  28.699  32.365  1.00  0.00     0.001 A 
ATOM     84  C   UNL A   1      46.857  27.829  34.349  1.00  0.00     0.001 A 
ATOM     85  C   UNL A   1      48.009  28.047  33.595  1.00  0.00     0.000 A 
ENDBRANCH  67  80
ENDBRANCH  41  42
ENDBRANCH  33  36
ENDBRANCH  31  32
ENDBRANCH  30  31
ENDBRANCH  29  30
ENDBRANCH   1  29
TORSDOF 17
ENDMDL
MODEL 3
REMARK VINA RESULT:     -11.2      2.676      4.559
REMARK SMILES C[C@](Nc1ccc(C(N)=O)nn1)(C(=O)NCCCCCCNC(=O)c1ccc(-c2c3nc(c(-c4ccccc4)c4ccc([nH]4)c(-c4ccccc4)c4nc(c(-c5ccccc5)c5ccc2[nH]5)C=C4)C=C3)cc1)c1ccccc1
REMARK SMILES IDX 18 1 17 2 16 3 15 4 13 5 14 6 2 8 1 9 73 10 74 11 78 12
REMARK SMILES IDX 75 13 77 14 76 15 3 16 4 18 5 19 12 20 6 21 11 22 7 23 8 24
REMARK SMILES IDX 9 25 10 26 19 29 20 30 21 31 22 32 23 33 24 35 25 36 26 37
REMARK SMILES IDX 72 38 27 39 71 40 28 41 29 42 30 43 65 44 31 45 70 46 64 47
REMARK SMILES IDX 66 48 32 49 69 50 63 51 62 52 33 54 55 55 40 56 54 57 41 58
REMARK SMILES IDX 44 59 53 60 67 61 42 62 43 63 52 65 68 66 45 67 34 68 35 69
REMARK SMILES IDX 39 70 36 71 38 72 37 73 56 74 57 75 61 76 58 77 60 78 59 79
REMARK SMILES IDX 46 80 47 81 51 82 48 83 50 84 49 85
REMARK H PARENT 15 7 3 17 9 27 9 28 22 34 66 53 44 64
REMARK Flexibility Score: inf
ROOT
ATOM      1  C   UNL A   1      38.217  23.729  25.836  1.00  0.00     0.002 C 
ENDROOT
BRANCH   1   2
ATOM      2  C   UNL A   1      36.728  23.499  26.157  1.00  0.00     0.021 C 
BRANCH   2   3
ATOM      3  C   UNL A   1      36.190  22.116  25.780  1.00  0.00     0.116 C 
BRANCH   3   4
ATOM      4  N   UNL A   1      35.145  21.732  26.701  1.00  0.00    -0.354 N 
ATOM      5  C   UNL A   1      33.793  21.821  26.711  1.00  0.00     0.250 C 
ATOM      6  O   UNL A   1      33.310  21.564  27.824  1.00  0.00    -0.272 OA
ATOM      7  H   UNL A   1      35.499  21.306  27.515  1.00  0.00     0.163 HD
BRANCH   5   8
ATOM      8  C   UNL A   1      32.890  22.094  25.432  1.00  0.00     0.140 C 
ATOM      9  C   UNL A   1      31.423  21.974  25.911  1.00  0.00     0.051 C 
BRANCH   8  10
ATOM     10  C   UNL A   1      33.265  23.506  24.922  1.00  0.00    -0.013 A 
ATOM     11  C   UNL A   1      33.621  23.672  23.561  1.00  0.00     0.007 A 
ATOM     12  C   UNL A   1      33.209  24.653  25.730  1.00  0.00     0.007 A 
ATOM     13  C   UNL A   1      33.803  24.942  23.013  1.00  0.00     0.000 A 
ATOM     14  C   UNL A   1      33.405  25.922  25.181  1.00  0.00     0.000 A 
ATOM     15  C   UNL A   1      33.677  26.067  23.821  1.00  0.00     0.000 A 
ENDBRANCH   8  10
BRANCH   8  16
ATOM     16  N   UNL A   1      33.104  21.083  24.339  1.00  0.00    -0.351 N 
ATOM     17  H   UNL A   1      33.187  21.389  23.407  1.00  0.00     0.163 HD
BRANCH  16  18
ATOM     18  C   UNL A   1      33.185  19.717  24.624  1.00  0.00     0.149 A 
ATOM     19  C   UNL A   1      34.327  18.957  24.414  1.00  0.00     0.051 A 
ATOM     20  N   UNL A   1      32.098  19.092  25.131  1.00  0.00    -0.132 NA
ATOM     21  C   UNL A   1      34.348  17.584  24.628  1.00  0.00     0.040 A 
ATOM     22  N   UNL A   1      32.095  17.710  25.366  1.00  0.00    -0.143 NA
ATOM     23  C   UNL A   1      33.205  16.985  25.097  1.00  0.00     0.150 A 
BRANCH  23  24
ATOM     24  C   UNL A   1      33.190  15.513  25.307  1.00  0.00     0.269 C 
ATOM     25  N   UNL A   1      31.971  14.913  25.455  1.00  0.00    -0.364 N 
ATOM     26  O   UNL A   1      34.223  14.853  25.343  1.00  0.00    -0.268 OA
ATOM     27  H   UNL A   1      31.150  15.455  25.424  1.00  0.00     0.160 HD
ATOM     28  H   UNL A   1      31.915  13.940  25.593  1.00  0.00     0.160 HD
ENDBRANCH  23  24
ENDBRANCH  16  18
ENDBRANCH   8  16
ENDBRANCH   5   8
ENDBRANCH   3   4
ENDBRANCH   2   3
ENDBRANCH   1   2
BRANCH   1  29
ATOM     29  C   UNL A   1      39.195  22.763  26.512  1.00  0.00     0.002 C 
BRANCH  29  30
ATOM     30  C   UNL A   1      39.491  21.491  25.720  1.00  0.00     0.021 C 
BRANCH  30  31
ATOM     31  C   UNL A   1      39.669  20.238  26.570  1.00  0.00     0.116 C 
BRANCH  31  32
ATOM     32  N   UNL A   1      40.729  19.374  26.077  1.00  0.00    -0.352 N 
ATOM     33  C   UNL A   1      42.067  19.649  25.936  1.00  0.00     0.251 C 
ATOM     34  H   UNL A   1      40.450  18.469  25.808  1.00  0.00     0.163 HD
ATOM     35  O   UNL A   1      42.810  18.863  25.359  1.00  0.00    -0.269 OA
BRANCH  33  36
ATOM     36  C   UNL A   1      42.600  20.924  26.459  1.00  0.00     0.039 A 
ATOM     37  C   UNL A   1      43.075  21.879  25.557  1.00  0.00     0.014 A 
ATOM     38  C   UNL A   1      42.603  21.185  27.832  1.00  0.00     0.014 A 
ATOM     39  C   UNL A   1      43.486  23.126  26.028  1.00  0.00     0.010 A 
ATOM     40  C   UNL A   1      42.944  22.452  28.293  1.00  0.00     0.010 A 
ATOM     41  C   UNL A   1      43.387  23.437  27.395  1.00  0.00    -0.014 A 
BRANCH  41  42
ATOM     42  C   UNL A   1      43.726  24.788  27.903  1.00  0.00     0.031 A 
ATOM     43  C   UNL A   1      42.638  25.789  28.175  1.00  0.00     0.074 A 
ATOM     44  C   UNL A   1      45.019  25.140  28.049  1.00  0.00     0.049 A 
ATOM     45  N   UNL A   1      42.742  27.038  28.556  1.00  0.00    -0.248 NA
ATOM     46  C   UNL A   1      41.254  25.336  27.965  1.00  0.00     0.031 C 
ATOM     47  C   UNL A   1      46.169  24.275  27.775  1.00  0.00     0.029 A 
ATOM     48  N   UNL A   1      45.581  26.324  28.451  1.00  0.00    -0.354 N 
ATOM     49  C   UNL A   1      41.442  27.521  28.616  1.00  0.00     0.074 A 
ATOM     50  C   UNL A   1      40.571  26.451  28.183  1.00  0.00     0.031 C 
ATOM     51  C   UNL A   1      47.298  24.952  28.036  1.00  0.00     0.029 A 
ATOM     52  C   UNL A   1      46.955  26.308  28.454  1.00  0.00     0.049 A 
ATOM     53  H   UNL A   1      45.052  27.111  28.713  1.00  0.00     0.167 HD
ATOM     54  C   UNL A   1      41.010  28.742  29.014  1.00  0.00     0.031 A 
ATOM     55  C   UNL A   1      47.841  27.277  28.747  1.00  0.00     0.031 A 
ATOM     56  C   UNL A   1      41.875  29.806  29.446  1.00  0.00     0.049 A 
ATOM     57  C   UNL A   1      47.339  28.629  29.169  1.00  0.00     0.074 A 
ATOM     58  C   UNL A   1      41.531  31.057  29.925  1.00  0.00     0.029 A 
ATOM     59  N   UNL A   1      43.261  29.746  29.445  1.00  0.00    -0.354 N 
ATOM     60  N   UNL A   1      46.102  29.048  29.295  1.00  0.00    -0.248 NA
ATOM     61  C   UNL A   1      48.355  29.640  29.497  1.00  0.00     0.031 C 
ATOM     62  C   UNL A   1      42.709  31.774  30.159  1.00  0.00     0.029 A 
ATOM     63  C   UNL A   1      43.786  30.948  29.884  1.00  0.00     0.049 A 
ATOM     64  H   UNL A   1      43.792  28.962  29.171  1.00  0.00     0.167 HD
ATOM     65  C   UNL A   1      46.191  30.360  29.739  1.00  0.00     0.074 A 
ATOM     66  C   UNL A   1      47.601  30.663  29.877  1.00  0.00     0.031 C 
ATOM     67  C   UNL A   1      45.192  31.237  30.008  1.00  0.00     0.031 A 
BRANCH  54  68
ATOM     68  C   UNL A   1      39.527  28.992  28.982  1.00  0.00    -0.014 A 
ATOM     69  C   UNL A   1      38.890  29.445  27.815  1.00  0.00     0.009 A 
ATOM     70  C   UNL A   1      38.751  28.750  30.126  1.00  0.00     0.009 A 
ATOM     71  C   UNL A   1      37.515  29.692  27.809  1.00  0.00     0.001 A 
ATOM     72  C   UNL A   1      37.373  28.966  30.107  1.00  0.00     0.001 A 
ATOM     73  C   UNL A   1      36.757  29.448  28.953  1.00  0.00     0.000 A 
ENDBRANCH  54  68
BRANCH  55  74
ATOM     74  C   UNL A   1      49.299  27.002  28.655  1.00  0.00    -0.014 A 
ATOM     75  C   UNL A   1      49.997  27.234  27.459  1.00  0.00     0.009 A 
ATOM     76  C   UNL A   1      50.003  26.512  29.767  1.00  0.00     0.009 A 
ATOM     77  C   UNL A   1      51.363  26.958  27.373  1.00  0.00     0.001 A 
ATOM     78  C   UNL A   1      51.375  26.265  29.685  1.00  0.00     0.001 A 
ATOM     79  C   UNL A   1      52.051  26.479  28.487  1.00  0.00     0.000 A 
ENDBRANCH  55  74
BRANCH  67  80
ATOM     80  C   UNL A   1      45.589  32.600  30.503  1.00  0.00    -0.014 A 
ATOM     81  C   UNL A   1      45.811  32.845  31.866  1.00  0.00     0.009 A 
ATOM     82  C   UNL A   1      45.788  33.641  29.582  1.00  0.00     0.009 A 
ATOM     83  C   UNL A   1      46.195  34.115  32.302  1.00  0.00     0.001 A 
ATOM     84  C   UNL A   1      46.200  34.901  30.017  1.00  0.00     0.001 A 
ATOM     85  C   UNL A   1      46.395  35.140  31.377  1.00  0.00     0.000 A 
ENDBRANCH  67  80
ENDBRANCH  41  42
ENDBRANCH  33  36
ENDBRANCH  31  32
ENDBRANCH  30  31
ENDBRANCH  29  30
ENDBRANCH   1  29
TORSDOF 17
ENDMDL
