MODEL 1
REMARK VINA RESULT:     -10.6      0.000      0.000
REMARK SMILES O=C(NCCCCCCNC(=O)[C@H]1CC[C@H](CNC(=O)c2ccccc2O)O1)c1ccc(-c2c3nc(c(-c4ccccc4)c4ccc([nH]4)c(-c4ccccc4)c4nc(c(-c5ccccc5)c5ccc2[nH]5)C=C4)C=C3)cc1
REMARK SMILES IDX 7 1 6 2 5 3 4 4 3 5 1 6 2 7 29 9 30 10 76 11 31 12 75 13
REMARK SMILES IDX 32 14 33 15 34 16 69 17 35 18 74 19 68 20 70 21 36 22 73 23
REMARK SMILES IDX 67 24 66 25 37 27 59 28 44 29 58 30 45 31 48 32 57 33 71 34
REMARK SMILES IDX 46 35 47 36 56 38 72 39 49 40 38 41 39 42 43 43 40 44 42 45
REMARK SMILES IDX 41 46 60 47 61 48 65 49 62 50 64 51 63 52 50 53 51 54 55 55
REMARK SMILES IDX 52 56 54 57 53 58 8 59 9 60 10 61 11 62 12 64 13 65 14 66
REMARK SMILES IDX 28 67 15 68 16 69 17 70 18 71 19 72 20 74 21 75 22 76 26 77
REMARK SMILES IDX 23 78 25 79 24 80 27 81
REMARK H PARENT 3 8 70 26 48 37 10 63 18 73 27 82
REMARK Flexibility Score: inf
ROOT
ATOM      1  C   UNL A   1      32.094  29.314  24.298  1.00  0.00     0.002 C 
ENDROOT
BRANCH   1   2
ATOM      2  C   UNL A   1      31.664  29.639  25.735  1.00  0.00     0.002 C 
BRANCH   2   3
ATOM      3  C   UNL A   1      32.209  28.681  26.797  1.00  0.00     0.021 C 
BRANCH   3   4
ATOM      4  C   UNL A   1      33.604  29.045  27.284  1.00  0.00     0.116 C 
BRANCH   4   5
ATOM      5  N   UNL A   1      33.643  30.406  27.787  1.00  0.00    -0.352 N 
ATOM      6  O   UNL A   1      34.400  32.065  29.119  1.00  0.00    -0.269 OA
ATOM      7  C   UNL A   1      34.614  31.004  28.549  1.00  0.00     0.251 C 
ATOM      8  H   UNL A   1      32.874  30.974  27.550  1.00  0.00     0.163 HD
BRANCH   7   9
ATOM      9  C   UNL A   1      35.930  30.346  28.663  1.00  0.00     0.039 A 
ATOM     10  C   UNL A   1      36.818  30.374  27.583  1.00  0.00     0.014 A 
ATOM     11  C   UNL A   1      36.289  29.733  29.865  1.00  0.00     0.014 A 
ATOM     12  C   UNL A   1      38.034  29.714  27.673  1.00  0.00     0.010 A 
ATOM     13  C   UNL A   1      37.549  29.145  29.985  1.00  0.00     0.010 A 
ATOM     14  C   UNL A   1      38.430  29.139  28.891  1.00  0.00    -0.014 A 
BRANCH  14  15
ATOM     15  C   UNL A   1      39.832  28.690  29.048  1.00  0.00     0.031 A 
ATOM     16  C   UNL A   1      40.276  27.330  28.604  1.00  0.00     0.074 A 
ATOM     17  C   UNL A   1      40.698  29.545  29.629  1.00  0.00     0.049 A 
ATOM     18  N   UNL A   1      41.460  26.786  28.708  1.00  0.00    -0.248 NA
ATOM     19  C   UNL A   1      39.270  26.467  27.966  1.00  0.00     0.031 C 
ATOM     20  C   UNL A   1      40.362  30.890  30.111  1.00  0.00     0.029 A 
ATOM     21  N   UNL A   1      42.033  29.419  29.912  1.00  0.00    -0.354 N 
ATOM     22  C   UNL A   1      41.340  25.510  28.174  1.00  0.00     0.074 A 
ATOM     23  C   UNL A   1      39.964  25.356  27.753  1.00  0.00     0.031 C 
ATOM     24  C   UNL A   1      41.463  31.472  30.603  1.00  0.00     0.029 A 
ATOM     25  C   UNL A   1      42.562  30.518  30.544  1.00  0.00     0.049 A 
ATOM     26  H   UNL A   1      42.561  28.619  29.686  1.00  0.00     0.167 HD
ATOM     27  C   UNL A   1      42.296  24.558  28.058  1.00  0.00     0.031 A 
ATOM     28  C   UNL A   1      43.786  30.723  31.063  1.00  0.00     0.031 A 
ATOM     29  C   UNL A   1      43.662  24.730  28.482  1.00  0.00     0.049 A 
ATOM     30  C   UNL A   1      44.802  29.625  30.960  1.00  0.00     0.074 A 
ATOM     31  C   UNL A   1      44.720  23.847  28.344  1.00  0.00     0.029 A 
ATOM     32  N   UNL A   1      44.153  25.844  29.143  1.00  0.00    -0.354 N 
ATOM     33  N   UNL A   1      44.694  28.456  30.378  1.00  0.00    -0.248 NA
ATOM     34  C   UNL A   1      46.105  29.871  31.590  1.00  0.00     0.031 C 
ATOM     35  C   UNL A   1      45.832  24.397  28.988  1.00  0.00     0.029 A 
ATOM     36  C   UNL A   1      45.486  25.649  29.467  1.00  0.00     0.049 A 
ATOM     37  H   UNL A   1      43.633  26.654  29.351  1.00  0.00     0.167 HD
ATOM     38  C   UNL A   1      45.918  27.830  30.565  1.00  0.00     0.074 A 
ATOM     39  C   UNL A   1      46.763  28.764  31.282  1.00  0.00     0.031 C 
ATOM     40  C   UNL A   1      46.306  26.588  30.188  1.00  0.00     0.031 A 
BRANCH  27  41
ATOM     41  C   UNL A   1      41.910  23.226  27.479  1.00  0.00    -0.014 A 
ATOM     42  C   UNL A   1      42.125  22.923  26.127  1.00  0.00     0.009 A 
ATOM     43  C   UNL A   1      41.420  22.222  28.331  1.00  0.00     0.009 A 
ATOM     44  C   UNL A   1      41.848  21.643  25.638  1.00  0.00     0.001 A 
ATOM     45  C   UNL A   1      41.167  20.939  27.845  1.00  0.00     0.001 A 
ATOM     46  C   UNL A   1      41.378  20.651  26.499  1.00  0.00     0.000 A 
ENDBRANCH  27  41
BRANCH  28  47
ATOM     47  C   UNL A   1      44.092  31.987  31.783  1.00  0.00    -0.014 A 
ATOM     48  C   UNL A   1      44.644  33.085  31.109  1.00  0.00     0.009 A 
ATOM     49  C   UNL A   1      43.852  32.090  33.163  1.00  0.00     0.009 A 
ATOM     50  C   UNL A   1      44.985  34.245  31.809  1.00  0.00     0.001 A 
ATOM     51  C   UNL A   1      44.157  33.264  33.853  1.00  0.00     0.001 A 
ATOM     52  C   UNL A   1      44.738  34.335  33.178  1.00  0.00     0.000 A 
ENDBRANCH  28  47
BRANCH  40  53
ATOM     53  C   UNL A   1      47.707  26.178  30.535  1.00  0.00    -0.014 A 
ATOM     54  C   UNL A   1      48.036  25.756  31.833  1.00  0.00     0.009 A 
ATOM     55  C   UNL A   1      48.700  26.176  29.543  1.00  0.00     0.009 A 
ATOM     56  C   UNL A   1      49.341  25.369  32.137  1.00  0.00     0.001 A 
ATOM     57  C   UNL A   1      49.997  25.758  29.844  1.00  0.00     0.001 A 
ATOM     58  C   UNL A   1      50.318  25.363  31.141  1.00  0.00     0.000 A 
ENDBRANCH  40  53
ENDBRANCH  14  15
ENDBRANCH   7   9
ENDBRANCH   4   5
ENDBRANCH   3   4
ENDBRANCH   2   3
ENDBRANCH   1   2
BRANCH   1  59
ATOM     59  C   UNL A   1      30.975  28.773  23.408  1.00  0.00     0.021 C 
BRANCH  59  60
ATOM     60  C   UNL A   1      31.024  27.258  23.247  1.00  0.00     0.116 C 
BRANCH  60  61
ATOM     61  N   UNL A   1      31.758  26.885  22.060  1.00  0.00    -0.354 N 
ATOM     62  C   UNL A   1      32.854  26.126  21.826  1.00  0.00     0.249 C 
ATOM     63  H   UNL A   1      31.375  27.269  21.238  1.00  0.00     0.163 HD
ATOM     64  O   UNL A   1      33.293  26.188  20.668  1.00  0.00    -0.272 OA
BRANCH  62  65
ATOM     65  C   UNL A   1      33.523  25.171  22.837  1.00  0.00     0.207 C 
ATOM     66  C   UNL A   1      32.945  24.911  24.208  1.00  0.00     0.045 C 
ATOM     67  O   UNL A   1      33.601  23.869  22.215  1.00  0.00    -0.363 OA
ATOM     68  C   UNL A   1      31.987  23.769  23.944  1.00  0.00     0.037 C 
ATOM     69  C   UNL A   1      32.746  22.948  22.918  1.00  0.00     0.138 C 
BRANCH  69  70
ATOM     70  C   UNL A   1      33.616  21.870  23.560  1.00  0.00     0.148 C 
BRANCH  70  71
ATOM     71  N   UNL A   1      33.277  21.618  24.952  1.00  0.00    -0.349 N 
ATOM     72  C   UNL A   1      34.104  21.690  26.042  1.00  0.00     0.255 C 
ATOM     73  H   UNL A   1      32.342  21.366  25.132  1.00  0.00     0.163 HD
ATOM     74  O   UNL A   1      33.683  21.388  27.156  1.00  0.00    -0.269 OA
BRANCH  72  75
ATOM     75  C   UNL A   1      35.528  22.035  25.855  1.00  0.00     0.081 A 
ATOM     76  C   UNL A   1      35.905  23.350  26.149  1.00  0.00     0.018 A 
ATOM     77  C   UNL A   1      36.491  21.105  25.445  1.00  0.00     0.128 A 
ATOM     78  C   UNL A   1      37.247  23.720  26.079  1.00  0.00     0.001 A 
ATOM     79  C   UNL A   1      37.834  21.474  25.385  1.00  0.00     0.047 A 
ATOM     80  C   UNL A   1      38.210  22.780  25.710  1.00  0.00     0.004 A 
BRANCH  77  81
ATOM     81  O   UNL A   1      36.129  19.827  25.117  1.00  0.00    -0.507 OA
ATOM     82  H   UNL A   1      36.115  19.161  25.775  1.00  0.00     0.293 HD
ENDBRANCH  77  81
ENDBRANCH  72  75
ENDBRANCH  70  71
ENDBRANCH  69  70
ENDBRANCH  62  65
ENDBRANCH  60  61
ENDBRANCH  59  60
ENDBRANCH   1  59
TORSDOF 17
ENDMDL
MODEL 2
REMARK VINA RESULT:     -10.3      3.141      4.828
REMARK SMILES O=C(NCCCCCCNC(=O)[C@H]1CC[C@H](CNC(=O)c2ccccc2O)O1)c1ccc(-c2c3nc(c(-c4ccccc4)c4ccc([nH]4)c(-c4ccccc4)c4nc(c(-c5ccccc5)c5ccc2[nH]5)C=C4)C=C3)cc1
REMARK SMILES IDX 7 1 6 2 5 3 4 4 3 5 1 6 2 7 29 9 30 10 76 11 31 12 75 13
REMARK SMILES IDX 32 14 33 15 34 16 69 17 35 18 74 19 68 20 70 21 36 22 73 23
REMARK SMILES IDX 67 24 66 25 37 27 59 28 44 29 58 30 45 31 48 32 57 33 71 34
REMARK SMILES IDX 46 35 47 36 56 38 72 39 49 40 38 41 39 42 43 43 40 44 42 45
REMARK SMILES IDX 41 46 60 47 61 48 65 49 62 50 64 51 63 52 50 53 51 54 55 55
REMARK SMILES IDX 52 56 54 57 53 58 8 59 9 60 10 61 11 62 12 64 13 65 14 66
REMARK SMILES IDX 28 67 15 68 16 69 17 70 18 71 19 72 20 74 21 75 22 76 26 77
REMARK SMILES IDX 23 78 25 79 24 80 27 81
REMARK H PARENT 3 8 70 26 48 37 10 63 18 73 27 82
REMARK Flexibility Score: inf
ROOT
ATOM      1  C   UNL A   1      32.548  29.096  26.698  1.00  0.00     0.002 C 
ENDROOT
BRANCH   1   2
ATOM      2  C   UNL A   1      31.895  30.169  25.816  1.00  0.00     0.002 C 
BRANCH   2   3
ATOM      3  C   UNL A   1      31.533  31.463  26.548  1.00  0.00     0.021 C 
BRANCH   3   4
ATOM      4  C   UNL A   1      32.730  32.156  27.182  1.00  0.00     0.116 C 
BRANCH   4   5
ATOM      5  N   UNL A   1      32.454  33.561  27.423  1.00  0.00    -0.352 N 
ATOM      6  O   UNL A   1      32.521  35.475  28.620  1.00  0.00    -0.269 OA
ATOM      7  C   UNL A   1      33.027  34.394  28.349  1.00  0.00     0.251 C 
ATOM      8  H   UNL A   1      31.768  33.969  26.846  1.00  0.00     0.163 HD
BRANCH   7   9
ATOM      9  C   UNL A   1      34.274  33.966  29.012  1.00  0.00     0.039 A 
ATOM     10  C   UNL A   1      34.214  33.206  30.184  1.00  0.00     0.014 A 
ATOM     11  C   UNL A   1      35.504  34.297  28.440  1.00  0.00     0.014 A 
ATOM     12  C   UNL A   1      35.385  32.846  30.833  1.00  0.00     0.010 A 
ATOM     13  C   UNL A   1      36.682  33.859  29.047  1.00  0.00     0.010 A 
ATOM     14  C   UNL A   1      36.627  33.125  30.243  1.00  0.00    -0.014 A 
BRANCH  14  15
ATOM     15  C   UNL A   1      37.844  32.495  30.804  1.00  0.00     0.031 A 
ATOM     16  C   UNL A   1      38.447  31.269  30.191  1.00  0.00     0.074 A 
ATOM     17  C   UNL A   1      38.383  33.054  31.906  1.00  0.00     0.049 A 
ATOM     18  N   UNL A   1      39.488  30.587  30.591  1.00  0.00    -0.248 NA
ATOM     19  C   UNL A   1      37.804  30.733  28.981  1.00  0.00     0.031 C 
ATOM     20  C   UNL A   1      37.863  34.245  32.590  1.00  0.00     0.029 A 
ATOM     21  N   UNL A   1      39.483  32.705  32.645  1.00  0.00    -0.354 N 
ATOM     22  C   UNL A   1      39.614  29.528  29.701  1.00  0.00     0.074 A 
ATOM     23  C   UNL A   1      38.537  29.653  28.742  1.00  0.00     0.031 C 
ATOM     24  C   UNL A   1      38.655  34.540  33.628  1.00  0.00     0.029 A 
ATOM     25  C   UNL A   1      39.691  33.522  33.731  1.00  0.00     0.049 A 
ATOM     26  H   UNL A   1      40.066  31.945  32.422  1.00  0.00     0.167 HD
ATOM     27  C   UNL A   1      40.544  28.544  29.698  1.00  0.00     0.031 A 
ATOM     28  C   UNL A   1      40.589  33.437  34.729  1.00  0.00     0.031 A 
ATOM     29  C   UNL A   1      41.610  28.437  30.660  1.00  0.00     0.049 A 
ATOM     30  C   UNL A   1      41.568  32.303  34.718  1.00  0.00     0.074 A 
ATOM     31  C   UNL A   1      42.640  27.512  30.700  1.00  0.00     0.029 A 
ATOM     32  N   UNL A   1      41.771  29.264  31.760  1.00  0.00    -0.354 N 
ATOM     33  N   UNL A   1      41.724  31.357  33.823  1.00  0.00    -0.248 NA
ATOM     34  C   UNL A   1      42.492  32.217  35.856  1.00  0.00     0.031 C 
ATOM     35  C   UNL A   1      43.381  27.735  31.864  1.00  0.00     0.029 A 
ATOM     36  C   UNL A   1      42.852  28.838  32.514  1.00  0.00     0.049 A 
ATOM     37  H   UNL A   1      41.202  30.039  31.975  1.00  0.00     0.167 HD
ATOM     38  C   UNL A   1      42.769  30.570  34.286  1.00  0.00     0.074 A 
ATOM     39  C   UNL A   1      43.231  31.170  35.522  1.00  0.00     0.031 C 
ATOM     40  C   UNL A   1      43.291  29.444  33.744  1.00  0.00     0.031 A 
BRANCH  27  41
ATOM     41  C   UNL A   1      40.446  27.474  28.647  1.00  0.00    -0.014 A 
ATOM     42  C   UNL A   1      39.678  26.318  28.845  1.00  0.00     0.009 A 
ATOM     43  C   UNL A   1      41.049  27.682  27.395  1.00  0.00     0.009 A 
ATOM     44  C   UNL A   1      39.525  25.386  27.815  1.00  0.00     0.001 A 
ATOM     45  C   UNL A   1      40.874  26.764  26.360  1.00  0.00     0.001 A 
ATOM     46  C   UNL A   1      40.115  25.615  26.571  1.00  0.00     0.000 A 
ENDBRANCH  27  41
BRANCH  28  47
ATOM     47  C   UNL A   1      40.556  34.411  35.851  1.00  0.00    -0.014 A 
ATOM     48  C   UNL A   1      39.778  34.170  36.992  1.00  0.00     0.009 A 
ATOM     49  C   UNL A   1      41.291  35.606  35.772  1.00  0.00     0.009 A 
ATOM     50  C   UNL A   1      39.707  35.122  38.012  1.00  0.00     0.001 A 
ATOM     51  C   UNL A   1      41.248  36.538  36.810  1.00  0.00     0.001 A 
ATOM     52  C   UNL A   1      40.444  36.301  37.922  1.00  0.00     0.000 A 
ENDBRANCH  28  47
BRANCH  40  53
ATOM     53  C   UNL A   1      44.428  28.800  34.482  1.00  0.00    -0.014 A 
ATOM     54  C   UNL A   1      44.196  27.786  35.425  1.00  0.00     0.009 A 
ATOM     55  C   UNL A   1      45.749  29.183  34.201  1.00  0.00     0.009 A 
ATOM     56  C   UNL A   1      45.264  27.190  36.095  1.00  0.00     0.001 A 
ATOM     57  C   UNL A   1      46.817  28.561  34.849  1.00  0.00     0.001 A 
ATOM     58  C   UNL A   1      46.574  27.573  35.801  1.00  0.00     0.000 A 
ENDBRANCH  40  53
ENDBRANCH  14  15
ENDBRANCH   7   9
ENDBRANCH   4   5
ENDBRANCH   3   4
ENDBRANCH   2   3
ENDBRANCH   1   2
BRANCH   1  59
ATOM     59  C   UNL A   1      32.823  27.770  25.985  1.00  0.00     0.021 C 
BRANCH  59  60
ATOM     60  C   UNL A   1      31.918  27.545  24.780  1.00  0.00     0.116 C 
BRANCH  60  61
ATOM     61  N   UNL A   1      32.693  27.356  23.576  1.00  0.00    -0.354 N 
ATOM     62  C   UNL A   1      33.232  26.279  22.957  1.00  0.00     0.249 C 
ATOM     63  H   UNL A   1      32.870  28.199  23.099  1.00  0.00     0.163 HD
ATOM     64  O   UNL A   1      33.995  26.546  22.017  1.00  0.00    -0.272 OA
BRANCH  62  65
ATOM     65  C   UNL A   1      32.917  24.802  23.279  1.00  0.00     0.207 C 
ATOM     66  C   UNL A   1      33.241  23.679  22.322  1.00  0.00     0.045 C 
ATOM     67  O   UNL A   1      33.621  24.467  24.496  1.00  0.00    -0.363 OA
ATOM     68  C   UNL A   1      34.666  23.335  22.699  1.00  0.00     0.037 C 
ATOM     69  C   UNL A   1      34.644  23.496  24.207  1.00  0.00     0.138 C 
BRANCH  69  70
ATOM     70  C   UNL A   1      34.299  22.196  24.930  1.00  0.00     0.148 C 
BRANCH  70  71
ATOM     71  N   UNL A   1      32.965  22.204  25.510  1.00  0.00    -0.349 N 
ATOM     72  C   UNL A   1      32.021  21.212  25.455  1.00  0.00     0.255 C 
ATOM     73  H   UNL A   1      32.710  23.020  25.999  1.00  0.00     0.163 HD
ATOM     74  O   UNL A   1      30.909  21.391  25.946  1.00  0.00    -0.269 OA
BRANCH  72  75
ATOM     75  C   UNL A   1      32.315  19.966  24.717  1.00  0.00     0.081 A 
ATOM     76  C   UNL A   1      32.164  20.004  23.326  1.00  0.00     0.018 A 
ATOM     77  C   UNL A   1      32.765  18.797  25.342  1.00  0.00     0.128 A 
ATOM     78  C   UNL A   1      32.509  18.892  22.560  1.00  0.00     0.001 A 
ATOM     79  C   UNL A   1      33.118  17.689  24.574  1.00  0.00     0.047 A 
ATOM     80  C   UNL A   1      32.997  17.742  23.183  1.00  0.00     0.004 A 
BRANCH  77  81
ATOM     81  O   UNL A   1      32.878  18.735  26.704  1.00  0.00    -0.507 OA
ATOM     82  H   UNL A   1      32.559  17.985  27.167  1.00  0.00     0.293 HD
ENDBRANCH  77  81
ENDBRANCH  72  75
ENDBRANCH  70  71
ENDBRANCH  69  70
ENDBRANCH  62  65
ENDBRANCH  60  61
ENDBRANCH  59  60
ENDBRANCH   1  59
TORSDOF 17
ENDMDL
MODEL 3
REMARK VINA RESULT:     -10.2      2.513      6.905
REMARK SMILES O=C(NCCCCCCNC(=O)[C@H]1CC[C@H](CNC(=O)c2ccccc2O)O1)c1ccc(-c2c3nc(c(-c4ccccc4)c4ccc([nH]4)c(-c4ccccc4)c4nc(c(-c5ccccc5)c5ccc2[nH]5)C=C4)C=C3)cc1
REMARK SMILES IDX 7 1 6 2 5 3 4 4 3 5 1 6 2 7 29 9 30 10 76 11 31 12 75 13
REMARK SMILES IDX 32 14 33 15 34 16 69 17 35 18 74 19 68 20 70 21 36 22 73 23
REMARK SMILES IDX 67 24 66 25 37 27 59 28 44 29 58 30 45 31 48 32 57 33 71 34
REMARK SMILES IDX 46 35 47 36 56 38 72 39 49 40 38 41 39 42 43 43 40 44 42 45
REMARK SMILES IDX 41 46 60 47 61 48 65 49 62 50 64 51 63 52 50 53 51 54 55 55
REMARK SMILES IDX 52 56 54 57 53 58 8 59 9 60 10 61 11 62 12 64 13 65 14 66
REMARK SMILES IDX 28 67 15 68 16 69 17 70 18 71 19 72 20 74 21 75 22 76 26 77
REMARK SMILES IDX 23 78 25 79 24 80 27 81
REMARK H PARENT 3 8 70 26 48 37 10 63 18 73 27 82
REMARK Flexibility Score: inf
ROOT
ATOM      1  C   UNL A   1      33.270  29.597  26.082  1.00  0.00     0.002 C 
ENDROOT
BRANCH   1   2
ATOM      2  C   UNL A   1      31.883  30.215  25.857  1.00  0.00     0.002 C 
BRANCH   2   3
ATOM      3  C   UNL A   1      31.594  31.460  26.698  1.00  0.00     0.021 C 
BRANCH   3   4
ATOM      4  C   UNL A   1      32.848  32.141  27.224  1.00  0.00     0.116 C 
BRANCH   4   5
ATOM      5  N   UNL A   1      32.602  33.544  27.506  1.00  0.00    -0.352 N 
ATOM      6  O   UNL A   1      32.715  35.421  28.756  1.00  0.00    -0.269 OA
ATOM      7  C   UNL A   1      33.198  34.338  28.452  1.00  0.00     0.251 C 
ATOM      8  H   UNL A   1      31.922  33.982  26.945  1.00  0.00     0.163 HD
BRANCH   7   9
ATOM      9  C   UNL A   1      34.439  33.867  29.094  1.00  0.00     0.039 A 
ATOM     10  C   UNL A   1      34.370  33.085  30.252  1.00  0.00     0.014 A 
ATOM     11  C   UNL A   1      35.672  34.177  28.517  1.00  0.00     0.014 A 
ATOM     12  C   UNL A   1      35.538  32.683  30.883  1.00  0.00     0.010 A 
ATOM     13  C   UNL A   1      36.844  33.698  29.105  1.00  0.00     0.010 A 
ATOM     14  C   UNL A   1      36.782  32.943  30.287  1.00  0.00    -0.014 A 
BRANCH  14  15
ATOM     15  C   UNL A   1      37.987  32.272  30.823  1.00  0.00     0.031 A 
ATOM     16  C   UNL A   1      38.766  32.850  31.964  1.00  0.00     0.074 A 
ATOM     17  C   UNL A   1      38.375  31.124  30.231  1.00  0.00     0.049 A 
ATOM     18  N   UNL A   1      39.860  32.394  32.517  1.00  0.00    -0.248 NA
ATOM     19  C   UNL A   1      38.264  34.098  32.560  1.00  0.00     0.031 C 
ATOM     20  C   UNL A   1      37.692  30.483  29.102  1.00  0.00     0.029 A 
ATOM     21  N   UNL A   1      39.431  30.290  30.493  1.00  0.00    -0.354 N 
ATOM     22  C   UNL A   1      40.193  33.307  33.508  1.00  0.00     0.074 A 
ATOM     23  C   UNL A   1      39.190  34.350  33.478  1.00  0.00     0.031 C 
ATOM     24  C   UNL A   1      38.327  29.347  28.787  1.00  0.00     0.029 A 
ATOM     25  C   UNL A   1      39.503  29.218  29.636  1.00  0.00     0.049 A 
ATOM     26  H   UNL A   1      40.074  30.443  31.222  1.00  0.00     0.167 HD
ATOM     27  C   UNL A   1      41.247  33.272  34.358  1.00  0.00     0.031 A 
ATOM     28  C   UNL A   1      40.438  28.259  29.513  1.00  0.00     0.031 A 
ATOM     29  C   UNL A   1      42.236  32.225  34.375  1.00  0.00     0.049 A 
ATOM     30  C   UNL A   1      41.617  28.285  30.438  1.00  0.00     0.074 A 
ATOM     31  C   UNL A   1      43.304  32.067  35.243  1.00  0.00     0.029 A 
ATOM     32  N   UNL A   1      42.293  31.174  33.475  1.00  0.00    -0.354 N 
ATOM     33  N   UNL A   1      41.873  29.110  31.424  1.00  0.00    -0.248 NA
ATOM     34  C   UNL A   1      42.641  27.253  30.231  1.00  0.00     0.031 C 
ATOM     35  C   UNL A   1      44.048  30.962  34.821  1.00  0.00     0.029 A 
ATOM     36  C   UNL A   1      43.408  30.393  33.733  1.00  0.00     0.049 A 
ATOM     37  H   UNL A   1      41.639  31.005  32.758  1.00  0.00     0.167 HD
ATOM     38  C   UNL A   1      43.083  28.691  31.960  1.00  0.00     0.074 A 
ATOM     39  C   UNL A   1      43.489  27.518  31.213  1.00  0.00     0.031 C 
ATOM     40  C   UNL A   1      43.799  29.235  32.973  1.00  0.00     0.031 A 
BRANCH  27  41
ATOM     41  C   UNL A   1      41.422  34.409  35.325  1.00  0.00    -0.014 A 
ATOM     42  C   UNL A   1      42.167  35.549  34.991  1.00  0.00     0.009 A 
ATOM     43  C   UNL A   1      40.737  34.380  36.551  1.00  0.00     0.009 A 
ATOM     44  C   UNL A   1      42.231  36.633  35.871  1.00  0.00     0.001 A 
ATOM     45  C   UNL A   1      40.782  35.474  37.417  1.00  0.00     0.001 A 
ATOM     46  C   UNL A   1      41.531  36.598  37.078  1.00  0.00     0.000 A 
ENDBRANCH  27  41
BRANCH  28  47
ATOM     47  C   UNL A   1      40.331  27.242  28.435  1.00  0.00    -0.014 A 
ATOM     48  C   UNL A   1      40.946  27.442  27.191  1.00  0.00     0.009 A 
ATOM     49  C   UNL A   1      39.587  26.068  28.642  1.00  0.00     0.009 A 
ATOM     50  C   UNL A   1      40.786  26.508  26.165  1.00  0.00     0.001 A 
ATOM     51  C   UNL A   1      39.461  25.117  27.628  1.00  0.00     0.001 A 
ATOM     52  C   UNL A   1      40.048  25.346  26.386  1.00  0.00     0.000 A 
ENDBRANCH  28  47
BRANCH  40  53
ATOM     53  C   UNL A   1      45.088  28.556  33.334  1.00  0.00    -0.014 A 
ATOM     54  C   UNL A   1      46.303  28.958  32.756  1.00  0.00     0.009 A 
ATOM     55  C   UNL A   1      45.093  27.531  34.292  1.00  0.00     0.009 A 
ATOM     56  C   UNL A   1      47.494  28.324  33.110  1.00  0.00     0.001 A 
ATOM     57  C   UNL A   1      46.291  26.922  34.668  1.00  0.00     0.001 A 
ATOM     58  C   UNL A   1      47.488  27.312  34.070  1.00  0.00     0.000 A 
ENDBRANCH  40  53
ENDBRANCH  14  15
ENDBRANCH   7   9
ENDBRANCH   4   5
ENDBRANCH   3   4
ENDBRANCH   2   3
ENDBRANCH   1   2
BRANCH   1  59
ATOM     59  C   UNL A   1      33.623  28.462  25.119  1.00  0.00     0.021 C 
BRANCH  59  60
ATOM     60  C   UNL A   1      32.407  27.897  24.395  1.00  0.00     0.116 C 
BRANCH  60  61
ATOM     61  N   UNL A   1      32.780  27.329  23.120  1.00  0.00    -0.354 N 
ATOM     62  C   UNL A   1      33.392  26.183  22.738  1.00  0.00     0.249 C 
ATOM     63  H   UNL A   1      32.534  27.904  22.359  1.00  0.00     0.163 HD
ATOM     64  O   UNL A   1      33.700  26.132  21.538  1.00  0.00    -0.272 OA
BRANCH  62  65
ATOM     65  C   UNL A   1      33.655  24.957  23.638  1.00  0.00     0.207 C 
ATOM     66  C   UNL A   1      32.759  24.601  24.801  1.00  0.00     0.045 C 
ATOM     67  O   UNL A   1      33.643  23.788  22.790  1.00  0.00    -0.363 OA
ATOM     68  C   UNL A   1      31.701  23.742  24.143  1.00  0.00     0.037 C 
ATOM     69  C   UNL A   1      32.513  22.961  23.126  1.00  0.00     0.138 C 
BRANCH  69  70
ATOM     70  C   UNL A   1      33.028  21.635  23.681  1.00  0.00     0.148 C 
BRANCH  70  71
ATOM     71  N   UNL A   1      32.855  21.516  25.120  1.00  0.00    -0.349 N 
ATOM     72  C   UNL A   1      33.829  21.513  26.084  1.00  0.00     0.255 C 
ATOM     73  H   UNL A   1      31.928  21.425  25.439  1.00  0.00     0.163 HD
ATOM     74  O   UNL A   1      33.528  21.341  27.263  1.00  0.00    -0.269 OA
BRANCH  72  75
ATOM     75  C   UNL A   1      35.248  21.616  25.687  1.00  0.00     0.081 A 
ATOM     76  C   UNL A   1      35.870  22.854  25.880  1.00  0.00     0.018 A 
ATOM     77  C   UNL A   1      35.978  20.536  25.177  1.00  0.00     0.128 A 
ATOM     78  C   UNL A   1      37.231  22.997  25.610  1.00  0.00     0.001 A 
ATOM     79  C   UNL A   1      37.340  20.677  24.917  1.00  0.00     0.047 A 
ATOM     80  C   UNL A   1      37.965  21.907  25.142  1.00  0.00     0.004 A 
BRANCH  77  81
ATOM     81  O   UNL A   1      35.371  19.332  24.947  1.00  0.00    -0.507 OA
ATOM     82  H   UNL A   1      35.599  18.830  24.189  1.00  0.00     0.293 HD
ENDBRANCH  77  81
ENDBRANCH  72  75
ENDBRANCH  70  71
ENDBRANCH  69  70
ENDBRANCH  62  65
ENDBRANCH  60  61
ENDBRANCH  59  60
ENDBRANCH   1  59
TORSDOF 17
ENDMDL
