MODEL 1
REMARK VINA RESULT:     -11.5      0.000      0.000
REMARK SMILES O=C(Cc1ccn(-c2ccccc2F)c1)NCCCCCCNC(=O)c1ccc(-c2c3nc(c(-c4ccccc4)c4ccc([nH]4)c(-c4ccccc4)c4nc(c(-c5ccccc5)c5ccc2[nH]5)C=C4)C=C3)cc1
REMARK SMILES IDX 19 1 18 2 17 3 16 4 1 5 2 6 3 8 4 9 5 10 15 11 6 12 7 13
REMARK SMILES IDX 8 14 9 15 13 16 10 17 12 18 14 19 11 20 20 21 21 22 22 23
REMARK SMILES IDX 23 24 24 25 25 27 26 28 27 29 73 30 28 31 72 32 29 33 30 34
REMARK SMILES IDX 31 35 66 36 32 37 71 38 65 39 67 40 33 41 70 42 64 43 63 44
REMARK SMILES IDX 34 46 56 47 41 48 55 49 42 50 45 51 54 52 68 53 43 54 44 55
REMARK SMILES IDX 53 57 69 58 46 59 35 60 36 61 40 62 37 63 39 64 38 65 57 66
REMARK SMILES IDX 58 67 62 68 59 69 61 70 60 71 47 72 48 73 52 74 49 75 51 76
REMARK SMILES IDX 50 77
REMARK H PARENT 16 7 23 26 67 45 45 56
REMARK Flexibility Score: inf
ROOT
ATOM      1  C   UNL A   1      31.605  28.655  25.367  1.00  0.00     0.002 C 
ENDROOT
BRANCH   1   2
ATOM      2  C   UNL A   1      31.863  28.276  23.901  1.00  0.00     0.021 C 
BRANCH   2   3
ATOM      3  C   UNL A   1      33.299  27.865  23.586  1.00  0.00     0.116 C 
BRANCH   3   4
ATOM      4  N   UNL A   1      33.735  26.777  24.432  1.00  0.00    -0.356 N 
ATOM      5  O   UNL A   1      33.461  25.092  22.895  1.00  0.00    -0.275 OA
ATOM      6  C   UNL A   1      33.844  25.472  23.998  1.00  0.00     0.224 C 
ATOM      7  H   UNL A   1      33.966  26.978  25.368  1.00  0.00     0.163 HD
BRANCH   6   8
ATOM      8  C   UNL A   1      34.469  24.537  25.028  1.00  0.00     0.137 C 
BRANCH   8   9
ATOM      9  C   UNL A   1      33.831  23.178  25.050  1.00  0.00    -0.021 A 
ATOM     10  C   UNL A   1      32.552  22.851  25.582  1.00  0.00     0.024 A 
ATOM     11  C   UNL A   1      34.353  21.987  24.580  1.00  0.00     0.095 A 
ATOM     12  C   UNL A   1      32.307  21.520  25.315  1.00  0.00     0.091 A 
ATOM     13  N   UNL A   1      33.420  20.983  24.708  1.00  0.00    -0.321 N 
BRANCH  13  14
ATOM     14  C   UNL A   1      33.576  19.673  24.209  1.00  0.00     0.081 A 
ATOM     15  C   UNL A   1      34.549  18.831  24.755  1.00  0.00     0.030 A 
ATOM     16  C   UNL A   1      32.702  19.190  23.231  1.00  0.00     0.147 A 
ATOM     17  C   UNL A   1      34.605  17.495  24.346  1.00  0.00     0.002 A 
ATOM     18  C   UNL A   1      32.791  17.873  22.792  1.00  0.00     0.041 A 
ATOM     19  F   UNL A   1      31.790  19.989  22.658  1.00  0.00    -0.205 F 
ATOM     20  C   UNL A   1      33.733  17.019  23.364  1.00  0.00     0.003 A 
ENDBRANCH  13  14
ENDBRANCH   8   9
ENDBRANCH   6   8
ENDBRANCH   3   4
ENDBRANCH   2   3
ENDBRANCH   1   2
BRANCH   1  21
ATOM     21  C   UNL A   1      32.404  29.854  25.891  1.00  0.00     0.002 C 
BRANCH  21  22
ATOM     22  C   UNL A   1      32.949  29.706  27.318  1.00  0.00     0.021 C 
BRANCH  22  23
ATOM     23  C   UNL A   1      34.471  29.810  27.419  1.00  0.00     0.116 C 
BRANCH  23  24
ATOM     24  N   UNL A   1      34.868  30.772  28.433  1.00  0.00    -0.352 N 
ATOM     25  C   UNL A   1      35.971  30.780  29.248  1.00  0.00     0.251 C 
ATOM     26  H   UNL A   1      34.254  31.532  28.552  1.00  0.00     0.163 HD
ATOM     27  O   UNL A   1      35.951  31.439  30.282  1.00  0.00    -0.269 OA
BRANCH  25  28
ATOM     28  C   UNL A   1      37.184  30.008  28.906  1.00  0.00     0.039 A 
ATOM     29  C   UNL A   1      37.805  29.272  29.924  1.00  0.00     0.014 A 
ATOM     30  C   UNL A   1      37.770  30.090  27.638  1.00  0.00     0.014 A 
ATOM     31  C   UNL A   1      38.978  28.575  29.657  1.00  0.00     0.010 A 
ATOM     32  C   UNL A   1      38.928  29.373  27.358  1.00  0.00     0.010 A 
ATOM     33  C   UNL A   1      39.523  28.607  28.366  1.00  0.00    -0.014 A 
BRANCH  33  34
ATOM     34  C   UNL A   1      40.632  27.686  28.037  1.00  0.00     0.031 A 
ATOM     35  C   UNL A   1      41.969  28.438  27.898  1.00  0.00     0.074 A 
ATOM     36  C   UNL A   1      40.313  26.363  27.885  1.00  0.00     0.049 A 
ATOM     37  N   UNL A   1      43.045  28.105  27.257  1.00  0.00    -0.248 NA
ATOM     38  C   UNL A   1      42.124  29.782  28.527  1.00  0.00     0.031 C 
ATOM     39  C   UNL A   1      38.964  25.794  28.113  1.00  0.00     0.029 A 
ATOM     40  N   UNL A   1      41.021  25.236  27.514  1.00  0.00    -0.354 N 
ATOM     41  C   UNL A   1      44.029  29.088  27.511  1.00  0.00     0.074 A 
ATOM     42  C   UNL A   1      43.379  30.134  28.238  1.00  0.00     0.031 C 
ATOM     43  C   UNL A   1      38.933  24.479  27.803  1.00  0.00     0.029 A 
ATOM     44  C   UNL A   1      40.243  24.058  27.351  1.00  0.00     0.049 A 
ATOM     45  H   UNL A   1      41.995  25.248  27.373  1.00  0.00     0.167 HD
ATOM     46  C   UNL A   1      45.349  28.918  27.199  1.00  0.00     0.031 A 
ATOM     47  C   UNL A   1      40.609  22.841  26.840  1.00  0.00     0.031 A 
ATOM     48  C   UNL A   1      45.526  27.704  26.482  1.00  0.00     0.049 A 
ATOM     49  C   UNL A   1      42.061  22.910  26.632  1.00  0.00     0.074 A 
ATOM     50  C   UNL A   1      45.179  27.320  25.214  1.00  0.00     0.029 A 
ATOM     51  N   UNL A   1      45.792  26.589  27.238  1.00  0.00    -0.354 N 
ATOM     52  N   UNL A   1      42.951  22.870  27.575  1.00  0.00    -0.248 NA
ATOM     53  C   UNL A   1      42.571  23.103  25.268  1.00  0.00     0.031 C 
ATOM     54  C   UNL A   1      44.739  25.993  25.396  1.00  0.00     0.029 A 
ATOM     55  C   UNL A   1      45.065  25.566  26.689  1.00  0.00     0.049 A 
ATOM     56  H   UNL A   1      46.388  26.536  28.020  1.00  0.00     0.167 HD
ATOM     57  C   UNL A   1      44.039  23.436  26.962  1.00  0.00     0.074 A 
ATOM     58  C   UNL A   1      43.867  23.232  25.540  1.00  0.00     0.031 C 
ATOM     59  C   UNL A   1      44.664  24.486  27.555  1.00  0.00     0.031 A 
BRANCH  46  60
ATOM     60  C   UNL A   1      46.593  29.617  27.672  1.00  0.00    -0.014 A 
ATOM     61  C   UNL A   1      46.922  29.499  29.047  1.00  0.00     0.009 A 
ATOM     62  C   UNL A   1      47.230  30.630  26.949  1.00  0.00     0.009 A 
ATOM     63  C   UNL A   1      47.737  30.428  29.697  1.00  0.00     0.001 A 
ATOM     64  C   UNL A   1      48.082  31.540  27.594  1.00  0.00     0.001 A 
ATOM     65  C   UNL A   1      48.301  31.465  28.970  1.00  0.00     0.000 A 
ENDBRANCH  46  60
BRANCH  47  66
ATOM     66  C   UNL A   1      39.949  21.564  26.380  1.00  0.00    -0.014 A 
ATOM     67  C   UNL A   1      38.728  21.458  25.712  1.00  0.00     0.009 A 
ATOM     68  C   UNL A   1      40.645  20.334  26.569  1.00  0.00     0.009 A 
ATOM     69  C   UNL A   1      38.291  20.221  25.183  1.00  0.00     0.001 A 
ATOM     70  C   UNL A   1      40.244  19.119  26.010  1.00  0.00     0.001 A 
ATOM     71  C   UNL A   1      39.064  19.065  25.297  1.00  0.00     0.000 A 
ENDBRANCH  47  66
BRANCH  59  72
ATOM     72  C   UNL A   1      44.476  24.589  29.061  1.00  0.00    -0.014 A 
ATOM     73  C   UNL A   1      44.665  25.822  29.704  1.00  0.00     0.009 A 
ATOM     74  C   UNL A   1      44.227  23.473  29.882  1.00  0.00     0.009 A 
ATOM     75  C   UNL A   1      44.628  25.934  31.100  1.00  0.00     0.001 A 
ATOM     76  C   UNL A   1      44.186  23.580  31.281  1.00  0.00     0.001 A 
ATOM     77  C   UNL A   1      44.391  24.813  31.891  1.00  0.00     0.000 A 
ENDBRANCH  59  72
ENDBRANCH  33  34
ENDBRANCH  25  28
ENDBRANCH  23  24
ENDBRANCH  22  23
ENDBRANCH  21  22
ENDBRANCH   1  21
TORSDOF 15
ENDMDL
MODEL 2
REMARK VINA RESULT:     -11.4      2.360      3.520
REMARK SMILES O=C(Cc1ccn(-c2ccccc2F)c1)NCCCCCCNC(=O)c1ccc(-c2c3nc(c(-c4ccccc4)c4ccc([nH]4)c(-c4ccccc4)c4nc(c(-c5ccccc5)c5ccc2[nH]5)C=C4)C=C3)cc1
REMARK SMILES IDX 19 1 18 2 17 3 16 4 1 5 2 6 3 8 4 9 5 10 15 11 6 12 7 13
REMARK SMILES IDX 8 14 9 15 13 16 10 17 12 18 14 19 11 20 20 21 21 22 22 23
REMARK SMILES IDX 23 24 24 25 25 27 26 28 27 29 73 30 28 31 72 32 29 33 30 34
REMARK SMILES IDX 31 35 66 36 32 37 71 38 65 39 67 40 33 41 70 42 64 43 63 44
REMARK SMILES IDX 34 46 56 47 41 48 55 49 42 50 45 51 54 52 68 53 43 54 44 55
REMARK SMILES IDX 53 57 69 58 46 59 35 60 36 61 40 62 37 63 39 64 38 65 57 66
REMARK SMILES IDX 58 67 62 68 59 69 61 70 60 71 47 72 48 73 52 74 49 75 51 76
REMARK SMILES IDX 50 77
REMARK H PARENT 16 7 23 26 67 45 45 56
REMARK Flexibility Score: inf
ROOT
ATOM      1  C   UNL A   1      32.592  27.093  25.051  1.00  0.00     0.002 C 
ENDROOT
BRANCH   1   2
ATOM      2  C   UNL A   1      31.070  26.960  24.902  1.00  0.00     0.021 C 
BRANCH   2   3
ATOM      3  C   UNL A   1      30.407  26.006  25.893  1.00  0.00     0.116 C 
BRANCH   3   4
ATOM      4  N   UNL A   1      30.757  24.631  25.617  1.00  0.00    -0.356 N 
ATOM      5  O   UNL A   1      29.766  23.705  27.471  1.00  0.00    -0.275 OA
ATOM      6  C   UNL A   1      30.351  23.570  26.401  1.00  0.00     0.224 C 
ATOM      7  H   UNL A   1      31.315  24.441  24.828  1.00  0.00     0.163 HD
BRANCH   6   8
ATOM      8  C   UNL A   1      30.716  22.208  25.820  1.00  0.00     0.137 C 
BRANCH   8   9
ATOM      9  C   UNL A   1      32.091  22.178  25.217  1.00  0.00    -0.021 A 
ATOM     10  C   UNL A   1      32.407  22.125  23.830  1.00  0.00     0.024 A 
ATOM     11  C   UNL A   1      33.308  22.182  25.874  1.00  0.00     0.095 A 
ATOM     12  C   UNL A   1      33.778  22.211  23.701  1.00  0.00     0.091 A 
ATOM     13  N   UNL A   1      34.335  22.235  24.959  1.00  0.00    -0.321 N 
BRANCH  13  14
ATOM     14  C   UNL A   1      35.698  22.382  25.291  1.00  0.00     0.081 A 
ATOM     15  C   UNL A   1      36.558  21.283  25.207  1.00  0.00     0.030 A 
ATOM     16  C   UNL A   1      36.205  23.644  25.615  1.00  0.00     0.147 A 
ATOM     17  C   UNL A   1      37.929  21.471  25.407  1.00  0.00     0.002 A 
ATOM     18  C   UNL A   1      37.563  23.818  25.860  1.00  0.00     0.041 A 
ATOM     19  F   UNL A   1      35.395  24.705  25.747  1.00  0.00    -0.205 F 
ATOM     20  C   UNL A   1      38.429  22.733  25.738  1.00  0.00     0.003 A 
ENDBRANCH  13  14
ENDBRANCH   8   9
ENDBRANCH   6   8
ENDBRANCH   3   4
ENDBRANCH   2   3
ENDBRANCH   1   2
BRANCH   1  21
ATOM     21  C   UNL A   1      33.124  28.525  25.170  1.00  0.00     0.002 C 
BRANCH  21  22
ATOM     22  C   UNL A   1      34.270  28.719  26.172  1.00  0.00     0.021 C 
BRANCH  22  23
ATOM     23  C   UNL A   1      33.808  29.013  27.599  1.00  0.00     0.116 C 
BRANCH  23  24
ATOM     24  N   UNL A   1      34.021  30.408  27.947  1.00  0.00    -0.352 N 
ATOM     25  C   UNL A   1      35.050  30.990  28.642  1.00  0.00     0.251 C 
ATOM     26  H   UNL A   1      33.322  31.028  27.637  1.00  0.00     0.163 HD
ATOM     27  O   UNL A   1      34.880  32.085  29.166  1.00  0.00    -0.269 OA
BRANCH  25  28
ATOM     28  C   UNL A   1      36.361  30.320  28.777  1.00  0.00     0.039 A 
ATOM     29  C   UNL A   1      37.185  30.250  27.646  1.00  0.00     0.014 A 
ATOM     30  C   UNL A   1      36.733  29.671  29.959  1.00  0.00     0.014 A 
ATOM     31  C   UNL A   1      38.403  29.583  27.716  1.00  0.00     0.010 A 
ATOM     32  C   UNL A   1      37.961  29.026  30.043  1.00  0.00     0.010 A 
ATOM     33  C   UNL A   1      38.799  28.993  28.924  1.00  0.00    -0.014 A 
BRANCH  33  34
ATOM     34  C   UNL A   1      40.184  28.490  29.050  1.00  0.00     0.031 A 
ATOM     35  C   UNL A   1      41.176  29.633  29.335  1.00  0.00     0.074 A 
ATOM     36  C   UNL A   1      40.372  27.146  28.875  1.00  0.00     0.049 A 
ATOM     37  N   UNL A   1      42.453  29.694  29.123  1.00  0.00    -0.248 NA
ATOM     38  C   UNL A   1      40.673  30.919  29.900  1.00  0.00     0.031 C 
ATOM     39  C   UNL A   1      39.280  26.167  28.658  1.00  0.00     0.029 A 
ATOM     40  N   UNL A   1      41.481  26.323  28.836  1.00  0.00    -0.354 N 
ATOM     41  C   UNL A   1      42.926  30.922  29.643  1.00  0.00     0.074 A 
ATOM     42  C   UNL A   1      41.771  31.666  30.041  1.00  0.00     0.031 C 
ATOM     43  C   UNL A   1      39.775  24.930  28.433  1.00  0.00     0.029 A 
ATOM     44  C   UNL A   1      41.222  24.971  28.485  1.00  0.00     0.049 A 
ATOM     45  H   UNL A   1      42.387  26.651  29.037  1.00  0.00     0.167 HD
ATOM     46  C   UNL A   1      44.254  31.196  29.813  1.00  0.00     0.031 A 
ATOM     47  C   UNL A   1      42.105  23.964  28.202  1.00  0.00     0.031 A 
ATOM     48  C   UNL A   1      45.041  30.143  29.273  1.00  0.00     0.049 A 
ATOM     49  C   UNL A   1      43.439  24.499  28.501  1.00  0.00     0.074 A 
ATOM     50  C   UNL A   1      45.291  29.743  27.987  1.00  0.00     0.029 A 
ATOM     51  N   UNL A   1      45.368  29.128  30.137  1.00  0.00    -0.354 N 
ATOM     52  N   UNL A   1      43.914  24.689  29.693  1.00  0.00    -0.248 NA
ATOM     53  C   UNL A   1      44.298  24.921  27.387  1.00  0.00     0.031 C 
ATOM     54  C   UNL A   1      45.259  28.336  28.084  1.00  0.00     0.029 A 
ATOM     55  C   UNL A   1      45.237  27.961  29.432  1.00  0.00     0.049 A 
ATOM     56  H   UNL A   1      45.644  29.221  31.078  1.00  0.00     0.167 HD
ATOM     57  C   UNL A   1      44.909  25.604  29.460  1.00  0.00     0.074 A 
ATOM     58  C   UNL A   1      45.310  25.438  28.080  1.00  0.00     0.031 C 
ATOM     59  C   UNL A   1      44.926  26.762  30.169  1.00  0.00     0.031 A 
BRANCH  46  60
ATOM     60  C   UNL A   1      44.971  32.224  30.644  1.00  0.00    -0.014 A 
ATOM     61  C   UNL A   1      44.923  32.070  32.053  1.00  0.00     0.009 A 
ATOM     62  C   UNL A   1      45.368  33.471  30.152  1.00  0.00     0.009 A 
ATOM     63  C   UNL A   1      45.125  33.143  32.924  1.00  0.00     0.001 A 
ATOM     64  C   UNL A   1      45.611  34.540  31.029  1.00  0.00     0.001 A 
ATOM     65  C   UNL A   1      45.450  34.387  32.406  1.00  0.00     0.000 A 
ENDBRANCH  46  60
BRANCH  47  66
ATOM     66  C   UNL A   1      42.083  22.572  27.618  1.00  0.00    -0.014 A 
ATOM     67  C   UNL A   1      41.127  21.586  27.867  1.00  0.00     0.009 A 
ATOM     68  C   UNL A   1      43.081  22.220  26.663  1.00  0.00     0.009 A 
ATOM     69  C   UNL A   1      41.118  20.376  27.133  1.00  0.00     0.001 A 
ATOM     70  C   UNL A   1      43.052  21.050  25.902  1.00  0.00     0.001 A 
ATOM     71  C   UNL A   1      42.052  20.126  26.127  1.00  0.00     0.000 A 
ENDBRANCH  47  66
BRANCH  59  72
ATOM     72  C   UNL A   1      44.210  26.714  31.511  1.00  0.00    -0.014 A 
ATOM     73  C   UNL A   1      43.097  27.539  31.736  1.00  0.00     0.009 A 
ATOM     74  C   UNL A   1      44.674  25.955  32.601  1.00  0.00     0.009 A 
ATOM     75  C   UNL A   1      42.488  27.620  32.995  1.00  0.00     0.001 A 
ATOM     76  C   UNL A   1      44.065  26.030  33.864  1.00  0.00     0.001 A 
ATOM     77  C   UNL A   1      42.973  26.868  34.062  1.00  0.00     0.000 A 
ENDBRANCH  59  72
ENDBRANCH  33  34
ENDBRANCH  25  28
ENDBRANCH  23  24
ENDBRANCH  22  23
ENDBRANCH  21  22
ENDBRANCH   1  21
TORSDOF 15
ENDMDL
MODEL 3
REMARK VINA RESULT:     -11.4      2.021      6.799
REMARK SMILES O=C(Cc1ccn(-c2ccccc2F)c1)NCCCCCCNC(=O)c1ccc(-c2c3nc(c(-c4ccccc4)c4ccc([nH]4)c(-c4ccccc4)c4nc(c(-c5ccccc5)c5ccc2[nH]5)C=C4)C=C3)cc1
REMARK SMILES IDX 19 1 18 2 17 3 16 4 1 5 2 6 3 8 4 9 5 10 15 11 6 12 7 13
REMARK SMILES IDX 8 14 9 15 13 16 10 17 12 18 14 19 11 20 20 21 21 22 22 23
REMARK SMILES IDX 23 24 24 25 25 27 26 28 27 29 73 30 28 31 72 32 29 33 30 34
REMARK SMILES IDX 31 35 66 36 32 37 71 38 65 39 67 40 33 41 70 42 64 43 63 44
REMARK SMILES IDX 34 46 56 47 41 48 55 49 42 50 45 51 54 52 68 53 43 54 44 55
REMARK SMILES IDX 53 57 69 58 46 59 35 60 36 61 40 62 37 63 39 64 38 65 57 66
REMARK SMILES IDX 58 67 62 68 59 69 61 70 60 71 47 72 48 73 52 74 49 75 51 76
REMARK SMILES IDX 50 77
REMARK H PARENT 16 7 23 26 67 45 45 56
REMARK Flexibility Score: inf
ROOT
ATOM      1  C   UNL A   1      32.732  27.716  24.002  1.00  0.00     0.002 C 
ENDROOT
BRANCH   1   2
ATOM      2  C   UNL A   1      31.317  28.298  24.143  1.00  0.00     0.021 C 
BRANCH   2   3
ATOM      3  C   UNL A   1      30.224  27.269  24.420  1.00  0.00     0.116 C 
BRANCH   3   4
ATOM      4  N   UNL A   1      30.725  25.919  24.297  1.00  0.00    -0.356 N 
ATOM      5  O   UNL A   1      30.215  25.229  26.429  1.00  0.00    -0.275 OA
ATOM      6  C   UNL A   1      30.623  24.976  25.300  1.00  0.00     0.224 C 
ATOM      7  H   UNL A   1      31.162  25.659  23.455  1.00  0.00     0.163 HD
BRANCH   6   8
ATOM      8  C   UNL A   1      31.086  23.586  24.877  1.00  0.00     0.137 C 
BRANCH   8   9
ATOM      9  C   UNL A   1      32.407  23.199  25.477  1.00  0.00    -0.021 A 
ATOM     10  C   UNL A   1      32.758  23.250  26.856  1.00  0.00     0.024 A 
ATOM     11  C   UNL A   1      33.535  22.737  24.824  1.00  0.00     0.095 A 
ATOM     12  C   UNL A   1      34.024  22.719  26.993  1.00  0.00     0.091 A 
ATOM     13  N   UNL A   1      34.509  22.414  25.742  1.00  0.00    -0.321 N 
BRANCH  13  14
ATOM     14  C   UNL A   1      35.735  21.792  25.425  1.00  0.00     0.081 A 
ATOM     15  C   UNL A   1      36.935  22.482  25.620  1.00  0.00     0.030 A 
ATOM     16  C   UNL A   1      35.754  20.461  25.002  1.00  0.00     0.147 A 
ATOM     17  C   UNL A   1      38.147  21.811  25.431  1.00  0.00     0.002 A 
ATOM     18  C   UNL A   1      36.961  19.811  24.769  1.00  0.00     0.041 A 
ATOM     19  F   UNL A   1      34.616  19.791  24.763  1.00  0.00    -0.205 F 
ATOM     20  C   UNL A   1      38.160  20.481  25.002  1.00  0.00     0.003 A 
ENDBRANCH  13  14
ENDBRANCH   8   9
ENDBRANCH   6   8
ENDBRANCH   3   4
ENDBRANCH   2   3
ENDBRANCH   1   2
BRANCH   1  21
ATOM     21  C   UNL A   1      33.545  27.632  25.298  1.00  0.00     0.002 C 
BRANCH  21  22
ATOM     22  C   UNL A   1      33.993  28.979  25.881  1.00  0.00     0.021 C 
BRANCH  22  23
ATOM     23  C   UNL A   1      34.776  28.865  27.189  1.00  0.00     0.116 C 
BRANCH  23  24
ATOM     24  N   UNL A   1      35.081  30.175  27.738  1.00  0.00    -0.352 N 
ATOM     25  C   UNL A   1      36.109  30.562  28.558  1.00  0.00     0.251 C 
ATOM     26  H   UNL A   1      34.456  30.891  27.484  1.00  0.00     0.163 HD
ATOM     27  O   UNL A   1      35.998  31.587  29.221  1.00  0.00    -0.269 OA
BRANCH  25  28
ATOM     28  C   UNL A   1      37.350  29.766  28.662  1.00  0.00     0.039 A 
ATOM     29  C   UNL A   1      38.219  29.752  27.563  1.00  0.00     0.014 A 
ATOM     30  C   UNL A   1      37.608  28.954  29.773  1.00  0.00     0.014 A 
ATOM     31  C   UNL A   1      39.371  28.973  27.600  1.00  0.00     0.010 A 
ATOM     32  C   UNL A   1      38.771  28.194  29.826  1.00  0.00     0.010 A 
ATOM     33  C   UNL A   1      39.656  28.215  28.744  1.00  0.00    -0.014 A 
BRANCH  33  34
ATOM     34  C   UNL A   1      40.985  27.577  28.862  1.00  0.00     0.031 A 
ATOM     35  C   UNL A   1      40.942  26.099  28.431  1.00  0.00     0.074 A 
ATOM     36  C   UNL A   1      42.004  28.355  29.343  1.00  0.00     0.049 A 
ATOM     37  N   UNL A   1      41.732  25.121  28.746  1.00  0.00    -0.248 NA
ATOM     38  C   UNL A   1      39.833  25.621  27.555  1.00  0.00     0.031 C 
ATOM     39  C   UNL A   1      41.880  29.797  29.662  1.00  0.00     0.029 A 
ATOM     40  N   UNL A   1      43.326  28.121  29.665  1.00  0.00    -0.354 N 
ATOM     41  C   UNL A   1      41.325  23.978  28.020  1.00  0.00     0.074 A 
ATOM     42  C   UNL A   1      40.105  24.328  27.361  1.00  0.00     0.031 C 
ATOM     43  C   UNL A   1      43.025  30.276  30.197  1.00  0.00     0.029 A 
ATOM     44  C   UNL A   1      44.004  29.212  30.275  1.00  0.00     0.049 A 
ATOM     45  H   UNL A   1      43.769  27.261  29.484  1.00  0.00     0.167 HD
ATOM     46  C   UNL A   1      42.088  22.848  27.921  1.00  0.00     0.031 A 
ATOM     47  C   UNL A   1      45.245  29.247  30.853  1.00  0.00     0.031 A 
ATOM     48  C   UNL A   1      43.237  22.963  28.750  1.00  0.00     0.049 A 
ATOM     49  C   UNL A   1      45.860  27.944  30.573  1.00  0.00     0.074 A 
ATOM     50  C   UNL A   1      43.400  22.952  30.109  1.00  0.00     0.029 A 
ATOM     51  N   UNL A   1      44.354  23.500  28.162  1.00  0.00    -0.354 N 
ATOM     52  N   UNL A   1      46.320  27.571  29.419  1.00  0.00    -0.248 NA
ATOM     53  C   UNL A   1      45.912  26.942  31.646  1.00  0.00     0.031 C 
ATOM     54  C   UNL A   1      44.370  23.954  30.318  1.00  0.00     0.029 A 
ATOM     55  C   UNL A   1      44.914  24.341  29.088  1.00  0.00     0.049 A 
ATOM     56  H   UNL A   1      44.689  23.317  27.254  1.00  0.00     0.167 HD
ATOM     57  C   UNL A   1      46.321  26.205  29.542  1.00  0.00     0.074 A 
ATOM     58  C   UNL A   1      46.406  25.916  30.957  1.00  0.00     0.031 C 
ATOM     59  C   UNL A   1      45.691  25.453  28.603  1.00  0.00     0.031 A 
BRANCH  46  60
ATOM     60  C   UNL A   1      42.056  21.692  26.959  1.00  0.00    -0.014 A 
ATOM     61  C   UNL A   1      41.218  20.596  27.289  1.00  0.00     0.009 A 
ATOM     62  C   UNL A   1      43.030  21.479  25.979  1.00  0.00     0.009 A 
ATOM     63  C   UNL A   1      41.430  19.318  26.768  1.00  0.00     0.001 A 
ATOM     64  C   UNL A   1      43.217  20.202  25.426  1.00  0.00     0.001 A 
ATOM     65  C   UNL A   1      42.448  19.118  25.849  1.00  0.00     0.000 A 
ENDBRANCH  46  60
BRANCH  47  66
ATOM     66  C   UNL A   1      46.061  30.175  31.721  1.00  0.00    -0.014 A 
ATOM     67  C   UNL A   1      47.064  31.044  31.288  1.00  0.00     0.009 A 
ATOM     68  C   UNL A   1      45.756  30.247  33.112  1.00  0.00     0.009 A 
ATOM     69  C   UNL A   1      47.644  31.986  32.170  1.00  0.00     0.001 A 
ATOM     70  C   UNL A   1      46.290  31.204  33.976  1.00  0.00     0.001 A 
ATOM     71  C   UNL A   1      47.231  32.092  33.498  1.00  0.00     0.000 A 
ENDBRANCH  47  66
BRANCH  59  72
ATOM     72  C   UNL A   1      45.529  26.114  27.242  1.00  0.00    -0.014 A 
ATOM     73  C   UNL A   1      46.629  26.198  26.374  1.00  0.00     0.009 A 
ATOM     74  C   UNL A   1      44.345  26.757  26.837  1.00  0.00     0.009 A 
ATOM     75  C   UNL A   1      46.559  26.909  25.169  1.00  0.00     0.001 A 
ATOM     76  C   UNL A   1      44.269  27.468  25.628  1.00  0.00     0.001 A 
ATOM     77  C   UNL A   1      45.379  27.547  24.795  1.00  0.00     0.000 A 
ENDBRANCH  59  72
ENDBRANCH  33  34
ENDBRANCH  25  28
ENDBRANCH  23  24
ENDBRANCH  22  23
ENDBRANCH  21  22
ENDBRANCH   1  21
TORSDOF 15
ENDMDL
