MODEL 1
REMARK VINA RESULT:     -10.2      0.000      0.000
REMARK SMILES Cc1nnc(S[C@@H](C)CCO)c(C(=O)NCCCCCCNC(=O)c2ccc(-c3c4nc(c(-c5ccccc5)c5ccc([nH]5)c(-c5ccccc5)c5nc(c(-c6ccccc6)c6ccc3[nH]6)C=C5)C=C4)cc2)c1C
REMARK SMILES IDX 17 1 16 2 15 3 13 4 14 5 12 7 1 8 2 9 3 10 73 11 4 12 74 13
REMARK SMILES IDX 5 14 6 15 7 16 8 17 9 18 10 19 11 20 18 22 19 23 20 24 21 25
REMARK SMILES IDX 22 26 23 27 24 29 25 30 26 31 72 32 27 33 71 34 28 35 29 36
REMARK SMILES IDX 30 37 65 38 31 39 70 40 64 41 66 42 32 43 69 44 63 45 62 46
REMARK SMILES IDX 33 48 55 49 40 50 54 51 41 52 44 53 53 54 67 55 42 56 43 57
REMARK SMILES IDX 52 59 68 60 45 61 34 62 35 63 39 64 36 65 38 66 37 67 56 68
REMARK SMILES IDX 57 69 61 70 58 71 60 72 59 73 46 74 47 75 51 76 48 77 50 78
REMARK SMILES IDX 49 79
REMARK H PARENT 15 6 11 21 22 28 66 47 44 58
REMARK Flexibility Score: inf
ROOT
ATOM      1  C   UNL A   1      32.301  28.260  26.768  1.00  0.00     0.021 C 
ENDROOT
BRANCH   1   2
ATOM      2  C   UNL A   1      33.630  27.643  26.347  1.00  0.00     0.116 C 
BRANCH   2   3
ATOM      3  N   UNL A   1      33.877  27.583  24.921  1.00  0.00    -0.352 N 
ATOM      4  C   UNL A   1      33.418  26.723  23.941  1.00  0.00     0.254 C 
ATOM      5  O   UNL A   1      33.507  27.118  22.785  1.00  0.00    -0.269 OA
ATOM      6  H   UNL A   1      34.484  28.283  24.589  1.00  0.00     0.163 HD
BRANCH   4   7
ATOM      7  C   UNL A   1      32.848  25.378  24.208  1.00  0.00     0.078 A 
ATOM      8  C   UNL A   1      33.899  21.718  24.733  1.00  0.00     0.069 C 
ATOM      9  C   UNL A   1      33.116  22.987  24.563  1.00  0.00     0.064 A 
ATOM     10  N   UNL A   1      31.788  22.840  24.589  1.00  0.00    -0.155 NA
ATOM     11  C   UNL A   1      33.701  24.248  24.396  1.00  0.00    -0.012 A 
ATOM     12  N   UNL A   1      30.986  23.940  24.547  1.00  0.00    -0.143 NA
ATOM     13  C   UNL A   1      35.201  24.332  24.501  1.00  0.00     0.047 C 
ATOM     14  C   UNL A   1      31.466  25.205  24.412  1.00  0.00     0.132 A 
BRANCH  14  15
ATOM     15  S   UNL A   1      30.097  26.272  24.822  1.00  0.00    -0.101 SA
BRANCH  15  16
ATOM     16  C   UNL A   1      29.594  27.439  23.504  1.00  0.00     0.052 C 
ATOM     17  C   UNL A   1      28.071  27.600  23.481  1.00  0.00     0.020 C 
BRANCH  16  18
ATOM     18  C   UNL A   1      30.427  28.708  23.308  1.00  0.00     0.043 C 
BRANCH  18  19
ATOM     19  C   UNL A   1      29.742  29.729  22.393  1.00  0.00     0.157 C 
BRANCH  19  20
ATOM     20  O   UNL A   1      30.580  30.053  21.288  1.00  0.00    -0.396 OA
ATOM     21  H   UNL A   1      30.582  29.318  20.656  1.00  0.00     0.210 HD
ENDBRANCH  19  20
ENDBRANCH  18  19
ENDBRANCH  16  18
ENDBRANCH  15  16
ENDBRANCH  14  15
ENDBRANCH   4   7
ENDBRANCH   2   3
ENDBRANCH   1   2
BRANCH   1  22
ATOM     22  C   UNL A   1      32.264  29.757  27.096  1.00  0.00     0.002 C 
BRANCH  22  23
ATOM     23  C   UNL A   1      31.556  30.712  26.133  1.00  0.00     0.002 C 
BRANCH  23  24
ATOM     24  C   UNL A   1      31.400  32.168  26.566  1.00  0.00     0.021 C 
BRANCH  24  25
ATOM     25  C   UNL A   1      32.607  32.786  27.253  1.00  0.00     0.116 C 
BRANCH  25  26
ATOM     26  N   UNL A   1      32.389  34.171  27.630  1.00  0.00    -0.352 N 
ATOM     27  C   UNL A   1      33.029  34.897  28.605  1.00  0.00     0.251 C 
ATOM     28  H   UNL A   1      31.694  34.650  27.123  1.00  0.00     0.163 HD
ATOM     29  O   UNL A   1      32.640  36.009  28.928  1.00  0.00    -0.269 OA
BRANCH  27  30
ATOM     30  C   UNL A   1      34.197  34.295  29.275  1.00  0.00     0.039 A 
ATOM     31  C   UNL A   1      33.995  33.485  30.393  1.00  0.00     0.014 A 
ATOM     32  C   UNL A   1      35.482  34.509  28.764  1.00  0.00     0.014 A 
ATOM     33  C   UNL A   1      35.090  32.855  30.986  1.00  0.00     0.010 A 
ATOM     34  C   UNL A   1      36.560  33.830  29.315  1.00  0.00     0.010 A 
ATOM     35  C   UNL A   1      36.375  33.017  30.443  1.00  0.00    -0.014 A 
BRANCH  35  36
ATOM     36  C   UNL A   1      37.555  32.412  31.096  1.00  0.00     0.031 A 
ATOM     37  C   UNL A   1      38.205  31.214  30.465  1.00  0.00     0.074 A 
ATOM     38  C   UNL A   1      38.024  32.915  32.252  1.00  0.00     0.049 A 
ATOM     39  N   UNL A   1      39.237  30.527  30.879  1.00  0.00    -0.248 NA
ATOM     40  C   UNL A   1      37.609  30.715  29.215  1.00  0.00     0.031 C 
ATOM     41  C   UNL A   1      37.467  34.067  32.962  1.00  0.00     0.029 A 
ATOM     42  N   UNL A   1      39.084  32.521  33.028  1.00  0.00    -0.354 N 
ATOM     43  C   UNL A   1      39.408  29.517  29.944  1.00  0.00     0.074 A 
ATOM     44  C   UNL A   1      38.347  29.642  28.973  1.00  0.00     0.031 C 
ATOM     45  C   UNL A   1      38.212  34.306  34.054  1.00  0.00     0.029 A 
ATOM     46  C   UNL A   1      39.276  33.309  34.137  1.00  0.00     0.049 A 
ATOM     47  H   UNL A   1      39.653  31.747  32.812  1.00  0.00     0.167 HD
ATOM     48  C   UNL A   1      40.383  28.582  29.884  1.00  0.00     0.031 A 
ATOM     49  C   UNL A   1      40.209  33.239  35.105  1.00  0.00     0.031 A 
ATOM     50  C   UNL A   1      41.447  28.469  30.841  1.00  0.00     0.049 A 
ATOM     51  C   UNL A   1      41.261  32.169  35.042  1.00  0.00     0.074 A 
ATOM     52  C   UNL A   1      42.508  27.582  30.839  1.00  0.00     0.029 A 
ATOM     53  N   UNL A   1      41.584  29.265  31.965  1.00  0.00    -0.354 N 
ATOM     54  N   UNL A   1      41.436  31.245  34.129  1.00  0.00    -0.248 NA
ATOM     55  C   UNL A   1      42.244  32.133  36.133  1.00  0.00     0.031 C 
ATOM     56  C   UNL A   1      43.260  27.807  31.993  1.00  0.00     0.029 A 
ATOM     57  C   UNL A   1      42.698  28.871  32.683  1.00  0.00     0.049 A 
ATOM     58  H   UNL A   1      40.979  30.000  32.217  1.00  0.00     0.167 HD
ATOM     59  C   UNL A   1      42.558  30.528  34.523  1.00  0.00     0.074 A 
ATOM     60  C   UNL A   1      43.026  31.127  35.757  1.00  0.00     0.031 C 
ATOM     61  C   UNL A   1      43.147  29.473  33.912  1.00  0.00     0.031 A 
BRANCH  48  62
ATOM     62  C   UNL A   1      40.351  27.613  28.740  1.00  0.00    -0.014 A 
ATOM     63  C   UNL A   1      40.968  27.920  27.518  1.00  0.00     0.009 A 
ATOM     64  C   UNL A   1      39.758  26.353  28.908  1.00  0.00     0.009 A 
ATOM     65  C   UNL A   1      40.978  26.987  26.479  1.00  0.00     0.001 A 
ATOM     66  C   UNL A   1      39.792  25.413  27.878  1.00  0.00     0.001 A 
ATOM     67  C   UNL A   1      40.398  25.733  26.663  1.00  0.00     0.000 A 
ENDBRANCH  48  62
BRANCH  49  68
ATOM     68  C   UNL A   1      40.197  34.254  36.189  1.00  0.00    -0.014 A 
ATOM     69  C   UNL A   1      40.906  35.454  36.039  1.00  0.00     0.009 A 
ATOM     70  C   UNL A   1      39.410  34.066  37.336  1.00  0.00     0.009 A 
ATOM     71  C   UNL A   1      40.820  36.452  37.013  1.00  0.00     0.001 A 
ATOM     72  C   UNL A   1      39.312  35.073  38.300  1.00  0.00     0.001 A 
ATOM     73  C   UNL A   1      40.016  36.265  38.137  1.00  0.00     0.000 A 
ENDBRANCH  49  68
BRANCH  61  74
ATOM     74  C   UNL A   1      44.369  28.878  34.547  1.00  0.00    -0.014 A 
ATOM     75  C   UNL A   1      44.275  27.734  35.353  1.00  0.00     0.009 A 
ATOM     76  C   UNL A   1      45.638  29.378  34.213  1.00  0.00     0.009 A 
ATOM     77  C   UNL A   1      45.432  27.102  35.814  1.00  0.00     0.001 A 
ATOM     78  C   UNL A   1      46.792  28.729  34.655  1.00  0.00     0.001 A 
ATOM     79  C   UNL A   1      46.688  27.592  35.454  1.00  0.00     0.000 A 
ENDBRANCH  61  74
ENDBRANCH  35  36
ENDBRANCH  27  30
ENDBRANCH  25  26
ENDBRANCH  24  25
ENDBRANCH  23  24
ENDBRANCH  22  23
ENDBRANCH   1  22
TORSDOF 18
ENDMDL
MODEL 2
REMARK VINA RESULT:     -10.1      1.268      6.068
REMARK SMILES Cc1nnc(S[C@@H](C)CCO)c(C(=O)NCCCCCCNC(=O)c2ccc(-c3c4nc(c(-c5ccccc5)c5ccc([nH]5)c(-c5ccccc5)c5nc(c(-c6ccccc6)c6ccc3[nH]6)C=C5)C=C4)cc2)c1C
REMARK SMILES IDX 17 1 16 2 15 3 13 4 14 5 12 7 1 8 2 9 3 10 73 11 4 12 74 13
REMARK SMILES IDX 5 14 6 15 7 16 8 17 9 18 10 19 11 20 18 22 19 23 20 24 21 25
REMARK SMILES IDX 22 26 23 27 24 29 25 30 26 31 72 32 27 33 71 34 28 35 29 36
REMARK SMILES IDX 30 37 65 38 31 39 70 40 64 41 66 42 32 43 69 44 63 45 62 46
REMARK SMILES IDX 33 48 55 49 40 50 54 51 41 52 44 53 53 54 67 55 42 56 43 57
REMARK SMILES IDX 52 59 68 60 45 61 34 62 35 63 39 64 36 65 38 66 37 67 56 68
REMARK SMILES IDX 57 69 61 70 58 71 60 72 59 73 46 74 47 75 51 76 48 77 50 78
REMARK SMILES IDX 49 79
REMARK H PARENT 15 6 11 21 22 28 66 47 44 58
REMARK Flexibility Score: inf
ROOT
ATOM      1  C   UNL A   1      32.714  28.538  26.784  1.00  0.00     0.021 C 
ENDROOT
BRANCH   1   2
ATOM      2  C   UNL A   1      33.965  27.744  26.427  1.00  0.00     0.116 C 
BRANCH   2   3
ATOM      3  N   UNL A   1      34.010  27.203  25.085  1.00  0.00    -0.352 N 
ATOM      4  C   UNL A   1      33.460  26.061  24.532  1.00  0.00     0.254 C 
ATOM      5  O   UNL A   1      33.364  26.039  23.311  1.00  0.00    -0.269 OA
ATOM      6  H   UNL A   1      34.528  27.747  24.449  1.00  0.00     0.163 HD
BRANCH   4   7
ATOM      7  C   UNL A   1      33.002  24.888  25.319  1.00  0.00     0.078 A 
ATOM      8  C   UNL A   1      34.336  21.738  27.073  1.00  0.00     0.069 C 
ATOM      9  C   UNL A   1      33.457  22.816  26.508  1.00  0.00     0.064 A 
ATOM     10  N   UNL A   1      32.146  22.628  26.688  1.00  0.00    -0.155 NA
ATOM     11  C   UNL A   1      33.943  23.949  25.844  1.00  0.00    -0.012 A 
ATOM     12  N   UNL A   1      31.267  23.596  26.306  1.00  0.00    -0.143 NA
ATOM     13  C   UNL A   1      35.436  24.135  25.796  1.00  0.00     0.047 C 
ATOM     14  C   UNL A   1      31.649  24.740  25.678  1.00  0.00     0.132 A 
BRANCH  14  15
ATOM     15  S   UNL A   1      30.232  25.819  25.769  1.00  0.00    -0.101 SA
BRANCH  15  16
ATOM     16  C   UNL A   1      29.807  26.685  24.212  1.00  0.00     0.052 C 
ATOM     17  C   UNL A   1      28.307  26.575  23.929  1.00  0.00     0.020 C 
BRANCH  16  18
ATOM     18  C   UNL A   1      30.467  28.038  23.937  1.00  0.00     0.043 C 
BRANCH  18  19
ATOM     19  C   UNL A   1      29.709  28.862  22.890  1.00  0.00     0.157 C 
BRANCH  19  20
ATOM     20  O   UNL A   1      30.379  28.815  21.634  1.00  0.00    -0.396 OA
ATOM     21  H   UNL A   1      31.172  28.262  21.710  1.00  0.00     0.210 HD
ENDBRANCH  19  20
ENDBRANCH  18  19
ENDBRANCH  16  18
ENDBRANCH  15  16
ENDBRANCH  14  15
ENDBRANCH   4   7
ENDBRANCH   2   3
ENDBRANCH   1   2
BRANCH   1  22
ATOM     22  C   UNL A   1      32.768  30.067  26.684  1.00  0.00     0.002 C 
BRANCH  22  23
ATOM     23  C   UNL A   1      31.511  30.829  26.255  1.00  0.00     0.002 C 
BRANCH  23  24
ATOM     24  C   UNL A   1      31.375  32.282  26.706  1.00  0.00     0.021 C 
BRANCH  24  25
ATOM     25  C   UNL A   1      32.671  32.976  27.096  1.00  0.00     0.116 C 
BRANCH  25  26
ATOM     26  N   UNL A   1      32.446  34.207  27.832  1.00  0.00    -0.352 N 
ATOM     27  C   UNL A   1      33.168  34.709  28.888  1.00  0.00     0.251 C 
ATOM     28  H   UNL A   1      31.680  34.750  27.537  1.00  0.00     0.163 HD
ATOM     29  O   UNL A   1      32.778  35.680  29.520  1.00  0.00    -0.269 OA
BRANCH  27  30
ATOM     30  C   UNL A   1      34.428  34.037  29.260  1.00  0.00     0.039 A 
ATOM     31  C   UNL A   1      35.604  34.384  28.594  1.00  0.00     0.014 A 
ATOM     32  C   UNL A   1      34.436  33.095  30.293  1.00  0.00     0.014 A 
ATOM     33  C   UNL A   1      36.808  33.805  28.991  1.00  0.00     0.010 A 
ATOM     34  C   UNL A   1      35.645  32.570  30.731  1.00  0.00     0.010 A 
ATOM     35  C   UNL A   1      36.835  32.903  30.068  1.00  0.00    -0.014 A 
BRANCH  35  36
ATOM     36  C   UNL A   1      38.092  32.229  30.460  1.00  0.00     0.031 A 
ATOM     37  C   UNL A   1      38.952  32.848  31.523  1.00  0.00     0.074 A 
ATOM     38  C   UNL A   1      38.467  31.088  29.855  1.00  0.00     0.049 A 
ATOM     39  N   UNL A   1      40.093  32.429  32.003  1.00  0.00    -0.248 NA
ATOM     40  C   UNL A   1      38.476  34.111  32.112  1.00  0.00     0.031 C 
ATOM     41  C   UNL A   1      37.718  30.401  28.802  1.00  0.00     0.029 A 
ATOM     42  N   UNL A   1      39.576  30.303  30.047  1.00  0.00    -0.354 N 
ATOM     43  C   UNL A   1      40.469  33.377  32.945  1.00  0.00     0.074 A 
ATOM     44  C   UNL A   1      39.469  34.419  32.932  1.00  0.00     0.031 C 
ATOM     45  C   UNL A   1      38.373  29.278  28.464  1.00  0.00     0.029 A 
ATOM     46  C   UNL A   1      39.600  29.183  29.253  1.00  0.00     0.049 A 
ATOM     47  H   UNL A   1      40.285  30.521  30.693  1.00  0.00     0.167 HD
ATOM     48  C   UNL A   1      41.540  33.365  33.769  1.00  0.00     0.031 A 
ATOM     49  C   UNL A   1      40.504  28.188  29.174  1.00  0.00     0.031 A 
ATOM     50  C   UNL A   1      42.524  32.320  33.793  1.00  0.00     0.049 A 
ATOM     51  C   UNL A   1      41.708  28.213  30.071  1.00  0.00     0.074 A 
ATOM     52  C   UNL A   1      43.621  32.197  34.625  1.00  0.00     0.029 A 
ATOM     53  N   UNL A   1      42.528  31.223  32.948  1.00  0.00    -0.354 N 
ATOM     54  N   UNL A   1      42.031  29.094  30.986  1.00  0.00    -0.248 NA
ATOM     55  C   UNL A   1      42.669  27.110  29.931  1.00  0.00     0.031 C 
ATOM     56  C   UNL A   1      44.321  31.049  34.248  1.00  0.00     0.029 A 
ATOM     57  C   UNL A   1      43.629  30.429  33.219  1.00  0.00     0.049 A 
ATOM     58  H   UNL A   1      41.852  31.035  32.258  1.00  0.00     0.167 HD
ATOM     59  C   UNL A   1      43.220  28.645  31.545  1.00  0.00     0.074 A 
ATOM     60  C   UNL A   1      43.560  27.410  30.869  1.00  0.00     0.031 C 
ATOM     61  C   UNL A   1      43.956  29.207  32.533  1.00  0.00     0.031 A 
BRANCH  48  62
ATOM     62  C   UNL A   1      41.699  34.512  34.722  1.00  0.00    -0.014 A 
ATOM     63  C   UNL A   1      41.277  34.405  36.055  1.00  0.00     0.009 A 
ATOM     64  C   UNL A   1      42.342  35.686  34.300  1.00  0.00     0.009 A 
ATOM     65  C   UNL A   1      41.481  35.461  36.946  1.00  0.00     0.001 A 
ATOM     66  C   UNL A   1      42.568  36.729  35.199  1.00  0.00     0.001 A 
ATOM     67  C   UNL A   1      42.134  36.617  36.520  1.00  0.00     0.000 A 
ENDBRANCH  48  62
BRANCH  49  68
ATOM     68  C   UNL A   1      40.262  27.069  28.229  1.00  0.00    -0.014 A 
ATOM     69  C   UNL A   1      40.847  27.082  26.955  1.00  0.00     0.009 A 
ATOM     70  C   UNL A   1      39.520  25.945  28.627  1.00  0.00     0.009 A 
ATOM     71  C   UNL A   1      40.702  25.987  26.100  1.00  0.00     0.001 A 
ATOM     72  C   UNL A   1      39.392  24.845  27.777  1.00  0.00     0.001 A 
ATOM     73  C   UNL A   1      39.983  24.866  26.514  1.00  0.00     0.000 A 
ENDBRANCH  49  68
BRANCH  61  74
ATOM     74  C   UNL A   1      45.212  28.508  32.965  1.00  0.00    -0.014 A 
ATOM     75  C   UNL A   1      45.167  27.468  33.906  1.00  0.00     0.009 A 
ATOM     76  C   UNL A   1      46.424  28.792  32.315  1.00  0.00     0.009 A 
ATOM     77  C   UNL A   1      46.316  26.724  34.186  1.00  0.00     0.001 A 
ATOM     78  C   UNL A   1      47.563  28.031  32.581  1.00  0.00     0.001 A 
ATOM     79  C   UNL A   1      47.508  26.998  33.515  1.00  0.00     0.000 A 
ENDBRANCH  61  74
ENDBRANCH  35  36
ENDBRANCH  27  30
ENDBRANCH  25  26
ENDBRANCH  24  25
ENDBRANCH  23  24
ENDBRANCH  22  23
ENDBRANCH   1  22
TORSDOF 18
ENDMDL
MODEL 3
REMARK VINA RESULT:      -9.8      1.373      6.244
REMARK SMILES Cc1nnc(S[C@@H](C)CCO)c(C(=O)NCCCCCCNC(=O)c2ccc(-c3c4nc(c(-c5ccccc5)c5ccc([nH]5)c(-c5ccccc5)c5nc(c(-c6ccccc6)c6ccc3[nH]6)C=C5)C=C4)cc2)c1C
REMARK SMILES IDX 17 1 16 2 15 3 13 4 14 5 12 7 1 8 2 9 3 10 73 11 4 12 74 13
REMARK SMILES IDX 5 14 6 15 7 16 8 17 9 18 10 19 11 20 18 22 19 23 20 24 21 25
REMARK SMILES IDX 22 26 23 27 24 29 25 30 26 31 72 32 27 33 71 34 28 35 29 36
REMARK SMILES IDX 30 37 65 38 31 39 70 40 64 41 66 42 32 43 69 44 63 45 62 46
REMARK SMILES IDX 33 48 55 49 40 50 54 51 41 52 44 53 53 54 67 55 42 56 43 57
REMARK SMILES IDX 52 59 68 60 45 61 34 62 35 63 39 64 36 65 38 66 37 67 56 68
REMARK SMILES IDX 57 69 61 70 58 71 60 72 59 73 46 74 47 75 51 76 48 77 50 78
REMARK SMILES IDX 49 79
REMARK H PARENT 15 6 11 21 22 28 66 47 44 58
REMARK Flexibility Score: inf
ROOT
ATOM      1  C   UNL A   1      32.982  28.661  25.794  1.00  0.00     0.021 C 
ENDROOT
BRANCH   1   2
ATOM      2  C   UNL A   1      32.595  27.537  26.749  1.00  0.00     0.116 C 
BRANCH   2   3
ATOM      3  N   UNL A   1      31.228  27.068  26.656  1.00  0.00    -0.352 N 
ATOM      4  C   UNL A   1      30.553  26.387  25.660  1.00  0.00     0.254 C 
ATOM      5  O   UNL A   1      29.520  25.818  25.993  1.00  0.00    -0.269 OA
ATOM      6  H   UNL A   1      30.678  27.273  27.445  1.00  0.00     0.163 HD
BRANCH   4   7
ATOM      7  C   UNL A   1      30.996  26.319  24.244  1.00  0.00     0.078 A 
ATOM      8  C   UNL A   1      33.285  24.304  21.904  1.00  0.00     0.069 C 
ATOM      9  C   UNL A   1      32.331  25.310  22.480  1.00  0.00     0.064 A 
ATOM     10  N   UNL A   1      31.925  26.256  21.628  1.00  0.00    -0.155 NA
ATOM     11  C   UNL A   1      31.877  25.284  23.804  1.00  0.00    -0.012 A 
ATOM     12  N   UNL A   1      30.981  27.156  22.019  1.00  0.00    -0.143 NA
ATOM     13  C   UNL A   1      32.293  24.113  24.654  1.00  0.00     0.047 C 
ATOM     14  C   UNL A   1      30.463  27.190  23.276  1.00  0.00     0.132 A 
BRANCH  14  15
ATOM     15  S   UNL A   1      29.020  28.233  23.159  1.00  0.00    -0.101 SA
BRANCH  15  16
ATOM     16  C   UNL A   1      29.352  29.983  22.735  1.00  0.00     0.052 C 
ATOM     17  C   UNL A   1      29.065  30.239  21.253  1.00  0.00     0.020 C 
BRANCH  16  18
ATOM     18  C   UNL A   1      28.904  31.062  23.723  1.00  0.00     0.043 C 
BRANCH  18  19
ATOM     19  C   UNL A   1      27.661  31.820  23.246  1.00  0.00     0.157 C 
BRANCH  19  20
ATOM     20  O   UNL A   1      28.031  33.034  22.600  1.00  0.00    -0.396 OA
ATOM     21  H   UNL A   1      28.440  32.833  21.745  1.00  0.00     0.210 HD
ENDBRANCH  19  20
ENDBRANCH  18  19
ENDBRANCH  16  18
ENDBRANCH  15  16
ENDBRANCH  14  15
ENDBRANCH   4   7
ENDBRANCH   2   3
ENDBRANCH   1   2
BRANCH   1  22
ATOM     22  C   UNL A   1      32.836  30.109  26.277  1.00  0.00     0.002 C 
BRANCH  22  23
ATOM     23  C   UNL A   1      31.488  30.815  26.111  1.00  0.00     0.002 C 
BRANCH  23  24
ATOM     24  C   UNL A   1      31.326  32.191  26.753  1.00  0.00     0.021 C 
BRANCH  24  25
ATOM     25  C   UNL A   1      32.617  32.927  27.074  1.00  0.00     0.116 C 
BRANCH  25  26
ATOM     26  N   UNL A   1      32.386  34.246  27.633  1.00  0.00    -0.352 N 
ATOM     27  C   UNL A   1      33.035  34.850  28.682  1.00  0.00     0.251 C 
ATOM     28  H   UNL A   1      31.674  34.776  27.206  1.00  0.00     0.163 HD
ATOM     29  O   UNL A   1      32.636  35.904  29.155  1.00  0.00    -0.269 OA
BRANCH  27  30
ATOM     30  C   UNL A   1      34.226  34.187  29.246  1.00  0.00     0.039 A 
ATOM     31  C   UNL A   1      35.485  34.505  28.736  1.00  0.00     0.014 A 
ATOM     32  C   UNL A   1      34.085  33.281  30.302  1.00  0.00     0.014 A 
ATOM     33  C   UNL A   1      36.619  33.935  29.315  1.00  0.00     0.010 A 
ATOM     34  C   UNL A   1      35.217  32.766  30.919  1.00  0.00     0.010 A 
ATOM     35  C   UNL A   1      36.490  33.071  30.415  1.00  0.00    -0.014 A 
BRANCH  35  36
ATOM     36  C   UNL A   1      37.675  32.405  30.998  1.00  0.00     0.031 A 
ATOM     37  C   UNL A   1      38.253  32.934  32.279  1.00  0.00     0.074 A 
ATOM     38  C   UNL A   1      38.238  31.355  30.377  1.00  0.00     0.049 A 
ATOM     39  N   UNL A   1      39.291  32.508  32.949  1.00  0.00    -0.248 NA
ATOM     40  C   UNL A   1      37.587  34.105  32.877  1.00  0.00     0.031 C 
ATOM     41  C   UNL A   1      37.770  30.762  29.123  1.00  0.00     0.029 A 
ATOM     42  N   UNL A   1      39.327  30.596  30.723  1.00  0.00    -0.354 N 
ATOM     43  C   UNL A   1      39.401  33.358  34.040  1.00  0.00     0.074 A 
ATOM     44  C   UNL A   1      38.365  34.356  33.918  1.00  0.00     0.031 C 
ATOM     45  C   UNL A   1      38.549  29.710  28.822  1.00  0.00     0.029 A 
ATOM     46  C   UNL A   1      39.586  29.574  29.843  1.00  0.00     0.049 A 
ATOM     47  H   UNL A   1      39.871  30.767  31.525  1.00  0.00     0.167 HD
ATOM     48  C   UNL A   1      40.274  33.295  35.071  1.00  0.00     0.031 A 
ATOM     49  C   UNL A   1      40.546  28.629  29.860  1.00  0.00     0.031 A 
ATOM     50  C   UNL A   1      41.293  32.292  35.200  1.00  0.00     0.049 A 
ATOM     51  C   UNL A   1      41.531  28.600  30.994  1.00  0.00     0.074 A 
ATOM     52  C   UNL A   1      42.197  32.118  36.233  1.00  0.00     0.029 A 
ATOM     53  N   UNL A   1      41.542  31.297  34.270  1.00  0.00    -0.354 N 
ATOM     54  N   UNL A   1      41.599  29.384  32.042  1.00  0.00    -0.248 NA
ATOM     55  C   UNL A   1      42.566  27.557  30.954  1.00  0.00     0.031 C 
ATOM     56  C   UNL A   1      43.029  31.048  35.901  1.00  0.00     0.029 A 
ATOM     57  C   UNL A   1      42.607  30.521  34.690  1.00  0.00     0.049 A 
ATOM     58  H   UNL A   1      41.039  31.162  33.435  1.00  0.00     0.167 HD
ATOM     59  C   UNL A   1      42.670  28.921  32.795  1.00  0.00     0.074 A 
ATOM     60  C   UNL A   1      43.220  27.783  32.087  1.00  0.00     0.031 C 
ATOM     61  C   UNL A   1      43.146  29.397  33.971  1.00  0.00     0.031 A 
BRANCH  48  62
ATOM     62  C   UNL A   1      40.159  34.333  36.147  1.00  0.00    -0.014 A 
ATOM     63  C   UNL A   1      39.348  34.120  37.271  1.00  0.00     0.009 A 
ATOM     64  C   UNL A   1      40.925  35.506  36.070  1.00  0.00     0.009 A 
ATOM     65  C   UNL A   1      39.291  35.071  38.291  1.00  0.00     0.001 A 
ATOM     66  C   UNL A   1      40.888  36.443  37.103  1.00  0.00     0.001 A 
ATOM     67  C   UNL A   1      40.068  36.226  38.210  1.00  0.00     0.000 A 
ENDBRANCH  48  62
BRANCH  49  68
ATOM     68  C   UNL A   1      40.577  27.614  28.778  1.00  0.00    -0.014 A 
ATOM     69  C   UNL A   1      39.821  26.439  28.892  1.00  0.00     0.009 A 
ATOM     70  C   UNL A   1      41.290  27.854  27.592  1.00  0.00     0.009 A 
ATOM     71  C   UNL A   1      39.771  25.526  27.835  1.00  0.00     0.001 A 
ATOM     72  C   UNL A   1      41.222  26.948  26.531  1.00  0.00     0.001 A 
ATOM     73  C   UNL A   1      40.463  25.786  26.653  1.00  0.00     0.000 A 
ENDBRANCH  49  68
BRANCH  61  74
ATOM     74  C   UNL A   1      44.323  28.702  34.590  1.00  0.00    -0.014 A 
ATOM     75  C   UNL A   1      45.630  29.154  34.355  1.00  0.00     0.009 A 
ATOM     76  C   UNL A   1      44.110  27.683  35.533  1.00  0.00     0.009 A 
ATOM     77  C   UNL A   1      46.703  28.598  35.055  1.00  0.00     0.001 A 
ATOM     78  C   UNL A   1      45.182  27.146  36.247  1.00  0.00     0.001 A 
ATOM     79  C   UNL A   1      46.477  27.604  36.008  1.00  0.00     0.000 A 
ENDBRANCH  61  74
ENDBRANCH  35  36
ENDBRANCH  27  30
ENDBRANCH  25  26
ENDBRANCH  24  25
ENDBRANCH  23  24
ENDBRANCH  22  23
ENDBRANCH   1  22
TORSDOF 18
ENDMDL
