MODEL 1
REMARK VINA RESULT:     -12.4      0.000      0.000
REMARK SMILES O=C(NCCCCCCNC(=O)c1ccc(N2C(=O)C[C@H]([NH+]3CCN(c4ccc(F)cc4)CC3)C2=O)cc1)c1ccc(-c2c3nc(c(-c4ccccc4)c4ccc([nH]4)c(-c4ccccc4)c4nc(c(-c5ccccc5)c5ccc2[nH]5)C=C4)C=C3)cc1
REMARK SMILES IDX 7 1 6 2 5 3 4 4 3 5 1 6 2 7 39 9 40 10 86 11 41 12 85 13
REMARK SMILES IDX 42 14 43 15 44 16 79 17 45 18 84 19 78 20 80 21 46 22 83 23
REMARK SMILES IDX 77 24 76 25 47 27 69 28 54 29 68 30 55 31 58 32 67 33 81 34
REMARK SMILES IDX 56 35 57 36 66 38 82 39 59 40 48 41 49 42 53 43 50 44 52 45
REMARK SMILES IDX 51 46 70 47 71 48 75 49 72 50 74 51 73 52 60 53 61 54 65 55
REMARK SMILES IDX 62 56 64 57 63 58 8 59 9 60 10 61 11 62 12 64 13 65 14 66
REMARK SMILES IDX 38 67 15 68 37 69 16 70 17 71 18 72 35 73 19 74 20 75 21 76
REMARK SMILES IDX 36 77 22 78 23 79 34 80 24 82 33 83 25 84 26 85 27 86 32 87
REMARK SMILES IDX 28 88 31 89 29 90 30 91
REMARK H PARENT 3 8 80 26 58 37 10 63 22 81
REMARK Flexibility Score: inf
ROOT
ATOM      1  C   UNL A   1      34.865  33.476  29.044  1.00  0.00     0.002 C 
ENDROOT
BRANCH   1   2
ATOM      2  C   UNL A   1      34.662  34.855  28.409  1.00  0.00     0.002 C 
BRANCH   2   3
ATOM      3  C   UNL A   1      33.363  35.562  28.792  1.00  0.00     0.021 C 
BRANCH   3   4
ATOM      4  C   UNL A   1      33.478  36.511  29.976  1.00  0.00     0.116 C 
BRANCH   4   5
ATOM      5  N   UNL A   1      32.423  36.320  30.960  1.00  0.00    -0.352 N 
ATOM      6  O   UNL A   1      31.400  35.391  32.747  1.00  0.00    -0.269 OA
ATOM      7  C   UNL A   1      32.431  35.557  32.103  1.00  0.00     0.251 C 
ATOM      8  H   UNL A   1      31.587  36.805  30.780  1.00  0.00     0.163 HD
BRANCH   7   9
ATOM      9  C   UNL A   1      33.686  34.907  32.536  1.00  0.00     0.039 A 
ATOM     10  C   UNL A   1      34.879  35.631  32.580  1.00  0.00     0.014 A 
ATOM     11  C   UNL A   1      33.673  33.552  32.879  1.00  0.00     0.014 A 
ATOM     12  C   UNL A   1      36.079  34.964  32.789  1.00  0.00     0.010 A 
ATOM     13  C   UNL A   1      34.873  32.907  33.195  1.00  0.00     0.010 A 
ATOM     14  C   UNL A   1      36.092  33.597  33.111  1.00  0.00    -0.014 A 
BRANCH  14  15
ATOM     15  C   UNL A   1      37.390  32.935  33.400  1.00  0.00     0.031 A 
ATOM     16  C   UNL A   1      38.119  33.168  34.695  1.00  0.00     0.074 A 
ATOM     17  C   UNL A   1      37.889  32.074  32.491  1.00  0.00     0.049 A 
ATOM     18  N   UNL A   1      39.229  32.618  35.124  1.00  0.00    -0.248 NA
ATOM     19  C   UNL A   1      37.538  34.146  35.627  1.00  0.00     0.031 C 
ATOM     20  C   UNL A   1      37.275  31.764  31.196  1.00  0.00     0.029 A 
ATOM     21  N   UNL A   1      39.005  31.279  32.526  1.00  0.00    -0.354 N 
ATOM     22  C   UNL A   1      39.493  33.202  36.357  1.00  0.00     0.074 A 
ATOM     23  C   UNL A   1      38.440  34.165  36.599  1.00  0.00     0.031 C 
ATOM     24  C   UNL A   1      37.982  30.799  30.594  1.00  0.00     0.029 A 
ATOM     25  C   UNL A   1      39.138  30.474  31.422  1.00  0.00     0.049 A 
ATOM     26  H   UNL A   1      39.650  31.286  33.271  1.00  0.00     0.167 HD
ATOM     27  C   UNL A   1      40.517  32.955  37.211  1.00  0.00     0.031 A 
ATOM     28  C   UNL A   1      40.087  29.578  31.100  1.00  0.00     0.031 A 
ATOM     29  C   UNL A   1      41.564  31.995  36.967  1.00  0.00     0.049 A 
ATOM     30  C   UNL A   1      41.228  29.354  32.048  1.00  0.00     0.074 A 
ATOM     31  C   UNL A   1      42.620  31.644  37.790  1.00  0.00     0.029 A 
ATOM     32  N   UNL A   1      41.692  31.239  35.810  1.00  0.00    -0.354 N 
ATOM     33  N   UNL A   1      41.436  29.881  33.229  1.00  0.00    -0.248 NA
ATOM     34  C   UNL A   1      42.264  28.408  31.614  1.00  0.00     0.031 C 
ATOM     35  C   UNL A   1      43.422  30.724  37.106  1.00  0.00     0.029 A 
ATOM     36  C   UNL A   1      42.828  30.449  35.885  1.00  0.00     0.049 A 
ATOM     37  H   UNL A   1      41.067  31.262  35.050  1.00  0.00     0.167 HD
ATOM     38  C   UNL A   1      42.614  29.311  33.693  1.00  0.00     0.074 A 
ATOM     39  C   UNL A   1      43.061  28.384  32.673  1.00  0.00     0.031 C 
ATOM     40  C   UNL A   1      43.266  29.535  34.860  1.00  0.00     0.031 A 
BRANCH  27  41
ATOM     41  C   UNL A   1      40.582  33.769  38.476  1.00  0.00    -0.014 A 
ATOM     42  C   UNL A   1      41.244  35.006  38.523  1.00  0.00     0.009 A 
ATOM     43  C   UNL A   1      39.931  33.307  39.631  1.00  0.00     0.009 A 
ATOM     44  C   UNL A   1      41.288  35.742  39.711  1.00  0.00     0.001 A 
ATOM     45  C   UNL A   1      39.951  34.057  40.808  1.00  0.00     0.001 A 
ATOM     46  C   UNL A   1      40.637  35.270  40.850  1.00  0.00     0.000 A 
ENDBRANCH  27  41
BRANCH  28  47
ATOM     47  C   UNL A   1      39.997  28.829  29.819  1.00  0.00    -0.014 A 
ATOM     48  C   UNL A   1      40.483  29.388  28.629  1.00  0.00     0.009 A 
ATOM     49  C   UNL A   1      39.427  27.546  29.784  1.00  0.00     0.009 A 
ATOM     50  C   UNL A   1      40.380  28.688  27.425  1.00  0.00     0.001 A 
ATOM     51  C   UNL A   1      39.356  26.834  28.585  1.00  0.00     0.001 A 
ATOM     52  C   UNL A   1      39.822  27.411  27.405  1.00  0.00     0.000 A 
ENDBRANCH  28  47
BRANCH  40  53
ATOM     53  C   UNL A   1      44.510  28.730  35.109  1.00  0.00    -0.014 A 
ATOM     54  C   UNL A   1      45.768  29.167  34.664  1.00  0.00     0.009 A 
ATOM     55  C   UNL A   1      44.421  27.519  35.814  1.00  0.00     0.009 A 
ATOM     56  C   UNL A   1      46.904  28.384  34.880  1.00  0.00     0.001 A 
ATOM     57  C   UNL A   1      45.563  26.756  36.059  1.00  0.00     0.001 A 
ATOM     58  C   UNL A   1      46.802  27.182  35.581  1.00  0.00     0.000 A 
ENDBRANCH  40  53
ENDBRANCH  14  15
ENDBRANCH   7   9
ENDBRANCH   4   5
ENDBRANCH   3   4
ENDBRANCH   2   3
ENDBRANCH   1   2
BRANCH   1  59
ATOM     59  C   UNL A   1      35.481  32.413  28.128  1.00  0.00     0.021 C 
BRANCH  59  60
ATOM     60  C   UNL A   1      34.502  31.359  27.617  1.00  0.00     0.116 C 
BRANCH  60  61
ATOM     61  N   UNL A   1      33.164  31.902  27.469  1.00  0.00    -0.352 N 
ATOM     62  C   UNL A   1      32.091  31.364  26.810  1.00  0.00     0.251 C 
ATOM     63  H   UNL A   1      33.006  32.773  27.899  1.00  0.00     0.163 HD
ATOM     64  O   UNL A   1      31.083  32.027  26.595  1.00  0.00    -0.269 OA
BRANCH  62  65
ATOM     65  C   UNL A   1      32.158  29.964  26.356  1.00  0.00     0.039 A 
ATOM     66  C   UNL A   1      32.541  29.691  25.045  1.00  0.00     0.016 A 
ATOM     67  C   UNL A   1      31.816  28.928  27.227  1.00  0.00     0.016 A 
ATOM     68  C   UNL A   1      32.632  28.365  24.616  1.00  0.00     0.027 A 
ATOM     69  C   UNL A   1      31.875  27.607  26.781  1.00  0.00     0.027 A 
ATOM     70  C   UNL A   1      32.291  27.306  25.474  1.00  0.00     0.052 A 
BRANCH  70  71
ATOM     71  N   UNL A   1      32.338  25.964  25.021  1.00  0.00    -0.245 N 
ATOM     72  C   UNL A   1      31.221  25.225  24.708  1.00  0.00     0.240 C 
ATOM     73  C   UNL A   1      33.500  25.238  24.853  1.00  0.00     0.292 C 
ATOM     74  O   UNL A   1      30.044  25.522  24.821  1.00  0.00    -0.274 OA
ATOM     75  C   UNL A   1      31.665  23.945  24.072  1.00  0.00     0.176 C 
ATOM     76  C   UNL A   1      33.110  23.799  24.506  1.00  0.00     0.284 C 
ATOM     77  O   UNL A   1      34.653  25.612  25.030  1.00  0.00    -0.267 OA
BRANCH  76  78
ATOM     78  N   UNL A   1      33.439  22.875  25.609  1.00  0.00    -0.321 N 
ATOM     79  C   UNL A   1      32.372  21.984  26.106  1.00  0.00     0.284 C 
ATOM     80  C   UNL A   1      34.682  22.101  25.406  1.00  0.00     0.284 C 
ATOM     81  H   UNL A   1      33.581  23.557  26.354  1.00  0.00     0.348 HD
ATOM     82  C   UNL A   1      32.136  20.684  25.306  1.00  0.00     0.178 C 
ATOM     83  C   UNL A   1      34.560  20.772  24.622  1.00  0.00     0.178 C 
ATOM     84  N   UNL A   1      33.403  19.993  25.072  1.00  0.00    -0.360 N 
BRANCH  84  85
ATOM     85  C   UNL A   1      33.427  18.615  25.025  1.00  0.00     0.037 A 
ATOM     86  C   UNL A   1      32.511  17.827  25.740  1.00  0.00     0.029 A 
ATOM     87  C   UNL A   1      34.440  17.960  24.309  1.00  0.00     0.029 A 
ATOM     88  C   UNL A   1      32.617  16.434  25.755  1.00  0.00     0.041 A 
ATOM     89  C   UNL A   1      34.562  16.570  24.334  1.00  0.00     0.041 A 
ATOM     90  C   UNL A   1      33.651  15.820  25.062  1.00  0.00     0.123 A 
ATOM     91  F   UNL A   1      33.777  14.488  25.105  1.00  0.00    -0.207 F 
ENDBRANCH  84  85
ENDBRANCH  76  78
ENDBRANCH  70  71
ENDBRANCH  62  65
ENDBRANCH  60  61
ENDBRANCH  59  60
ENDBRANCH   1  59
TORSDOF 16
ENDMDL
MODEL 2
REMARK VINA RESULT:     -12.2      0.345      5.594
REMARK SMILES O=C(NCCCCCCNC(=O)c1ccc(N2C(=O)C[C@H]([NH+]3CCN(c4ccc(F)cc4)CC3)C2=O)cc1)c1ccc(-c2c3nc(c(-c4ccccc4)c4ccc([nH]4)c(-c4ccccc4)c4nc(c(-c5ccccc5)c5ccc2[nH]5)C=C4)C=C3)cc1
REMARK SMILES IDX 7 1 6 2 5 3 4 4 3 5 1 6 2 7 39 9 40 10 86 11 41 12 85 13
REMARK SMILES IDX 42 14 43 15 44 16 79 17 45 18 84 19 78 20 80 21 46 22 83 23
REMARK SMILES IDX 77 24 76 25 47 27 69 28 54 29 68 30 55 31 58 32 67 33 81 34
REMARK SMILES IDX 56 35 57 36 66 38 82 39 59 40 48 41 49 42 53 43 50 44 52 45
REMARK SMILES IDX 51 46 70 47 71 48 75 49 72 50 74 51 73 52 60 53 61 54 65 55
REMARK SMILES IDX 62 56 64 57 63 58 8 59 9 60 10 61 11 62 12 64 13 65 14 66
REMARK SMILES IDX 38 67 15 68 37 69 16 70 17 71 18 72 35 73 19 74 20 75 21 76
REMARK SMILES IDX 36 77 22 78 23 79 34 80 24 82 33 83 25 84 26 85 27 86 32 87
REMARK SMILES IDX 28 88 31 89 29 90 30 91
REMARK H PARENT 3 8 80 26 58 37 10 63 22 81
REMARK Flexibility Score: inf
ROOT
ATOM      1  C   UNL A   1      34.801  33.448  29.090  1.00  0.00     0.002 C 
ENDROOT
BRANCH   1   2
ATOM      2  C   UNL A   1      34.471  34.796  28.443  1.00  0.00     0.002 C 
BRANCH   2   3
ATOM      3  C   UNL A   1      33.150  35.423  28.886  1.00  0.00     0.021 C 
BRANCH   3   4
ATOM      4  C   UNL A   1      33.284  36.516  29.937  1.00  0.00     0.116 C 
BRANCH   4   5
ATOM      5  N   UNL A   1      32.371  36.340  31.056  1.00  0.00    -0.352 N 
ATOM      6  O   UNL A   1      31.564  35.398  32.944  1.00  0.00    -0.269 OA
ATOM      7  C   UNL A   1      32.500  35.537  32.164  1.00  0.00     0.251 C 
ATOM      8  H   UNL A   1      31.545  36.872  31.013  1.00  0.00     0.163 HD
BRANCH   7   9
ATOM      9  C   UNL A   1      33.768  34.812  32.393  1.00  0.00     0.039 A 
ATOM     10  C   UNL A   1      33.759  33.446  32.683  1.00  0.00     0.014 A 
ATOM     11  C   UNL A   1      34.976  35.512  32.343  1.00  0.00     0.014 A 
ATOM     12  C   UNL A   1      34.931  32.824  33.095  1.00  0.00     0.010 A 
ATOM     13  C   UNL A   1      36.171  34.854  32.655  1.00  0.00     0.010 A 
ATOM     14  C   UNL A   1      36.153  33.516  33.075  1.00  0.00    -0.014 A 
BRANCH  14  15
ATOM     15  C   UNL A   1      37.396  32.796  33.454  1.00  0.00     0.031 A 
ATOM     16  C   UNL A   1      38.069  31.839  32.508  1.00  0.00     0.074 A 
ATOM     17  C   UNL A   1      37.946  33.052  34.658  1.00  0.00     0.049 A 
ATOM     18  N   UNL A   1      39.192  31.182  32.665  1.00  0.00    -0.248 NA
ATOM     19  C   UNL A   1      37.397  31.579  31.225  1.00  0.00     0.031 C 
ATOM     20  C   UNL A   1      37.388  33.960  35.665  1.00  0.00     0.029 A 
ATOM     21  N   UNL A   1      39.108  32.600  35.228  1.00  0.00    -0.354 N 
ATOM     22  C   UNL A   1      39.346  30.410  31.518  1.00  0.00     0.074 A 
ATOM     23  C   UNL A   1      38.190  30.664  30.684  1.00  0.00     0.031 C 
ATOM     24  C   UNL A   1      38.239  34.051  36.695  1.00  0.00     0.029 A 
ATOM     25  C   UNL A   1      39.365  33.154  36.458  1.00  0.00     0.049 A 
ATOM     26  H   UNL A   1      39.700  31.941  34.797  1.00  0.00     0.167 HD
ATOM     27  C   UNL A   1      40.358  29.571  31.191  1.00  0.00     0.031 A 
ATOM     28  C   UNL A   1      40.386  32.960  37.310  1.00  0.00     0.031 A 
ATOM     29  C   UNL A   1      41.507  29.320  32.024  1.00  0.00     0.049 A 
ATOM     30  C   UNL A   1      41.474  31.996  36.935  1.00  0.00     0.074 A 
ATOM     31  C   UNL A   1      42.605  28.519  31.761  1.00  0.00     0.029 A 
ATOM     32  N   UNL A   1      41.702  29.860  33.287  1.00  0.00    -0.354 N 
ATOM     33  N   UNL A   1      41.626  31.312  35.829  1.00  0.00    -0.248 NA
ATOM     34  C   UNL A   1      42.530  31.781  37.932  1.00  0.00     0.031 C 
ATOM     35  C   UNL A   1      43.432  28.524  32.889  1.00  0.00     0.029 A 
ATOM     36  C   UNL A   1      42.885  29.382  33.828  1.00  0.00     0.049 A 
ATOM     37  H   UNL A   1      41.089  30.488  33.733  1.00  0.00     0.167 HD
ATOM     38  C   UNL A   1      42.810  30.605  35.984  1.00  0.00     0.074 A 
ATOM     39  C   UNL A   1      43.343  30.960  37.283  1.00  0.00     0.031 C 
ATOM     40  C   UNL A   1      43.402  29.738  35.125  1.00  0.00     0.031 A 
BRANCH  27  41
ATOM     41  C   UNL A   1      40.250  28.823  29.888  1.00  0.00    -0.014 A 
ATOM     42  C   UNL A   1      39.506  27.637  29.778  1.00  0.00     0.009 A 
ATOM     43  C   UNL A   1      40.872  29.339  28.740  1.00  0.00     0.009 A 
ATOM     44  C   UNL A   1      39.422  26.965  28.556  1.00  0.00     0.001 A 
ATOM     45  C   UNL A   1      40.762  28.681  27.513  1.00  0.00     0.001 A 
ATOM     46  C   UNL A   1      40.045  27.489  27.425  1.00  0.00     0.000 A 
ENDBRANCH  27  41
BRANCH  28  47
ATOM     47  C   UNL A   1      40.425  33.694  38.602  1.00  0.00    -0.014 A 
ATOM     48  C   UNL A   1      39.850  33.141  39.754  1.00  0.00     0.009 A 
ATOM     49  C   UNL A   1      41.044  34.952  38.688  1.00  0.00     0.009 A 
ATOM     50  C   UNL A   1      39.873  33.842  40.962  1.00  0.00     0.001 A 
ATOM     51  C   UNL A   1      41.096  35.635  39.903  1.00  0.00     0.001 A 
ATOM     52  C   UNL A   1      40.500  35.085  41.037  1.00  0.00     0.000 A 
ENDBRANCH  28  47
BRANCH  40  53
ATOM     53  C   UNL A   1      44.717  29.150  35.553  1.00  0.00    -0.014 A 
ATOM     54  C   UNL A   1      44.783  27.949  36.278  1.00  0.00     0.009 A 
ATOM     55  C   UNL A   1      45.911  29.805  35.213  1.00  0.00     0.009 A 
ATOM     56  C   UNL A   1      46.017  27.442  36.691  1.00  0.00     0.001 A 
ATOM     57  C   UNL A   1      47.144  29.276  35.597  1.00  0.00     0.001 A 
ATOM     58  C   UNL A   1      47.196  28.102  36.347  1.00  0.00     0.000 A 
ENDBRANCH  40  53
ENDBRANCH  14  15
ENDBRANCH   7   9
ENDBRANCH   4   5
ENDBRANCH   3   4
ENDBRANCH   2   3
ENDBRANCH   1   2
BRANCH   1  59
ATOM     59  C   UNL A   1      35.473  32.422  28.171  1.00  0.00     0.021 C 
BRANCH  59  60
ATOM     60  C   UNL A   1      34.535  31.360  27.600  1.00  0.00     0.116 C 
BRANCH  60  61
ATOM     61  N   UNL A   1      33.178  31.860  27.474  1.00  0.00    -0.352 N 
ATOM     62  C   UNL A   1      32.115  31.292  26.825  1.00  0.00     0.251 C 
ATOM     63  H   UNL A   1      32.998  32.722  27.913  1.00  0.00     0.163 HD
ATOM     64  O   UNL A   1      31.082  31.923  26.629  1.00  0.00    -0.269 OA
BRANCH  62  65
ATOM     65  C   UNL A   1      32.222  29.899  26.359  1.00  0.00     0.039 A 
ATOM     66  C   UNL A   1      32.494  29.649  25.015  1.00  0.00     0.016 A 
ATOM     67  C   UNL A   1      32.027  28.844  27.251  1.00  0.00     0.016 A 
ATOM     68  C   UNL A   1      32.622  28.331  24.572  1.00  0.00     0.027 A 
ATOM     69  C   UNL A   1      32.122  27.529  26.795  1.00  0.00     0.027 A 
ATOM     70  C   UNL A   1      32.429  27.254  25.452  1.00  0.00     0.052 A 
BRANCH  70  71
ATOM     71  N   UNL A   1      32.512  25.917  24.989  1.00  0.00    -0.245 N 
ATOM     72  C   UNL A   1      31.443  25.217  24.480  1.00  0.00     0.240 C 
ATOM     73  C   UNL A   1      33.665  25.157  25.004  1.00  0.00     0.292 C 
ATOM     74  O   UNL A   1      30.273  25.550  24.400  1.00  0.00    -0.274 OA
ATOM     75  C   UNL A   1      31.950  23.933  23.904  1.00  0.00     0.176 C 
ATOM     76  C   UNL A   1      33.298  23.736  24.571  1.00  0.00     0.284 C 
ATOM     77  O   UNL A   1      34.783  25.492  25.378  1.00  0.00    -0.267 OA
BRANCH  76  78
ATOM     78  N   UNL A   1      33.410  22.788  25.696  1.00  0.00    -0.321 N 
ATOM     79  C   UNL A   1      32.261  21.904  25.973  1.00  0.00     0.284 C 
ATOM     80  C   UNL A   1      34.661  22.000  25.706  1.00  0.00     0.284 C 
ATOM     81  H   UNL A   1      33.422  23.454  26.468  1.00  0.00     0.348 HD
ATOM     82  C   UNL A   1      32.160  20.621  25.117  1.00  0.00     0.178 C 
ATOM     83  C   UNL A   1      34.669  20.687  24.885  1.00  0.00     0.178 C 
ATOM     84  N   UNL A   1      33.440  19.917  25.103  1.00  0.00    -0.360 N 
BRANCH  84  85
ATOM     85  C   UNL A   1      33.457  18.539  25.033  1.00  0.00     0.037 A 
ATOM     86  C   UNL A   1      32.401  17.754  25.522  1.00  0.00     0.029 A 
ATOM     87  C   UNL A   1      34.590  17.881  24.532  1.00  0.00     0.029 A 
ATOM     88  C   UNL A   1      32.485  16.359  25.530  1.00  0.00     0.041 A 
ATOM     89  C   UNL A   1      34.688  16.489  24.554  1.00  0.00     0.041 A 
ATOM     90  C   UNL A   1      33.635  15.741  25.058  1.00  0.00     0.123 A 
ATOM     91  F   UNL A   1      33.732  14.406  25.098  1.00  0.00    -0.207 F 
ENDBRANCH  84  85
ENDBRANCH  76  78
ENDBRANCH  70  71
ENDBRANCH  62  65
ENDBRANCH  60  61
ENDBRANCH  59  60
ENDBRANCH   1  59
TORSDOF 16
ENDMDL
MODEL 3
REMARK VINA RESULT:     -12.0      1.903      2.589
REMARK SMILES O=C(NCCCCCCNC(=O)c1ccc(N2C(=O)C[C@H]([NH+]3CCN(c4ccc(F)cc4)CC3)C2=O)cc1)c1ccc(-c2c3nc(c(-c4ccccc4)c4ccc([nH]4)c(-c4ccccc4)c4nc(c(-c5ccccc5)c5ccc2[nH]5)C=C4)C=C3)cc1
REMARK SMILES IDX 7 1 6 2 5 3 4 4 3 5 1 6 2 7 39 9 40 10 86 11 41 12 85 13
REMARK SMILES IDX 42 14 43 15 44 16 79 17 45 18 84 19 78 20 80 21 46 22 83 23
REMARK SMILES IDX 77 24 76 25 47 27 69 28 54 29 68 30 55 31 58 32 67 33 81 34
REMARK SMILES IDX 56 35 57 36 66 38 82 39 59 40 48 41 49 42 53 43 50 44 52 45
REMARK SMILES IDX 51 46 70 47 71 48 75 49 72 50 74 51 73 52 60 53 61 54 65 55
REMARK SMILES IDX 62 56 64 57 63 58 8 59 9 60 10 61 11 62 12 64 13 65 14 66
REMARK SMILES IDX 38 67 15 68 37 69 16 70 17 71 18 72 35 73 19 74 20 75 21 76
REMARK SMILES IDX 36 77 22 78 23 79 34 80 24 82 33 83 25 84 26 85 27 86 32 87
REMARK SMILES IDX 28 88 31 89 29 90 30 91
REMARK H PARENT 3 8 80 26 58 37 10 63 22 81
REMARK Flexibility Score: inf
ROOT
ATOM      1  C   UNL A   1      34.789  32.069  29.248  1.00  0.00     0.002 C 
ENDROOT
BRANCH   1   2
ATOM      2  C   UNL A   1      34.913  33.583  29.051  1.00  0.00     0.002 C 
BRANCH   2   3
ATOM      3  C   UNL A   1      33.588  34.339  28.971  1.00  0.00     0.021 C 
BRANCH   3   4
ATOM      4  C   UNL A   1      33.615  35.736  29.575  1.00  0.00     0.116 C 
BRANCH   4   5
ATOM      5  N   UNL A   1      32.681  35.893  30.679  1.00  0.00    -0.352 N 
ATOM      6  O   UNL A   1      31.823  35.522  32.736  1.00  0.00    -0.269 OA
ATOM      7  C   UNL A   1      32.773  35.422  31.968  1.00  0.00     0.251 C 
ATOM      8  H   UNL A   1      31.869  36.409  30.475  1.00  0.00     0.163 HD
BRANCH   7   9
ATOM      9  C   UNL A   1      34.019  34.762  32.414  1.00  0.00     0.039 A 
ATOM     10  C   UNL A   1      35.226  35.463  32.427  1.00  0.00     0.014 A 
ATOM     11  C   UNL A   1      33.982  33.419  32.799  1.00  0.00     0.014 A 
ATOM     12  C   UNL A   1      36.414  34.780  32.650  1.00  0.00     0.010 A 
ATOM     13  C   UNL A   1      35.171  32.761  33.129  1.00  0.00     0.010 A 
ATOM     14  C   UNL A   1      36.403  33.424  33.016  1.00  0.00    -0.014 A 
BRANCH  14  15
ATOM     15  C   UNL A   1      37.689  32.746  33.318  1.00  0.00     0.031 A 
ATOM     16  C   UNL A   1      38.415  32.981  34.614  1.00  0.00     0.074 A 
ATOM     17  C   UNL A   1      38.180  31.870  32.419  1.00  0.00     0.049 A 
ATOM     18  N   UNL A   1      39.515  32.419  35.053  1.00  0.00    -0.248 NA
ATOM     19  C   UNL A   1      37.844  33.977  35.534  1.00  0.00     0.031 C 
ATOM     20  C   UNL A   1      37.569  31.556  31.124  1.00  0.00     0.029 A 
ATOM     21  N   UNL A   1      39.285  31.059  32.468  1.00  0.00    -0.354 N 
ATOM     22  C   UNL A   1      39.781  33.012  36.283  1.00  0.00     0.074 A 
ATOM     23  C   UNL A   1      38.741  33.992  36.509  1.00  0.00     0.031 C 
ATOM     24  C   UNL A   1      38.265  30.575  30.535  1.00  0.00     0.029 A 
ATOM     25  C   UNL A   1      39.411  30.242  31.372  1.00  0.00     0.049 A 
ATOM     26  H   UNL A   1      39.926  31.064  33.216  1.00  0.00     0.167 HD
ATOM     27  C   UNL A   1      40.797  32.758  37.144  1.00  0.00     0.031 A 
ATOM     28  C   UNL A   1      40.350  29.329  31.063  1.00  0.00     0.031 A 
ATOM     29  C   UNL A   1      41.831  31.780  36.914  1.00  0.00     0.049 A 
ATOM     30  C   UNL A   1      41.482  29.097  32.020  1.00  0.00     0.074 A 
ATOM     31  C   UNL A   1      42.878  31.423  37.746  1.00  0.00     0.029 A 
ATOM     32  N   UNL A   1      41.954  31.012  35.766  1.00  0.00    -0.354 N 
ATOM     33  N   UNL A   1      41.692  29.633  33.197  1.00  0.00    -0.248 NA
ATOM     34  C   UNL A   1      42.507  28.133  31.600  1.00  0.00     0.031 C 
ATOM     35  C   UNL A   1      43.670  30.484  37.075  1.00  0.00     0.029 A 
ATOM     36  C   UNL A   1      43.078  30.206  35.854  1.00  0.00     0.049 A 
ATOM     37  H   UNL A   1      41.334  31.037  35.002  1.00  0.00     0.167 HD
ATOM     38  C   UNL A   1      42.858  29.050  33.672  1.00  0.00     0.074 A 
ATOM     39  C   UNL A   1      43.297  28.107  32.664  1.00  0.00     0.031 C 
ATOM     40  C   UNL A   1      43.508  29.277  34.840  1.00  0.00     0.031 A 
BRANCH  27  41
ATOM     41  C   UNL A   1      40.867  33.583  38.401  1.00  0.00    -0.014 A 
ATOM     42  C   UNL A   1      40.251  33.166  39.592  1.00  0.00     0.009 A 
ATOM     43  C   UNL A   1      41.599  34.782  38.404  1.00  0.00     0.009 A 
ATOM     44  C   UNL A   1      40.333  33.951  40.745  1.00  0.00     0.001 A 
ATOM     45  C   UNL A   1      41.704  35.549  39.566  1.00  0.00     0.001 A 
ATOM     46  C   UNL A   1      41.063  35.138  40.733  1.00  0.00     0.000 A 
ENDBRANCH  27  41
BRANCH  28  47
ATOM     47  C   UNL A   1      40.255  28.568  29.790  1.00  0.00    -0.014 A 
ATOM     48  C   UNL A   1      39.581  27.340  29.742  1.00  0.00     0.009 A 
ATOM     49  C   UNL A   1      40.834  29.072  28.614  1.00  0.00     0.009 A 
ATOM     50  C   UNL A   1      39.509  26.619  28.547  1.00  0.00     0.001 A 
ATOM     51  C   UNL A   1      40.732  28.367  27.414  1.00  0.00     0.001 A 
ATOM     52  C   UNL A   1      40.079  27.135  27.385  1.00  0.00     0.000 A 
ENDBRANCH  28  47
BRANCH  40  53
ATOM     53  C   UNL A   1      44.739  28.456  35.104  1.00  0.00    -0.014 A 
ATOM     54  C   UNL A   1      46.015  28.904  34.725  1.00  0.00     0.009 A 
ATOM     55  C   UNL A   1      44.619  27.218  35.754  1.00  0.00     0.009 A 
ATOM     56  C   UNL A   1      47.139  28.108  34.952  1.00  0.00     0.001 A 
ATOM     57  C   UNL A   1      45.749  26.440  36.011  1.00  0.00     0.001 A 
ATOM     58  C   UNL A   1      47.006  26.879  35.599  1.00  0.00     0.000 A 
ENDBRANCH  40  53
ENDBRANCH  14  15
ENDBRANCH   7   9
ENDBRANCH   4   5
ENDBRANCH   3   4
ENDBRANCH   2   3
ENDBRANCH   1   2
BRANCH   1  59
ATOM     59  C   UNL A   1      35.396  31.207  28.135  1.00  0.00     0.021 C 
BRANCH  59  60
ATOM     60  C   UNL A   1      34.382  30.426  27.303  1.00  0.00     0.116 C 
BRANCH  60  61
ATOM     61  N   UNL A   1      33.144  31.166  27.137  1.00  0.00    -0.352 N 
ATOM     62  C   UNL A   1      31.982  30.765  26.535  1.00  0.00     0.251 C 
ATOM     63  H   UNL A   1      33.141  32.079  27.504  1.00  0.00     0.163 HD
ATOM     64  O   UNL A   1      31.087  31.566  26.289  1.00  0.00    -0.269 OA
BRANCH  62  65
ATOM     65  C   UNL A   1      31.811  29.345  26.184  1.00  0.00     0.039 A 
ATOM     66  C   UNL A   1      31.954  28.950  24.856  1.00  0.00     0.016 A 
ATOM     67  C   UNL A   1      31.484  28.413  27.171  1.00  0.00     0.016 A 
ATOM     68  C   UNL A   1      31.819  27.600  24.520  1.00  0.00     0.027 A 
ATOM     69  C   UNL A   1      31.317  27.072  26.823  1.00  0.00     0.027 A 
ATOM     70  C   UNL A   1      31.490  26.646  25.496  1.00  0.00     0.052 A 
BRANCH  70  71
ATOM     71  N   UNL A   1      31.306  25.285  25.144  1.00  0.00    -0.245 N 
ATOM     72  C   UNL A   1      31.368  24.249  26.047  1.00  0.00     0.240 C 
ATOM     73  C   UNL A   1      31.057  24.838  23.862  1.00  0.00     0.292 C 
ATOM     74  O   UNL A   1      31.649  24.276  27.233  1.00  0.00    -0.274 OA
ATOM     75  C   UNL A   1      30.917  22.998  25.361  1.00  0.00     0.176 C 
ATOM     76  C   UNL A   1      31.079  23.308  23.885  1.00  0.00     0.284 C 
ATOM     77  O   UNL A   1      30.928  25.506  22.844  1.00  0.00    -0.267 OA
BRANCH  76  78
ATOM     78  N   UNL A   1      32.254  22.779  23.165  1.00  0.00    -0.321 N 
ATOM     79  C   UNL A   1      33.332  23.723  22.813  1.00  0.00     0.284 C 
ATOM     80  C   UNL A   1      32.835  21.557  23.761  1.00  0.00     0.284 C 
ATOM     81  H   UNL A   1      31.808  22.545  22.278  1.00  0.00     0.348 HD
ATOM     82  C   UNL A   1      34.360  24.037  23.922  1.00  0.00     0.178 C 
ATOM     83  C   UNL A   1      33.885  21.755  24.881  1.00  0.00     0.178 C 
ATOM     84  N   UNL A   1      34.850  22.799  24.526  1.00  0.00    -0.360 N 
BRANCH  84  85
ATOM     85  C   UNL A   1      36.150  22.736  24.985  1.00  0.00     0.037 A 
ATOM     86  C   UNL A   1      36.931  21.577  24.856  1.00  0.00     0.029 A 
ATOM     87  C   UNL A   1      36.699  23.826  25.675  1.00  0.00     0.029 A 
ATOM     88  C   UNL A   1      38.209  21.503  25.417  1.00  0.00     0.041 A 
ATOM     89  C   UNL A   1      37.967  23.754  26.252  1.00  0.00     0.041 A 
ATOM     90  C   UNL A   1      38.709  22.589  26.122  1.00  0.00     0.123 A 
ATOM     91  F   UNL A   1      39.918  22.509  26.691  1.00  0.00    -0.207 F 
ENDBRANCH  84  85
ENDBRANCH  76  78
ENDBRANCH  70  71
ENDBRANCH  62  65
ENDBRANCH  60  61
ENDBRANCH  59  60
ENDBRANCH   1  59
TORSDOF 16
ENDMDL
