MODEL 1
REMARK VINA RESULT:     -11.2      0.000      0.000
REMARK SMILES NC(=O)c1ccc(NC(=O)Cc2ccccc2C(=O)NCCCCCCNC(=O)c2ccc(-c3c4nc(c(-c5ccccc5)c5ccc([nH]5)c(-c5ccccc5)c5nc(c(-c6ccccc6)c6ccc3[nH]6)C=C5)C=C4)cc2)cc1
REMARK SMILES IDX 22 1 21 2 20 3 18 4 19 5 17 7 12 8 13 9 14 10 16 11 15 12
REMARK SMILES IDX 11 13 9 14 8 15 10 17 7 18 4 19 5 20 79 21 6 22 78 23 2 24
REMARK SMILES IDX 1 25 3 28 23 29 24 30 25 31 26 32 27 33 28 34 29 36 30 37
REMARK SMILES IDX 31 38 77 39 32 40 76 41 33 42 34 43 35 44 70 45 36 46 75 47
REMARK SMILES IDX 69 48 71 49 37 50 74 51 68 52 67 53 38 55 60 56 45 57 59 58
REMARK SMILES IDX 46 59 49 60 58 61 72 62 47 63 48 64 57 66 73 67 50 68 39 69
REMARK SMILES IDX 40 70 44 71 41 72 43 73 42 74 61 75 62 76 66 77 63 78 65 79
REMARK SMILES IDX 64 80 51 81 52 82 56 83 53 84 55 85 54 86
REMARK H PARENT 20 6 8 16 1 26 1 27 27 35 71 54 49 65
REMARK Flexibility Score: inf
ROOT
ATOM      1  C   UNL A   1      33.172  25.853  22.564  1.00  0.00     0.021 C 
ENDROOT
BRANCH   1   2
ATOM      2  C   UNL A   1      32.629  24.614  21.866  1.00  0.00     0.116 C 
BRANCH   2   3
ATOM      3  N   UNL A   1      31.967  23.705  22.756  1.00  0.00    -0.352 N 
ATOM      4  C   UNL A   1      32.337  22.409  23.038  1.00  0.00     0.251 C 
ATOM      5  O   UNL A   1      32.124  21.485  22.263  1.00  0.00    -0.269 OA
ATOM      6  H   UNL A   1      31.164  24.044  23.214  1.00  0.00     0.163 HD
BRANCH   4   7
ATOM      7  C   UNL A   1      33.075  22.201  24.322  1.00  0.00     0.043 A 
ATOM      8  C   UNL A   1      32.496  22.446  25.571  1.00  0.00    -0.026 A 
ATOM      9  C   UNL A   1      33.376  22.914  26.584  1.00  0.00     0.005 A 
ATOM     10  C   UNL A   1      34.768  22.898  26.435  1.00  0.00     0.000 A 
ATOM     11  C   UNL A   1      34.475  22.050  24.215  1.00  0.00     0.014 A 
ATOM     12  C   UNL A   1      35.319  22.375  25.277  1.00  0.00     0.001 A 
BRANCH   8  13
ATOM     13  C   UNL A   1      31.015  22.454  25.875  1.00  0.00     0.136 C 
BRANCH  13  14
ATOM     14  C   UNL A   1      30.187  23.550  26.574  1.00  0.00     0.228 C 
ATOM     15  N   UNL A   1      29.992  24.891  26.442  1.00  0.00    -0.326 N 
ATOM     16  H   UNL A   1      29.609  25.237  27.280  1.00  0.00     0.169 HD
ATOM     17  O   UNL A   1      29.608  23.145  27.610  1.00  0.00    -0.274 OA
BRANCH  15  18
ATOM     18  C   UNL A   1      30.141  25.968  25.535  1.00  0.00     0.041 A 
ATOM     19  C   UNL A   1      30.286  28.026  23.601  1.00  0.00     0.039 A 
ATOM     20  C   UNL A   1      30.817  28.233  24.861  1.00  0.00     0.016 A 
ATOM     21  C   UNL A   1      29.504  26.896  23.368  1.00  0.00     0.016 A 
ATOM     22  C   UNL A   1      30.682  27.224  25.828  1.00  0.00     0.027 A 
ATOM     23  C   UNL A   1      29.411  25.893  24.346  1.00  0.00     0.027 A 
BRANCH  19  24
ATOM     24  C   UNL A   1      30.700  28.881  22.480  1.00  0.00     0.248 C 
ATOM     25  N   UNL A   1      31.987  29.310  22.445  1.00  0.00    -0.366 N 
ATOM     26  H   UNL A   1      32.295  29.884  21.707  1.00  0.00     0.159 HD
ATOM     27  H   UNL A   1      32.612  29.045  23.158  1.00  0.00     0.159 HD
ATOM     28  O   UNL A   1      29.887  29.186  21.602  1.00  0.00    -0.270 OA
ENDBRANCH  19  24
ENDBRANCH  15  18
ENDBRANCH  13  14
ENDBRANCH   8  13
ENDBRANCH   4   7
ENDBRANCH   2   3
ENDBRANCH   1   2
BRANCH   1  29
ATOM     29  C   UNL A   1      34.216  25.709  23.691  1.00  0.00     0.002 C 
BRANCH  29  30
ATOM     30  C   UNL A   1      33.895  26.176  25.112  1.00  0.00     0.002 C 
BRANCH  30  31
ATOM     31  C   UNL A   1      34.110  27.653  25.412  1.00  0.00     0.021 C 
BRANCH  31  32
ATOM     32  C   UNL A   1      34.081  28.041  26.882  1.00  0.00     0.116 C 
BRANCH  32  33
ATOM     33  N   UNL A   1      33.617  29.393  27.144  1.00  0.00    -0.352 N 
ATOM     34  C   UNL A   1      34.320  30.421  27.735  1.00  0.00     0.251 C 
ATOM     35  H   UNL A   1      32.695  29.599  26.868  1.00  0.00     0.163 HD
ATOM     36  O   UNL A   1      33.791  31.505  27.949  1.00  0.00    -0.269 OA
BRANCH  34  37
ATOM     37  C   UNL A   1      35.718  30.180  28.162  1.00  0.00     0.039 A 
ATOM     38  C   UNL A   1      35.954  29.663  29.438  1.00  0.00     0.014 A 
ATOM     39  C   UNL A   1      36.781  30.390  27.280  1.00  0.00     0.014 A 
ATOM     40  C   UNL A   1      37.249  29.281  29.798  1.00  0.00     0.010 A 
ATOM     41  C   UNL A   1      38.052  29.927  27.608  1.00  0.00     0.010 A 
ATOM     42  C   UNL A   1      38.300  29.368  28.870  1.00  0.00    -0.014 A 
BRANCH  42  43
ATOM     43  C   UNL A   1      39.664  28.881  29.201  1.00  0.00     0.031 A 
ATOM     44  C   UNL A   1      40.627  29.775  29.934  1.00  0.00     0.074 A 
ATOM     45  C   UNL A   1      40.061  27.660  28.791  1.00  0.00     0.049 A 
ATOM     46  N   UNL A   1      41.872  29.550  30.269  1.00  0.00    -0.248 NA
ATOM     47  C   UNL A   1      40.134  31.108  30.317  1.00  0.00     0.031 C 
ATOM     48  C   UNL A   1      39.242  26.709  28.036  1.00  0.00     0.029 A 
ATOM     49  N   UNL A   1      41.261  27.009  28.949  1.00  0.00    -0.354 N 
ATOM     50  C   UNL A   1      42.313  30.714  30.886  1.00  0.00     0.074 A 
ATOM     51  C   UNL A   1      41.223  31.663  30.829  1.00  0.00     0.031 C 
ATOM     52  C   UNL A   1      39.950  25.587  27.825  1.00  0.00     0.029 A 
ATOM     53  C   UNL A   1      41.285  25.753  28.391  1.00  0.00     0.049 A 
ATOM     54  H   UNL A   1      42.030  27.405  29.417  1.00  0.00     0.167 HD
ATOM     55  C   UNL A   1      43.509  30.966  31.470  1.00  0.00     0.031 A 
ATOM     56  C   UNL A   1      42.272  24.839  28.337  1.00  0.00     0.031 A 
ATOM     57  C   UNL A   1      44.590  30.020  31.536  1.00  0.00     0.049 A 
ATOM     58  C   UNL A   1      43.598  25.149  28.975  1.00  0.00     0.074 A 
ATOM     59  C   UNL A   1      45.821  30.163  32.154  1.00  0.00     0.029 A 
ATOM     60  N   UNL A   1      44.572  28.760  30.962  1.00  0.00    -0.354 N 
ATOM     61  N   UNL A   1      43.974  26.229  29.618  1.00  0.00    -0.248 NA
ATOM     62  C   UNL A   1      44.633  24.108  28.891  1.00  0.00     0.031 C 
ATOM     63  C   UNL A   1      46.568  29.007  31.905  1.00  0.00     0.029 A 
ATOM     64  C   UNL A   1      45.780  28.122  31.189  1.00  0.00     0.049 A 
ATOM     65  H   UNL A   1      43.813  28.373  30.467  1.00  0.00     0.167 HD
ATOM     66  C   UNL A   1      45.274  25.984  30.042  1.00  0.00     0.074 A 
ATOM     67  C   UNL A   1      45.617  24.650  29.594  1.00  0.00     0.031 C 
ATOM     68  C   UNL A   1      46.106  26.792  30.742  1.00  0.00     0.031 A 
BRANCH  55  69
ATOM     69  C   UNL A   1      43.709  32.327  32.077  1.00  0.00    -0.014 A 
ATOM     70  C   UNL A   1      43.481  32.557  33.443  1.00  0.00     0.009 A 
ATOM     71  C   UNL A   1      44.165  33.388  31.278  1.00  0.00     0.009 A 
ATOM     72  C   UNL A   1      43.666  33.830  33.989  1.00  0.00     0.001 A 
ATOM     73  C   UNL A   1      44.381  34.650  31.833  1.00  0.00     0.001 A 
ATOM     74  C   UNL A   1      44.121  34.874  33.184  1.00  0.00     0.000 A 
ENDBRANCH  55  69
BRANCH  56  75
ATOM     75  C   UNL A   1      42.042  23.531  27.666  1.00  0.00    -0.014 A 
ATOM     76  C   UNL A   1      42.433  23.337  26.332  1.00  0.00     0.009 A 
ATOM     77  C   UNL A   1      41.422  22.474  28.351  1.00  0.00     0.009 A 
ATOM     78  C   UNL A   1      42.181  22.121  25.690  1.00  0.00     0.001 A 
ATOM     79  C   UNL A   1      41.200  21.250  27.716  1.00  0.00     0.001 A 
ATOM     80  C   UNL A   1      41.570  21.077  26.384  1.00  0.00     0.000 A 
ENDBRANCH  56  75
BRANCH  68  81
ATOM     81  C   UNL A   1      47.457  26.243  31.109  1.00  0.00    -0.014 A 
ATOM     82  C   UNL A   1      47.695  25.659  32.362  1.00  0.00     0.009 A 
ATOM     83  C   UNL A   1      48.492  26.265  30.161  1.00  0.00     0.009 A 
ATOM     84  C   UNL A   1      48.953  25.136  32.669  1.00  0.00     0.001 A 
ATOM     85  C   UNL A   1      49.739  25.714  30.459  1.00  0.00     0.001 A 
ATOM     86  C   UNL A   1      49.971  25.159  31.715  1.00  0.00     0.000 A 
ENDBRANCH  68  81
ENDBRANCH  42  43
ENDBRANCH  34  37
ENDBRANCH  32  33
ENDBRANCH  31  32
ENDBRANCH  30  31
ENDBRANCH  29  30
ENDBRANCH   1  29
TORSDOF 17
ENDMDL
MODEL 2
REMARK VINA RESULT:     -11.0      3.391      7.476
REMARK SMILES NC(=O)c1ccc(NC(=O)Cc2ccccc2C(=O)NCCCCCCNC(=O)c2ccc(-c3c4nc(c(-c5ccccc5)c5ccc([nH]5)c(-c5ccccc5)c5nc(c(-c6ccccc6)c6ccc3[nH]6)C=C5)C=C4)cc2)cc1
REMARK SMILES IDX 22 1 21 2 20 3 18 4 19 5 17 7 12 8 13 9 14 10 16 11 15 12
REMARK SMILES IDX 11 13 9 14 8 15 10 17 7 18 4 19 5 20 79 21 6 22 78 23 2 24
REMARK SMILES IDX 1 25 3 28 23 29 24 30 25 31 26 32 27 33 28 34 29 36 30 37
REMARK SMILES IDX 31 38 77 39 32 40 76 41 33 42 34 43 35 44 70 45 36 46 75 47
REMARK SMILES IDX 69 48 71 49 37 50 74 51 68 52 67 53 38 55 60 56 45 57 59 58
REMARK SMILES IDX 46 59 49 60 58 61 72 62 47 63 48 64 57 66 73 67 50 68 39 69
REMARK SMILES IDX 40 70 44 71 41 72 43 73 42 74 61 75 62 76 66 77 63 78 65 79
REMARK SMILES IDX 64 80 51 81 52 82 56 83 53 84 55 85 54 86
REMARK H PARENT 20 6 8 16 1 26 1 27 27 35 71 54 49 65
REMARK Flexibility Score: inf
ROOT
ATOM      1  C   UNL A   1      31.509  28.182  27.522  1.00  0.00     0.021 C 
ENDROOT
BRANCH   1   2
ATOM      2  C   UNL A   1      31.237  27.154  26.434  1.00  0.00     0.116 C 
BRANCH   2   3
ATOM      3  N   UNL A   1      31.462  25.803  26.861  1.00  0.00    -0.352 N 
ATOM      4  C   UNL A   1      31.831  24.738  26.070  1.00  0.00     0.251 C 
ATOM      5  O   UNL A   1      31.036  24.159  25.340  1.00  0.00    -0.269 OA
ATOM      6  H   UNL A   1      31.339  25.618  27.820  1.00  0.00     0.163 HD
BRANCH   4   7
ATOM      7  C   UNL A   1      33.279  24.365  26.105  1.00  0.00     0.043 A 
ATOM      8  C   UNL A   1      34.196  24.816  25.149  1.00  0.00    -0.026 A 
ATOM      9  C   UNL A   1      35.252  23.919  24.830  1.00  0.00     0.005 A 
ATOM     10  C   UNL A   1      35.517  22.772  25.588  1.00  0.00     0.000 A 
ATOM     11  C   UNL A   1      33.622  23.292  26.956  1.00  0.00     0.014 A 
ATOM     12  C   UNL A   1      34.752  22.511  26.713  1.00  0.00     0.001 A 
BRANCH   8  13
ATOM     13  C   UNL A   1      34.049  26.054  24.295  1.00  0.00     0.136 C 
BRANCH  13  14
ATOM     14  C   UNL A   1      33.449  26.175  22.880  1.00  0.00     0.228 C 
ATOM     15  N   UNL A   1      32.275  26.581  22.324  1.00  0.00    -0.326 N 
ATOM     16  H   UNL A   1      32.216  26.217  21.412  1.00  0.00     0.169 HD
ATOM     17  O   UNL A   1      34.180  25.675  21.991  1.00  0.00    -0.274 OA
BRANCH  15  18
ATOM     18  C   UNL A   1      31.107  27.338  22.585  1.00  0.00     0.041 A 
ATOM     19  C   UNL A   1      28.697  28.678  23.212  1.00  0.00     0.039 A 
ATOM     20  C   UNL A   1      29.799  29.407  22.803  1.00  0.00     0.016 A 
ATOM     21  C   UNL A   1      28.848  27.326  23.513  1.00  0.00     0.016 A 
ATOM     22  C   UNL A   1      31.004  28.732  22.555  1.00  0.00     0.027 A 
ATOM     23  C   UNL A   1      30.059  26.674  23.228  1.00  0.00     0.027 A 
BRANCH  19  24
ATOM     24  C   UNL A   1      27.355  29.274  23.143  1.00  0.00     0.248 C 
ATOM     25  N   UNL A   1      26.291  28.440  23.029  1.00  0.00    -0.366 N 
ATOM     26  H   UNL A   1      25.380  28.809  22.981  1.00  0.00     0.159 HD
ATOM     27  H   UNL A   1      26.431  27.466  22.996  1.00  0.00     0.159 HD
ATOM     28  O   UNL A   1      27.221  30.500  23.193  1.00  0.00    -0.270 OA
ENDBRANCH  19  24
ENDBRANCH  15  18
ENDBRANCH  13  14
ENDBRANCH   8  13
ENDBRANCH   4   7
ENDBRANCH   2   3
ENDBRANCH   1   2
BRANCH   1  29
ATOM     29  C   UNL A   1      32.496  29.340  27.263  1.00  0.00     0.002 C 
BRANCH  29  30
ATOM     30  C   UNL A   1      32.149  30.448  26.267  1.00  0.00     0.002 C 
BRANCH  30  31
ATOM     31  C   UNL A   1      31.684  31.774  26.853  1.00  0.00     0.021 C 
BRANCH  31  32
ATOM     32  C   UNL A   1      32.784  32.711  27.326  1.00  0.00     0.116 C 
BRANCH  32  33
ATOM     33  N   UNL A   1      32.348  34.070  27.602  1.00  0.00    -0.352 N 
ATOM     34  C   UNL A   1      32.917  34.972  28.475  1.00  0.00     0.251 C 
ATOM     35  H   UNL A   1      31.556  34.383  27.108  1.00  0.00     0.163 HD
ATOM     36  O   UNL A   1      32.416  36.075  28.657  1.00  0.00    -0.269 OA
BRANCH  34  37
ATOM     37  C   UNL A   1      34.120  34.568  29.239  1.00  0.00     0.039 A 
ATOM     38  C   UNL A   1      33.963  34.086  30.541  1.00  0.00     0.014 A 
ATOM     39  C   UNL A   1      35.385  34.591  28.646  1.00  0.00     0.014 A 
ATOM     40  C   UNL A   1      35.064  33.553  31.216  1.00  0.00     0.010 A 
ATOM     41  C   UNL A   1      36.459  33.979  29.285  1.00  0.00     0.010 A 
ATOM     42  C   UNL A   1      36.310  33.454  30.577  1.00  0.00    -0.014 A 
BRANCH  42  43
ATOM     43  C   UNL A   1      37.470  32.806  31.243  1.00  0.00     0.031 A 
ATOM     44  C   UNL A   1      38.127  31.607  30.615  1.00  0.00     0.074 A 
ATOM     45  C   UNL A   1      37.896  33.256  32.440  1.00  0.00     0.049 A 
ATOM     46  N   UNL A   1      39.116  30.877  31.065  1.00  0.00    -0.248 NA
ATOM     47  C   UNL A   1      37.584  31.152  29.325  1.00  0.00     0.031 C 
ATOM     48  C   UNL A   1      37.321  34.383  33.178  1.00  0.00     0.029 A 
ATOM     49  N   UNL A   1      38.913  32.814  33.252  1.00  0.00    -0.354 N 
ATOM     50  C   UNL A   1      39.302  29.872  30.125  1.00  0.00     0.074 A 
ATOM     51  C   UNL A   1      38.288  30.050  29.109  1.00  0.00     0.031 C 
ATOM     52  C   UNL A   1      38.013  34.564  34.315  1.00  0.00     0.029 A 
ATOM     53  C   UNL A   1      39.051  33.543  34.409  1.00  0.00     0.049 A 
ATOM     54  H   UNL A   1      39.487  32.049  33.025  1.00  0.00     0.167 HD
ATOM     55  C   UNL A   1      40.244  28.900  30.094  1.00  0.00     0.031 A 
ATOM     56  C   UNL A   1      39.914  33.402  35.433  1.00  0.00     0.031 A 
ATOM     57  C   UNL A   1      41.259  28.726  31.099  1.00  0.00     0.049 A 
ATOM     58  C   UNL A   1      40.939  32.303  35.385  1.00  0.00     0.074 A 
ATOM     59  C   UNL A   1      42.292  27.805  31.128  1.00  0.00     0.029 A 
ATOM     60  N   UNL A   1      41.365  29.487  32.252  1.00  0.00    -0.354 N 
ATOM     61  N   UNL A   1      41.146  31.405  34.453  1.00  0.00    -0.248 NA
ATOM     62  C   UNL A   1      41.859  32.206  36.529  1.00  0.00     0.031 C 
ATOM     63  C   UNL A   1      42.990  27.974  32.329  1.00  0.00     0.029 A 
ATOM     64  C   UNL A   1      42.431  29.041  33.013  1.00  0.00     0.049 A 
ATOM     65  H   UNL A   1      40.772  30.235  32.493  1.00  0.00     0.167 HD
ATOM     66  C   UNL A   1      42.238  30.660  34.880  1.00  0.00     0.074 A 
ATOM     67  C   UNL A   1      42.656  31.218  36.149  1.00  0.00     0.031 C 
ATOM     68  C   UNL A   1      42.840  29.609  34.272  1.00  0.00     0.031 A 
BRANCH  55  69
ATOM     69  C   UNL A   1      40.213  27.943  28.935  1.00  0.00    -0.014 A 
ATOM     70  C   UNL A   1      40.888  28.227  27.737  1.00  0.00     0.009 A 
ATOM     71  C   UNL A   1      39.528  26.723  29.054  1.00  0.00     0.009 A 
ATOM     72  C   UNL A   1      40.843  27.328  26.668  1.00  0.00     0.001 A 
ATOM     73  C   UNL A   1      39.512  25.813  27.996  1.00  0.00     0.001 A 
ATOM     74  C   UNL A   1      40.160  26.120  26.800  1.00  0.00     0.000 A 
ENDBRANCH  55  69
BRANCH  56  75
ATOM     75  C   UNL A   1      39.860  34.338  36.589  1.00  0.00    -0.014 A 
ATOM     76  C   UNL A   1      39.106  34.018  37.729  1.00  0.00     0.009 A 
ATOM     77  C   UNL A   1      40.551  35.559  36.555  1.00  0.00     0.009 A 
ATOM     78  C   UNL A   1      39.023  34.915  38.798  1.00  0.00     0.001 A 
ATOM     79  C   UNL A   1      40.492  36.439  37.638  1.00  0.00     0.001 A 
ATOM     80  C   UNL A   1      39.720  36.122  38.753  1.00  0.00     0.000 A 
ENDBRANCH  56  75
BRANCH  68  81
ATOM     81  C   UNL A   1      44.046  29.018  34.948  1.00  0.00    -0.014 A 
ATOM     82  C   UNL A   1      45.337  29.509  34.703  1.00  0.00     0.009 A 
ATOM     83  C   UNL A   1      43.877  27.986  35.885  1.00  0.00     0.009 A 
ATOM     84  C   UNL A   1      46.438  28.955  35.361  1.00  0.00     0.001 A 
ATOM     85  C   UNL A   1      44.974  27.457  36.564  1.00  0.00     0.001 A 
ATOM     86  C   UNL A   1      46.254  27.935  36.294  1.00  0.00     0.000 A 
ENDBRANCH  68  81
ENDBRANCH  42  43
ENDBRANCH  34  37
ENDBRANCH  32  33
ENDBRANCH  31  32
ENDBRANCH  30  31
ENDBRANCH  29  30
ENDBRANCH   1  29
TORSDOF 17
ENDMDL
MODEL 3
REMARK VINA RESULT:     -11.0      2.514      3.979
REMARK SMILES NC(=O)c1ccc(NC(=O)Cc2ccccc2C(=O)NCCCCCCNC(=O)c2ccc(-c3c4nc(c(-c5ccccc5)c5ccc([nH]5)c(-c5ccccc5)c5nc(c(-c6ccccc6)c6ccc3[nH]6)C=C5)C=C4)cc2)cc1
REMARK SMILES IDX 22 1 21 2 20 3 18 4 19 5 17 7 12 8 13 9 14 10 16 11 15 12
REMARK SMILES IDX 11 13 9 14 8 15 10 17 7 18 4 19 5 20 79 21 6 22 78 23 2 24
REMARK SMILES IDX 1 25 3 28 23 29 24 30 25 31 26 32 27 33 28 34 29 36 30 37
REMARK SMILES IDX 31 38 77 39 32 40 76 41 33 42 34 43 35 44 70 45 36 46 75 47
REMARK SMILES IDX 69 48 71 49 37 50 74 51 68 52 67 53 38 55 60 56 45 57 59 58
REMARK SMILES IDX 46 59 49 60 58 61 72 62 47 63 48 64 57 66 73 67 50 68 39 69
REMARK SMILES IDX 40 70 44 71 41 72 43 73 42 74 61 75 62 76 66 77 63 78 65 79
REMARK SMILES IDX 64 80 51 81 52 82 56 83 53 84 55 85 54 86
REMARK H PARENT 20 6 8 16 1 26 1 27 27 35 71 54 49 65
REMARK Flexibility Score: inf
ROOT
ATOM      1  C   UNL A   1      32.153  27.573  26.763  1.00  0.00     0.021 C 
ENDROOT
BRANCH   1   2
ATOM      2  C   UNL A   1      30.974  26.647  26.499  1.00  0.00     0.116 C 
BRANCH   2   3
ATOM      3  N   UNL A   1      31.263  25.268  26.773  1.00  0.00    -0.352 N 
ATOM      4  C   UNL A   1      31.807  24.350  25.903  1.00  0.00     0.251 C 
ATOM      5  O   UNL A   1      31.149  23.824  25.013  1.00  0.00    -0.269 OA
ATOM      6  H   UNL A   1      31.050  24.946  27.679  1.00  0.00     0.163 HD
BRANCH   4   7
ATOM      7  C   UNL A   1      33.267  24.076  26.066  1.00  0.00     0.043 A 
ATOM      8  C   UNL A   1      34.230  24.570  25.179  1.00  0.00    -0.026 A 
ATOM      9  C   UNL A   1      35.366  23.741  24.969  1.00  0.00     0.005 A 
ATOM     10  C   UNL A   1      35.641  22.628  25.773  1.00  0.00     0.000 A 
ATOM     11  C   UNL A   1      33.607  23.043  26.967  1.00  0.00     0.014 A 
ATOM     12  C   UNL A   1      34.802  22.336  26.836  1.00  0.00     0.001 A 
BRANCH   8  13
ATOM     13  C   UNL A   1      34.074  25.780  24.287  1.00  0.00     0.136 C 
BRANCH  13  14
ATOM     14  C   UNL A   1      33.409  25.867  22.900  1.00  0.00     0.228 C 
ATOM     15  N   UNL A   1      32.252  26.357  22.376  1.00  0.00    -0.326 N 
ATOM     16  H   UNL A   1      32.103  25.939  21.497  1.00  0.00     0.169 HD
ATOM     17  O   UNL A   1      34.031  25.233  22.014  1.00  0.00    -0.274 OA
BRANCH  15  18
ATOM     18  C   UNL A   1      31.185  27.250  22.638  1.00  0.00     0.041 A 
ATOM     19  C   UNL A   1      28.946  28.866  23.248  1.00  0.00     0.039 A 
ATOM     20  C   UNL A   1      30.164  29.460  22.978  1.00  0.00     0.016 A 
ATOM     21  C   UNL A   1      28.885  27.485  23.425  1.00  0.00     0.016 A 
ATOM     22  C   UNL A   1      31.280  28.641  22.737  1.00  0.00     0.027 A 
ATOM     23  C   UNL A   1      30.011  26.692  23.150  1.00  0.00     0.027 A 
BRANCH  19  24
ATOM     24  C   UNL A   1      27.708  29.654  23.157  1.00  0.00     0.248 C 
ATOM     25  N   UNL A   1      27.817  31.002  23.045  1.00  0.00    -0.366 N 
ATOM     26  H   UNL A   1      27.006  31.556  22.981  1.00  0.00     0.159 HD
ATOM     27  H   UNL A   1      28.706  31.423  23.025  1.00  0.00     0.159 HD
ATOM     28  O   UNL A   1      26.612  29.087  23.179  1.00  0.00    -0.270 OA
ENDBRANCH  19  24
ENDBRANCH  15  18
ENDBRANCH  13  14
ENDBRANCH   8  13
ENDBRANCH   4   7
ENDBRANCH   2   3
ENDBRANCH   1   2
BRANCH   1  29
ATOM     29  C   UNL A   1      31.906  29.033  27.197  1.00  0.00     0.002 C 
BRANCH  29  30
ATOM     30  C   UNL A   1      32.046  30.176  26.190  1.00  0.00     0.002 C 
BRANCH  30  31
ATOM     31  C   UNL A   1      31.682  31.570  26.682  1.00  0.00     0.021 C 
BRANCH  31  32
ATOM     32  C   UNL A   1      32.831  32.395  27.242  1.00  0.00     0.116 C 
BRANCH  32  33
ATOM     33  N   UNL A   1      32.469  33.741  27.651  1.00  0.00    -0.352 N 
ATOM     34  C   UNL A   1      33.160  34.572  28.507  1.00  0.00     0.251 C 
ATOM     35  H   UNL A   1      31.634  34.103  27.274  1.00  0.00     0.163 HD
ATOM     36  O   UNL A   1      32.715  35.672  28.815  1.00  0.00    -0.269 OA
BRANCH  34  37
ATOM     37  C   UNL A   1      34.431  34.093  29.098  1.00  0.00     0.039 A 
ATOM     38  C   UNL A   1      34.386  33.312  30.255  1.00  0.00     0.014 A 
ATOM     39  C   UNL A   1      35.653  34.350  28.470  1.00  0.00     0.014 A 
ATOM     40  C   UNL A   1      35.558  32.721  30.734  1.00  0.00     0.010 A 
ATOM     41  C   UNL A   1      36.801  33.689  28.897  1.00  0.00     0.010 A 
ATOM     42  C   UNL A   1      36.766  32.868  30.033  1.00  0.00    -0.014 A 
BRANCH  42  43
ATOM     43  C   UNL A   1      38.003  32.173  30.474  1.00  0.00     0.031 A 
ATOM     44  C   UNL A   1      38.884  32.794  31.523  1.00  0.00     0.074 A 
ATOM     45  C   UNL A   1      38.368  31.014  29.890  1.00  0.00     0.049 A 
ATOM     46  N   UNL A   1      40.025  32.367  32.003  1.00  0.00    -0.248 NA
ATOM     47  C   UNL A   1      38.439  34.078  32.089  1.00  0.00     0.031 C 
ATOM     48  C   UNL A   1      37.627  30.325  28.831  1.00  0.00     0.029 A 
ATOM     49  N   UNL A   1      39.463  30.211  30.103  1.00  0.00    -0.354 N 
ATOM     50  C   UNL A   1      40.438  33.333  32.911  1.00  0.00     0.074 A 
ATOM     51  C   UNL A   1      39.458  34.396  32.875  1.00  0.00     0.031 C 
ATOM     52  C   UNL A   1      38.269  29.189  28.512  1.00  0.00     0.029 A 
ATOM     53  C   UNL A   1      39.487  29.090  29.308  1.00  0.00     0.049 A 
ATOM     54  H   UNL A   1      40.162  30.419  30.763  1.00  0.00     0.167 HD
ATOM     55  C   UNL A   1      41.524  33.330  33.721  1.00  0.00     0.031 A 
ATOM     56  C   UNL A   1      40.390  28.094  29.229  1.00  0.00     0.031 A 
ATOM     57  C   UNL A   1      42.495  32.271  33.765  1.00  0.00     0.049 A 
ATOM     58  C   UNL A   1      41.598  28.122  30.124  1.00  0.00     0.074 A 
ATOM     59  C   UNL A   1      43.599  32.150  34.591  1.00  0.00     0.029 A 
ATOM     60  N   UNL A   1      42.480  31.152  32.947  1.00  0.00    -0.354 N 
ATOM     61  N   UNL A   1      41.936  29.010  31.029  1.00  0.00    -0.248 NA
ATOM     62  C   UNL A   1      42.543  27.004  29.995  1.00  0.00     0.031 C 
ATOM     63  C   UNL A   1      44.284  30.984  34.233  1.00  0.00     0.029 A 
ATOM     64  C   UNL A   1      43.571  30.348  33.230  1.00  0.00     0.049 A 
ATOM     65  H   UNL A   1      41.796  30.958  32.266  1.00  0.00     0.167 HD
ATOM     66  C   UNL A   1      43.112  28.540  31.599  1.00  0.00     0.074 A 
ATOM     67  C   UNL A   1      43.423  27.285  30.947  1.00  0.00     0.031 C 
ATOM     68  C   UNL A   1      43.865  29.098  32.577  1.00  0.00     0.031 A 
BRANCH  55  69
ATOM     69  C   UNL A   1      41.719  34.519  34.621  1.00  0.00    -0.014 A 
ATOM     70  C   UNL A   1      41.147  34.564  35.903  1.00  0.00     0.009 A 
ATOM     71  C   UNL A   1      42.513  35.595  34.195  1.00  0.00     0.009 A 
ATOM     72  C   UNL A   1      41.334  35.679  36.723  1.00  0.00     0.001 A 
ATOM     73  C   UNL A   1      42.726  36.693  35.030  1.00  0.00     0.001 A 
ATOM     74  C   UNL A   1      42.127  36.740  36.288  1.00  0.00     0.000 A 
ENDBRANCH  55  69
BRANCH  56  75
ATOM     75  C   UNL A   1      40.182  26.973  28.273  1.00  0.00    -0.014 A 
ATOM     76  C   UNL A   1      40.724  27.030  26.979  1.00  0.00     0.009 A 
ATOM     77  C   UNL A   1      39.433  25.846  28.644  1.00  0.00     0.009 A 
ATOM     78  C   UNL A   1      40.495  25.994  26.069  1.00  0.00     0.001 A 
ATOM     79  C   UNL A   1      39.232  24.798  27.742  1.00  0.00     0.001 A 
ATOM     80  C   UNL A   1      39.754  24.878  26.452  1.00  0.00     0.000 A 
ENDBRANCH  56  75
BRANCH  68  81
ATOM     81  C   UNL A   1      45.077  28.337  33.037  1.00  0.00    -0.014 A 
ATOM     82  C   UNL A   1      46.345  28.576  32.487  1.00  0.00     0.009 A 
ATOM     83  C   UNL A   1      44.952  27.402  34.077  1.00  0.00     0.009 A 
ATOM     84  C   UNL A   1      47.459  27.870  32.948  1.00  0.00     0.001 A 
ATOM     85  C   UNL A   1      46.070  26.721  34.557  1.00  0.00     0.001 A 
ATOM     86  C   UNL A   1      47.321  26.949  33.987  1.00  0.00     0.000 A 
ENDBRANCH  68  81
ENDBRANCH  42  43
ENDBRANCH  34  37
ENDBRANCH  32  33
ENDBRANCH  31  32
ENDBRANCH  30  31
ENDBRANCH  29  30
ENDBRANCH   1  29
TORSDOF 17
ENDMDL
