MODEL 1
REMARK VINA RESULT:     -12.0      0.000      0.000
REMARK SMILES C[NH+]1CCC([NH+]2CCC(Oc3ccc4ccccc4c3)(C(=O)NCCCCCCNC(=O)c3ccc(-c4c5nc(c(-c6ccccc6)c6ccc([nH]6)c(-c6ccccc6)c6nc(c(-c7ccccc7)c7ccc4[nH]7)C=C6)C=C5)cc3)CC2)CC1
REMARK SMILES IDX 26 1 25 2 24 3 23 4 21 5 22 6 9 8 6 9 7 10 82 11 8 13 81 14
REMARK SMILES IDX 5 15 1 16 2 17 3 18 84 19 4 21 83 22 10 23 11 24 12 25 20 26
REMARK SMILES IDX 13 27 19 28 14 29 18 30 15 31 17 32 16 33 27 34 28 35 29 36
REMARK SMILES IDX 30 37 31 38 32 40 33 41 34 42 80 43 35 44 79 45 36 46 37 47
REMARK SMILES IDX 38 48 73 49 39 50 78 51 72 52 74 53 40 54 77 55 71 56 70 57
REMARK SMILES IDX 41 59 63 60 48 61 62 62 49 63 52 64 61 65 75 66 50 67 51 68
REMARK SMILES IDX 60 70 76 71 53 72 42 73 43 74 47 75 44 76 46 77 45 78 64 79
REMARK SMILES IDX 65 80 69 81 66 82 68 83 67 84 54 85 55 86 59 87 56 88 58 89
REMARK SMILES IDX 57 90
REMARK H PARENT 23 7 6 12 2 20 30 39 74 58 52 69
REMARK Flexibility Score: inf
ROOT
ATOM      1  C   UNL A   1      38.003  22.160  25.973  1.00  0.00     0.002 C 
ENDROOT
BRANCH   1   2
ATOM      2  C   UNL A   1      37.849  23.660  25.688  1.00  0.00     0.021 C 
BRANCH   2   3
ATOM      3  C   UNL A   1      36.399  24.142  25.636  1.00  0.00     0.116 C 
BRANCH   3   4
ATOM      4  N   UNL A   1      35.881  24.086  24.284  1.00  0.00    -0.353 N 
ATOM      5  C   UNL A   1      34.598  23.987  23.825  1.00  0.00     0.264 C 
ATOM      6  O   UNL A   1      34.465  24.021  22.596  1.00  0.00    -0.270 OA
ATOM      7  H   UNL A   1      36.568  24.127  23.581  1.00  0.00     0.163 HD
BRANCH   5   8
ATOM      8  C   UNL A   1      33.388  23.845  24.796  1.00  0.00     0.197 C 
ATOM      9  N   UNL A   1      32.894  20.946  24.968  1.00  0.00    -0.332 N 
ATOM     10  C   UNL A   1      34.076  21.553  25.584  1.00  0.00     0.267 C 
ATOM     11  C   UNL A   1      32.480  21.683  23.762  1.00  0.00     0.267 C 
ATOM     12  H   UNL A   1      32.140  21.027  25.651  1.00  0.00     0.348 HD
ATOM     13  C   UNL A   1      33.739  22.974  26.008  1.00  0.00     0.120 C 
ATOM     14  C   UNL A   1      32.214  23.174  24.050  1.00  0.00     0.120 C 
BRANCH   9  15
ATOM     15  C   UNL A   1      33.030  19.486  24.729  1.00  0.00     0.195 C 
ATOM     16  C   UNL A   1      34.198  15.378  25.334  1.00  0.00     0.332 C 
ATOM     17  N   UNL A   1      34.038  16.827  25.427  1.00  0.00    -0.337 N 
ATOM     18  C   UNL A   1      32.642  17.178  25.718  1.00  0.00     0.268 C 
ATOM     19  C   UNL A   1      34.489  17.484  24.194  1.00  0.00     0.268 C 
ATOM     20  H   UNL A   1      34.619  17.160  26.196  1.00  0.00     0.347 HD
ATOM     21  C   UNL A   1      32.504  18.683  25.937  1.00  0.00     0.126 C 
ATOM     22  C   UNL A   1      34.441  19.006  24.348  1.00  0.00     0.126 C 
ENDBRANCH   9  15
BRANCH   8  23
ATOM     23  O   UNL A   1      33.135  25.241  25.101  1.00  0.00    -0.477 OA
BRANCH  23  24
ATOM     24  C   UNL A   1      32.012  25.841  24.623  1.00  0.00     0.121 A 
ATOM     25  C   UNL A   1      30.740  25.500  25.070  1.00  0.00     0.047 A 
ATOM     26  C   UNL A   1      32.183  26.953  23.798  1.00  0.00     0.055 A 
ATOM     27  C   UNL A   1      29.625  26.199  24.606  1.00  0.00     0.012 A 
ATOM     28  C   UNL A   1      31.075  27.691  23.350  1.00  0.00    -0.015 A 
ATOM     29  C   UNL A   1      29.776  27.293  23.743  1.00  0.00    -0.018 A 
ATOM     30  C   UNL A   1      31.226  28.821  22.531  1.00  0.00     0.009 A 
ATOM     31  C   UNL A   1      28.665  28.015  23.281  1.00  0.00     0.009 A 
ATOM     32  C   UNL A   1      30.111  29.537  22.091  1.00  0.00     0.001 A 
ATOM     33  C   UNL A   1      28.831  29.129  22.458  1.00  0.00     0.001 A 
ENDBRANCH  23  24
ENDBRANCH   8  23
ENDBRANCH   5   8
ENDBRANCH   3   4
ENDBRANCH   2   3
ENDBRANCH   1   2
BRANCH   1  34
ATOM     34  C   UNL A   1      37.712  21.239  24.784  1.00  0.00     0.002 C 
BRANCH  34  35
ATOM     35  C   UNL A   1      38.379  19.861  24.847  1.00  0.00     0.021 C 
BRANCH  35  36
ATOM     36  C   UNL A   1      39.200  19.605  26.106  1.00  0.00     0.116 C 
BRANCH  36  37
ATOM     37  N   UNL A   1      40.492  19.014  25.805  1.00  0.00    -0.352 N 
ATOM     38  C   UNL A   1      41.737  19.581  25.861  1.00  0.00     0.251 C 
ATOM     39  H   UNL A   1      40.470  18.072  25.521  1.00  0.00     0.163 HD
ATOM     40  O   UNL A   1      42.707  18.979  25.397  1.00  0.00    -0.269 OA
BRANCH  38  41
ATOM     41  C   UNL A   1      41.928  20.917  26.465  1.00  0.00     0.039 A 
ATOM     42  C   UNL A   1      42.225  21.996  25.625  1.00  0.00     0.014 A 
ATOM     43  C   UNL A   1      41.867  21.105  27.849  1.00  0.00     0.014 A 
ATOM     44  C   UNL A   1      42.438  23.263  26.171  1.00  0.00     0.010 A 
ATOM     45  C   UNL A   1      42.013  22.382  28.386  1.00  0.00     0.010 A 
ATOM     46  C   UNL A   1      42.325  23.468  27.556  1.00  0.00    -0.014 A 
BRANCH  46  47
ATOM     47  C   UNL A   1      42.586  24.803  28.151  1.00  0.00     0.031 A 
ATOM     48  C   UNL A   1      43.974  25.164  28.607  1.00  0.00     0.074 A 
ATOM     49  C   UNL A   1      41.575  25.676  28.311  1.00  0.00     0.049 A 
ATOM     50  N   UNL A   1      44.399  26.270  29.164  1.00  0.00    -0.248 NA
ATOM     51  C   UNL A   1      45.016  24.139  28.435  1.00  0.00     0.031 C 
ATOM     52  C   UNL A   1      40.178  25.436  27.947  1.00  0.00     0.029 A 
ATOM     53  N   UNL A   1      41.572  26.949  28.824  1.00  0.00    -0.354 N 
ATOM     54  C   UNL A   1      45.747  26.064  29.428  1.00  0.00     0.074 A 
ATOM     55  C   UNL A   1      46.060  24.713  29.015  1.00  0.00     0.031 C 
ATOM     56  C   UNL A   1      39.458  26.537  28.221  1.00  0.00     0.029 A 
ATOM     57  C   UNL A   1      40.336  27.548  28.802  1.00  0.00     0.049 A 
ATOM     58  H   UNL A   1      42.379  27.392  29.173  1.00  0.00     0.167 HD
ATOM     59  C   UNL A   1      46.654  26.927  29.948  1.00  0.00     0.031 A 
ATOM     60  C   UNL A   1      39.956  28.776  29.199  1.00  0.00     0.031 A 
ATOM     61  C   UNL A   1      46.354  28.277  30.339  1.00  0.00     0.049 A 
ATOM     62  C   UNL A   1      40.984  29.724  29.750  1.00  0.00     0.074 A 
ATOM     63  C   UNL A   1      47.212  29.245  30.831  1.00  0.00     0.029 A 
ATOM     64  N   UNL A   1      45.095  28.852  30.278  1.00  0.00    -0.354 N 
ATOM     65  N   UNL A   1      42.267  29.534  29.938  1.00  0.00    -0.248 NA
ATOM     66  C   UNL A   1      40.512  31.065  30.122  1.00  0.00     0.031 C 
ATOM     67  C   UNL A   1      46.464  30.398  31.099  1.00  0.00     0.029 A 
ATOM     68  C   UNL A   1      45.150  30.160  30.730  1.00  0.00     0.049 A 
ATOM     69  H   UNL A   1      44.281  28.399  29.959  1.00  0.00     0.167 HD
ATOM     70  C   UNL A   1      42.761  30.739  30.422  1.00  0.00     0.074 A 
ATOM     71  C   UNL A   1      41.641  31.656  30.483  1.00  0.00     0.031 C 
ATOM     72  C   UNL A   1      44.027  31.058  30.782  1.00  0.00     0.031 A 
BRANCH  59  73
ATOM     73  C   UNL A   1      48.059  26.423  30.121  1.00  0.00    -0.014 A 
ATOM     74  C   UNL A   1      49.030  26.622  29.126  1.00  0.00     0.009 A 
ATOM     75  C   UNL A   1      48.422  25.755  31.300  1.00  0.00     0.009 A 
ATOM     76  C   UNL A   1      50.325  26.126  29.292  1.00  0.00     0.001 A 
ATOM     77  C   UNL A   1      49.725  25.284  31.475  1.00  0.00     0.001 A 
ATOM     78  C   UNL A   1      50.673  25.460  30.466  1.00  0.00     0.000 A 
ENDBRANCH  59  73
BRANCH  60  79
ATOM     79  C   UNL A   1      38.540  29.200  29.054  1.00  0.00    -0.014 A 
ATOM     80  C   UNL A   1      38.082  29.744  27.844  1.00  0.00     0.009 A 
ATOM     81  C   UNL A   1      37.643  29.074  30.126  1.00  0.00     0.009 A 
ATOM     82  C   UNL A   1      36.762  30.179  27.718  1.00  0.00     0.001 A 
ATOM     83  C   UNL A   1      36.317  29.487  29.988  1.00  0.00     0.001 A 
ATOM     84  C   UNL A   1      35.879  30.047  28.789  1.00  0.00     0.000 A 
ENDBRANCH  60  79
BRANCH  72  85
ATOM     85  C   UNL A   1      44.272  32.470  31.235  1.00  0.00    -0.014 A 
ATOM     86  C   UNL A   1      44.179  32.829  32.589  1.00  0.00     0.009 A 
ATOM     87  C   UNL A   1      44.619  33.450  30.292  1.00  0.00     0.009 A 
ATOM     88  C   UNL A   1      44.388  34.152  32.983  1.00  0.00     0.001 A 
ATOM     89  C   UNL A   1      44.856  34.765  30.693  1.00  0.00     0.001 A 
ATOM     90  C   UNL A   1      44.729  35.116  32.036  1.00  0.00     0.000 A 
ENDBRANCH  72  85
ENDBRANCH  46  47
ENDBRANCH  38  41
ENDBRANCH  36  37
ENDBRANCH  35  36
ENDBRANCH  34  35
ENDBRANCH   1  34
TORSDOF 16
ENDMDL
MODEL 2
REMARK VINA RESULT:     -11.9      3.879      8.647
REMARK SMILES C[NH+]1CCC([NH+]2CCC(Oc3ccc4ccccc4c3)(C(=O)NCCCCCCNC(=O)c3ccc(-c4c5nc(c(-c6ccccc6)c6ccc([nH]6)c(-c6ccccc6)c6nc(c(-c7ccccc7)c7ccc4[nH]7)C=C6)C=C5)cc3)CC2)CC1
REMARK SMILES IDX 26 1 25 2 24 3 23 4 21 5 22 6 9 8 6 9 7 10 82 11 8 13 81 14
REMARK SMILES IDX 5 15 1 16 2 17 3 18 84 19 4 21 83 22 10 23 11 24 12 25 20 26
REMARK SMILES IDX 13 27 19 28 14 29 18 30 15 31 17 32 16 33 27 34 28 35 29 36
REMARK SMILES IDX 30 37 31 38 32 40 33 41 34 42 80 43 35 44 79 45 36 46 37 47
REMARK SMILES IDX 38 48 73 49 39 50 78 51 72 52 74 53 40 54 77 55 71 56 70 57
REMARK SMILES IDX 41 59 63 60 48 61 62 62 49 63 52 64 61 65 75 66 50 67 51 68
REMARK SMILES IDX 60 70 76 71 53 72 42 73 43 74 47 75 44 76 46 77 45 78 64 79
REMARK SMILES IDX 65 80 69 81 66 82 68 83 67 84 54 85 55 86 59 87 56 88 58 89
REMARK SMILES IDX 57 90
REMARK H PARENT 23 7 6 12 2 20 30 39 74 58 52 69
REMARK Flexibility Score: inf
ROOT
ATOM      1  C   UNL A   1      32.131  29.620  26.118  1.00  0.00     0.002 C 
ENDROOT
BRANCH   1   2
ATOM      2  C   UNL A   1      31.483  28.360  26.706  1.00  0.00     0.021 C 
BRANCH   2   3
ATOM      3  C   UNL A   1      32.186  27.058  26.324  1.00  0.00     0.116 C 
BRANCH   3   4
ATOM      4  N   UNL A   1      31.494  25.911  26.877  1.00  0.00    -0.353 N 
ATOM      5  C   UNL A   1      31.199  24.696  26.326  1.00  0.00     0.264 C 
ATOM      6  O   UNL A   1      30.641  23.889  27.077  1.00  0.00    -0.270 OA
ATOM      7  H   UNL A   1      31.185  26.028  27.804  1.00  0.00     0.163 HD
BRANCH   5   8
ATOM      8  C   UNL A   1      31.554  24.360  24.846  1.00  0.00     0.197 C 
ATOM      9  N   UNL A   1      34.234  23.142  24.970  1.00  0.00    -0.332 N 
ATOM     10  C   UNL A   1      33.053  22.433  25.469  1.00  0.00     0.267 C 
ATOM     11  C   UNL A   1      34.090  24.600  25.128  1.00  0.00     0.267 C 
ATOM     12  H   UNL A   1      34.286  22.946  23.971  1.00  0.00     0.348 HD
ATOM     13  C   UNL A   1      31.839  22.864  24.663  1.00  0.00     0.120 C 
ATOM     14  C   UNL A   1      32.822  25.141  24.438  1.00  0.00     0.120 C 
BRANCH   9  15
ATOM     15  C   UNL A   1      35.514  22.630  25.522  1.00  0.00     0.195 C 
ATOM     16  C   UNL A   1      39.741  21.847  25.882  1.00  0.00     0.332 C 
ATOM     17  N   UNL A   1      38.416  22.248  25.417  1.00  0.00    -0.337 N 
ATOM     18  C   UNL A   1      37.846  23.278  26.296  1.00  0.00     0.268 C 
ATOM     19  C   UNL A   1      37.518  21.090  25.331  1.00  0.00     0.268 C 
ATOM     20  H   UNL A   1      38.515  22.645  24.483  1.00  0.00     0.347 HD
ATOM     21  C   UNL A   1      36.517  23.782  25.737  1.00  0.00     0.126 C 
ATOM     22  C   UNL A   1      36.175  21.495  24.719  1.00  0.00     0.126 C 
ENDBRANCH   9  15
BRANCH   8  23
ATOM     23  O   UNL A   1      30.359  24.840  24.178  1.00  0.00    -0.477 OA
BRANCH  23  24
ATOM     24  C   UNL A   1      30.326  26.108  23.687  1.00  0.00     0.121 A 
ATOM     25  C   UNL A   1      31.361  26.637  22.923  1.00  0.00     0.047 A 
ATOM     26  C   UNL A   1      29.128  26.812  23.815  1.00  0.00     0.055 A 
ATOM     27  C   UNL A   1      31.245  27.916  22.378  1.00  0.00     0.012 A 
ATOM     28  C   UNL A   1      28.980  28.085  23.242  1.00  0.00    -0.015 A 
ATOM     29  C   UNL A   1      30.064  28.654  22.532  1.00  0.00    -0.018 A 
ATOM     30  C   UNL A   1      27.778  28.805  23.346  1.00  0.00     0.009 A 
ATOM     31  C   UNL A   1      29.928  29.935  21.976  1.00  0.00     0.009 A 
ATOM     32  C   UNL A   1      27.655  30.073  22.775  1.00  0.00     0.001 A 
ATOM     33  C   UNL A   1      28.731  30.640  22.098  1.00  0.00     0.001 A 
ENDBRANCH  23  24
ENDBRANCH   8  23
ENDBRANCH   5   8
ENDBRANCH   3   4
ENDBRANCH   2   3
ENDBRANCH   1   2
BRANCH   1  34
ATOM     34  C   UNL A   1      31.152  30.641  25.529  1.00  0.00     0.002 C 
BRANCH  34  35
ATOM     35  C   UNL A   1      31.057  31.968  26.288  1.00  0.00     0.021 C 
BRANCH  35  36
ATOM     36  C   UNL A   1      32.343  32.400  26.984  1.00  0.00     0.116 C 
BRANCH  36  37
ATOM     37  N   UNL A   1      32.311  33.799  27.374  1.00  0.00    -0.352 N 
ATOM     38  C   UNL A   1      33.060  34.453  28.315  1.00  0.00     0.251 C 
ATOM     39  H   UNL A   1      31.658  34.356  26.893  1.00  0.00     0.163 HD
ATOM     40  O   UNL A   1      32.771  35.606  28.636  1.00  0.00    -0.269 OA
BRANCH  38  41
ATOM     41  C   UNL A   1      34.210  33.783  28.958  1.00  0.00     0.039 A 
ATOM     42  C   UNL A   1      35.502  34.215  28.640  1.00  0.00     0.014 A 
ATOM     43  C   UNL A   1      34.029  32.705  29.831  1.00  0.00     0.014 A 
ATOM     44  C   UNL A   1      36.607  33.582  29.212  1.00  0.00     0.010 A 
ATOM     45  C   UNL A   1      35.129  32.118  30.452  1.00  0.00     0.010 A 
ATOM     46  C   UNL A   1      36.430  32.534  30.130  1.00  0.00    -0.014 A 
BRANCH  46  47
ATOM     47  C   UNL A   1      37.597  31.830  30.715  1.00  0.00     0.031 A 
ATOM     48  C   UNL A   1      38.048  32.156  32.114  1.00  0.00     0.074 A 
ATOM     49  C   UNL A   1      38.272  30.924  29.983  1.00  0.00     0.049 A 
ATOM     50  N   UNL A   1      39.052  31.662  32.794  1.00  0.00    -0.248 NA
ATOM     51  C   UNL A   1      37.284  33.187  32.833  1.00  0.00     0.031 C 
ATOM     52  C   UNL A   1      37.962  30.544  28.604  1.00  0.00     0.029 A 
ATOM     53  N   UNL A   1      39.361  30.153  30.305  1.00  0.00    -0.354 N 
ATOM     54  C   UNL A   1      39.052  32.338  34.008  1.00  0.00     0.074 A 
ATOM     55  C   UNL A   1      37.980  33.308  33.954  1.00  0.00     0.031 C 
ATOM     56  C   UNL A   1      38.823  29.593  28.207  1.00  0.00     0.029 A 
ATOM     57  C   UNL A   1      39.759  29.315  29.293  1.00  0.00     0.049 A 
ATOM     58  H   UNL A   1      39.814  30.198  31.178  1.00  0.00     0.167 HD
ATOM     59  C   UNL A   1      39.856  32.157  35.083  1.00  0.00     0.031 A 
ATOM     60  C   UNL A   1      40.760  28.416  29.249  1.00  0.00     0.031 A 
ATOM     61  C   UNL A   1      40.909  31.179  35.151  1.00  0.00     0.049 A 
ATOM     62  C   UNL A   1      41.624  28.215  30.462  1.00  0.00     0.074 A 
ATOM     63  C   UNL A   1      41.747  30.884  36.211  1.00  0.00     0.029 A 
ATOM     64  N   UNL A   1      41.263  30.332  34.113  1.00  0.00    -0.354 N 
ATOM     65  N   UNL A   1      41.574  28.821  31.623  1.00  0.00    -0.248 NA
ATOM     66  C   UNL A   1      42.670  27.187  30.363  1.00  0.00     0.031 C 
ATOM     67  C   UNL A   1      42.632  29.880  35.802  1.00  0.00     0.029 A 
ATOM     68  C   UNL A   1      42.313  29.519  34.503  1.00  0.00     0.049 A 
ATOM     69  H   UNL A   1      40.831  30.311  33.228  1.00  0.00     0.167 HD
ATOM     70  C   UNL A   1      42.559  28.229  32.403  1.00  0.00     0.074 A 
ATOM     71  C   UNL A   1      43.181  27.206  31.586  1.00  0.00     0.031 C 
ATOM     72  C   UNL A   1      42.917  28.506  33.679  1.00  0.00     0.031 A 
BRANCH  59  73
ATOM     73  C   UNL A   1      39.621  33.043  36.273  1.00  0.00    -0.014 A 
ATOM     74  C   UNL A   1      38.722  32.676  37.287  1.00  0.00     0.009 A 
ATOM     75  C   UNL A   1      40.319  34.255  36.392  1.00  0.00     0.009 A 
ATOM     76  C   UNL A   1      38.496  33.523  38.374  1.00  0.00     0.001 A 
ATOM     77  C   UNL A   1      40.112  35.087  37.494  1.00  0.00     0.001 A 
ATOM     78  C   UNL A   1      39.193  34.725  38.478  1.00  0.00     0.000 A 
ENDBRANCH  59  73
BRANCH  60  79
ATOM     79  C   UNL A   1      40.980  27.606  28.024  1.00  0.00    -0.014 A 
ATOM     80  C   UNL A   1      40.329  26.373  27.863  1.00  0.00     0.009 A 
ATOM     81  C   UNL A   1      41.847  28.055  27.016  1.00  0.00     0.009 A 
ATOM     82  C   UNL A   1      40.564  25.591  26.730  1.00  0.00     0.001 A 
ATOM     83  C   UNL A   1      42.060  27.282  25.873  1.00  0.00     0.001 A 
ATOM     84  C   UNL A   1      41.427  26.048  25.734  1.00  0.00     0.000 A 
ENDBRANCH  60  79
BRANCH  72  85
ATOM     85  C   UNL A   1      44.005  27.661  34.281  1.00  0.00    -0.014 A 
ATOM     86  C   UNL A   1      43.708  26.490  34.994  1.00  0.00     0.009 A 
ATOM     87  C   UNL A   1      45.346  28.037  34.114  1.00  0.00     0.009 A 
ATOM     88  C   UNL A   1      44.734  25.732  35.563  1.00  0.00     0.001 A 
ATOM     89  C   UNL A   1      46.371  27.264  34.659  1.00  0.00     0.001 A 
ATOM     90  C   UNL A   1      46.063  26.119  35.393  1.00  0.00     0.000 A 
ENDBRANCH  72  85
ENDBRANCH  46  47
ENDBRANCH  38  41
ENDBRANCH  36  37
ENDBRANCH  35  36
ENDBRANCH  34  35
ENDBRANCH   1  34
TORSDOF 16
ENDMDL
MODEL 3
REMARK VINA RESULT:     -11.8      3.688      8.368
REMARK SMILES C[NH+]1CCC([NH+]2CCC(Oc3ccc4ccccc4c3)(C(=O)NCCCCCCNC(=O)c3ccc(-c4c5nc(c(-c6ccccc6)c6ccc([nH]6)c(-c6ccccc6)c6nc(c(-c7ccccc7)c7ccc4[nH]7)C=C6)C=C5)cc3)CC2)CC1
REMARK SMILES IDX 26 1 25 2 24 3 23 4 21 5 22 6 9 8 6 9 7 10 82 11 8 13 81 14
REMARK SMILES IDX 5 15 1 16 2 17 3 18 84 19 4 21 83 22 10 23 11 24 12 25 20 26
REMARK SMILES IDX 13 27 19 28 14 29 18 30 15 31 17 32 16 33 27 34 28 35 29 36
REMARK SMILES IDX 30 37 31 38 32 40 33 41 34 42 80 43 35 44 79 45 36 46 37 47
REMARK SMILES IDX 38 48 73 49 39 50 78 51 72 52 74 53 40 54 77 55 71 56 70 57
REMARK SMILES IDX 41 59 63 60 48 61 62 62 49 63 52 64 61 65 75 66 50 67 51 68
REMARK SMILES IDX 60 70 76 71 53 72 42 73 43 74 47 75 44 76 46 77 45 78 64 79
REMARK SMILES IDX 65 80 69 81 66 82 68 83 67 84 54 85 55 86 59 87 56 88 58 89
REMARK SMILES IDX 57 90
REMARK H PARENT 23 7 6 12 2 20 30 39 74 58 52 69
REMARK Flexibility Score: inf
ROOT
ATOM      1  C   UNL A   1      32.366  29.557  26.975  1.00  0.00     0.002 C 
ENDROOT
BRANCH   1   2
ATOM      2  C   UNL A   1      31.753  28.233  27.446  1.00  0.00     0.021 C 
BRANCH   2   3
ATOM      3  C   UNL A   1      31.758  27.129  26.389  1.00  0.00     0.116 C 
BRANCH   3   4
ATOM      4  N   UNL A   1      31.158  25.914  26.902  1.00  0.00    -0.353 N 
ATOM      5  C   UNL A   1      30.971  24.695  26.315  1.00  0.00     0.264 C 
ATOM      6  O   UNL A   1      30.474  23.823  27.037  1.00  0.00    -0.270 OA
ATOM      7  H   UNL A   1      30.831  25.979  27.828  1.00  0.00     0.163 HD
BRANCH   5   8
ATOM      8  C   UNL A   1      31.367  24.430  24.831  1.00  0.00     0.197 C 
ATOM      9  N   UNL A   1      34.058  23.240  24.969  1.00  0.00    -0.332 N 
ATOM     10  C   UNL A   1      32.875  22.495  25.405  1.00  0.00     0.267 C 
ATOM     11  C   UNL A   1      33.892  24.687  25.189  1.00  0.00     0.267 C 
ATOM     12  H   UNL A   1      34.138  23.090  23.963  1.00  0.00     0.348 HD
ATOM     13  C   UNL A   1      31.675  22.948  24.587  1.00  0.00     0.120 C 
ATOM     14  C   UNL A   1      32.635  25.244  24.492  1.00  0.00     0.120 C 
BRANCH   9  15
ATOM     15  C   UNL A   1      35.331  22.718  25.530  1.00  0.00     0.195 C 
ATOM     16  C   UNL A   1      39.530  21.787  25.854  1.00  0.00     0.332 C 
ATOM     17  N   UNL A   1      38.211  22.207  25.389  1.00  0.00    -0.337 N 
ATOM     18  C   UNL A   1      37.706  23.324  26.198  1.00  0.00     0.268 C 
ATOM     19  C   UNL A   1      37.265  21.084  25.413  1.00  0.00     0.268 C 
ATOM     20  H   UNL A   1      38.302  22.526  24.425  1.00  0.00     0.347 HD
ATOM     21  C   UNL A   1      36.384  23.840  25.632  1.00  0.00     0.126 C 
ATOM     22  C   UNL A   1      35.924  21.498  24.803  1.00  0.00     0.126 C 
ENDBRANCH   9  15
BRANCH   8  23
ATOM     23  O   UNL A   1      30.183  24.927  24.154  1.00  0.00    -0.477 OA
BRANCH  23  24
ATOM     24  C   UNL A   1      30.178  26.188  23.645  1.00  0.00     0.121 A 
ATOM     25  C   UNL A   1      31.239  26.693  22.901  1.00  0.00     0.047 A 
ATOM     26  C   UNL A   1      28.986  26.907  23.730  1.00  0.00     0.055 A 
ATOM     27  C   UNL A   1      31.153  27.965  22.335  1.00  0.00     0.012 A 
ATOM     28  C   UNL A   1      28.868  28.174  23.135  1.00  0.00    -0.015 A 
ATOM     29  C   UNL A   1      29.977  28.719  22.447  1.00  0.00    -0.018 A 
ATOM     30  C   UNL A   1      27.673  28.908  23.197  1.00  0.00     0.009 A 
ATOM     31  C   UNL A   1      29.871  29.993  21.868  1.00  0.00     0.009 A 
ATOM     32  C   UNL A   1      27.580  30.169  22.604  1.00  0.00     0.001 A 
ATOM     33  C   UNL A   1      28.680  30.714  21.948  1.00  0.00     0.001 A 
ENDBRANCH  23  24
ENDBRANCH   8  23
ENDBRANCH   5   8
ENDBRANCH   3   4
ENDBRANCH   2   3
ENDBRANCH   1   2
BRANCH   1  34
ATOM     34  C   UNL A   1      31.463  30.409  26.076  1.00  0.00     0.002 C 
BRANCH  34  35
ATOM     35  C   UNL A   1      31.336  31.880  26.484  1.00  0.00     0.021 C 
BRANCH  35  36
ATOM     36  C   UNL A   1      32.581  32.473  27.135  1.00  0.00     0.116 C 
BRANCH  36  37
ATOM     37  N   UNL A   1      32.389  33.860  27.520  1.00  0.00    -0.352 N 
ATOM     38  C   UNL A   1      33.045  34.593  28.472  1.00  0.00     0.251 C 
ATOM     39  H   UNL A   1      31.687  34.342  27.027  1.00  0.00     0.163 HD
ATOM     40  O   UNL A   1      32.626  35.708  28.785  1.00  0.00    -0.269 OA
BRANCH  38  41
ATOM     41  C   UNL A   1      34.250  34.054  29.138  1.00  0.00     0.039 A 
ATOM     42  C   UNL A   1      35.507  34.380  28.616  1.00  0.00     0.014 A 
ATOM     43  C   UNL A   1      34.151  33.194  30.236  1.00  0.00     0.014 A 
ATOM     44  C   UNL A   1      36.660  33.863  29.208  1.00  0.00     0.010 A 
ATOM     45  C   UNL A   1      35.305  32.732  30.866  1.00  0.00     0.010 A 
ATOM     46  C   UNL A   1      36.569  33.042  30.343  1.00  0.00    -0.014 A 
BRANCH  46  47
ATOM     47  C   UNL A   1      37.787  32.456  30.958  1.00  0.00     0.031 A 
ATOM     48  C   UNL A   1      38.464  31.279  30.309  1.00  0.00     0.074 A 
ATOM     49  C   UNL A   1      38.265  32.957  32.111  1.00  0.00     0.049 A 
ATOM     50  N   UNL A   1      39.525  30.618  30.699  1.00  0.00    -0.248 NA
ATOM     51  C   UNL A   1      37.856  30.763  29.072  1.00  0.00     0.031 C 
ATOM     52  C   UNL A   1      37.681  34.070  32.862  1.00  0.00     0.029 A 
ATOM     53  N   UNL A   1      39.360  32.592  32.854  1.00  0.00    -0.354 N 
ATOM     54  C   UNL A   1      39.696  29.599  29.770  1.00  0.00     0.074 A 
ATOM     55  C   UNL A   1      38.605  29.698  28.825  1.00  0.00     0.031 C 
ATOM     56  C   UNL A   1      38.439  34.316  33.943  1.00  0.00     0.029 A 
ATOM     57  C   UNL A   1      39.545  33.363  33.975  1.00  0.00     0.049 A 
ATOM     58  H   UNL A   1      39.955  31.848  32.607  1.00  0.00     0.167 HD
ATOM     59  C   UNL A   1      40.683  28.674  29.694  1.00  0.00     0.031 A 
ATOM     60  C   UNL A   1      40.504  33.314  34.918  1.00  0.00     0.031 A 
ATOM     61  C   UNL A   1      41.782  28.585  30.617  1.00  0.00     0.049 A 
ATOM     62  C   UNL A   1      41.603  32.295  34.798  1.00  0.00     0.074 A 
ATOM     63  C   UNL A   1      42.858  27.715  30.599  1.00  0.00     0.029 A 
ATOM     64  N   UNL A   1      41.947  29.401  31.724  1.00  0.00    -0.354 N 
ATOM     65  N   UNL A   1      41.783  31.375  33.882  1.00  0.00    -0.248 NA
ATOM     66  C   UNL A   1      42.644  32.323  35.836  1.00  0.00     0.031 C 
ATOM     67  C   UNL A   1      43.658  27.985  31.715  1.00  0.00     0.029 A 
ATOM     68  C   UNL A   1      43.102  29.052  32.402  1.00  0.00     0.049 A 
ATOM     69  H   UNL A   1      41.333  30.124  31.990  1.00  0.00     0.167 HD
ATOM     70  C   UNL A   1      42.971  30.736  34.214  1.00  0.00     0.074 A 
ATOM     71  C   UNL A   1      43.475  31.384  35.408  1.00  0.00     0.031 C 
ATOM     72  C   UNL A   1      43.589  29.707  33.587  1.00  0.00     0.031 A 
BRANCH  59  73
ATOM     73  C   UNL A   1      40.610  27.684  28.566  1.00  0.00    -0.014 A 
ATOM     74  C   UNL A   1      39.924  26.467  28.710  1.00  0.00     0.009 A 
ATOM     75  C   UNL A   1      41.221  27.978  27.337  1.00  0.00     0.009 A 
ATOM     76  C   UNL A   1      39.888  25.547  27.660  1.00  0.00     0.001 A 
ATOM     77  C   UNL A   1      41.159  27.068  26.280  1.00  0.00     0.001 A 
ATOM     78  C   UNL A   1      40.502  25.849  26.446  1.00  0.00     0.000 A 
ENDBRANCH  59  73
BRANCH  60  79
ATOM     79  C   UNL A   1      40.495  34.285  36.042  1.00  0.00    -0.014 A 
ATOM     80  C   UNL A   1      39.811  33.988  37.230  1.00  0.00     0.009 A 
ATOM     81  C   UNL A   1      41.160  35.515  35.928  1.00  0.00     0.009 A 
ATOM     82  C   UNL A   1      39.768  34.916  38.273  1.00  0.00     0.001 A 
ATOM     83  C   UNL A   1      41.137  36.430  36.982  1.00  0.00     0.001 A 
ATOM     84  C   UNL A   1      40.434  36.135  38.150  1.00  0.00     0.000 A 
ENDBRANCH  60  79
BRANCH  72  85
ATOM     85  C   UNL A   1      44.900  29.248  34.161  1.00  0.00    -0.014 A 
ATOM     86  C   UNL A   1      44.958  28.226  35.120  1.00  0.00     0.009 A 
ATOM     87  C   UNL A   1      46.094  29.837  33.718  1.00  0.00     0.009 A 
ATOM     88  C   UNL A   1      46.186  27.831  35.656  1.00  0.00     0.001 A 
ATOM     89  C   UNL A   1      47.322  29.422  34.234  1.00  0.00     0.001 A 
ATOM     90  C   UNL A   1      47.365  28.428  35.210  1.00  0.00     0.000 A 
ENDBRANCH  72  85
ENDBRANCH  46  47
ENDBRANCH  38  41
ENDBRANCH  36  37
ENDBRANCH  35  36
ENDBRANCH  34  35
ENDBRANCH   1  34
TORSDOF 16
ENDMDL
