MODEL 1
REMARK VINA RESULT:     -11.9      0.000      0.000
REMARK SMILES Cn1ccc(-c2n[nH]c(=O)n2-c2ccc(C(=O)NCCCCCCNC(=O)c3ccc(-c4c5nc(c(-c6ccccc6)c6ccc([nH]6)c(-c6ccccc6)c6nc(c(-c7ccccc7)c7ccc4[nH]7)C=C6)C=C5)cc3)cc2)n1
REMARK SMILES IDX 21 1 20 2 19 3 18 4 16 5 17 6 15 8 12 9 13 10 77 11 14 12
REMARK SMILES IDX 76 13 11 14 6 15 7 16 8 17 9 18 10 20 5 21 1 22 2 23 3 24
REMARK SMILES IDX 78 25 4 26 22 27 23 28 24 29 25 30 26 31 27 33 28 34 29 35
REMARK SMILES IDX 75 36 30 37 74 38 31 39 32 40 33 41 68 42 34 43 73 44 67 45
REMARK SMILES IDX 69 46 35 47 72 48 66 49 65 50 36 52 58 53 43 54 57 55 44 56
REMARK SMILES IDX 47 57 56 58 70 59 45 60 46 61 55 63 71 64 48 65 37 66 38 67
REMARK SMILES IDX 42 68 39 69 41 70 40 71 59 72 60 73 64 74 61 75 63 76 62 77
REMARK SMILES IDX 49 78 50 79 54 80 51 81 53 82 52 83
REMARK H PARENT 18 7 8 19 25 32 69 51 47 62
REMARK Flexibility Score: inf
ROOT
ATOM      1  C   UNL A   1      31.864  28.877  24.943  1.00  0.00     0.002 C 
ENDROOT
BRANCH   1   2
ATOM      2  C   UNL A   1      31.737  28.699  23.423  1.00  0.00     0.021 C 
BRANCH   2   3
ATOM      3  C   UNL A   1      33.089  28.691  22.702  1.00  0.00     0.116 C 
BRANCH   3   4
ATOM      4  N   UNL A   1      33.082  27.696  21.647  1.00  0.00    -0.352 N 
ATOM      5  C   UNL A   1      33.238  26.333  21.640  1.00  0.00     0.251 C 
ATOM      6  O   UNL A   1      33.197  25.768  20.546  1.00  0.00    -0.269 OA
ATOM      7  H   UNL A   1      32.935  28.077  20.752  1.00  0.00     0.163 HD
BRANCH   5   8
ATOM      8  C   UNL A   1      33.384  25.511  22.874  1.00  0.00     0.039 A 
ATOM      9  C   UNL A   1      33.388  23.908  25.189  1.00  0.00     0.052 A 
ATOM     10  C   UNL A   1      32.811  23.429  24.015  1.00  0.00     0.028 A 
ATOM     11  C   UNL A   1      34.040  25.146  25.178  1.00  0.00     0.028 A 
ATOM     12  C   UNL A   1      32.779  24.242  22.877  1.00  0.00     0.016 A 
ATOM     13  C   UNL A   1      34.088  25.910  24.010  1.00  0.00     0.016 A 
BRANCH   9  14
ATOM     14  N   UNL A   1      33.393  23.142  26.360  1.00  0.00    -0.242 N 
ATOM     15  C   UNL A   1      34.184  22.078  26.675  1.00  0.00     0.189 A 
ATOM     16  N   UNL A   1      33.743  21.334  27.655  1.00  0.00    -0.150 NA
ATOM     17  N   UNL A   1      32.594  21.970  28.046  1.00  0.00    -0.226 N 
ATOM     18  C   UNL A   1      32.353  23.102  27.261  1.00  0.00     0.348 A 
ATOM     19  H   UNL A   1      32.014  21.670  28.783  1.00  0.00     0.195 HD
ATOM     20  O   UNL A   1      31.369  23.811  27.342  1.00  0.00    -0.246 OA
BRANCH  15  21
ATOM     21  C   UNL A   1      35.464  21.817  26.037  1.00  0.00     0.130 A 
ATOM     22  C   UNL A   1      38.936  22.263  25.942  1.00  0.00     0.173 C 
ATOM     23  N   UNL A   1      37.562  21.895  25.691  1.00  0.00    -0.275 N 
ATOM     24  C   UNL A   1      37.115  20.934  24.835  1.00  0.00     0.109 A 
ATOM     25  N   UNL A   1      36.577  22.494  26.382  1.00  0.00    -0.170 NA
ATOM     26  C   UNL A   1      35.762  20.832  25.060  1.00  0.00     0.054 A 
ENDBRANCH  15  21
ENDBRANCH   9  14
ENDBRANCH   5   8
ENDBRANCH   3   4
ENDBRANCH   2   3
ENDBRANCH   1   2
BRANCH   1  27
ATOM     27  C   UNL A   1      33.272  29.243  25.442  1.00  0.00     0.002 C 
BRANCH  27  28
ATOM     28  C   UNL A   1      33.583  28.850  26.893  1.00  0.00     0.021 C 
BRANCH  28  29
ATOM     29  C   UNL A   1      35.045  29.051  27.268  1.00  0.00     0.116 C 
BRANCH  29  30
ATOM     30  N   UNL A   1      35.184  29.988  28.377  1.00  0.00    -0.352 N 
ATOM     31  C   UNL A   1      36.177  30.071  29.322  1.00  0.00     0.251 C 
ATOM     32  H   UNL A   1      34.465  30.656  28.459  1.00  0.00     0.163 HD
ATOM     33  O   UNL A   1      35.988  30.674  30.372  1.00  0.00    -0.269 OA
BRANCH  31  34
ATOM     34  C   UNL A   1      37.472  29.415  29.073  1.00  0.00     0.039 A 
ATOM     35  C   UNL A   1      38.207  29.742  27.930  1.00  0.00     0.014 A 
ATOM     36  C   UNL A   1      37.943  28.463  29.976  1.00  0.00     0.014 A 
ATOM     37  C   UNL A   1      39.460  29.167  27.741  1.00  0.00     0.010 A 
ATOM     38  C   UNL A   1      39.220  27.962  29.836  1.00  0.00     0.010 A 
ATOM     39  C   UNL A   1      39.973  28.294  28.710  1.00  0.00    -0.014 A 
BRANCH  39  40
ATOM     40  C   UNL A   1      41.359  27.841  28.619  1.00  0.00     0.031 A 
ATOM     41  C   UNL A   1      41.575  26.586  27.845  1.00  0.00     0.074 A 
ATOM     42  C   UNL A   1      42.410  28.600  28.992  1.00  0.00     0.049 A 
ATOM     43  N   UNL A   1      42.104  25.484  28.262  1.00  0.00    -0.248 NA
ATOM     44  C   UNL A   1      41.068  26.517  26.464  1.00  0.00     0.031 C 
ATOM     45  C   UNL A   1      42.393  29.974  29.502  1.00  0.00     0.029 A 
ATOM     46  N   UNL A   1      43.741  28.344  28.853  1.00  0.00    -0.354 N 
ATOM     47  C   UNL A   1      42.155  24.630  27.163  1.00  0.00     0.074 A 
ATOM     48  C   UNL A   1      41.384  25.267  26.123  1.00  0.00     0.031 C 
ATOM     49  C   UNL A   1      43.628  30.509  29.387  1.00  0.00     0.029 A 
ATOM     50  C   UNL A   1      44.545  29.475  28.941  1.00  0.00     0.049 A 
ATOM     51  H   UNL A   1      44.102  27.440  28.704  1.00  0.00     0.167 HD
ATOM     52  C   UNL A   1      43.002  23.563  27.126  1.00  0.00     0.031 A 
ATOM     53  C   UNL A   1      45.860  29.571  28.628  1.00  0.00     0.031 A 
ATOM     54  C   UNL A   1      43.532  23.258  28.429  1.00  0.00     0.049 A 
ATOM     55  C   UNL A   1      46.424  28.202  28.645  1.00  0.00     0.074 A 
ATOM     56  C   UNL A   1      42.985  22.920  29.650  1.00  0.00     0.029 A 
ATOM     57  N   UNL A   1      44.823  23.656  28.691  1.00  0.00    -0.354 N 
ATOM     58  N   UNL A   1      46.583  27.510  29.734  1.00  0.00    -0.248 NA
ATOM     59  C   UNL A   1      46.427  27.429  27.412  1.00  0.00     0.031 C 
ATOM     60  C   UNL A   1      43.792  23.596  30.611  1.00  0.00     0.029 A 
ATOM     61  C   UNL A   1      44.819  24.246  29.927  1.00  0.00     0.049 A 
ATOM     62  H   UNL A   1      45.602  23.540  28.101  1.00  0.00     0.167 HD
ATOM     63  C   UNL A   1      46.232  26.217  29.378  1.00  0.00     0.074 A 
ATOM     64  C   UNL A   1      46.280  26.201  27.918  1.00  0.00     0.031 C 
ATOM     65  C   UNL A   1      45.652  25.373  30.283  1.00  0.00     0.031 A 
BRANCH  52  66
ATOM     66  C   UNL A   1      43.664  23.046  25.871  1.00  0.00    -0.014 A 
ATOM     67  C   UNL A   1      43.619  21.663  25.607  1.00  0.00     0.009 A 
ATOM     68  C   UNL A   1      44.575  23.802  25.111  1.00  0.00     0.009 A 
ATOM     69  C   UNL A   1      44.506  21.061  24.706  1.00  0.00     0.001 A 
ATOM     70  C   UNL A   1      45.432  23.209  24.179  1.00  0.00     0.001 A 
ATOM     71  C   UNL A   1      45.420  21.833  24.002  1.00  0.00     0.000 A 
ENDBRANCH  52  66
BRANCH  53  72
ATOM     72  C   UNL A   1      46.631  30.739  28.156  1.00  0.00    -0.014 A 
ATOM     73  C   UNL A   1      46.437  31.250  26.863  1.00  0.00     0.009 A 
ATOM     74  C   UNL A   1      47.382  31.514  29.058  1.00  0.00     0.009 A 
ATOM     75  C   UNL A   1      46.936  32.509  26.503  1.00  0.00     0.001 A 
ATOM     76  C   UNL A   1      47.889  32.766  28.697  1.00  0.00     0.001 A 
ATOM     77  C   UNL A   1      47.649  33.273  27.423  1.00  0.00     0.000 A 
ENDBRANCH  53  72
BRANCH  65  78
ATOM     78  C   UNL A   1      45.621  25.796  31.731  1.00  0.00    -0.014 A 
ATOM     79  C   UNL A   1      46.637  25.470  32.646  1.00  0.00     0.009 A 
ATOM     80  C   UNL A   1      44.618  26.685  32.144  1.00  0.00     0.009 A 
ATOM     81  C   UNL A   1      46.628  25.988  33.945  1.00  0.00     0.001 A 
ATOM     82  C   UNL A   1      44.623  27.223  33.433  1.00  0.00     0.001 A 
ATOM     83  C   UNL A   1      45.624  26.869  34.334  1.00  0.00     0.000 A 
ENDBRANCH  65  78
ENDBRANCH  39  40
ENDBRANCH  31  34
ENDBRANCH  29  30
ENDBRANCH  28  29
ENDBRANCH  27  28
ENDBRANCH   1  27
TORSDOF 15
ENDMDL
MODEL 2
REMARK VINA RESULT:     -11.8      2.644      7.705
REMARK SMILES Cn1ccc(-c2n[nH]c(=O)n2-c2ccc(C(=O)NCCCCCCNC(=O)c3ccc(-c4c5nc(c(-c6ccccc6)c6ccc([nH]6)c(-c6ccccc6)c6nc(c(-c7ccccc7)c7ccc4[nH]7)C=C6)C=C5)cc3)cc2)n1
REMARK SMILES IDX 21 1 20 2 19 3 18 4 16 5 17 6 15 8 12 9 13 10 77 11 14 12
REMARK SMILES IDX 76 13 11 14 6 15 7 16 8 17 9 18 10 20 5 21 1 22 2 23 3 24
REMARK SMILES IDX 78 25 4 26 22 27 23 28 24 29 25 30 26 31 27 33 28 34 29 35
REMARK SMILES IDX 75 36 30 37 74 38 31 39 32 40 33 41 68 42 34 43 73 44 67 45
REMARK SMILES IDX 69 46 35 47 72 48 66 49 65 50 36 52 58 53 43 54 57 55 44 56
REMARK SMILES IDX 47 57 56 58 70 59 45 60 46 61 55 63 71 64 48 65 37 66 38 67
REMARK SMILES IDX 42 68 39 69 41 70 40 71 59 72 60 73 64 74 61 75 63 76 62 77
REMARK SMILES IDX 49 78 50 79 54 80 51 81 53 82 52 83
REMARK H PARENT 18 7 8 19 25 32 69 51 47 62
REMARK Flexibility Score: inf
ROOT
ATOM      1  C   UNL A   1      40.762  20.681  26.950  1.00  0.00     0.002 C 
ENDROOT
BRANCH   1   2
ATOM      2  C   UNL A   1      39.860  20.090  25.857  1.00  0.00     0.021 C 
BRANCH   2   3
ATOM      3  C   UNL A   1      38.631  20.954  25.557  1.00  0.00     0.116 C 
BRANCH   3   4
ATOM      4  N   UNL A   1      38.807  22.278  26.122  1.00  0.00    -0.352 N 
ATOM      5  C   UNL A   1      38.088  23.442  26.029  1.00  0.00     0.251 C 
ATOM      6  O   UNL A   1      38.525  24.424  26.631  1.00  0.00    -0.269 OA
ATOM      7  H   UNL A   1      39.606  22.357  26.690  1.00  0.00     0.163 HD
BRANCH   5   8
ATOM      8  C   UNL A   1      36.791  23.557  25.304  1.00  0.00     0.039 A 
ATOM      9  C   UNL A   1      34.232  23.614  24.131  1.00  0.00     0.052 A 
ATOM     10  C   UNL A   1      34.382  23.922  25.481  1.00  0.00     0.028 A 
ATOM     11  C   UNL A   1      35.368  23.368  23.352  1.00  0.00     0.028 A 
ATOM     12  C   UNL A   1      35.651  23.858  26.069  1.00  0.00     0.016 A 
ATOM     13  C   UNL A   1      36.641  23.402  23.926  1.00  0.00     0.016 A 
BRANCH   9  14
ATOM     14  N   UNL A   1      32.972  23.619  23.522  1.00  0.00    -0.242 N 
ATOM     15  C   UNL A   1      32.162  24.682  23.256  1.00  0.00     0.189 A 
ATOM     16  N   UNL A   1      30.913  24.378  23.022  1.00  0.00    -0.150 NA
ATOM     17  N   UNL A   1      30.898  23.010  23.099  1.00  0.00    -0.226 N 
ATOM     18  C   UNL A   1      32.167  22.508  23.404  1.00  0.00     0.348 A 
ATOM     19  H   UNL A   1      30.098  22.452  22.959  1.00  0.00     0.195 HD
ATOM     20  O   UNL A   1      32.426  21.338  23.603  1.00  0.00    -0.246 OA
BRANCH  15  21
ATOM     21  C   UNL A   1      32.644  26.050  23.158  1.00  0.00     0.130 A 
ATOM     22  C   UNL A   1      33.024  29.227  24.579  1.00  0.00     0.173 C 
ATOM     23  N   UNL A   1      33.026  28.066  23.720  1.00  0.00    -0.275 N 
ATOM     24  C   UNL A   1      33.751  27.891  22.580  1.00  0.00     0.109 A 
ATOM     25  N   UNL A   1      32.293  26.990  24.056  1.00  0.00    -0.170 NA
ATOM     26  C   UNL A   1      33.555  26.582  22.209  1.00  0.00     0.054 A 
ENDBRANCH  15  21
ENDBRANCH   9  14
ENDBRANCH   5   8
ENDBRANCH   3   4
ENDBRANCH   2   3
ENDBRANCH   1   2
BRANCH   1  27
ATOM     27  C   UNL A   1      42.072  19.916  27.198  1.00  0.00     0.002 C 
BRANCH  27  28
ATOM     28  C   UNL A   1      42.402  18.817  26.177  1.00  0.00     0.021 C 
BRANCH  28  29
ATOM     29  C   UNL A   1      43.887  18.493  26.104  1.00  0.00     0.116 C 
BRANCH  29  30
ATOM     30  N   UNL A   1      44.391  18.619  24.741  1.00  0.00    -0.352 N 
ATOM     31  C   UNL A   1      44.566  19.752  23.984  1.00  0.00     0.251 C 
ATOM     32  H   UNL A   1      44.641  17.774  24.302  1.00  0.00     0.163 HD
ATOM     33  O   UNL A   1      44.668  19.676  22.765  1.00  0.00    -0.269 OA
BRANCH  31  34
ATOM     34  C   UNL A   1      44.615  21.066  24.646  1.00  0.00     0.039 A 
ATOM     35  C   UNL A   1      43.575  21.980  24.453  1.00  0.00     0.014 A 
ATOM     36  C   UNL A   1      45.709  21.390  25.448  1.00  0.00     0.014 A 
ATOM     37  C   UNL A   1      43.599  23.191  25.136  1.00  0.00     0.010 A 
ATOM     38  C   UNL A   1      45.690  22.549  26.194  1.00  0.00     0.010 A 
ATOM     39  C   UNL A   1      44.649  23.462  26.025  1.00  0.00    -0.014 A 
BRANCH  39  40
ATOM     40  C   UNL A   1      44.582  24.637  26.891  1.00  0.00     0.031 A 
ATOM     41  C   UNL A   1      45.648  25.656  26.672  1.00  0.00     0.074 A 
ATOM     42  C   UNL A   1      43.520  24.920  27.673  1.00  0.00     0.049 A 
ATOM     43  N   UNL A   1      46.512  26.089  27.530  1.00  0.00    -0.248 NA
ATOM     44  C   UNL A   1      45.831  26.201  25.317  1.00  0.00     0.031 C 
ATOM     45  C   UNL A   1      42.263  24.177  27.787  1.00  0.00     0.029 A 
ATOM     46  N   UNL A   1      43.287  26.029  28.430  1.00  0.00    -0.354 N 
ATOM     47  C   UNL A   1      47.246  27.081  26.883  1.00  0.00     0.074 A 
ATOM     48  C   UNL A   1      46.876  27.012  25.491  1.00  0.00     0.031 C 
ATOM     49  C   UNL A   1      41.325  24.969  28.350  1.00  0.00     0.029 A 
ATOM     50  C   UNL A   1      41.952  26.210  28.769  1.00  0.00     0.049 A 
ATOM     51  H   UNL A   1      44.000  26.648  28.711  1.00  0.00     0.167 HD
ATOM     52  C   UNL A   1      47.946  28.021  27.580  1.00  0.00     0.031 A 
ATOM     53  C   UNL A   1      41.388  27.315  29.315  1.00  0.00     0.031 A 
ATOM     54  C   UNL A   1      48.100  27.653  28.963  1.00  0.00     0.049 A 
ATOM     55  C   UNL A   1      42.472  28.108  29.938  1.00  0.00     0.074 A 
ATOM     56  C   UNL A   1      48.661  26.583  29.631  1.00  0.00     0.029 A 
ATOM     57  N   UNL A   1      47.287  28.283  29.876  1.00  0.00    -0.354 N 
ATOM     58  N   UNL A   1      43.110  27.727  31.005  1.00  0.00    -0.248 NA
ATOM     59  C   UNL A   1      43.140  29.127  29.143  1.00  0.00     0.031 C 
ATOM     60  C   UNL A   1      47.787  26.340  30.730  1.00  0.00     0.029 A 
ATOM     61  C   UNL A   1      46.789  27.316  30.707  1.00  0.00     0.049 A 
ATOM     62  H   UNL A   1      47.098  29.247  29.922  1.00  0.00     0.167 HD
ATOM     63  C   UNL A   1      44.427  28.088  30.768  1.00  0.00     0.074 A 
ATOM     64  C   UNL A   1      44.363  29.061  29.680  1.00  0.00     0.031 C 
ATOM     65  C   UNL A   1      45.459  27.346  31.271  1.00  0.00     0.031 A 
BRANCH  52  66
ATOM     66  C   UNL A   1      48.143  29.446  27.122  1.00  0.00    -0.014 A 
ATOM     67  C   UNL A   1      49.443  29.990  27.158  1.00  0.00     0.009 A 
ATOM     68  C   UNL A   1      47.085  30.356  26.952  1.00  0.00     0.009 A 
ATOM     69  C   UNL A   1      49.658  31.373  27.126  1.00  0.00     0.001 A 
ATOM     70  C   UNL A   1      47.301  31.736  26.876  1.00  0.00     0.001 A 
ATOM     71  C   UNL A   1      48.585  32.246  26.997  1.00  0.00     0.000 A 
ENDBRANCH  52  66
BRANCH  53  72
ATOM     72  C   UNL A   1      40.004  27.819  29.197  1.00  0.00    -0.014 A 
ATOM     73  C   UNL A   1      39.155  27.851  30.315  1.00  0.00     0.009 A 
ATOM     74  C   UNL A   1      39.588  28.506  28.042  1.00  0.00     0.009 A 
ATOM     75  C   UNL A   1      37.959  28.581  30.292  1.00  0.00     0.001 A 
ATOM     76  C   UNL A   1      38.390  29.227  28.015  1.00  0.00     0.001 A 
ATOM     77  C   UNL A   1      37.584  29.279  29.147  1.00  0.00     0.000 A 
ENDBRANCH  53  72
BRANCH  65  78
ATOM     78  C   UNL A   1      45.136  26.272  32.281  1.00  0.00    -0.014 A 
ATOM     79  C   UNL A   1      45.032  26.523  33.660  1.00  0.00     0.009 A 
ATOM     80  C   UNL A   1      44.766  25.004  31.810  1.00  0.00     0.009 A 
ATOM     81  C   UNL A   1      44.608  25.526  34.543  1.00  0.00     0.001 A 
ATOM     82  C   UNL A   1      44.318  24.015  32.689  1.00  0.00     0.001 A 
ATOM     83  C   UNL A   1      44.246  24.274  34.055  1.00  0.00     0.000 A 
ENDBRANCH  65  78
ENDBRANCH  39  40
ENDBRANCH  31  34
ENDBRANCH  29  30
ENDBRANCH  28  29
ENDBRANCH  27  28
ENDBRANCH   1  27
TORSDOF 15
ENDMDL
MODEL 3
REMARK VINA RESULT:     -11.5      2.479      7.454
REMARK SMILES Cn1ccc(-c2n[nH]c(=O)n2-c2ccc(C(=O)NCCCCCCNC(=O)c3ccc(-c4c5nc(c(-c6ccccc6)c6ccc([nH]6)c(-c6ccccc6)c6nc(c(-c7ccccc7)c7ccc4[nH]7)C=C6)C=C5)cc3)cc2)n1
REMARK SMILES IDX 21 1 20 2 19 3 18 4 16 5 17 6 15 8 12 9 13 10 77 11 14 12
REMARK SMILES IDX 76 13 11 14 6 15 7 16 8 17 9 18 10 20 5 21 1 22 2 23 3 24
REMARK SMILES IDX 78 25 4 26 22 27 23 28 24 29 25 30 26 31 27 33 28 34 29 35
REMARK SMILES IDX 75 36 30 37 74 38 31 39 32 40 33 41 68 42 34 43 73 44 67 45
REMARK SMILES IDX 69 46 35 47 72 48 66 49 65 50 36 52 58 53 43 54 57 55 44 56
REMARK SMILES IDX 47 57 56 58 70 59 45 60 46 61 55 63 71 64 48 65 37 66 38 67
REMARK SMILES IDX 42 68 39 69 41 70 40 71 59 72 60 73 64 74 61 75 63 76 62 77
REMARK SMILES IDX 49 78 50 79 54 80 51 81 53 82 52 83
REMARK H PARENT 18 7 8 19 25 32 69 51 47 62
REMARK Flexibility Score: inf
ROOT
ATOM      1  C   UNL A   1      39.657  21.880  26.488  1.00  0.00     0.002 C 
ENDROOT
BRANCH   1   2
ATOM      2  C   UNL A   1      38.617  20.943  25.857  1.00  0.00     0.021 C 
BRANCH   2   3
ATOM      3  C   UNL A   1      37.296  21.644  25.527  1.00  0.00     0.116 C 
BRANCH   3   4
ATOM      4  N   UNL A   1      37.393  22.303  24.238  1.00  0.00    -0.352 N 
ATOM      5  C   UNL A   1      36.500  23.013  23.477  1.00  0.00     0.251 C 
ATOM      6  O   UNL A   1      36.899  23.438  22.392  1.00  0.00    -0.269 OA
ATOM      7  H   UNL A   1      38.283  22.225  23.826  1.00  0.00     0.163 HD
BRANCH   5   8
ATOM      8  C   UNL A   1      35.117  23.348  23.921  1.00  0.00     0.039 A 
ATOM      9  C   UNL A   1      32.575  23.879  25.008  1.00  0.00     0.052 A 
ATOM     10  C   UNL A   1      33.718  24.317  25.673  1.00  0.00     0.028 A 
ATOM     11  C   UNL A   1      32.702  23.260  23.760  1.00  0.00     0.028 A 
ATOM     12  C   UNL A   1      34.981  24.020  25.148  1.00  0.00     0.016 A 
ATOM     13  C   UNL A   1      33.963  23.054  23.196  1.00  0.00     0.016 A 
BRANCH   9  14
ATOM     14  N   UNL A   1      31.298  24.115  25.529  1.00  0.00    -0.242 N 
ATOM     15  C   UNL A   1      30.712  25.307  25.834  1.00  0.00     0.189 A 
ATOM     16  N   UNL A   1      29.680  25.226  26.631  1.00  0.00    -0.150 NA
ATOM     17  N   UNL A   1      29.545  23.879  26.842  1.00  0.00    -0.226 N 
ATOM     18  C   UNL A   1      30.535  23.161  26.165  1.00  0.00     0.348 A 
ATOM     19  H   UNL A   1      28.842  23.469  27.398  1.00  0.00     0.195 HD
ATOM     20  O   UNL A   1      30.696  21.958  26.233  1.00  0.00    -0.246 OA
BRANCH  15  21
ATOM     21  C   UNL A   1      31.137  26.575  25.264  1.00  0.00     0.130 A 
ATOM     22  C   UNL A   1      32.827  29.623  25.604  1.00  0.00     0.173 C 
ATOM     23  N   UNL A   1      32.057  28.490  25.146  1.00  0.00    -0.275 N 
ATOM     24  C   UNL A   1      31.693  28.211  23.863  1.00  0.00     0.109 A 
ATOM     25  N   UNL A   1      31.673  27.548  26.025  1.00  0.00    -0.170 NA
ATOM     26  C   UNL A   1      31.126  26.959  23.898  1.00  0.00     0.054 A 
ENDBRANCH  15  21
ENDBRANCH   9  14
ENDBRANCH   5   8
ENDBRANCH   3   4
ENDBRANCH   2   3
ENDBRANCH   1   2
BRANCH   1  27
ATOM     27  C   UNL A   1      40.873  21.179  27.114  1.00  0.00     0.002 C 
BRANCH  27  28
ATOM     28  C   UNL A   1      41.386  19.944  26.359  1.00  0.00     0.021 C 
BRANCH  28  29
ATOM     29  C   UNL A   1      42.792  19.530  26.772  1.00  0.00     0.116 C 
BRANCH  29  30
ATOM     30  N   UNL A   1      43.691  19.489  25.624  1.00  0.00    -0.352 N 
ATOM     31  C   UNL A   1      44.183  20.527  24.872  1.00  0.00     0.251 C 
ATOM     32  H   UNL A   1      43.987  18.591  25.351  1.00  0.00     0.163 HD
ATOM     33  O   UNL A   1      44.640  20.323  23.754  1.00  0.00    -0.269 OA
BRANCH  31  34
ATOM     34  C   UNL A   1      44.144  21.897  25.412  1.00  0.00     0.039 A 
ATOM     35  C   UNL A   1      43.173  22.794  24.959  1.00  0.00     0.014 A 
ATOM     36  C   UNL A   1      45.089  22.287  26.361  1.00  0.00     0.014 A 
ATOM     37  C   UNL A   1      43.104  24.063  25.525  1.00  0.00     0.010 A 
ATOM     38  C   UNL A   1      44.964  23.509  26.986  1.00  0.00     0.010 A 
ATOM     39  C   UNL A   1      43.988  24.408  26.557  1.00  0.00    -0.014 A 
BRANCH  39  40
ATOM     40  C   UNL A   1      43.797  25.658  27.289  1.00  0.00     0.031 A 
ATOM     41  C   UNL A   1      44.753  26.751  26.952  1.00  0.00     0.074 A 
ATOM     42  C   UNL A   1      42.708  25.915  28.042  1.00  0.00     0.049 A 
ATOM     43  N   UNL A   1      45.564  27.362  27.751  1.00  0.00    -0.248 NA
ATOM     44  C   UNL A   1      44.885  27.160  25.544  1.00  0.00     0.031 C 
ATOM     45  C   UNL A   1      41.534  25.062  28.246  1.00  0.00     0.029 A 
ATOM     46  N   UNL A   1      42.359  27.070  28.675  1.00  0.00    -0.354 N 
ATOM     47  C   UNL A   1      46.195  28.348  26.995  1.00  0.00     0.074 A 
ATOM     48  C   UNL A   1      45.840  28.089  25.622  1.00  0.00     0.031 C 
ATOM     49  C   UNL A   1      40.516  25.810  28.725  1.00  0.00     0.029 A 
ATOM     50  C   UNL A   1      41.010  27.148  29.002  1.00  0.00     0.049 A 
ATOM     51  H   UNL A   1      43.003  27.785  28.882  1.00  0.00     0.167 HD
ATOM     52  C   UNL A   1      46.791  29.425  27.579  1.00  0.00     0.031 A 
ATOM     53  C   UNL A   1      40.333  28.242  29.427  1.00  0.00     0.031 A 
ATOM     54  C   UNL A   1      46.976  29.229  28.994  1.00  0.00     0.049 A 
ATOM     55  C   UNL A   1      41.326  29.206  29.952  1.00  0.00     0.074 A 
ATOM     56  C   UNL A   1      47.642  28.302  29.771  1.00  0.00     0.029 A 
ATOM     57  N   UNL A   1      46.099  29.868  29.838  1.00  0.00    -0.354 N 
ATOM     58  N   UNL A   1      41.996  29.013  31.050  1.00  0.00    -0.248 NA
ATOM     59  C   UNL A   1      41.890  30.195  29.046  1.00  0.00     0.031 C 
ATOM     60  C   UNL A   1      46.792  28.093  30.895  1.00  0.00     0.029 A 
ATOM     61  C   UNL A   1      45.699  28.952  30.773  1.00  0.00     0.049 A 
ATOM     62  H   UNL A   1      45.811  30.807  29.779  1.00  0.00     0.167 HD
ATOM     63  C   UNL A   1      43.270  29.479  30.766  1.00  0.00     0.074 A 
ATOM     64  C   UNL A   1      43.110  30.315  29.578  1.00  0.00     0.031 C 
ATOM     65  C   UNL A   1      44.370  28.906  31.340  1.00  0.00     0.031 A 
BRANCH  52  66
ATOM     66  C   UNL A   1      46.842  30.805  26.967  1.00  0.00    -0.014 A 
ATOM     67  C   UNL A   1      48.061  31.512  27.004  1.00  0.00     0.009 A 
ATOM     68  C   UNL A   1      45.694  31.547  26.638  1.00  0.00     0.009 A 
ATOM     69  C   UNL A   1      48.107  32.899  26.820  1.00  0.00     0.001 A 
ATOM     70  C   UNL A   1      45.744  32.925  26.410  1.00  0.00     0.001 A 
ATOM     71  C   UNL A   1      46.946  33.606  26.535  1.00  0.00     0.000 A 
ENDBRANCH  52  66
BRANCH  53  72
ATOM     72  C   UNL A   1      38.906  28.585  29.265  1.00  0.00    -0.014 A 
ATOM     73  C   UNL A   1      38.064  28.703  30.383  1.00  0.00     0.009 A 
ATOM     74  C   UNL A   1      38.415  29.046  28.029  1.00  0.00     0.009 A 
ATOM     75  C   UNL A   1      36.801  29.301  30.276  1.00  0.00     0.001 A 
ATOM     76  C   UNL A   1      37.151  29.633  27.919  1.00  0.00     0.001 A 
ATOM     77  C   UNL A   1      36.351  29.778  29.048  1.00  0.00     0.000 A 
ENDBRANCH  53  72
BRANCH  65  78
ATOM     78  C   UNL A   1      44.155  27.922  32.463  1.00  0.00    -0.014 A 
ATOM     79  C   UNL A   1      44.076  26.534  32.261  1.00  0.00     0.009 A 
ATOM     80  C   UNL A   1      44.196  28.398  33.782  1.00  0.00     0.009 A 
ATOM     81  C   UNL A   1      44.002  25.652  33.343  1.00  0.00     0.001 A 
ATOM     82  C   UNL A   1      44.147  27.516  34.864  1.00  0.00     0.001 A 
ATOM     83  C   UNL A   1      44.044  26.145  34.644  1.00  0.00     0.000 A 
ENDBRANCH  65  78
ENDBRANCH  39  40
ENDBRANCH  31  34
ENDBRANCH  29  30
ENDBRANCH  28  29
ENDBRANCH  27  28
ENDBRANCH   1  27
TORSDOF 15
ENDMDL
