MODEL 1
REMARK VINA RESULT:     -12.4      0.000      0.000
REMARK SMILES Cc1ccc(NC(=O)CN2C(=O)S/C(=C\c3cc(Cl)c(OCC(=O)NCCCCCCNC(=O)c4ccc(-c5c6nc(c(-c7ccccc7)c7ccc([nH]7)c(-c7ccccc7)c7nc(c(-c8ccccc8)c8ccc5[nH]8)C=C7)C=C6)cc4)c(Cl)c3)C2=O)cc1
REMARK SMILES IDX 26 1 25 2 23 3 24 4 22 6 21 7 20 8 16 9 17 10 85 11 18 12
REMARK SMILES IDX 83 13 19 14 84 15 15 16 10 17 11 18 86 19 12 20 13 21 14 22
REMARK SMILES IDX 87 23 9 24 7 25 6 26 8 28 5 29 1 30 2 31 3 32 89 33 4 34
REMARK SMILES IDX 88 35 27 36 28 37 29 38 30 39 31 40 32 41 33 42 34 44 35 45
REMARK SMILES IDX 36 46 82 47 37 48 81 49 38 50 39 51 40 52 75 53 41 54 80 55
REMARK SMILES IDX 74 56 76 57 42 58 79 59 73 60 72 61 43 63 65 64 50 65 64 66
REMARK SMILES IDX 51 67 54 68 63 69 77 70 52 71 53 72 62 74 78 75 55 76 44 77
REMARK SMILES IDX 45 78 49 79 46 80 48 81 47 82 66 83 67 84 71 85 68 86 70 87
REMARK SMILES IDX 69 88 56 89 57 90 61 91 58 92 60 93 59 94
REMARK H PARENT 25 5 6 27 32 43 76 62 54 73
REMARK Flexibility Score: inf
ROOT
ATOM      1  C   UNL A   1      43.228  19.685  25.670  1.00  0.00     0.116 C 
ENDROOT
BRANCH   1   2
ATOM      2  N   UNL A   1      43.063  20.475  26.867  1.00  0.00    -0.353 N 
ATOM      3  C   UNL A   1      42.048  21.325  27.194  1.00  0.00     0.257 C 
ATOM      4  O   UNL A   1      41.984  21.711  28.361  1.00  0.00    -0.271 OA
ATOM      5  H   UNL A   1      43.779  20.390  27.537  1.00  0.00     0.163 HD
BRANCH   3   6
ATOM      6  C   UNL A   1      41.000  21.709  26.136  1.00  0.00     0.329 C 
BRANCH   6   7
ATOM      7  O   UNL A   1      39.660  21.299  26.345  1.00  0.00    -0.481 OA
BRANCH   7   8
ATOM      8  C   UNL A   1      38.577  21.999  25.890  1.00  0.00     0.157 A 
ATOM      9  C   UNL A   1      36.220  23.134  24.721  1.00  0.00    -0.021 A 
ATOM     10  C   UNL A   1      36.557  21.813  24.459  1.00  0.00     0.032 A 
ATOM     11  C   UNL A   1      37.091  23.879  25.526  1.00  0.00     0.032 A 
ATOM     12  C   UNL A   1      37.725  21.262  25.027  1.00  0.00     0.085 A 
ATOM     13  C   UNL A   1      38.206  23.316  26.161  1.00  0.00     0.085 A 
ATOM     14  Cl  UNL A   1      38.082  19.609  24.627  1.00  0.00    -0.080 Cl
ATOM     15  Cl  UNL A   1      38.928  24.375  27.317  1.00  0.00    -0.080 Cl
BRANCH   9  16
ATOM     16  C   UNL A   1      35.043  23.804  24.129  1.00  0.00     0.029 C 
ATOM     17  N   UNL A   1      31.875  24.724  25.456  1.00  0.00    -0.259 N 
ATOM     18  C   UNL A   1      32.145  23.803  26.430  1.00  0.00     0.294 C 
ATOM     19  C   UNL A   1      32.750  24.736  24.383  1.00  0.00     0.268 C 
ATOM     20  O   UNL A   1      31.786  23.819  27.602  1.00  0.00    -0.261 OA
ATOM     21  S   UNL A   1      33.223  22.584  25.804  1.00  0.00    -0.022 SA
ATOM     22  C   UNL A   1      33.787  23.677  24.595  1.00  0.00     0.083 C 
ATOM     23  O   UNL A   1      32.793  25.567  23.494  1.00  0.00    -0.268 OA
BRANCH  17  24
ATOM     24  C   UNL A   1      31.057  25.888  25.770  1.00  0.00     0.230 C 
BRANCH  24  25
ATOM     25  C   UNL A   1      29.555  25.600  25.737  1.00  0.00     0.244 C 
ATOM     26  N   UNL A   1      28.781  25.996  24.685  1.00  0.00    -0.325 N 
ATOM     27  H   UNL A   1      28.009  25.412  24.505  1.00  0.00     0.169 HD
ATOM     28  O   UNL A   1      29.020  24.977  26.660  1.00  0.00    -0.273 OA
BRANCH  26  29
ATOM     29  C   UNL A   1      28.896  27.090  23.816  1.00  0.00     0.041 A 
ATOM     30  C   UNL A   1      29.088  30.705  21.469  1.00  0.00     0.044 C 
ATOM     31  C   UNL A   1      29.005  29.445  22.276  1.00  0.00    -0.051 A 
ATOM     32  C   UNL A   1      30.173  28.753  22.606  1.00  0.00     0.005 A 
ATOM     33  C   UNL A   1      27.777  28.949  22.723  1.00  0.00     0.005 A 
ATOM     34  C   UNL A   1      30.120  27.584  23.372  1.00  0.00     0.026 A 
ATOM     35  C   UNL A   1      27.726  27.788  23.501  1.00  0.00     0.026 A 
ENDBRANCH  26  29
ENDBRANCH  24  25
ENDBRANCH  17  24
ENDBRANCH   9  16
ENDBRANCH   7   8
ENDBRANCH   6   7
ENDBRANCH   3   6
ENDBRANCH   1   2
BRANCH   1  36
ATOM     36  C   UNL A   1      44.398  20.150  24.807  1.00  0.00     0.021 C 
BRANCH  36  37
ATOM     37  C   UNL A   1      45.443  21.043  25.494  1.00  0.00     0.002 C 
BRANCH  37  38
ATOM     38  C   UNL A   1      45.879  22.322  24.764  1.00  0.00     0.002 C 
BRANCH  38  39
ATOM     39  C   UNL A   1      44.792  23.358  24.491  1.00  0.00     0.021 C 
BRANCH  39  40
ATOM     40  C   UNL A   1      44.174  23.985  25.732  1.00  0.00     0.116 C 
BRANCH  40  41
ATOM     41  N   UNL A   1      42.939  24.723  25.480  1.00  0.00    -0.352 N 
ATOM     42  C   UNL A   1      42.185  25.501  26.345  1.00  0.00     0.251 C 
ATOM     43  H   UNL A   1      42.591  24.659  24.561  1.00  0.00     0.163 HD
ATOM     44  O   UNL A   1      41.168  26.060  25.952  1.00  0.00    -0.269 OA
BRANCH  42  45
ATOM     45  C   UNL A   1      42.713  25.791  27.699  1.00  0.00     0.039 A 
ATOM     46  C   UNL A   1      43.080  27.116  27.958  1.00  0.00     0.014 A 
ATOM     47  C   UNL A   1      43.167  24.760  28.513  1.00  0.00     0.014 A 
ATOM     48  C   UNL A   1      44.162  27.360  28.791  1.00  0.00     0.010 A 
ATOM     49  C   UNL A   1      44.312  24.979  29.243  1.00  0.00     0.010 A 
ATOM     50  C   UNL A   1      44.856  26.266  29.296  1.00  0.00    -0.014 A 
BRANCH  50  51
ATOM     51  C   UNL A   1      46.218  26.349  29.792  1.00  0.00     0.031 A 
ATOM     52  C   UNL A   1      47.322  25.908  28.931  1.00  0.00     0.074 A 
ATOM     53  C   UNL A   1      46.444  26.896  31.006  1.00  0.00     0.049 A 
ATOM     54  N   UNL A   1      48.488  25.583  29.368  1.00  0.00    -0.248 NA
ATOM     55  C   UNL A   1      47.167  25.710  27.492  1.00  0.00     0.031 C 
ATOM     56  C   UNL A   1      47.715  27.331  31.580  1.00  0.00     0.029 A 
ATOM     57  N   UNL A   1      45.550  26.967  32.071  1.00  0.00    -0.354 N 
ATOM     58  C   UNL A   1      49.306  25.447  28.273  1.00  0.00     0.074 A 
ATOM     59  C   UNL A   1      48.415  25.390  27.141  1.00  0.00     0.031 C 
ATOM     60  C   UNL A   1      47.591  27.394  32.917  1.00  0.00     0.029 A 
ATOM     61  C   UNL A   1      46.289  26.845  33.259  1.00  0.00     0.049 A 
ATOM     62  H   UNL A   1      44.574  27.081  32.004  1.00  0.00     0.167 HD
ATOM     63  C   UNL A   1      50.650  25.563  28.449  1.00  0.00     0.031 A 
ATOM     64  C   UNL A   1      46.097  25.771  34.082  1.00  0.00     0.031 A 
ATOM     65  C   UNL A   1      50.994  25.562  29.871  1.00  0.00     0.049 A 
ATOM     66  C   UNL A   1      47.316  24.876  34.191  1.00  0.00     0.074 A 
ATOM     67  C   UNL A   1      51.342  26.564  30.760  1.00  0.00     0.029 A 
ATOM     68  N   UNL A   1      50.677  24.445  30.638  1.00  0.00    -0.354 N 
ATOM     69  N   UNL A   1      48.301  24.876  33.334  1.00  0.00    -0.248 NA
ATOM     70  C   UNL A   1      47.515  23.904  35.262  1.00  0.00     0.031 C 
ATOM     71  C   UNL A   1      51.124  26.070  32.076  1.00  0.00     0.029 A 
ATOM     72  C   UNL A   1      50.699  24.755  31.984  1.00  0.00     0.049 A 
ATOM     73  H   UNL A   1      50.467  23.555  30.271  1.00  0.00     0.167 HD
ATOM     74  C   UNL A   1      49.241  23.951  33.707  1.00  0.00     0.074 A 
ATOM     75  C   UNL A   1      48.705  23.374  34.927  1.00  0.00     0.031 C 
ATOM     76  C   UNL A   1      50.376  23.736  32.977  1.00  0.00     0.031 A 
BRANCH  63  77
ATOM     77  C   UNL A   1      51.624  25.939  27.354  1.00  0.00    -0.014 A 
ATOM     78  C   UNL A   1      52.256  27.195  27.401  1.00  0.00     0.009 A 
ATOM     79  C   UNL A   1      51.879  25.175  26.201  1.00  0.00     0.009 A 
ATOM     80  C   UNL A   1      53.057  27.667  26.350  1.00  0.00     0.001 A 
ATOM     81  C   UNL A   1      52.688  25.631  25.151  1.00  0.00     0.001 A 
ATOM     82  C   UNL A   1      53.270  26.885  25.222  1.00  0.00     0.000 A 
ENDBRANCH  63  77
BRANCH  64  83
ATOM     83  C   UNL A   1      44.680  25.298  34.100  1.00  0.00    -0.014 A 
ATOM     84  C   UNL A   1      44.419  23.986  33.649  1.00  0.00     0.009 A 
ATOM     85  C   UNL A   1      43.718  25.931  34.899  1.00  0.00     0.009 A 
ATOM     86  C   UNL A   1      43.304  23.277  34.109  1.00  0.00     0.001 A 
ATOM     87  C   UNL A   1      42.590  25.223  35.338  1.00  0.00     0.001 A 
ATOM     88  C   UNL A   1      42.409  23.886  34.982  1.00  0.00     0.000 A 
ENDBRANCH  64  83
BRANCH  76  89
ATOM     89  C   UNL A   1      51.338  22.581  33.148  1.00  0.00    -0.014 A 
ATOM     90  C   UNL A   1      50.959  21.264  33.431  1.00  0.00     0.009 A 
ATOM     91  C   UNL A   1      52.711  22.794  32.875  1.00  0.00     0.009 A 
ATOM     92  C   UNL A   1      51.901  20.226  33.485  1.00  0.00     0.001 A 
ATOM     93  C   UNL A   1      53.644  21.755  32.873  1.00  0.00     0.001 A 
ATOM     94  C   UNL A   1      53.239  20.468  33.193  1.00  0.00     0.000 A 
ENDBRANCH  76  89
ENDBRANCH  50  51
ENDBRANCH  42  45
ENDBRANCH  40  41
ENDBRANCH  39  40
ENDBRANCH  38  39
ENDBRANCH  37  38
ENDBRANCH  36  37
ENDBRANCH   1  36
TORSDOF 19
ENDMDL
MODEL 2
REMARK VINA RESULT:     -11.9      4.156      8.363
REMARK SMILES Cc1ccc(NC(=O)CN2C(=O)S/C(=C\c3cc(Cl)c(OCC(=O)NCCCCCCNC(=O)c4ccc(-c5c6nc(c(-c7ccccc7)c7ccc([nH]7)c(-c7ccccc7)c7nc(c(-c8ccccc8)c8ccc5[nH]8)C=C7)C=C6)cc4)c(Cl)c3)C2=O)cc1
REMARK SMILES IDX 26 1 25 2 23 3 24 4 22 6 21 7 20 8 16 9 17 10 85 11 18 12
REMARK SMILES IDX 83 13 19 14 84 15 15 16 10 17 11 18 86 19 12 20 13 21 14 22
REMARK SMILES IDX 87 23 9 24 7 25 6 26 8 28 5 29 1 30 2 31 3 32 89 33 4 34
REMARK SMILES IDX 88 35 27 36 28 37 29 38 30 39 31 40 32 41 33 42 34 44 35 45
REMARK SMILES IDX 36 46 82 47 37 48 81 49 38 50 39 51 40 52 75 53 41 54 80 55
REMARK SMILES IDX 74 56 76 57 42 58 79 59 73 60 72 61 43 63 65 64 50 65 64 66
REMARK SMILES IDX 51 67 54 68 63 69 77 70 52 71 53 72 62 74 78 75 55 76 44 77
REMARK SMILES IDX 45 78 49 79 46 80 48 81 47 82 66 83 67 84 71 85 68 86 70 87
REMARK SMILES IDX 69 88 56 89 57 90 61 91 58 92 60 93 59 94
REMARK H PARENT 25 5 6 27 32 43 76 62 54 73
REMARK Flexibility Score: inf
ROOT
ATOM      1  C   UNL A   1      42.401  18.729  26.635  1.00  0.00     0.116 C 
ENDROOT
BRANCH   1   2
ATOM      2  N   UNL A   1      42.648  19.911  27.427  1.00  0.00    -0.353 N 
ATOM      3  C   UNL A   1      42.019  21.120  27.373  1.00  0.00     0.257 C 
ATOM      4  O   UNL A   1      42.223  21.908  28.297  1.00  0.00    -0.271 OA
ATOM      5  H   UNL A   1      43.367  19.835  28.094  1.00  0.00     0.163 HD
BRANCH   3   6
ATOM      6  C   UNL A   1      41.044  21.425  26.225  1.00  0.00     0.329 C 
BRANCH   6   7
ATOM      7  O   UNL A   1      39.683  21.069  26.393  1.00  0.00    -0.481 OA
BRANCH   7   8
ATOM      8  C   UNL A   1      38.642  21.828  25.934  1.00  0.00     0.157 A 
ATOM      9  C   UNL A   1      36.350  23.090  24.764  1.00  0.00    -0.021 A 
ATOM     10  C   UNL A   1      36.599  21.744  24.527  1.00  0.00     0.032 A 
ATOM     11  C   UNL A   1      37.275  23.792  25.546  1.00  0.00     0.032 A 
ATOM     12  C   UNL A   1      37.734  21.131  25.095  1.00  0.00     0.085 A 
ATOM     13  C   UNL A   1      38.359  23.172  26.181  1.00  0.00     0.085 A 
ATOM     14  Cl  UNL A   1      37.981  19.450  24.726  1.00  0.00    -0.080 Cl
ATOM     15  Cl  UNL A   1      39.159  24.205  27.308  1.00  0.00    -0.080 Cl
BRANCH   9  16
ATOM     16  C   UNL A   1      35.212  23.822  24.170  1.00  0.00     0.029 C 
ATOM     17  N   UNL A   1      32.017  24.743  25.431  1.00  0.00    -0.259 N 
ATOM     18  C   UNL A   1      32.229  23.761  26.358  1.00  0.00     0.294 C 
ATOM     19  C   UNL A   1      32.933  24.795  24.394  1.00  0.00     0.268 C 
ATOM     20  O   UNL A   1      31.826  23.718  27.516  1.00  0.00    -0.261 OA
ATOM     21  S   UNL A   1      33.302  22.553  25.702  1.00  0.00    -0.022 SA
ATOM     22  C   UNL A   1      33.936  23.699  24.581  1.00  0.00     0.083 C 
ATOM     23  O   UNL A   1      33.029  25.675  23.556  1.00  0.00    -0.268 OA
BRANCH  17  24
ATOM     24  C   UNL A   1      31.216  25.906  25.782  1.00  0.00     0.230 C 
BRANCH  24  25
ATOM     25  C   UNL A   1      29.711  25.627  25.784  1.00  0.00     0.244 C 
ATOM     26  N   UNL A   1      28.920  26.003  24.737  1.00  0.00    -0.325 N 
ATOM     27  H   UNL A   1      28.141  25.420  24.586  1.00  0.00     0.169 HD
ATOM     28  O   UNL A   1      29.190  25.031  26.732  1.00  0.00    -0.273 OA
BRANCH  26  29
ATOM     29  C   UNL A   1      29.025  27.075  23.841  1.00  0.00     0.041 A 
ATOM     30  C   UNL A   1      29.199  30.632  21.404  1.00  0.00     0.044 C 
ATOM     31  C   UNL A   1      29.122  29.392  22.243  1.00  0.00    -0.051 A 
ATOM     32  C   UNL A   1      30.290  28.693  22.558  1.00  0.00     0.005 A 
ATOM     33  C   UNL A   1      27.900  28.922  22.734  1.00  0.00     0.005 A 
ATOM     34  C   UNL A   1      30.243  27.543  23.352  1.00  0.00     0.026 A 
ATOM     35  C   UNL A   1      27.856  27.781  23.539  1.00  0.00     0.026 A 
ENDBRANCH  26  29
ENDBRANCH  24  25
ENDBRANCH  17  24
ENDBRANCH   9  16
ENDBRANCH   7   8
ENDBRANCH   6   7
ENDBRANCH   3   6
ENDBRANCH   1   2
BRANCH   1  36
ATOM     36  C   UNL A   1      43.322  18.622  25.424  1.00  0.00     0.021 C 
BRANCH  36  37
ATOM     37  C   UNL A   1      44.832  18.602  25.710  1.00  0.00     0.002 C 
BRANCH  37  38
ATOM     38  C   UNL A   1      45.725  19.558  24.906  1.00  0.00     0.002 C 
BRANCH  38  39
ATOM     39  C   UNL A   1      45.017  20.506  23.941  1.00  0.00     0.021 C 
BRANCH  39  40
ATOM     40  C   UNL A   1      44.873  21.937  24.436  1.00  0.00     0.116 C 
BRANCH  40  41
ATOM     41  N   UNL A   1      46.091  22.496  25.019  1.00  0.00    -0.352 N 
ATOM     42  C   UNL A   1      46.253  23.624  25.807  1.00  0.00     0.251 C 
ATOM     43  H   UNL A   1      46.918  21.997  24.823  1.00  0.00     0.163 HD
ATOM     44  O   UNL A   1      47.364  23.940  26.220  1.00  0.00    -0.269 OA
BRANCH  42  45
ATOM     45  C   UNL A   1      45.052  24.345  26.291  1.00  0.00     0.039 A 
ATOM     46  C   UNL A   1      44.643  25.453  25.540  1.00  0.00     0.014 A 
ATOM     47  C   UNL A   1      44.603  24.169  27.594  1.00  0.00     0.014 A 
ATOM     48  C   UNL A   1      44.088  26.540  26.201  1.00  0.00     0.010 A 
ATOM     49  C   UNL A   1      44.166  25.281  28.276  1.00  0.00     0.010 A 
ATOM     50  C   UNL A   1      44.005  26.487  27.588  1.00  0.00    -0.014 A 
BRANCH  50  51
ATOM     51  C   UNL A   1      43.873  27.669  28.420  1.00  0.00     0.031 A 
ATOM     52  C   UNL A   1      42.541  28.247  28.638  1.00  0.00     0.074 A 
ATOM     53  C   UNL A   1      44.968  28.170  29.033  1.00  0.00     0.049 A 
ATOM     54  N   UNL A   1      42.336  29.459  29.020  1.00  0.00    -0.248 NA
ATOM     55  C   UNL A   1      41.310  27.516  28.349  1.00  0.00     0.031 C 
ATOM     56  C   UNL A   1      45.031  29.154  30.110  1.00  0.00     0.029 A 
ATOM     57  N   UNL A   1      46.292  28.025  28.627  1.00  0.00    -0.354 N 
ATOM     58  C   UNL A   1      41.003  29.566  29.328  1.00  0.00     0.074 A 
ATOM     59  C   UNL A   1      40.389  28.391  28.760  1.00  0.00     0.031 C 
ATOM     60  C   UNL A   1      46.260  29.700  30.130  1.00  0.00     0.029 A 
ATOM     61  C   UNL A   1      46.974  29.206  28.964  1.00  0.00     0.049 A 
ATOM     62  H   UNL A   1      46.681  27.237  28.184  1.00  0.00     0.167 HD
ATOM     63  C   UNL A   1      40.609  30.559  30.169  1.00  0.00     0.031 A 
ATOM     64  C   UNL A   1      47.495  30.003  27.984  1.00  0.00     0.031 A 
ATOM     65  C   UNL A   1      41.693  31.516  30.395  1.00  0.00     0.049 A 
ATOM     66  C   UNL A   1      46.838  31.367  27.911  1.00  0.00     0.074 A 
ATOM     67  C   UNL A   1      42.571  31.718  31.446  1.00  0.00     0.029 A 
ATOM     68  N   UNL A   1      42.208  32.216  29.308  1.00  0.00    -0.354 N 
ATOM     69  N   UNL A   1      45.673  31.646  28.430  1.00  0.00    -0.248 NA
ATOM     70  C   UNL A   1      47.433  32.518  27.237  1.00  0.00     0.031 C 
ATOM     71  C   UNL A   1      43.679  32.459  30.948  1.00  0.00     0.029 A 
ATOM     72  C   UNL A   1      43.445  32.751  29.615  1.00  0.00     0.049 A 
ATOM     73  H   UNL A   1      41.754  32.317  28.440  1.00  0.00     0.167 HD
ATOM     74  C   UNL A   1      45.358  32.957  28.186  1.00  0.00     0.074 A 
ATOM     75  C   UNL A   1      46.497  33.463  27.441  1.00  0.00     0.031 C 
ATOM     76  C   UNL A   1      44.184  33.512  28.612  1.00  0.00     0.031 A 
BRANCH  63  77
ATOM     77  C   UNL A   1      39.339  30.528  30.990  1.00  0.00    -0.014 A 
ATOM     78  C   UNL A   1      39.429  30.376  32.386  1.00  0.00     0.009 A 
ATOM     79  C   UNL A   1      38.035  30.524  30.463  1.00  0.00     0.009 A 
ATOM     80  C   UNL A   1      38.294  30.195  33.191  1.00  0.00     0.001 A 
ATOM     81  C   UNL A   1      36.894  30.358  31.260  1.00  0.00     0.001 A 
ATOM     82  C   UNL A   1      37.025  30.182  32.627  1.00  0.00     0.000 A 
ENDBRANCH  63  77
BRANCH  64  83
ATOM     83  C   UNL A   1      47.997  29.227  26.809  1.00  0.00    -0.014 A 
ATOM     84  C   UNL A   1      49.315  28.724  26.868  1.00  0.00     0.009 A 
ATOM     85  C   UNL A   1      47.107  28.659  25.888  1.00  0.00     0.009 A 
ATOM     86  C   UNL A   1      49.683  27.589  26.137  1.00  0.00     0.001 A 
ATOM     87  C   UNL A   1      47.490  27.536  25.140  1.00  0.00     0.001 A 
ATOM     88  C   UNL A   1      48.757  26.975  25.300  1.00  0.00     0.000 A 
ENDBRANCH  64  83
BRANCH  76  89
ATOM     89  C   UNL A   1      43.624  34.850  28.183  1.00  0.00    -0.014 A 
ATOM     90  C   UNL A   1      43.113  35.128  26.910  1.00  0.00     0.009 A 
ATOM     91  C   UNL A   1      43.472  35.867  29.155  1.00  0.00     0.009 A 
ATOM     92  C   UNL A   1      42.527  36.366  26.610  1.00  0.00     0.001 A 
ATOM     93  C   UNL A   1      42.839  37.081  28.878  1.00  0.00     0.001 A 
ATOM     94  C   UNL A   1      42.377  37.336  27.597  1.00  0.00     0.000 A 
ENDBRANCH  76  89
ENDBRANCH  50  51
ENDBRANCH  42  45
ENDBRANCH  40  41
ENDBRANCH  39  40
ENDBRANCH  38  39
ENDBRANCH  37  38
ENDBRANCH  36  37
ENDBRANCH   1  36
TORSDOF 19
ENDMDL
MODEL 3
REMARK VINA RESULT:     -11.8      8.061     13.452
REMARK SMILES Cc1ccc(NC(=O)CN2C(=O)S/C(=C\c3cc(Cl)c(OCC(=O)NCCCCCCNC(=O)c4ccc(-c5c6nc(c(-c7ccccc7)c7ccc([nH]7)c(-c7ccccc7)c7nc(c(-c8ccccc8)c8ccc5[nH]8)C=C7)C=C6)cc4)c(Cl)c3)C2=O)cc1
REMARK SMILES IDX 26 1 25 2 23 3 24 4 22 6 21 7 20 8 16 9 17 10 85 11 18 12
REMARK SMILES IDX 83 13 19 14 84 15 15 16 10 17 11 18 86 19 12 20 13 21 14 22
REMARK SMILES IDX 87 23 9 24 7 25 6 26 8 28 5 29 1 30 2 31 3 32 89 33 4 34
REMARK SMILES IDX 88 35 27 36 28 37 29 38 30 39 31 40 32 41 33 42 34 44 35 45
REMARK SMILES IDX 36 46 82 47 37 48 81 49 38 50 39 51 40 52 75 53 41 54 80 55
REMARK SMILES IDX 74 56 76 57 42 58 79 59 73 60 72 61 43 63 65 64 50 65 64 66
REMARK SMILES IDX 51 67 54 68 63 69 77 70 52 71 53 72 62 74 78 75 55 76 44 77
REMARK SMILES IDX 45 78 49 79 46 80 48 81 47 82 66 83 67 84 71 85 68 86 70 87
REMARK SMILES IDX 69 88 56 89 57 90 61 91 58 92 60 93 59 94
REMARK H PARENT 25 5 6 27 32 43 76 62 54 73
REMARK Flexibility Score: inf
ROOT
ATOM      1  C   UNL A   1      32.180  26.866  24.987  1.00  0.00     0.116 C 
ENDROOT
BRANCH   1   2
ATOM      2  N   UNL A   1      30.938  26.517  25.637  1.00  0.00    -0.353 N 
ATOM      3  C   UNL A   1      30.375  25.285  25.793  1.00  0.00     0.257 C 
ATOM      4  O   UNL A   1      29.438  25.185  26.585  1.00  0.00    -0.271 OA
ATOM      5  H   UNL A   1      30.431  27.268  26.018  1.00  0.00     0.163 HD
BRANCH   3   6
ATOM      6  C   UNL A   1      30.960  24.075  25.046  1.00  0.00     0.329 C 
BRANCH   6   7
ATOM      7  O   UNL A   1      31.471  23.000  25.813  1.00  0.00    -0.481 OA
BRANCH   7   8
ATOM      8  C   UNL A   1      32.618  22.324  25.496  1.00  0.00     0.157 A 
ATOM      9  C   UNL A   1      35.117  20.950  25.223  1.00  0.00    -0.021 A 
ATOM     10  C   UNL A   1      34.692  21.377  26.475  1.00  0.00     0.032 A 
ATOM     11  C   UNL A   1      34.306  21.256  24.124  1.00  0.00     0.032 A 
ATOM     12  C   UNL A   1      33.467  22.063  26.602  1.00  0.00     0.085 A 
ATOM     13  C   UNL A   1      33.050  21.863  24.252  1.00  0.00     0.085 A 
ATOM     14  Cl  UNL A   1      33.026  22.581  28.202  1.00  0.00    -0.080 Cl
ATOM     15  Cl  UNL A   1      32.146  21.857  22.782  1.00  0.00    -0.080 Cl
BRANCH   9  16
ATOM     16  C   UNL A   1      36.408  20.267  24.993  1.00  0.00     0.029 C 
ATOM     17  N   UNL A   1      39.724  20.954  26.077  1.00  0.00    -0.259 N 
ATOM     18  C   UNL A   1      39.264  22.222  26.301  1.00  0.00     0.294 C 
ATOM     19  C   UNL A   1      38.858  20.114  25.398  1.00  0.00     0.268 C 
ATOM     20  O   UNL A   1      39.635  23.018  27.157  1.00  0.00    -0.261 OA
ATOM     21  S   UNL A   1      37.923  22.558  25.239  1.00  0.00    -0.022 SA
ATOM     22  C   UNL A   1      37.608  20.871  25.073  1.00  0.00     0.083 C 
ATOM     23  O   UNL A   1      38.994  18.915  25.233  1.00  0.00    -0.268 OA
BRANCH  17  24
ATOM     24  C   UNL A   1      40.794  20.417  26.906  1.00  0.00     0.230 C 
BRANCH  24  25
ATOM     25  C   UNL A   1      42.127  20.290  26.168  1.00  0.00     0.244 C 
ATOM     26  N   UNL A   1      43.128  21.201  26.351  1.00  0.00    -0.325 N 
ATOM     27  H   UNL A   1      44.036  20.834  26.248  1.00  0.00     0.169 HD
ATOM     28  O   UNL A   1      42.329  19.339  25.406  1.00  0.00    -0.273 OA
BRANCH  26  29
ATOM     29  C   UNL A   1      43.086  22.567  26.661  1.00  0.00     0.041 A 
ATOM     30  C   UNL A   1      42.545  26.772  27.460  1.00  0.00     0.044 C 
ATOM     31  C   UNL A   1      42.742  25.316  27.166  1.00  0.00    -0.051 A 
ATOM     32  C   UNL A   1      42.959  24.419  28.215  1.00  0.00     0.005 A 
ATOM     33  C   UNL A   1      42.698  24.826  25.857  1.00  0.00     0.005 A 
ATOM     34  C   UNL A   1      43.130  23.053  27.966  1.00  0.00     0.026 A 
ATOM     35  C   UNL A   1      42.854  23.460  25.610  1.00  0.00     0.026 A 
ENDBRANCH  26  29
ENDBRANCH  24  25
ENDBRANCH  17  24
ENDBRANCH   9  16
ENDBRANCH   7   8
ENDBRANCH   6   7
ENDBRANCH   3   6
ENDBRANCH   1   2
BRANCH   1  36
ATOM     36  C   UNL A   1      33.295  27.197  25.974  1.00  0.00     0.021 C 
BRANCH  36  37
ATOM     37  C   UNL A   1      33.904  28.604  25.874  1.00  0.00     0.002 C 
BRANCH  37  38
ATOM     38  C   UNL A   1      34.601  29.172  27.119  1.00  0.00     0.002 C 
BRANCH  38  39
ATOM     39  C   UNL A   1      34.691  30.692  27.219  1.00  0.00     0.021 C 
BRANCH  39  40
ATOM     40  C   UNL A   1      35.774  31.213  28.152  1.00  0.00     0.116 C 
BRANCH  40  41
ATOM     41  N   UNL A   1      35.354  31.344  29.545  1.00  0.00    -0.352 N 
ATOM     42  C   UNL A   1      36.111  31.636  30.669  1.00  0.00     0.251 C 
ATOM     43  H   UNL A   1      34.393  31.204  29.709  1.00  0.00     0.163 HD
ATOM     44  O   UNL A   1      35.581  31.715  31.772  1.00  0.00    -0.269 OA
BRANCH  42  45
ATOM     45  C   UNL A   1      37.532  32.023  30.502  1.00  0.00     0.039 A 
ATOM     46  C   UNL A   1      38.485  31.144  31.027  1.00  0.00     0.014 A 
ATOM     47  C   UNL A   1      37.872  33.335  30.195  1.00  0.00     0.014 A 
ATOM     48  C   UNL A   1      39.651  31.668  31.567  1.00  0.00     0.010 A 
ATOM     49  C   UNL A   1      38.965  33.878  30.831  1.00  0.00     0.010 A 
ATOM     50  C   UNL A   1      39.794  33.051  31.594  1.00  0.00    -0.014 A 
BRANCH  50  51
ATOM     51  C   UNL A   1      40.707  33.737  32.490  1.00  0.00     0.031 A 
ATOM     52  C   UNL A   1      40.174  34.405  33.684  1.00  0.00     0.074 A 
ATOM     53  C   UNL A   1      42.035  33.686  32.243  1.00  0.00     0.049 A 
ATOM     54  N   UNL A   1      40.794  35.332  34.326  1.00  0.00    -0.248 NA
ATOM     55  C   UNL A   1      38.836  34.136  34.204  1.00  0.00     0.031 C 
ATOM     56  C   UNL A   1      43.134  34.052  33.132  1.00  0.00     0.029 A 
ATOM     57  N   UNL A   1      42.648  33.482  31.010  1.00  0.00    -0.354 N 
ATOM     58  C   UNL A   1      40.101  35.549  35.491  1.00  0.00     0.074 A 
ATOM     59  C   UNL A   1      38.829  34.897  35.301  1.00  0.00     0.031 C 
ATOM     60  C   UNL A   1      44.235  34.280  32.394  1.00  0.00     0.029 A 
ATOM     61  C   UNL A   1      43.837  34.229  30.995  1.00  0.00     0.049 A 
ATOM     62  H   UNL A   1      42.310  32.916  30.279  1.00  0.00     0.167 HD
ATOM     63  C   UNL A   1      40.755  36.118  36.539  1.00  0.00     0.031 A 
ATOM     64  C   UNL A   1      43.991  35.261  30.112  1.00  0.00     0.031 A 
ATOM     65  C   UNL A   1      42.057  36.640  36.122  1.00  0.00     0.049 A 
ATOM     66  C   UNL A   1      44.107  36.613  30.788  1.00  0.00     0.074 A 
ATOM     67  C   UNL A   1      43.353  36.175  36.271  1.00  0.00     0.029 A 
ATOM     68  N   UNL A   1      42.102  37.636  35.152  1.00  0.00    -0.354 N 
ATOM     69  N   UNL A   1      43.728  36.853  32.014  1.00  0.00    -0.248 NA
ATOM     70  C   UNL A   1      44.644  37.803  30.133  1.00  0.00     0.031 C 
ATOM     71  C   UNL A   1      44.161  36.829  35.299  1.00  0.00     0.029 A 
ATOM     72  C   UNL A   1      43.367  37.724  34.602  1.00  0.00     0.049 A 
ATOM     73  H   UNL A   1      41.338  38.200  34.893  1.00  0.00     0.167 HD
ATOM     74  C   UNL A   1      43.957  38.168  32.322  1.00  0.00     0.074 A 
ATOM     75  C   UNL A   1      44.540  38.720  31.112  1.00  0.00     0.031 C 
ATOM     76  C   UNL A   1      43.641  38.692  33.545  1.00  0.00     0.031 A 
BRANCH  63  77
ATOM     77  C   UNL A   1      40.338  35.972  37.986  1.00  0.00    -0.014 A 
ATOM     78  C   UNL A   1      40.228  37.124  38.787  1.00  0.00     0.009 A 
ATOM     79  C   UNL A   1      40.155  34.748  38.655  1.00  0.00     0.009 A 
ATOM     80  C   UNL A   1      39.988  37.052  40.167  1.00  0.00     0.001 A 
ATOM     81  C   UNL A   1      39.901  34.666  40.031  1.00  0.00     0.001 A 
ATOM     82  C   UNL A   1      39.828  35.822  40.791  1.00  0.00     0.000 A 
ENDBRANCH  63  77
BRANCH  64  83
ATOM     83  C   UNL A   1      43.317  35.010  28.802  1.00  0.00    -0.014 A 
ATOM     84  C   UNL A   1      42.214  35.824  28.463  1.00  0.00     0.009 A 
ATOM     85  C   UNL A   1      43.971  34.314  27.777  1.00  0.00     0.009 A 
ATOM     86  C   UNL A   1      41.875  36.053  27.125  1.00  0.00     0.001 A 
ATOM     87  C   UNL A   1      43.611  34.529  26.439  1.00  0.00     0.001 A 
ATOM     88  C   UNL A   1      42.598  35.432  26.113  1.00  0.00     0.000 A 
ENDBRANCH  64  83
BRANCH  76  89
ATOM     89  C   UNL A   1      43.609  40.161  33.901  1.00  0.00    -0.014 A 
ATOM     90  C   UNL A   1      42.604  41.054  33.509  1.00  0.00     0.009 A 
ATOM     91  C   UNL A   1      44.576  40.663  34.805  1.00  0.00     0.009 A 
ATOM     92  C   UNL A   1      42.592  42.384  33.954  1.00  0.00     0.001 A 
ATOM     93  C   UNL A   1      44.537  41.970  35.295  1.00  0.00     0.001 A 
ATOM     94  C   UNL A   1      43.549  42.838  34.857  1.00  0.00     0.000 A 
ENDBRANCH  76  89
ENDBRANCH  50  51
ENDBRANCH  42  45
ENDBRANCH  40  41
ENDBRANCH  39  40
ENDBRANCH  38  39
ENDBRANCH  37  38
ENDBRANCH  36  37
ENDBRANCH   1  36
TORSDOF 19
ENDMDL
