MODEL 1
REMARK VINA RESULT:     -11.0      0.000      0.000
REMARK SMILES COc1cccc([C@@H]2CN(C(=O)c3cnn(C)c3)C[C@H]2C(=O)NCCCCCCNC(=O)c2ccc(-c3c4nc(c(-c5ccccc5)c5ccc([nH]5)c(-c5ccccc5)c5nc(c(-c6ccccc6)c6ccc3[nH]6)C=C5)C=C4)cc2)c1OC
REMARK SMILES IDX 26 1 25 2 24 3 23 4 21 5 22 6 20 8 8 9 9 10 10 11 19 12 7 13
REMARK SMILES IDX 3 14 4 15 81 16 5 17 6 18 2 19 1 20 82 21 83 22 11 23 12 24
REMARK SMILES IDX 13 25 14 26 18 27 15 28 16 29 17 30 27 31 28 32 29 33 30 34
REMARK SMILES IDX 31 35 32 37 33 38 34 39 80 40 35 41 79 42 36 43 37 44 38 45
REMARK SMILES IDX 73 46 39 47 78 48 72 49 74 50 40 51 77 52 71 53 70 54 41 56
REMARK SMILES IDX 63 57 48 58 62 59 49 60 52 61 61 62 75 63 50 64 51 65 60 67
REMARK SMILES IDX 76 68 53 69 42 70 43 71 47 72 44 73 46 74 45 75 64 76 65 77
REMARK SMILES IDX 69 78 66 79 68 80 67 81 54 82 55 83 59 84 56 85 58 86 57 87
REMARK H PARENT 23 7 30 36 74 55 52 66
REMARK Flexibility Score: inf
ROOT
ATOM      1  C   UNL A   1      39.751  22.945  27.191  1.00  0.00     0.002 C 
ENDROOT
BRANCH   1   2
ATOM      2  C   UNL A   1      38.883  24.112  26.706  1.00  0.00     0.021 C 
BRANCH   2   3
ATOM      3  C   UNL A   1      37.506  23.716  26.176  1.00  0.00     0.116 C 
BRANCH   3   4
ATOM      4  N   UNL A   1      37.531  23.446  24.752  1.00  0.00    -0.356 N 
ATOM      5  C   UNL A   1      36.533  23.204  23.861  1.00  0.00     0.225 C 
ATOM      6  O   UNL A   1      36.865  23.039  22.683  1.00  0.00    -0.275 OA
ATOM      7  H   UNL A   1      38.434  23.435  24.358  1.00  0.00     0.163 HD
BRANCH   5   8
ATOM      8  C   UNL A   1      35.068  23.125  24.255  1.00  0.00     0.107 C 
ATOM      9  C   UNL A   1      34.137  23.958  23.352  1.00  0.00     0.057 C 
ATOM     10  C   UNL A   1      32.872  23.106  23.203  1.00  0.00     0.129 C 
ATOM     11  N   UNL A   1      33.314  21.734  23.417  1.00  0.00    -0.337 N 
ATOM     12  C   UNL A   1      34.516  21.705  24.234  1.00  0.00     0.134 C 
BRANCH   9  13
ATOM     13  C   UNL A   1      33.877  25.381  23.814  1.00  0.00     0.004 A 
ATOM     14  C   UNL A   1      33.377  27.736  23.429  1.00  0.00     0.161 A 
ATOM     15  C   UNL A   1      33.436  27.973  24.807  1.00  0.00     0.050 A 
ATOM     16  C   UNL A   1      33.610  26.444  22.924  1.00  0.00     0.164 A 
ATOM     17  C   UNL A   1      33.684  26.927  25.689  1.00  0.00     0.004 A 
ATOM     18  C   UNL A   1      33.896  25.642  25.198  1.00  0.00     0.008 A 
BRANCH  14  19
ATOM     19  O   UNL A   1      33.187  28.786  22.568  1.00  0.00    -0.493 OA
ATOM     20  C   UNL A   1      31.827  29.220  22.542  1.00  0.00     0.278 C 
ENDBRANCH  14  19
BRANCH  16  21
ATOM     21  O   UNL A   1      33.661  26.129  21.589  1.00  0.00    -0.493 OA
ATOM     22  C   UNL A   1      32.414  25.897  20.946  1.00  0.00     0.278 C 
ENDBRANCH  16  21
ENDBRANCH   9  13
BRANCH  11  23
ATOM     23  C   UNL A   1      32.596  20.574  23.204  1.00  0.00     0.257 C 
ATOM     24  O   UNL A   1      31.827  20.468  22.238  1.00  0.00    -0.269 OA
BRANCH  23  25
ATOM     25  C   UNL A   1      32.776  19.461  24.112  1.00  0.00     0.077 A 
ATOM     26  C   UNL A   1      32.309  19.371  25.444  1.00  0.00     0.149 A 
ATOM     27  C   UNL A   1      33.493  18.288  23.941  1.00  0.00     0.122 A 
ATOM     28  N   UNL A   1      32.629  18.215  26.031  1.00  0.00    -0.181 NA
ATOM     29  N   UNL A   1      33.340  17.571  25.090  1.00  0.00    -0.275 N 
ATOM     30  C   UNL A   1      33.841  16.246  25.360  1.00  0.00     0.173 C 
ENDBRANCH  23  25
ENDBRANCH  11  23
ENDBRANCH   5   8
ENDBRANCH   3   4
ENDBRANCH   2   3
ENDBRANCH   1   2
BRANCH   1  31
ATOM     31  C   UNL A   1      40.538  22.202  26.107  1.00  0.00     0.002 C 
BRANCH  31  32
ATOM     32  C   UNL A   1      40.751  20.704  26.342  1.00  0.00     0.021 C 
BRANCH  32  33
ATOM     33  C   UNL A   1      42.142  20.305  26.827  1.00  0.00     0.116 C 
BRANCH  33  34
ATOM     34  N   UNL A   1      43.101  20.181  25.745  1.00  0.00    -0.352 N 
ATOM     35  C   UNL A   1      43.886  21.152  25.172  1.00  0.00     0.251 C 
ATOM     36  H   UNL A   1      43.204  19.277  25.370  1.00  0.00     0.163 HD
ATOM     37  O   UNL A   1      44.556  20.895  24.175  1.00  0.00    -0.269 OA
BRANCH  35  38
ATOM     38  C   UNL A   1      43.912  22.518  25.739  1.00  0.00     0.039 A 
ATOM     39  C   UNL A   1      43.716  23.604  24.879  1.00  0.00     0.014 A 
ATOM     40  C   UNL A   1      44.158  22.734  27.098  1.00  0.00     0.014 A 
ATOM     41  C   UNL A   1      43.716  24.904  25.390  1.00  0.00     0.010 A 
ATOM     42  C   UNL A   1      44.115  24.028  27.613  1.00  0.00     0.010 A 
ATOM     43  C   UNL A   1      43.897  25.124  26.764  1.00  0.00    -0.014 A 
BRANCH  43  44
ATOM     44  C   UNL A   1      43.884  26.495  27.329  1.00  0.00     0.031 A 
ATOM     45  C   UNL A   1      45.175  27.231  27.544  1.00  0.00     0.074 A 
ATOM     46  C   UNL A   1      42.719  27.056  27.703  1.00  0.00     0.049 A 
ATOM     47  N   UNL A   1      45.378  28.395  28.108  1.00  0.00    -0.248 NA
ATOM     48  C   UNL A   1      46.401  26.563  27.081  1.00  0.00     0.031 C 
ATOM     49  C   UNL A   1      41.397  26.442  27.569  1.00  0.00     0.029 A 
ATOM     50  N   UNL A   1      42.465  28.273  28.284  1.00  0.00    -0.354 N 
ATOM     51  C   UNL A   1      46.752  28.586  28.093  1.00  0.00     0.074 A 
ATOM     52  C   UNL A   1      47.337  27.410  27.485  1.00  0.00     0.031 C 
ATOM     53  C   UNL A   1      40.469  27.292  28.038  1.00  0.00     0.029 A 
ATOM     54  C   UNL A   1      41.134  28.495  28.533  1.00  0.00     0.049 A 
ATOM     55  H   UNL A   1      43.170  28.925  28.502  1.00  0.00     0.167 HD
ATOM     56  C   UNL A   1      47.466  29.647  28.537  1.00  0.00     0.031 A 
ATOM     57  C   UNL A   1      40.516  29.547  29.101  1.00  0.00     0.031 A 
ATOM     58  C   UNL A   1      46.893  30.831  29.119  1.00  0.00     0.049 A 
ATOM     59  C   UNL A   1      41.327  30.720  29.572  1.00  0.00     0.074 A 
ATOM     60  C   UNL A   1      47.536  31.975  29.562  1.00  0.00     0.029 A 
ATOM     61  N   UNL A   1      45.538  31.025  29.330  1.00  0.00    -0.354 N 
ATOM     62  N   UNL A   1      42.625  30.893  29.529  1.00  0.00    -0.248 NA
ATOM     63  C   UNL A   1      40.586  31.842  30.166  1.00  0.00     0.031 C 
ATOM     64  C   UNL A   1      46.568  32.853  30.061  1.00  0.00     0.029 A 
ATOM     65  C   UNL A   1      45.324  32.266  29.903  1.00  0.00     0.049 A 
ATOM     66  H   UNL A   1      44.833  30.375  29.108  1.00  0.00     0.167 HD
ATOM     67  C   UNL A   1      42.854  32.152  30.068  1.00  0.00     0.074 A 
ATOM     68  C   UNL A   1      41.562  32.700  30.426  1.00  0.00     0.031 C 
ATOM     69  C   UNL A   1      44.032  32.797  30.248  1.00  0.00     0.031 A 
BRANCH  56  70
ATOM     70  C   UNL A   1      48.959  29.564  28.416  1.00  0.00    -0.014 A 
ATOM     71  C   UNL A   1      49.618  30.016  27.261  1.00  0.00     0.009 A 
ATOM     72  C   UNL A   1      49.717  29.041  29.475  1.00  0.00     0.009 A 
ATOM     73  C   UNL A   1      51.005  29.915  27.157  1.00  0.00     0.001 A 
ATOM     74  C   UNL A   1      51.107  28.961  29.375  1.00  0.00     0.001 A 
ATOM     75  C   UNL A   1      51.749  29.390  28.214  1.00  0.00     0.000 A 
ENDBRANCH  56  70
BRANCH  57  76
ATOM     76  C   UNL A   1      39.040  29.551  29.239  1.00  0.00    -0.014 A 
ATOM     77  C   UNL A   1      38.442  29.111  30.430  1.00  0.00     0.009 A 
ATOM     78  C   UNL A   1      38.223  29.996  28.189  1.00  0.00     0.009 A 
ATOM     79  C   UNL A   1      37.053  29.098  30.559  1.00  0.00     0.001 A 
ATOM     80  C   UNL A   1      36.834  29.998  28.329  1.00  0.00     0.001 A 
ATOM     81  C   UNL A   1      36.250  29.545  29.511  1.00  0.00     0.000 A 
ENDBRANCH  57  76
BRANCH  69  82
ATOM     82  C   UNL A   1      43.972  34.177  30.829  1.00  0.00    -0.014 A 
ATOM     83  C   UNL A   1      44.041  34.381  32.215  1.00  0.00     0.009 A 
ATOM     84  C   UNL A   1      43.881  35.287  29.976  1.00  0.00     0.009 A 
ATOM     85  C   UNL A   1      43.997  35.675  32.738  1.00  0.00     0.001 A 
ATOM     86  C   UNL A   1      43.854  36.579  30.501  1.00  0.00     0.001 A 
ATOM     87  C   UNL A   1      43.907  36.772  31.881  1.00  0.00     0.000 A 
ENDBRANCH  69  82
ENDBRANCH  43  44
ENDBRANCH  35  38
ENDBRANCH  33  34
ENDBRANCH  32  33
ENDBRANCH  31  32
ENDBRANCH   1  31
TORSDOF 18
ENDMDL
MODEL 2
REMARK VINA RESULT:     -10.9      4.161      9.552
REMARK SMILES COc1cccc([C@@H]2CN(C(=O)c3cnn(C)c3)C[C@H]2C(=O)NCCCCCCNC(=O)c2ccc(-c3c4nc(c(-c5ccccc5)c5ccc([nH]5)c(-c5ccccc5)c5nc(c(-c6ccccc6)c6ccc3[nH]6)C=C5)C=C4)cc2)c1OC
REMARK SMILES IDX 26 1 25 2 24 3 23 4 21 5 22 6 20 8 8 9 9 10 10 11 19 12 7 13
REMARK SMILES IDX 3 14 4 15 81 16 5 17 6 18 2 19 1 20 82 21 83 22 11 23 12 24
REMARK SMILES IDX 13 25 14 26 18 27 15 28 16 29 17 30 27 31 28 32 29 33 30 34
REMARK SMILES IDX 31 35 32 37 33 38 34 39 80 40 35 41 79 42 36 43 37 44 38 45
REMARK SMILES IDX 73 46 39 47 78 48 72 49 74 50 40 51 77 52 71 53 70 54 41 56
REMARK SMILES IDX 63 57 48 58 62 59 49 60 52 61 61 62 75 63 50 64 51 65 60 67
REMARK SMILES IDX 76 68 53 69 42 70 43 71 47 72 44 73 46 74 45 75 64 76 65 77
REMARK SMILES IDX 69 78 66 79 68 80 67 81 54 82 55 83 59 84 56 85 58 86 57 87
REMARK H PARENT 23 7 30 36 74 55 52 66
REMARK Flexibility Score: inf
ROOT
ATOM      1  C   UNL A   1      33.923  29.024  27.245  1.00  0.00     0.002 C 
ENDROOT
BRANCH   1   2
ATOM      2  C   UNL A   1      32.613  28.674  26.530  1.00  0.00     0.021 C 
BRANCH   2   3
ATOM      3  C   UNL A   1      32.296  29.530  25.306  1.00  0.00     0.116 C 
BRANCH   3   4
ATOM      4  N   UNL A   1      33.285  29.366  24.258  1.00  0.00    -0.356 N 
ATOM      5  C   UNL A   1      33.258  28.669  23.091  1.00  0.00     0.225 C 
ATOM      6  O   UNL A   1      34.259  28.747  22.372  1.00  0.00    -0.275 OA
ATOM      7  H   UNL A   1      34.130  29.845  24.422  1.00  0.00     0.163 HD
BRANCH   5   8
ATOM      8  C   UNL A   1      32.076  27.819  22.658  1.00  0.00     0.107 C 
ATOM      9  C   UNL A   1      31.664  26.755  23.694  1.00  0.00     0.057 C 
ATOM     10  C   UNL A   1      30.133  26.725  23.635  1.00  0.00     0.129 C 
ATOM     11  N   UNL A   1      29.747  28.043  23.149  1.00  0.00    -0.337 N 
ATOM     12  C   UNL A   1      30.823  28.636  22.370  1.00  0.00     0.134 C 
BRANCH   9  13
ATOM     13  C   UNL A   1      32.320  25.395  23.534  1.00  0.00     0.004 A 
ATOM     14  C   UNL A   1      33.219  23.299  24.394  1.00  0.00     0.161 A 
ATOM     15  C   UNL A   1      33.557  22.910  23.092  1.00  0.00     0.050 A 
ATOM     16  C   UNL A   1      32.612  24.546  24.624  1.00  0.00     0.164 A 
ATOM     17  C   UNL A   1      33.259  23.736  22.014  1.00  0.00     0.004 A 
ATOM     18  C   UNL A   1      32.639  24.964  22.232  1.00  0.00     0.008 A 
BRANCH  14  19
ATOM     19  O   UNL A   1      33.569  22.500  25.452  1.00  0.00    -0.493 OA
ATOM     20  C   UNL A   1      34.983  22.457  25.649  1.00  0.00     0.278 C 
ENDBRANCH  14  19
BRANCH  16  21
ATOM     21  O   UNL A   1      32.323  25.053  25.866  1.00  0.00    -0.493 OA
ATOM     22  C   UNL A   1      31.175  24.520  26.515  1.00  0.00     0.278 C 
ENDBRANCH  16  21
ENDBRANCH   9  13
BRANCH  11  23
ATOM     23  C   UNL A   1      28.479  28.586  23.100  1.00  0.00     0.257 C 
ATOM     24  O   UNL A   1      27.489  27.928  23.451  1.00  0.00    -0.269 OA
BRANCH  23  25
ATOM     25  C   UNL A   1      28.318  29.956  22.661  1.00  0.00     0.077 A 
ATOM     26  C   UNL A   1      28.302  31.110  23.479  1.00  0.00     0.149 A 
ATOM     27  C   UNL A   1      28.064  30.453  21.394  1.00  0.00     0.122 A 
ATOM     28  N   UNL A   1      28.139  32.239  22.783  1.00  0.00    -0.181 NA
ATOM     29  N   UNL A   1      28.007  31.811  21.516  1.00  0.00    -0.275 N 
ATOM     30  C   UNL A   1      27.837  32.772  20.455  1.00  0.00     0.173 C 
ENDBRANCH  23  25
ENDBRANCH  11  23
ENDBRANCH   5   8
ENDBRANCH   3   4
ENDBRANCH   2   3
ENDBRANCH   1   2
BRANCH   1  31
ATOM     31  C   UNL A   1      34.288  30.512  27.280  1.00  0.00     0.002 C 
BRANCH  31  32
ATOM     32  C   UNL A   1      33.211  31.454  27.826  1.00  0.00     0.021 C 
BRANCH  32  33
ATOM     33  C   UNL A   1      32.946  32.704  26.993  1.00  0.00     0.116 C 
BRANCH  33  34
ATOM     34  N   UNL A   1      32.573  33.850  27.802  1.00  0.00    -0.352 N 
ATOM     35  C   UNL A   1      33.222  34.391  28.885  1.00  0.00     0.251 C 
ATOM     36  H   UNL A   1      31.739  34.303  27.538  1.00  0.00     0.163 HD
ATOM     37  O   UNL A   1      32.696  35.292  29.533  1.00  0.00    -0.269 OA
BRANCH  35  38
ATOM     38  C   UNL A   1      34.547  33.875  29.291  1.00  0.00     0.039 A 
ATOM     39  C   UNL A   1      34.634  33.076  30.436  1.00  0.00     0.014 A 
ATOM     40  C   UNL A   1      35.702  34.199  28.573  1.00  0.00     0.014 A 
ATOM     41  C   UNL A   1      35.869  32.559  30.832  1.00  0.00     0.010 A 
ATOM     42  C   UNL A   1      36.927  33.648  28.944  1.00  0.00     0.010 A 
ATOM     43  C   UNL A   1      37.022  32.826  30.078  1.00  0.00    -0.014 A 
BRANCH  43  44
ATOM     44  C   UNL A   1      38.340  32.274  30.471  1.00  0.00     0.031 A 
ATOM     45  C   UNL A   1      38.816  30.975  29.884  1.00  0.00     0.074 A 
ATOM     46  C   UNL A   1      39.085  32.906  31.397  1.00  0.00     0.049 A 
ATOM     47  N   UNL A   1      39.893  30.286  30.168  1.00  0.00    -0.248 NA
ATOM     48  C   UNL A   1      37.961  30.363  28.857  1.00  0.00     0.031 C 
ATOM     49  C   UNL A   1      38.730  34.162  32.061  1.00  0.00     0.029 A 
ATOM     50  N   UNL A   1      40.296  32.567  31.947  1.00  0.00    -0.354 N 
ATOM     51  C   UNL A   1      39.829  29.148  29.377  1.00  0.00     0.074 A 
ATOM     52  C   UNL A   1      38.600  29.227  28.617  1.00  0.00     0.031 C 
ATOM     53  C   UNL A   1      39.710  34.497  32.916  1.00  0.00     0.029 A 
ATOM     54  C   UNL A   1      40.744  33.465  32.883  1.00  0.00     0.049 A 
ATOM     55  H   UNL A   1      40.795  31.757  31.695  1.00  0.00     0.167 HD
ATOM     56  C   UNL A   1      40.718  28.130  29.282  1.00  0.00     0.031 A 
ATOM     57  C   UNL A   1      41.860  33.458  33.635  1.00  0.00     0.031 A 
ATOM     58  C   UNL A   1      41.954  28.056  30.013  1.00  0.00     0.049 A 
ATOM     59  C   UNL A   1      42.839  32.326  33.502  1.00  0.00     0.074 A 
ATOM     60  C   UNL A   1      42.936  27.081  29.952  1.00  0.00     0.029 A 
ATOM     61  N   UNL A   1      42.381  28.999  30.933  1.00  0.00    -0.354 N 
ATOM     62  N   UNL A   1      42.774  31.269  32.730  1.00  0.00    -0.248 NA
ATOM     63  C   UNL A   1      44.044  32.392  34.339  1.00  0.00     0.031 C 
ATOM     64  C   UNL A   1      43.949  27.427  30.853  1.00  0.00     0.029 A 
ATOM     65  C   UNL A   1      43.609  28.628  31.452  1.00  0.00     0.049 A 
ATOM     66  H   UNL A   1      41.884  29.811  31.181  1.00  0.00     0.167 HD
ATOM     67  C   UNL A   1      43.939  30.555  32.973  1.00  0.00     0.074 A 
ATOM     68  C   UNL A   1      44.695  31.302  33.959  1.00  0.00     0.031 C 
ATOM     69  C   UNL A   1      44.348  29.384  32.427  1.00  0.00     0.031 A 
BRANCH  56  70
ATOM     70  C   UNL A   1      40.370  27.005  28.353  1.00  0.00    -0.014 A 
ATOM     71  C   UNL A   1      39.575  25.931  28.782  1.00  0.00     0.009 A 
ATOM     72  C   UNL A   1      40.830  27.028  27.027  1.00  0.00     0.009 A 
ATOM     73  C   UNL A   1      39.275  24.884  27.910  1.00  0.00     0.001 A 
ATOM     74  C   UNL A   1      40.511  25.988  26.152  1.00  0.00     0.001 A 
ATOM     75  C   UNL A   1      39.741  24.914  26.596  1.00  0.00     0.000 A 
ENDBRANCH  56  70
BRANCH  57  76
ATOM     76  C   UNL A   1      42.126  34.575  34.573  1.00  0.00    -0.014 A 
ATOM     77  C   UNL A   1      42.822  35.712  34.136  1.00  0.00     0.009 A 
ATOM     78  C   UNL A   1      41.685  34.513  35.903  1.00  0.00     0.009 A 
ATOM     79  C   UNL A   1      43.087  36.759  35.020  1.00  0.00     0.001 A 
ATOM     80  C   UNL A   1      41.938  35.570  36.779  1.00  0.00     0.001 A 
ATOM     81  C   UNL A   1      42.642  36.689  36.339  1.00  0.00     0.000 A 
ENDBRANCH  57  76
BRANCH  69  82
ATOM     82  C   UNL A   1      45.684  28.860  32.858  1.00  0.00    -0.014 A 
ATOM     83  C   UNL A   1      45.797  27.979  33.944  1.00  0.00     0.009 A 
ATOM     84  C   UNL A   1      46.837  29.224  32.146  1.00  0.00     0.009 A 
ATOM     85  C   UNL A   1      47.048  27.489  34.324  1.00  0.00     0.001 A 
ATOM     86  C   UNL A   1      48.083  28.719  32.518  1.00  0.00     0.001 A 
ATOM     87  C   UNL A   1      48.188  27.857  33.610  1.00  0.00     0.000 A 
ENDBRANCH  69  82
ENDBRANCH  43  44
ENDBRANCH  35  38
ENDBRANCH  33  34
ENDBRANCH  32  33
ENDBRANCH  31  32
ENDBRANCH   1  31
TORSDOF 18
ENDMDL
MODEL 3
REMARK VINA RESULT:     -10.8      3.976      9.364
REMARK SMILES COc1cccc([C@@H]2CN(C(=O)c3cnn(C)c3)C[C@H]2C(=O)NCCCCCCNC(=O)c2ccc(-c3c4nc(c(-c5ccccc5)c5ccc([nH]5)c(-c5ccccc5)c5nc(c(-c6ccccc6)c6ccc3[nH]6)C=C5)C=C4)cc2)c1OC
REMARK SMILES IDX 26 1 25 2 24 3 23 4 21 5 22 6 20 8 8 9 9 10 10 11 19 12 7 13
REMARK SMILES IDX 3 14 4 15 81 16 5 17 6 18 2 19 1 20 82 21 83 22 11 23 12 24
REMARK SMILES IDX 13 25 14 26 18 27 15 28 16 29 17 30 27 31 28 32 29 33 30 34
REMARK SMILES IDX 31 35 32 37 33 38 34 39 80 40 35 41 79 42 36 43 37 44 38 45
REMARK SMILES IDX 73 46 39 47 78 48 72 49 74 50 40 51 77 52 71 53 70 54 41 56
REMARK SMILES IDX 63 57 48 58 62 59 49 60 52 61 61 62 75 63 50 64 51 65 60 67
REMARK SMILES IDX 76 68 53 69 42 70 43 71 47 72 44 73 46 74 45 75 64 76 65 77
REMARK SMILES IDX 69 78 66 79 68 80 67 81 54 82 55 83 59 84 56 85 58 86 57 87
REMARK H PARENT 23 7 30 36 74 55 52 66
REMARK Flexibility Score: inf
ROOT
ATOM      1  C   UNL A   1      33.460  29.277  27.312  1.00  0.00     0.002 C 
ENDROOT
BRANCH   1   2
ATOM      2  C   UNL A   1      32.288  28.897  26.400  1.00  0.00     0.021 C 
BRANCH   2   3
ATOM      3  C   UNL A   1      32.154  29.741  25.134  1.00  0.00     0.116 C 
BRANCH   3   4
ATOM      4  N   UNL A   1      33.233  29.489  24.198  1.00  0.00    -0.356 N 
ATOM      5  C   UNL A   1      33.292  28.732  23.070  1.00  0.00     0.225 C 
ATOM      6  O   UNL A   1      34.359  28.738  22.450  1.00  0.00    -0.275 OA
ATOM      7  H   UNL A   1      34.075  29.949  24.419  1.00  0.00     0.163 HD
BRANCH   5   8
ATOM      8  C   UNL A   1      32.126  27.898  22.567  1.00  0.00     0.107 C 
ATOM      9  C   UNL A   1      31.730  26.749  23.514  1.00  0.00     0.057 C 
ATOM     10  C   UNL A   1      30.200  26.697  23.448  1.00  0.00     0.129 C 
ATOM     11  N   UNL A   1      29.793  28.043  23.066  1.00  0.00    -0.337 N 
ATOM     12  C   UNL A   1      30.859  28.714  22.340  1.00  0.00     0.134 C 
BRANCH   9  13
ATOM     13  C   UNL A   1      32.410  25.418  23.249  1.00  0.00     0.004 A 
ATOM     14  C   UNL A   1      33.575  23.393  23.947  1.00  0.00     0.161 A 
ATOM     15  C   UNL A   1      33.660  22.982  22.612  1.00  0.00     0.050 A 
ATOM     16  C   UNL A   1      32.963  24.617  24.273  1.00  0.00     0.164 A 
ATOM     17  C   UNL A   1      33.104  23.760  21.602  1.00  0.00     0.004 A 
ATOM     18  C   UNL A   1      32.478  24.963  21.919  1.00  0.00     0.008 A 
BRANCH  14  19
ATOM     19  O   UNL A   1      34.176  22.645  24.926  1.00  0.00    -0.493 OA
ATOM     20  C   UNL A   1      33.365  21.542  25.335  1.00  0.00     0.278 C 
ENDBRANCH  14  19
BRANCH  16  21
ATOM     21  O   UNL A   1      32.909  25.147  25.538  1.00  0.00    -0.493 OA
ATOM     22  C   UNL A   1      34.061  25.857  25.976  1.00  0.00     0.278 C 
ENDBRANCH  16  21
ENDBRANCH   9  13
BRANCH  11  23
ATOM     23  C   UNL A   1      28.515  28.566  23.056  1.00  0.00     0.257 C 
ATOM     24  O   UNL A   1      27.543  27.884  23.412  1.00  0.00    -0.269 OA
BRANCH  23  25
ATOM     25  C   UNL A   1      28.323  29.942  22.650  1.00  0.00     0.077 A 
ATOM     26  C   UNL A   1      28.270  31.074  23.497  1.00  0.00     0.149 A 
ATOM     27  C   UNL A   1      28.068  30.466  21.394  1.00  0.00     0.122 A 
ATOM     28  N   UNL A   1      28.084  32.216  22.829  1.00  0.00    -0.181 NA
ATOM     29  N   UNL A   1      27.975  31.818  21.550  1.00  0.00    -0.275 N 
ATOM     30  C   UNL A   1      27.791  32.801  20.512  1.00  0.00     0.173 C 
ENDBRANCH  23  25
ENDBRANCH  11  23
ENDBRANCH   5   8
ENDBRANCH   3   4
ENDBRANCH   2   3
ENDBRANCH   1   2
BRANCH   1  31
ATOM     31  C   UNL A   1      33.853  30.758  27.314  1.00  0.00     0.002 C 
BRANCH  31  32
ATOM     32  C   UNL A   1      32.737  31.747  27.665  1.00  0.00     0.021 C 
BRANCH  32  33
ATOM     33  C   UNL A   1      32.828  33.110  26.986  1.00  0.00     0.116 C 
BRANCH  33  34
ATOM     34  N   UNL A   1      32.517  34.208  27.884  1.00  0.00    -0.352 N 
ATOM     35  C   UNL A   1      33.192  34.625  29.005  1.00  0.00     0.251 C 
ATOM     36  H   UNL A   1      31.710  34.724  27.659  1.00  0.00     0.163 HD
ATOM     37  O   UNL A   1      32.715  35.499  29.723  1.00  0.00    -0.269 OA
BRANCH  35  38
ATOM     38  C   UNL A   1      34.487  34.007  29.366  1.00  0.00     0.039 A 
ATOM     39  C   UNL A   1      34.542  33.176  30.491  1.00  0.00     0.014 A 
ATOM     40  C   UNL A   1      35.644  34.264  28.625  1.00  0.00     0.014 A 
ATOM     41  C   UNL A   1      35.747  32.564  30.844  1.00  0.00     0.010 A 
ATOM     42  C   UNL A   1      36.835  33.619  28.954  1.00  0.00     0.010 A 
ATOM     43  C   UNL A   1      36.897  32.766  30.067  1.00  0.00    -0.014 A 
BRANCH  43  44
ATOM     44  C   UNL A   1      38.182  32.112  30.415  1.00  0.00     0.031 A 
ATOM     45  C   UNL A   1      39.141  32.791  31.351  1.00  0.00     0.074 A 
ATOM     46  C   UNL A   1      38.514  30.938  29.846  1.00  0.00     0.049 A 
ATOM     47  N   UNL A   1      40.348  32.426  31.704  1.00  0.00    -0.248 NA
ATOM     48  C   UNL A   1      38.693  34.055  31.953  1.00  0.00     0.031 C 
ATOM     49  C   UNL A   1      37.683  30.184  28.906  1.00  0.00     0.029 A 
ATOM     50  N   UNL A   1      39.649  30.179  29.974  1.00  0.00    -0.354 N 
ATOM     51  C   UNL A   1      40.812  33.426  32.547  1.00  0.00     0.074 A 
ATOM     52  C   UNL A   1      39.767  34.425  32.635  1.00  0.00     0.031 C 
ATOM     53  C   UNL A   1      38.330  29.060  28.555  1.00  0.00     0.029 A 
ATOM     54  C   UNL A   1      39.631  29.032  29.220  1.00  0.00     0.049 A 
ATOM     55  H   UNL A   1      40.406  30.431  30.552  1.00  0.00     0.167 HD
ATOM     56  C   UNL A   1      41.997  33.506  33.196  1.00  0.00     0.031 A 
ATOM     57  C   UNL A   1      40.557  28.067  29.075  1.00  0.00     0.031 A 
ATOM     58  C   UNL A   1      43.029  32.507  33.136  1.00  0.00     0.049 A 
ATOM     59  C   UNL A   1      41.859  28.169  29.819  1.00  0.00     0.074 A 
ATOM     60  C   UNL A   1      44.248  32.483  33.793  1.00  0.00     0.029 A 
ATOM     61  N   UNL A   1      42.959  31.349  32.379  1.00  0.00    -0.354 N 
ATOM     62  N   UNL A   1      42.271  29.112  30.630  1.00  0.00    -0.248 NA
ATOM     63  C   UNL A   1      42.817  27.072  29.628  1.00  0.00     0.031 C 
ATOM     64  C   UNL A   1      44.925  31.318  33.415  1.00  0.00     0.029 A 
ATOM     65  C   UNL A   1      44.115  30.607  32.546  1.00  0.00     0.049 A 
ATOM     66  H   UNL A   1      42.201  31.094  31.806  1.00  0.00     0.167 HD
ATOM     67  C   UNL A   1      43.527  28.711  31.064  1.00  0.00     0.074 A 
ATOM     68  C   UNL A   1      43.806  27.438  30.431  1.00  0.00     0.031 C 
ATOM     69  C   UNL A   1      44.374  29.341  31.914  1.00  0.00     0.031 A 
BRANCH  56  70
ATOM     70  C   UNL A   1      42.238  34.732  34.027  1.00  0.00    -0.014 A 
ATOM     71  C   UNL A   1      41.927  34.753  35.395  1.00  0.00     0.009 A 
ATOM     72  C   UNL A   1      42.799  35.875  33.436  1.00  0.00     0.009 A 
ATOM     73  C   UNL A   1      42.141  35.907  36.149  1.00  0.00     0.001 A 
ATOM     74  C   UNL A   1      43.031  37.021  34.198  1.00  0.00     0.001 A 
ATOM     75  C   UNL A   1      42.694  37.039  35.550  1.00  0.00     0.000 A 
ENDBRANCH  56  70
BRANCH  57  76
ATOM     76  C   UNL A   1      40.281  26.902  28.201  1.00  0.00    -0.014 A 
ATOM     77  C   UNL A   1      40.772  26.875  26.887  1.00  0.00     0.009 A 
ATOM     78  C   UNL A   1      39.532  25.814  28.673  1.00  0.00     0.009 A 
ATOM     79  C   UNL A   1      40.501  25.787  26.055  1.00  0.00     0.001 A 
ATOM     80  C   UNL A   1      39.279  24.720  27.844  1.00  0.00     0.001 A 
ATOM     81  C   UNL A   1      39.759  24.709  26.535  1.00  0.00     0.000 A 
ENDBRANCH  57  76
BRANCH  69  82
ATOM     82  C   UNL A   1      45.663  28.647  32.231  1.00  0.00    -0.014 A 
ATOM     83  C   UNL A   1      45.749  27.734  33.292  1.00  0.00     0.009 A 
ATOM     84  C   UNL A   1      46.795  28.884  31.436  1.00  0.00     0.009 A 
ATOM     85  C   UNL A   1      46.955  27.086  33.565  1.00  0.00     0.001 A 
ATOM     86  C   UNL A   1      47.994  28.223  31.702  1.00  0.00     0.001 A 
ATOM     87  C   UNL A   1      48.074  27.328  32.769  1.00  0.00     0.000 A 
ENDBRANCH  69  82
ENDBRANCH  43  44
ENDBRANCH  35  38
ENDBRANCH  33  34
ENDBRANCH  32  33
ENDBRANCH  31  32
ENDBRANCH   1  31
TORSDOF 18
ENDMDL
