MODEL 1
REMARK VINA RESULT:     -11.7      0.000      0.000
REMARK SMILES O=C(NCCCCCCNC(=O)[C@@H](c1cccc(O)c1)[NH+]1CC[NH+](C2CCCC2)CC1)c1ccc(-c2c3nc(c(-c4ccccc4)c4ccc([nH]4)c(-c4ccccc4)c4nc(c(-c5ccccc5)c5ccc2[nH]5)C=C4)C=C3)cc1
REMARK SMILES IDX 6 1 5 2 4 3 3 4 1 5 2 6 32 8 33 9 79 10 34 11 78 12 35 13
REMARK SMILES IDX 36 14 37 15 72 16 38 17 77 18 71 19 73 20 39 21 76 22 70 23
REMARK SMILES IDX 69 24 40 26 62 27 47 28 61 29 48 30 51 31 60 32 74 33 49 34
REMARK SMILES IDX 50 35 59 37 75 38 52 39 41 40 42 41 46 42 43 43 45 44 44 45
REMARK SMILES IDX 63 46 64 47 68 48 65 49 67 50 66 51 53 52 54 53 58 54 55 55
REMARK SMILES IDX 57 56 56 57 7 58 8 59 9 60 10 61 11 62 12 64 13 65 14 66
REMARK SMILES IDX 15 67 20 68 16 69 18 70 17 71 19 72 21 74 22 75 31 76 23 78
REMARK SMILES IDX 30 79 24 80 25 82 26 83 29 84 27 85 28 86
REMARK H PARENT 3 7 73 25 51 36 10 63 19 73 21 77 24 81
REMARK Flexibility Score: inf
ROOT
ATOM      1  C   UNL A   1      31.382  30.794  26.046  1.00  0.00     0.002 C 
ENDROOT
BRANCH   1   2
ATOM      2  C   UNL A   1      31.326  32.252  26.512  1.00  0.00     0.021 C 
BRANCH   2   3
ATOM      3  C   UNL A   1      32.575  32.725  27.244  1.00  0.00     0.116 C 
BRANCH   3   4
ATOM      4  N   UNL A   1      32.427  34.079  27.752  1.00  0.00    -0.352 N 
ATOM      5  O   UNL A   1      32.720  35.790  29.191  1.00  0.00    -0.269 OA
ATOM      6  C   UNL A   1      33.125  34.727  28.737  1.00  0.00     0.251 C 
ATOM      7  H   UNL A   1      31.717  34.611  27.324  1.00  0.00     0.163 HD
BRANCH   6   8
ATOM      8  C   UNL A   1      34.372  34.129  29.251  1.00  0.00     0.039 A 
ATOM      9  C   UNL A   1      34.344  33.306  30.379  1.00  0.00     0.014 A 
ATOM     10  C   UNL A   1      35.574  34.369  28.581  1.00  0.00     0.014 A 
ATOM     11  C   UNL A   1      35.532  32.831  30.914  1.00  0.00     0.010 A 
ATOM     12  C   UNL A   1      36.757  33.809  29.065  1.00  0.00     0.010 A 
ATOM     13  C   UNL A   1      36.747  33.050  30.246  1.00  0.00    -0.014 A 
BRANCH  13  14
ATOM     14  C   UNL A   1      37.975  32.396  30.752  1.00  0.00     0.031 A 
ATOM     15  C   UNL A   1      38.729  32.951  31.924  1.00  0.00     0.074 A 
ATOM     16  C   UNL A   1      38.393  31.270  30.142  1.00  0.00     0.049 A 
ATOM     17  N   UNL A   1      39.814  32.490  32.494  1.00  0.00    -0.248 NA
ATOM     18  C   UNL A   1      38.208  34.184  32.534  1.00  0.00     0.031 C 
ATOM     19  C   UNL A   1      37.737  30.641  28.990  1.00  0.00     0.029 A 
ATOM     20  N   UNL A   1      39.452  30.444  30.410  1.00  0.00    -0.354 N 
ATOM     21  C   UNL A   1      40.116  33.382  33.514  1.00  0.00     0.074 A 
ATOM     22  C   UNL A   1      39.116  34.427  33.470  1.00  0.00     0.031 C 
ATOM     23  C   UNL A   1      38.378  29.504  28.685  1.00  0.00     0.029 A 
ATOM     24  C   UNL A   1      39.532  29.365  29.564  1.00  0.00     0.049 A 
ATOM     25  H   UNL A   1      40.095  30.608  31.138  1.00  0.00     0.167 HD
ATOM     26  C   UNL A   1      41.134  33.328  34.407  1.00  0.00     0.031 A 
ATOM     27  C   UNL A   1      40.445  28.382  29.484  1.00  0.00     0.031 A 
ATOM     28  C   UNL A   1      42.132  32.290  34.433  1.00  0.00     0.049 A 
ATOM     29  C   UNL A   1      41.592  28.381  30.452  1.00  0.00     0.074 A 
ATOM     30  C   UNL A   1      43.188  32.131  35.313  1.00  0.00     0.029 A 
ATOM     31  N   UNL A   1      42.204  31.238  33.531  1.00  0.00    -0.354 N 
ATOM     32  N   UNL A   1      41.841  29.210  31.436  1.00  0.00    -0.248 NA
ATOM     33  C   UNL A   1      42.582  27.309  30.297  1.00  0.00     0.031 C 
ATOM     34  C   UNL A   1      43.936  31.022  34.906  1.00  0.00     0.029 A 
ATOM     35  C   UNL A   1      43.304  30.446  33.816  1.00  0.00     0.049 A 
ATOM     36  H   UNL A   1      41.568  31.078  32.798  1.00  0.00     0.167 HD
ATOM     37  C   UNL A   1      43.003  28.745  32.036  1.00  0.00     0.074 A 
ATOM     38  C   UNL A   1      43.394  27.550  31.315  1.00  0.00     0.031 C 
ATOM     39  C   UNL A   1      43.683  29.261  33.087  1.00  0.00     0.031 A 
BRANCH  26  40
ATOM     40  C   UNL A   1      41.242  34.445  35.410  1.00  0.00    -0.014 A 
ATOM     41  C   UNL A   1      42.005  35.595  35.148  1.00  0.00     0.009 A 
ATOM     42  C   UNL A   1      40.527  34.368  36.616  1.00  0.00     0.009 A 
ATOM     43  C   UNL A   1      42.076  36.626  36.088  1.00  0.00     0.001 A 
ATOM     44  C   UNL A   1      40.576  35.414  37.540  1.00  0.00     0.001 A 
ATOM     45  C   UNL A   1      41.356  36.538  37.279  1.00  0.00     0.000 A 
ENDBRANCH  26  40
BRANCH  27  46
ATOM     46  C   UNL A   1      40.321  27.336  28.436  1.00  0.00    -0.014 A 
ATOM     47  C   UNL A   1      40.936  27.496  27.186  1.00  0.00     0.009 A 
ATOM     48  C   UNL A   1      39.586  26.165  28.685  1.00  0.00     0.009 A 
ATOM     49  C   UNL A   1      40.795  26.519  26.199  1.00  0.00     0.001 A 
ATOM     50  C   UNL A   1      39.477  25.173  27.710  1.00  0.00     0.001 A 
ATOM     51  C   UNL A   1      40.072  25.356  26.463  1.00  0.00     0.000 A 
ENDBRANCH  27  46
BRANCH  39  52
ATOM     52  C   UNL A   1      44.901  28.509  33.547  1.00  0.00    -0.014 A 
ATOM     53  C   UNL A   1      44.813  27.486  34.502  1.00  0.00     0.009 A 
ATOM     54  C   UNL A   1      46.153  28.816  32.991  1.00  0.00     0.009 A 
ATOM     55  C   UNL A   1      45.962  26.811  34.921  1.00  0.00     0.001 A 
ATOM     56  C   UNL A   1      47.294  28.117  33.385  1.00  0.00     0.001 A 
ATOM     57  C   UNL A   1      47.200  27.122  34.358  1.00  0.00     0.000 A 
ENDBRANCH  39  52
ENDBRANCH  13  14
ENDBRANCH   6   8
ENDBRANCH   3   4
ENDBRANCH   2   3
ENDBRANCH   1   2
BRANCH   1  58
ATOM     58  C   UNL A   1      32.161  29.837  26.960  1.00  0.00     0.002 C 
BRANCH  58  59
ATOM     59  C   UNL A   1      31.653  28.396  26.984  1.00  0.00     0.021 C 
BRANCH  59  60
ATOM     60  C   UNL A   1      32.690  27.379  26.548  1.00  0.00     0.116 C 
BRANCH  60  61
ATOM     61  N   UNL A   1      33.177  27.553  25.208  1.00  0.00    -0.351 N 
ATOM     62  C   UNL A   1      32.464  27.552  24.041  1.00  0.00     0.283 C 
ATOM     63  H   UNL A   1      34.147  27.689  25.118  1.00  0.00     0.163 HD
ATOM     64  O   UNL A   1      33.075  27.943  23.037  1.00  0.00    -0.268 OA
BRANCH  62  65
ATOM     65  C   UNL A   1      30.979  27.077  23.939  1.00  0.00     0.306 C 
BRANCH  65  66
ATOM     66  C   UNL A   1      30.022  28.104  23.318  1.00  0.00     0.023 A 
ATOM     67  C   UNL A   1      30.411  29.243  22.599  1.00  0.00     0.011 A 
ATOM     68  C   UNL A   1      28.635  27.901  23.472  1.00  0.00     0.056 A 
ATOM     69  C   UNL A   1      29.481  30.134  22.054  1.00  0.00     0.004 A 
ATOM     70  C   UNL A   1      27.709  28.781  22.911  1.00  0.00     0.116 A 
ATOM     71  C   UNL A   1      28.121  29.902  22.206  1.00  0.00     0.046 A 
BRANCH  70  72
ATOM     72  O   UNL A   1      26.385  28.496  23.070  1.00  0.00    -0.508 OA
ATOM     73  H   UNL A   1      26.077  27.620  22.950  1.00  0.00     0.293 HD
ENDBRANCH  70  72
ENDBRANCH  65  66
BRANCH  65  74
ATOM     74  N   UNL A   1      30.802  25.620  23.717  1.00  0.00    -0.312 N 
ATOM     75  C   UNL A   1      31.337  25.102  22.458  1.00  0.00     0.325 C 
ATOM     76  C   UNL A   1      30.967  24.628  24.762  1.00  0.00     0.325 C 
ATOM     77  H   UNL A   1      29.787  25.717  23.702  1.00  0.00     0.349 HD
ATOM     78  C   UNL A   1      32.788  24.582  22.529  1.00  0.00     0.324 C 
ATOM     79  C   UNL A   1      32.383  24.040  24.934  1.00  0.00     0.324 C 
ATOM     80  N   UNL A   1      33.195  23.829  23.729  1.00  0.00    -0.323 N 
ATOM     81  H   UNL A   1      34.069  24.275  24.007  1.00  0.00     0.348 HD
BRANCH  80  82
ATOM     82  C   UNL A   1      33.574  22.443  23.453  1.00  0.00     0.184 C 
ATOM     83  C   UNL A   1      34.315  21.784  24.636  1.00  0.00     0.065 C 
ATOM     84  C   UNL A   1      32.398  21.515  23.113  1.00  0.00     0.065 C 
ATOM     85  C   UNL A   1      33.720  20.390  24.763  1.00  0.00     0.006 C 
ATOM     86  C   UNL A   1      32.290  20.540  24.275  1.00  0.00     0.006 C 
ENDBRANCH  80  82
ENDBRANCH  65  74
ENDBRANCH  62  65
ENDBRANCH  60  61
ENDBRANCH  59  60
ENDBRANCH  58  59
ENDBRANCH   1  58
TORSDOF 17
ENDMDL
MODEL 2
REMARK VINA RESULT:     -11.7      1.412      4.023
REMARK SMILES O=C(NCCCCCCNC(=O)[C@@H](c1cccc(O)c1)[NH+]1CC[NH+](C2CCCC2)CC1)c1ccc(-c2c3nc(c(-c4ccccc4)c4ccc([nH]4)c(-c4ccccc4)c4nc(c(-c5ccccc5)c5ccc2[nH]5)C=C4)C=C3)cc1
REMARK SMILES IDX 6 1 5 2 4 3 3 4 1 5 2 6 32 8 33 9 79 10 34 11 78 12 35 13
REMARK SMILES IDX 36 14 37 15 72 16 38 17 77 18 71 19 73 20 39 21 76 22 70 23
REMARK SMILES IDX 69 24 40 26 62 27 47 28 61 29 48 30 51 31 60 32 74 33 49 34
REMARK SMILES IDX 50 35 59 37 75 38 52 39 41 40 42 41 46 42 43 43 45 44 44 45
REMARK SMILES IDX 63 46 64 47 68 48 65 49 67 50 66 51 53 52 54 53 58 54 55 55
REMARK SMILES IDX 57 56 56 57 7 58 8 59 9 60 10 61 11 62 12 64 13 65 14 66
REMARK SMILES IDX 15 67 20 68 16 69 18 70 17 71 19 72 21 74 22 75 31 76 23 78
REMARK SMILES IDX 30 79 24 80 25 82 26 83 29 84 27 85 28 86
REMARK H PARENT 3 7 73 25 51 36 10 63 19 73 21 77 24 81
REMARK Flexibility Score: inf
ROOT
ATOM      1  C   UNL A   1      31.403  30.674  26.011  1.00  0.00     0.002 C 
ENDROOT
BRANCH   1   2
ATOM      2  C   UNL A   1      31.310  32.126  26.488  1.00  0.00     0.021 C 
BRANCH   2   3
ATOM      3  C   UNL A   1      32.560  32.638  27.191  1.00  0.00     0.116 C 
BRANCH   3   4
ATOM      4  N   UNL A   1      32.414  34.017  27.626  1.00  0.00    -0.352 N 
ATOM      5  O   UNL A   1      32.674  35.792  28.992  1.00  0.00    -0.269 OA
ATOM      6  C   UNL A   1      33.080  34.702  28.610  1.00  0.00     0.251 C 
ATOM      7  H   UNL A   1      31.734  34.539  27.140  1.00  0.00     0.163 HD
BRANCH   6   8
ATOM      8  C   UNL A   1      34.291  34.110  29.208  1.00  0.00     0.039 A 
ATOM      9  C   UNL A   1      34.187  33.260  30.312  1.00  0.00     0.014 A 
ATOM     10  C   UNL A   1      35.539  34.383  28.640  1.00  0.00     0.014 A 
ATOM     11  C   UNL A   1      35.337  32.791  30.929  1.00  0.00     0.010 A 
ATOM     12  C   UNL A   1      36.688  33.830  29.205  1.00  0.00     0.010 A 
ATOM     13  C   UNL A   1      36.597  33.043  30.365  1.00  0.00    -0.014 A 
BRANCH  13  14
ATOM     14  C   UNL A   1      37.791  32.395  30.952  1.00  0.00     0.031 A 
ATOM     15  C   UNL A   1      38.417  32.909  32.215  1.00  0.00     0.074 A 
ATOM     16  C   UNL A   1      38.298  31.311  30.332  1.00  0.00     0.049 A 
ATOM     17  N   UNL A   1      39.457  32.448  32.862  1.00  0.00    -0.248 NA
ATOM     18  C   UNL A   1      37.806  34.098  32.830  1.00  0.00     0.031 C 
ATOM     19  C   UNL A   1      37.769  30.724  29.095  1.00  0.00     0.029 A 
ATOM     20  N   UNL A   1      39.351  30.500  30.659  1.00  0.00    -0.354 N 
ATOM     21  C   UNL A   1      39.638  33.295  33.947  1.00  0.00     0.074 A 
ATOM     22  C   UNL A   1      38.616  34.316  33.858  1.00  0.00     0.031 C 
ATOM     23  C   UNL A   1      38.470  29.621  28.798  1.00  0.00     0.029 A 
ATOM     24  C   UNL A   1      39.540  29.466  29.774  1.00  0.00     0.049 A 
ATOM     25  H   UNL A   1      39.918  30.643  31.451  1.00  0.00     0.167 HD
ATOM     26  C   UNL A   1      40.569  33.223  34.928  1.00  0.00     0.031 A 
ATOM     27  C   UNL A   1      40.486  28.512  29.734  1.00  0.00     0.031 A 
ATOM     28  C   UNL A   1      41.591  32.209  34.998  1.00  0.00     0.049 A 
ATOM     29  C   UNL A   1      41.537  28.491  30.804  1.00  0.00     0.074 A 
ATOM     30  C   UNL A   1      42.565  32.034  35.966  1.00  0.00     0.029 A 
ATOM     31  N   UNL A   1      41.777  31.206  34.059  1.00  0.00    -0.354 N 
ATOM     32  N   UNL A   1      41.669  29.276  31.846  1.00  0.00    -0.248 NA
ATOM     33  C   UNL A   1      42.568  27.453  30.693  1.00  0.00     0.031 C 
ATOM     34  C   UNL A   1      43.380  30.965  35.579  1.00  0.00     0.029 A 
ATOM     35  C   UNL A   1      42.869  30.428  34.408  1.00  0.00     0.049 A 
ATOM     36  H   UNL A   1      41.216  31.067  33.262  1.00  0.00     0.167 HD
ATOM     37  C   UNL A   1      42.784  28.811  32.529  1.00  0.00     0.074 A 
ATOM     38  C   UNL A   1      43.275  27.663  31.793  1.00  0.00     0.031 C 
ATOM     39  C   UNL A   1      43.349  29.291  33.663  1.00  0.00     0.031 A 
BRANCH  26  40
ATOM     40  C   UNL A   1      40.552  34.291  35.988  1.00  0.00    -0.014 A 
ATOM     41  C   UNL A   1      41.307  35.467  35.858  1.00  0.00     0.009 A 
ATOM     42  C   UNL A   1      39.724  34.140  37.113  1.00  0.00     0.009 A 
ATOM     43  C   UNL A   1      41.261  36.452  36.847  1.00  0.00     0.001 A 
ATOM     44  C   UNL A   1      39.656  35.140  38.085  1.00  0.00     0.001 A 
ATOM     45  C   UNL A   1      40.431  36.290  37.956  1.00  0.00     0.000 A 
ENDBRANCH  26  40
BRANCH  27  46
ATOM     46  C   UNL A   1      40.489  27.517  28.631  1.00  0.00    -0.014 A 
ATOM     47  C   UNL A   1      39.785  26.310  28.751  1.00  0.00     0.009 A 
ATOM     48  C   UNL A   1      41.196  27.774  27.445  1.00  0.00     0.009 A 
ATOM     49  C   UNL A   1      39.813  25.370  27.718  1.00  0.00     0.001 A 
ATOM     50  C   UNL A   1      41.192  26.849  26.399  1.00  0.00     0.001 A 
ATOM     51  C   UNL A   1      40.510  25.642  26.542  1.00  0.00     0.000 A 
ENDBRANCH  27  46
BRANCH  39  52
ATOM     52  C   UNL A   1      44.540  28.547  34.199  1.00  0.00    -0.014 A 
ATOM     53  C   UNL A   1      44.394  27.466  35.080  1.00  0.00     0.009 A 
ATOM     54  C   UNL A   1      45.830  28.922  33.791  1.00  0.00     0.009 A 
ATOM     55  C   UNL A   1      45.517  26.800  35.573  1.00  0.00     0.001 A 
ATOM     56  C   UNL A   1      46.949  28.233  34.257  1.00  0.00     0.001 A 
ATOM     57  C   UNL A   1      46.794  27.180  35.156  1.00  0.00     0.000 A 
ENDBRANCH  39  52
ENDBRANCH  13  14
ENDBRANCH   6   8
ENDBRANCH   3   4
ENDBRANCH   2   3
ENDBRANCH   1   2
BRANCH   1  58
ATOM     58  C   UNL A   1      32.671  29.919  26.437  1.00  0.00     0.002 C 
BRANCH  58  59
ATOM     59  C   UNL A   1      32.438  28.703  27.333  1.00  0.00     0.021 C 
BRANCH  59  60
ATOM     60  C   UNL A   1      32.624  27.378  26.618  1.00  0.00     0.116 C 
BRANCH  60  61
ATOM     61  N   UNL A   1      31.587  26.415  26.858  1.00  0.00    -0.351 N 
ATOM     62  C   UNL A   1      31.414  25.192  26.269  1.00  0.00     0.283 C 
ATOM     63  H   UNL A   1      30.915  26.666  27.531  1.00  0.00     0.163 HD
ATOM     64  O   UNL A   1      30.575  24.453  26.803  1.00  0.00    -0.268 OA
BRANCH  62  65
ATOM     65  C   UNL A   1      32.191  24.731  24.995  1.00  0.00     0.306 C 
BRANCH  65  66
ATOM     66  C   UNL A   1      32.797  23.324  25.091  1.00  0.00     0.023 A 
ATOM     67  C   UNL A   1      32.720  22.339  24.098  1.00  0.00     0.011 A 
ATOM     68  C   UNL A   1      33.492  22.977  26.268  1.00  0.00     0.056 A 
ATOM     69  C   UNL A   1      33.303  21.077  24.252  1.00  0.00     0.004 A 
ATOM     70  C   UNL A   1      34.090  21.724  26.413  1.00  0.00     0.116 A 
ATOM     71  C   UNL A   1      33.996  20.767  25.413  1.00  0.00     0.046 A 
BRANCH  70  72
ATOM     72  O   UNL A   1      34.778  21.477  27.563  1.00  0.00    -0.508 OA
ATOM     73  H   UNL A   1      35.389  22.108  27.888  1.00  0.00     0.293 HD
ENDBRANCH  70  72
ENDBRANCH  65  66
BRANCH  65  74
ATOM     74  N   UNL A   1      31.661  25.261  23.714  1.00  0.00    -0.312 N 
ATOM     75  C   UNL A   1      30.206  25.227  23.568  1.00  0.00     0.325 C 
ATOM     76  C   UNL A   1      32.190  26.441  23.059  1.00  0.00     0.325 C 
ATOM     77  H   UNL A   1      32.125  24.523  23.185  1.00  0.00     0.349 HD
ATOM     78  C   UNL A   1      29.475  26.508  24.022  1.00  0.00     0.324 C 
ATOM     79  C   UNL A   1      31.540  27.788  23.440  1.00  0.00     0.324 C 
ATOM     80  N   UNL A   1      30.096  27.808  23.709  1.00  0.00    -0.323 N 
ATOM     81  H   UNL A   1      30.075  28.304  24.599  1.00  0.00     0.348 HD
BRANCH  80  82
ATOM     82  C   UNL A   1      29.295  28.643  22.815  1.00  0.00     0.184 C 
ATOM     83  C   UNL A   1      27.785  28.566  23.126  1.00  0.00     0.065 C 
ATOM     84  C   UNL A   1      29.663  30.135  22.836  1.00  0.00     0.065 C 
ATOM     85  C   UNL A   1      27.280  30.000  23.049  1.00  0.00     0.006 C 
ATOM     86  C   UNL A   1      28.472  30.846  23.461  1.00  0.00     0.006 C 
ENDBRANCH  80  82
ENDBRANCH  65  74
ENDBRANCH  62  65
ENDBRANCH  60  61
ENDBRANCH  59  60
ENDBRANCH  58  59
ENDBRANCH   1  58
TORSDOF 17
ENDMDL
MODEL 3
REMARK VINA RESULT:     -11.6      1.281      6.058
REMARK SMILES O=C(NCCCCCCNC(=O)[C@@H](c1cccc(O)c1)[NH+]1CC[NH+](C2CCCC2)CC1)c1ccc(-c2c3nc(c(-c4ccccc4)c4ccc([nH]4)c(-c4ccccc4)c4nc(c(-c5ccccc5)c5ccc2[nH]5)C=C4)C=C3)cc1
REMARK SMILES IDX 6 1 5 2 4 3 3 4 1 5 2 6 32 8 33 9 79 10 34 11 78 12 35 13
REMARK SMILES IDX 36 14 37 15 72 16 38 17 77 18 71 19 73 20 39 21 76 22 70 23
REMARK SMILES IDX 69 24 40 26 62 27 47 28 61 29 48 30 51 31 60 32 74 33 49 34
REMARK SMILES IDX 50 35 59 37 75 38 52 39 41 40 42 41 46 42 43 43 45 44 44 45
REMARK SMILES IDX 63 46 64 47 68 48 65 49 67 50 66 51 53 52 54 53 58 54 55 55
REMARK SMILES IDX 57 56 56 57 7 58 8 59 9 60 10 61 11 62 12 64 13 65 14 66
REMARK SMILES IDX 15 67 20 68 16 69 18 70 17 71 19 72 21 74 22 75 31 76 23 78
REMARK SMILES IDX 30 79 24 80 25 82 26 83 29 84 27 85 28 86
REMARK H PARENT 3 7 73 25 51 36 10 63 19 73 21 77 24 81
REMARK Flexibility Score: inf
ROOT
ATOM      1  C   UNL A   1      31.357  30.944  25.997  1.00  0.00     0.002 C 
ENDROOT
BRANCH   1   2
ATOM      2  C   UNL A   1      31.256  32.375  26.532  1.00  0.00     0.021 C 
BRANCH   2   3
ATOM      3  C   UNL A   1      32.502  32.864  27.257  1.00  0.00     0.116 C 
BRANCH   3   4
ATOM      4  N   UNL A   1      32.367  34.241  27.704  1.00  0.00    -0.352 N 
ATOM      5  O   UNL A   1      32.637  36.001  29.086  1.00  0.00    -0.269 OA
ATOM      6  C   UNL A   1      33.035  34.911  28.696  1.00  0.00     0.251 C 
ATOM      7  H   UNL A   1      31.694  34.773  27.220  1.00  0.00     0.163 HD
BRANCH   6   8
ATOM      8  C   UNL A   1      34.238  34.302  29.295  1.00  0.00     0.039 A 
ATOM      9  C   UNL A   1      34.130  33.515  30.443  1.00  0.00     0.014 A 
ATOM     10  C   UNL A   1      35.479  34.496  28.683  1.00  0.00     0.014 A 
ATOM     11  C   UNL A   1      35.277  33.032  31.056  1.00  0.00     0.010 A 
ATOM     12  C   UNL A   1      36.621  33.927  29.248  1.00  0.00     0.010 A 
ATOM     13  C   UNL A   1      36.530  33.205  30.449  1.00  0.00    -0.014 A 
BRANCH  13  14
ATOM     14  C   UNL A   1      37.714  32.541  31.040  1.00  0.00     0.031 A 
ATOM     15  C   UNL A   1      38.322  31.323  30.410  1.00  0.00     0.074 A 
ATOM     16  C   UNL A   1      38.249  33.071  32.158  1.00  0.00     0.049 A 
ATOM     17  N   UNL A   1      39.364  30.633  30.798  1.00  0.00    -0.248 NA
ATOM     18  C   UNL A   1      37.678  30.805  29.193  1.00  0.00     0.031 C 
ATOM     19  C   UNL A   1      37.738  34.254  32.858  1.00  0.00     0.029 A 
ATOM     20  N   UNL A   1      39.345  32.701  32.891  1.00  0.00    -0.354 N 
ATOM     21  C   UNL A   1      39.492  29.592  29.888  1.00  0.00     0.074 A 
ATOM     22  C   UNL A   1      38.404  29.724  28.942  1.00  0.00     0.031 C 
ATOM     23  C   UNL A   1      38.547  34.540  33.887  1.00  0.00     0.029 A 
ATOM     24  C   UNL A   1      39.585  33.521  33.967  1.00  0.00     0.049 A 
ATOM     25  H   UNL A   1      39.906  31.923  32.669  1.00  0.00     0.167 HD
ATOM     26  C   UNL A   1      40.433  28.618  29.846  1.00  0.00     0.031 A 
ATOM     27  C   UNL A   1      40.521  33.449  34.929  1.00  0.00     0.031 A 
ATOM     28  C   UNL A   1      41.503  28.488  30.802  1.00  0.00     0.049 A 
ATOM     29  C   UNL A   1      41.516  32.327  34.886  1.00  0.00     0.074 A 
ATOM     30  C   UNL A   1      42.523  27.552  30.832  1.00  0.00     0.029 A 
ATOM     31  N   UNL A   1      41.686  29.312  31.902  1.00  0.00    -0.354 N 
ATOM     32  N   UNL A   1      41.647  31.374  33.995  1.00  0.00    -0.248 NA
ATOM     33  C   UNL A   1      42.492  32.272  35.981  1.00  0.00     0.031 C 
ATOM     34  C   UNL A   1      43.284  27.769  31.985  1.00  0.00     0.029 A 
ATOM     35  C   UNL A   1      42.784  28.886  32.634  1.00  0.00     0.049 A 
ATOM     36  H   UNL A   1      41.121  30.085  32.130  1.00  0.00     0.167 HD
ATOM     37  C   UNL A   1      42.736  30.620  34.408  1.00  0.00     0.074 A 
ATOM     38  C   UNL A   1      43.241  31.241  35.617  1.00  0.00     0.031 C 
ATOM     39  C   UNL A   1      43.270  29.513  33.838  1.00  0.00     0.031 A 
BRANCH  26  40
ATOM     40  C   UNL A   1      40.329  27.592  28.750  1.00  0.00    -0.014 A 
ATOM     41  C   UNL A   1      39.582  26.415  28.916  1.00  0.00     0.009 A 
ATOM     42  C   UNL A   1      40.946  27.833  27.511  1.00  0.00     0.009 A 
ATOM     43  C   UNL A   1      39.486  25.485  27.877  1.00  0.00     0.001 A 
ATOM     44  C   UNL A   1      40.822  26.916  26.465  1.00  0.00     0.001 A 
ATOM     45  C   UNL A   1      40.100  25.740  26.651  1.00  0.00     0.000 A 
ENDBRANCH  26  40
BRANCH  27  46
ATOM     46  C   UNL A   1      40.542  34.456  36.020  1.00  0.00    -0.014 A 
ATOM     47  C   UNL A   1      39.822  34.245  37.205  1.00  0.00     0.009 A 
ATOM     48  C   UNL A   1      41.291  35.637  35.883  1.00  0.00     0.009 A 
ATOM     49  C   UNL A   1      39.829  35.208  38.217  1.00  0.00     0.001 A 
ATOM     50  C   UNL A   1      41.325  36.581  36.911  1.00  0.00     0.001 A 
ATOM     51  C   UNL A   1      40.585  36.371  38.072  1.00  0.00     0.000 A 
ENDBRANCH  27  46
BRANCH  39  52
ATOM     52  C   UNL A   1      44.490  28.928  34.494  1.00  0.00    -0.014 A 
ATOM     53  C   UNL A   1      45.781  29.370  34.170  1.00  0.00     0.009 A 
ATOM     54  C   UNL A   1      44.337  27.935  35.475  1.00  0.00     0.009 A 
ATOM     55  C   UNL A   1      46.897  28.801  34.786  1.00  0.00     0.001 A 
ATOM     56  C   UNL A   1      45.452  27.393  36.115  1.00  0.00     0.001 A 
ATOM     57  C   UNL A   1      46.731  27.818  35.762  1.00  0.00     0.000 A 
ENDBRANCH  39  52
ENDBRANCH  13  14
ENDBRANCH   6   8
ENDBRANCH   3   4
ENDBRANCH   2   3
ENDBRANCH   1   2
BRANCH   1  58
ATOM     58  C   UNL A   1      32.341  30.029  26.740  1.00  0.00     0.002 C 
BRANCH  58  59
ATOM     59  C   UNL A   1      31.748  28.723  27.269  1.00  0.00     0.021 C 
BRANCH  59  60
ATOM     60  C   UNL A   1      31.649  27.633  26.219  1.00  0.00     0.116 C 
BRANCH  60  61
ATOM     61  N   UNL A   1      30.838  26.509  26.593  1.00  0.00    -0.351 N 
ATOM     62  C   UNL A   1      30.348  25.513  25.793  1.00  0.00     0.283 C 
ATOM     63  H   UNL A   1      30.604  26.447  27.547  1.00  0.00     0.163 HD
ATOM     64  O   UNL A   1      29.864  24.538  26.384  1.00  0.00    -0.268 OA
BRANCH  62  65
ATOM     65  C   UNL A   1      30.364  25.576  24.233  1.00  0.00     0.306 C 
BRANCH  65  66
ATOM     66  C   UNL A   1      29.753  26.853  23.638  1.00  0.00     0.023 A 
ATOM     67  C   UNL A   1      28.398  27.207  23.700  1.00  0.00     0.011 A 
ATOM     68  C   UNL A   1      30.609  27.754  22.974  1.00  0.00     0.056 A 
ATOM     69  C   UNL A   1      27.912  28.393  23.140  1.00  0.00     0.004 A 
ATOM     70  C   UNL A   1      30.126  28.946  22.433  1.00  0.00     0.116 A 
ATOM     71  C   UNL A   1      28.779  29.272  22.507  1.00  0.00     0.046 A 
BRANCH  70  72
ATOM     72  O   UNL A   1      31.021  29.785  21.840  1.00  0.00    -0.508 OA
ATOM     73  H   UNL A   1      31.863  29.465  21.583  1.00  0.00     0.293 HD
ENDBRANCH  70  72
ENDBRANCH  65  66
BRANCH  65  74
ATOM     74  N   UNL A   1      31.519  24.899  23.592  1.00  0.00    -0.312 N 
ATOM     75  C   UNL A   1      32.836  25.446  23.920  1.00  0.00     0.325 C 
ATOM     76  C   UNL A   1      31.615  23.461  23.433  1.00  0.00     0.325 C 
ATOM     77  H   UNL A   1      31.202  25.175  22.663  1.00  0.00     0.349 HD
ATOM     78  C   UNL A   1      33.536  24.784  25.126  1.00  0.00     0.324 C 
ATOM     79  C   UNL A   1      32.291  22.686  24.584  1.00  0.00     0.324 C 
ATOM     80  N   UNL A   1      33.421  23.322  25.275  1.00  0.00    -0.323 N 
ATOM     81  H   UNL A   1      33.140  23.202  26.248  1.00  0.00     0.348 HD
BRANCH  80  82
ATOM     82  C   UNL A   1      34.699  22.618  25.183  1.00  0.00     0.184 C 
ATOM     83  C   UNL A   1      35.293  22.651  23.759  1.00  0.00     0.065 C 
ATOM     84  C   UNL A   1      35.794  23.158  26.118  1.00  0.00     0.065 C 
ATOM     85  C   UNL A   1      36.775  22.945  23.943  1.00  0.00     0.006 C 
ATOM     86  C   UNL A   1      36.843  23.779  25.209  1.00  0.00     0.006 C 
ENDBRANCH  80  82
ENDBRANCH  65  74
ENDBRANCH  62  65
ENDBRANCH  60  61
ENDBRANCH  59  60
ENDBRANCH  58  59
ENDBRANCH   1  58
TORSDOF 17
ENDMDL
