MODEL 1
REMARK VINA RESULT:     -10.6      0.000      0.000
REMARK SMILES C[NH2+][C@@]1(C(=O)NCCCCCCNC(=O)c2ccc(-c3c4nc(c(-c5ccccc5)c5ccc([nH]5)c(-c5ccccc5)c5nc(c(-c6ccccc6)c6ccc3[nH]6)C=C5)C=C4)cc2)CCC[C@H]([N@H+](C)C2CC[NH+](C)CC2)C1
REMARK SMILES IDX 9 1 8 2 7 3 6 4 4 5 5 6 3 8 64 9 77 10 65 11 67 12 66 13
REMARK SMILES IDX 2 14 1 15 68 18 69 19 70 21 71 22 76 23 72 24 75 25 73 26
REMARK SMILES IDX 74 27 10 29 11 30 12 31 13 32 14 33 15 35 16 36 17 37 63 38
REMARK SMILES IDX 18 39 62 40 19 41 20 42 21 43 56 44 22 45 61 46 55 47 57 48
REMARK SMILES IDX 23 49 60 50 54 51 53 52 24 54 46 55 31 56 45 57 32 58 35 59
REMARK SMILES IDX 44 60 58 61 33 62 34 63 43 65 59 66 36 67 25 68 26 69 30 70
REMARK SMILES IDX 27 71 29 72 28 73 47 74 48 75 52 76 49 77 51 78 50 79 37 80
REMARK SMILES IDX 38 81 42 82 39 83 41 84 40 85
REMARK H PARENT 6 7 2 16 2 17 68 20 73 28 13 34 57 53 35 64
REMARK Flexibility Score: inf
ROOT
ATOM      1  C   UNL A   1      34.061  28.719  27.105  1.00  0.00     0.002 C 
ENDROOT
BRANCH   1   2
ATOM      2  C   UNL A   1      32.797  27.823  26.988  1.00  0.00     0.021 C 
BRANCH   2   3
ATOM      3  C   UNL A   1      32.730  26.435  26.311  1.00  0.00     0.116 C 
BRANCH   3   4
ATOM      4  N   UNL A   1      31.671  25.475  26.560  1.00  0.00    -0.351 N 
ATOM      5  C   UNL A   1      31.751  24.104  26.726  1.00  0.00     0.281 C 
ATOM      6  O   UNL A   1      30.806  23.633  27.389  1.00  0.00    -0.268 OA
ATOM      7  H   UNL A   1      30.765  25.855  26.622  1.00  0.00     0.163 HD
BRANCH   5   8
ATOM      8  C   UNL A   1      32.754  23.042  25.993  1.00  0.00     0.181 C 
ATOM      9  C   UNL A   1      34.259  23.525  26.062  1.00  0.00     0.079 C 
ATOM     10  C   UNL A   1      32.442  22.513  24.588  1.00  0.00     0.144 C 
ATOM     11  C   UNL A   1      35.073  23.794  24.788  1.00  0.00     0.013 C 
ATOM     12  C   UNL A   1      32.957  23.387  23.406  1.00  0.00     0.190 C 
ATOM     13  C   UNL A   1      34.471  23.394  23.461  1.00  0.00     0.065 C 
BRANCH   8  14
ATOM     14  N   UNL A   1      32.837  21.890  26.975  1.00  0.00    -0.336 N 
ATOM     15  C   UNL A   1      34.131  21.540  27.515  1.00  0.00     0.331 C 
ATOM     16  H   UNL A   1      32.234  22.120  27.763  1.00  0.00     0.346 HD
ATOM     17  H   UNL A   1      32.566  21.073  26.426  1.00  0.00     0.346 HD
ENDBRANCH   8  14
BRANCH  12  18
ATOM     18  N   UNL A   1      32.143  24.608  23.265  1.00  0.00    -0.332 N 
ATOM     19  C   UNL A   1      30.730  24.114  23.166  1.00  0.00     0.333 C 
ATOM     20  H   UNL A   1      32.473  25.142  24.069  1.00  0.00     0.348 HD
BRANCH  18  21
ATOM     21  C   UNL A   1      32.337  25.710  22.266  1.00  0.00     0.195 C 
ATOM     22  C   UNL A   1      33.428  26.793  22.310  1.00  0.00     0.126 C 
ATOM     23  C   UNL A   1      31.029  26.544  22.135  1.00  0.00     0.126 C 
ATOM     24  C   UNL A   1      33.188  27.922  23.319  1.00  0.00     0.268 C 
ATOM     25  C   UNL A   1      30.840  27.677  23.146  1.00  0.00     0.268 C 
ATOM     26  N   UNL A   1      31.935  28.635  23.063  1.00  0.00    -0.337 N 
ATOM     27  C   UNL A   1      31.740  29.689  24.067  1.00  0.00     0.332 C 
ATOM     28  H   UNL A   1      31.964  29.067  22.138  1.00  0.00     0.347 HD
ENDBRANCH  18  21
ENDBRANCH  12  18
ENDBRANCH   5   8
ENDBRANCH   3   4
ENDBRANCH   2   3
ENDBRANCH   1   2
BRANCH   1  29
ATOM     29  C   UNL A   1      34.134  30.263  27.221  1.00  0.00     0.002 C 
BRANCH  29  30
ATOM     30  C   UNL A   1      32.961  31.163  27.644  1.00  0.00     0.021 C 
BRANCH  30  31
ATOM     31  C   UNL A   1      32.413  32.244  26.726  1.00  0.00     0.116 C 
BRANCH  31  32
ATOM     32  N   UNL A   1      32.283  33.543  27.357  1.00  0.00    -0.352 N 
ATOM     33  C   UNL A   1      33.020  34.213  28.307  1.00  0.00     0.251 C 
ATOM     34  H   UNL A   1      31.503  34.052  27.040  1.00  0.00     0.163 HD
ATOM     35  O   UNL A   1      32.564  35.277  28.726  1.00  0.00    -0.269 OA
BRANCH  33  36
ATOM     36  C   UNL A   1      34.329  33.744  28.858  1.00  0.00     0.039 A 
ATOM     37  C   UNL A   1      35.464  33.865  28.036  1.00  0.00     0.014 A 
ATOM     38  C   UNL A   1      34.467  33.073  30.073  1.00  0.00     0.014 A 
ATOM     39  C   UNL A   1      36.704  33.331  28.423  1.00  0.00     0.010 A 
ATOM     40  C   UNL A   1      35.722  32.609  30.497  1.00  0.00     0.010 A 
ATOM     41  C   UNL A   1      36.848  32.697  29.663  1.00  0.00    -0.014 A 
BRANCH  41  42
ATOM     42  C   UNL A   1      38.125  32.037  30.062  1.00  0.00     0.031 A 
ATOM     43  C   UNL A   1      39.069  32.742  31.008  1.00  0.00     0.074 A 
ATOM     44  C   UNL A   1      38.474  30.838  29.555  1.00  0.00     0.049 A 
ATOM     45  N   UNL A   1      40.271  32.394  31.398  1.00  0.00    -0.248 NA
ATOM     46  C   UNL A   1      38.611  34.024  31.564  1.00  0.00     0.031 C 
ATOM     47  C   UNL A   1      37.676  30.049  28.617  1.00  0.00     0.029 A 
ATOM     48  N   UNL A   1      39.603  30.079  29.752  1.00  0.00    -0.354 N 
ATOM     49  C   UNL A   1      40.725  33.432  32.205  1.00  0.00     0.074 A 
ATOM     50  C   UNL A   1      39.686  34.438  32.219  1.00  0.00     0.031 C 
ATOM     51  C   UNL A   1      38.332  28.910  28.333  1.00  0.00     0.029 A 
ATOM     52  C   UNL A   1      39.609  28.903  29.041  1.00  0.00     0.049 A 
ATOM     53  H   UNL A   1      40.339  30.352  30.347  1.00  0.00     0.167 HD
ATOM     54  C   UNL A   1      41.892  33.539  32.886  1.00  0.00     0.031 A 
ATOM     55  C   UNL A   1      40.537  27.929  28.962  1.00  0.00     0.031 A 
ATOM     56  C   UNL A   1      42.909  32.523  32.917  1.00  0.00     0.049 A 
ATOM     57  C   UNL A   1      41.810  28.050  29.754  1.00  0.00     0.074 A 
ATOM     58  C   UNL A   1      44.095  32.509  33.633  1.00  0.00     0.029 A 
ATOM     59  N   UNL A   1      42.854  31.334  32.210  1.00  0.00    -0.354 N 
ATOM     60  N   UNL A   1      42.202  29.022  30.542  1.00  0.00    -0.248 NA
ATOM     61  C   UNL A   1      42.763  26.934  29.654  1.00  0.00     0.031 C 
ATOM     62  C   UNL A   1      44.773  31.323  33.331  1.00  0.00     0.029 A 
ATOM     63  C   UNL A   1      43.989  30.582  32.462  1.00  0.00     0.049 A 
ATOM     64  H   UNL A   1      42.116  31.062  31.616  1.00  0.00     0.167 HD
ATOM     65  C   UNL A   1      43.433  28.625  31.050  1.00  0.00     0.074 A 
ATOM     66  C   UNL A   1      43.716  27.318  30.492  1.00  0.00     0.031 C 
ATOM     67  C   UNL A   1      44.254  29.284  31.903  1.00  0.00     0.031 A 
BRANCH  54  68
ATOM     68  C   UNL A   1      42.133  34.812  33.654  1.00  0.00    -0.014 A 
ATOM     69  C   UNL A   1      42.829  35.889  33.082  1.00  0.00     0.009 A 
ATOM     70  C   UNL A   1      41.634  34.943  34.959  1.00  0.00     0.009 A 
ATOM     71  C   UNL A   1      43.059  37.053  33.819  1.00  0.00     0.001 A 
ATOM     72  C   UNL A   1      41.841  36.119  35.683  1.00  0.00     0.001 A 
ATOM     73  C   UNL A   1      42.564  37.169  35.117  1.00  0.00     0.000 A 
ENDBRANCH  54  68
BRANCH  55  74
ATOM     74  C   UNL A   1      40.287  26.735  28.113  1.00  0.00    -0.014 A 
ATOM     75  C   UNL A   1      40.816  26.663  26.815  1.00  0.00     0.009 A 
ATOM     76  C   UNL A   1      39.526  25.659  28.595  1.00  0.00     0.009 A 
ATOM     77  C   UNL A   1      40.571  25.547  26.010  1.00  0.00     0.001 A 
ATOM     78  C   UNL A   1      39.305  24.534  27.798  1.00  0.00     0.001 A 
ATOM     79  C   UNL A   1      39.821  24.482  26.505  1.00  0.00     0.000 A 
ENDBRANCH  55  74
BRANCH  67  80
ATOM     80  C   UNL A   1      45.522  28.591  32.309  1.00  0.00    -0.014 A 
ATOM     81  C   UNL A   1      45.562  27.745  33.428  1.00  0.00     0.009 A 
ATOM     82  C   UNL A   1      46.681  28.752  31.534  1.00  0.00     0.009 A 
ATOM     83  C   UNL A   1      46.747  27.094  33.778  1.00  0.00     0.001 A 
ATOM     84  C   UNL A   1      47.858  28.082  31.874  1.00  0.00     0.001 A 
ATOM     85  C   UNL A   1      47.892  27.261  32.999  1.00  0.00     0.000 A 
ENDBRANCH  67  80
ENDBRANCH  41  42
ENDBRANCH  33  36
ENDBRANCH  31  32
ENDBRANCH  30  31
ENDBRANCH  29  30
ENDBRANCH   1  29
TORSDOF 16
ENDMDL
MODEL 2
REMARK VINA RESULT:     -10.5      0.598      5.921
REMARK SMILES C[NH2+][C@@]1(C(=O)NCCCCCCNC(=O)c2ccc(-c3c4nc(c(-c5ccccc5)c5ccc([nH]5)c(-c5ccccc5)c5nc(c(-c6ccccc6)c6ccc3[nH]6)C=C5)C=C4)cc2)CCC[C@H]([N@H+](C)C2CC[NH+](C)CC2)C1
REMARK SMILES IDX 9 1 8 2 7 3 6 4 4 5 5 6 3 8 64 9 77 10 65 11 67 12 66 13
REMARK SMILES IDX 2 14 1 15 68 18 69 19 70 21 71 22 76 23 72 24 75 25 73 26
REMARK SMILES IDX 74 27 10 29 11 30 12 31 13 32 14 33 15 35 16 36 17 37 63 38
REMARK SMILES IDX 18 39 62 40 19 41 20 42 21 43 56 44 22 45 61 46 55 47 57 48
REMARK SMILES IDX 23 49 60 50 54 51 53 52 24 54 46 55 31 56 45 57 32 58 35 59
REMARK SMILES IDX 44 60 58 61 33 62 34 63 43 65 59 66 36 67 25 68 26 69 30 70
REMARK SMILES IDX 27 71 29 72 28 73 47 74 48 75 52 76 49 77 51 78 50 79 37 80
REMARK SMILES IDX 38 81 42 82 39 83 41 84 40 85
REMARK H PARENT 6 7 2 16 2 17 68 20 73 28 13 34 57 53 35 64
REMARK Flexibility Score: inf
ROOT
ATOM      1  C   UNL A   1      32.262  28.817  27.668  1.00  0.00     0.002 C 
ENDROOT
BRANCH   1   2
ATOM      2  C   UNL A   1      31.325  27.780  26.988  1.00  0.00     0.021 C 
BRANCH   2   3
ATOM      3  C   UNL A   1      31.751  26.402  26.433  1.00  0.00     0.116 C 
BRANCH   3   4
ATOM      4  N   UNL A   1      30.916  25.219  26.505  1.00  0.00    -0.351 N 
ATOM      5  C   UNL A   1      31.280  23.898  26.704  1.00  0.00     0.281 C 
ATOM      6  O   UNL A   1      30.367  23.206  27.197  1.00  0.00    -0.268 OA
ATOM      7  H   UNL A   1      29.951  25.377  26.399  1.00  0.00     0.163 HD
BRANCH   5   8
ATOM      8  C   UNL A   1      32.614  23.115  26.178  1.00  0.00     0.181 C 
ATOM      9  C   UNL A   1      33.936  23.885  26.583  1.00  0.00     0.079 C 
ATOM     10  C   UNL A   1      32.717  22.634  24.726  1.00  0.00     0.144 C 
ATOM     11  C   UNL A   1      34.918  24.402  25.522  1.00  0.00     0.013 C 
ATOM     12  C   UNL A   1      33.267  23.674  23.706  1.00  0.00     0.190 C 
ATOM     13  C   UNL A   1      34.701  23.983  24.086  1.00  0.00     0.065 C 
BRANCH   8  14
ATOM     14  N   UNL A   1      32.736  21.937  27.125  1.00  0.00    -0.336 N 
ATOM     15  C   UNL A   1      34.059  21.470  27.473  1.00  0.00     0.331 C 
ATOM     16  H   UNL A   1      32.271  22.197  27.994  1.00  0.00     0.346 HD
ATOM     17  H   UNL A   1      32.323  21.159  26.612  1.00  0.00     0.346 HD
ENDBRANCH   8  14
BRANCH  12  18
ATOM     18  N   UNL A   1      32.259  24.713  23.424  1.00  0.00    -0.332 N 
ATOM     19  C   UNL A   1      30.996  23.952  23.147  1.00  0.00     0.333 C 
ATOM     20  H   UNL A   1      32.365  25.300  24.251  1.00  0.00     0.348 HD
BRANCH  18  21
ATOM     21  C   UNL A   1      32.372  25.832  22.432  1.00  0.00     0.195 C 
ATOM     22  C   UNL A   1      33.182  27.126  22.612  1.00  0.00     0.126 C 
ATOM     23  C   UNL A   1      30.955  26.361  22.065  1.00  0.00     0.126 C 
ATOM     24  C   UNL A   1      32.544  28.175  23.531  1.00  0.00     0.268 C 
ATOM     25  C   UNL A   1      30.364  27.425  22.994  1.00  0.00     0.268 C 
ATOM     26  N   UNL A   1      31.226  28.598  23.054  1.00  0.00    -0.337 N 
ATOM     27  C   UNL A   1      30.647  29.583  23.978  1.00  0.00     0.332 C 
ATOM     28  H   UNL A   1      31.312  29.027  22.131  1.00  0.00     0.347 HD
ENDBRANCH  18  21
ENDBRANCH  12  18
ENDBRANCH   5   8
ENDBRANCH   3   4
ENDBRANCH   2   3
ENDBRANCH   1   2
BRANCH   1  29
ATOM     29  C   UNL A   1      32.637  30.238  27.175  1.00  0.00     0.002 C 
BRANCH  29  30
ATOM     30  C   UNL A   1      31.646  31.406  27.044  1.00  0.00     0.021 C 
BRANCH  30  31
ATOM     31  C   UNL A   1      32.050  32.731  26.417  1.00  0.00     0.116 C 
BRANCH  31  32
ATOM     32  N   UNL A   1      32.065  33.843  27.347  1.00  0.00    -0.352 N 
ATOM     33  C   UNL A   1      32.928  34.231  28.347  1.00  0.00     0.251 C 
ATOM     34  H   UNL A   1      31.296  34.448  27.241  1.00  0.00     0.163 HD
ATOM     35  O   UNL A   1      32.585  35.181  29.050  1.00  0.00    -0.269 OA
BRANCH  33  36
ATOM     36  C   UNL A   1      34.246  33.585  28.634  1.00  0.00     0.039 A 
ATOM     37  C   UNL A   1      34.326  32.734  29.752  1.00  0.00     0.014 A 
ATOM     38  C   UNL A   1      35.425  33.880  27.950  1.00  0.00     0.014 A 
ATOM     39  C   UNL A   1      35.552  32.193  30.170  1.00  0.00     0.010 A 
ATOM     40  C   UNL A   1      36.638  33.277  28.317  1.00  0.00     0.010 A 
ATOM     41  C   UNL A   1      36.725  32.457  29.453  1.00  0.00    -0.014 A 
BRANCH  41  42
ATOM     42  C   UNL A   1      38.057  31.975  29.923  1.00  0.00     0.031 A 
ATOM     43  C   UNL A   1      38.609  30.669  29.401  1.00  0.00     0.074 A 
ATOM     44  C   UNL A   1      38.757  32.664  30.846  1.00  0.00     0.049 A 
ATOM     45  N   UNL A   1      39.691  30.020  29.756  1.00  0.00    -0.248 NA
ATOM     46  C   UNL A   1      37.821  29.988  28.362  1.00  0.00     0.031 C 
ATOM     47  C   UNL A   1      38.343  33.927  31.457  1.00  0.00     0.029 A 
ATOM     48  N   UNL A   1      39.966  32.388  31.440  1.00  0.00    -0.354 N 
ATOM     49  C   UNL A   1      39.687  28.841  29.019  1.00  0.00     0.074 A 
ATOM     50  C   UNL A   1      38.479  28.846  28.225  1.00  0.00     0.031 C 
ATOM     51  C   UNL A   1      39.288  34.325  32.325  1.00  0.00     0.029 A 
ATOM     52  C   UNL A   1      40.358  33.332  32.359  1.00  0.00     0.049 A 
ATOM     53  H   UNL A   1      40.501  31.589  31.228  1.00  0.00     0.167 HD
ATOM     54  C   UNL A   1      40.609  27.847  28.990  1.00  0.00     0.031 A 
ATOM     55  C   UNL A   1      41.451  33.391  33.145  1.00  0.00     0.031 A 
ATOM     56  C   UNL A   1      41.836  27.857  29.738  1.00  0.00     0.049 A 
ATOM     57  C   UNL A   1      42.479  32.296  33.071  1.00  0.00     0.074 A 
ATOM     58  C   UNL A   1      42.865  26.930  29.724  1.00  0.00     0.029 A 
ATOM     59  N   UNL A   1      42.206  28.852  30.628  1.00  0.00    -0.354 N 
ATOM     60  N   UNL A   1      42.476  31.209  32.337  1.00  0.00    -0.248 NA
ATOM     61  C   UNL A   1      43.668  32.443  33.924  1.00  0.00     0.031 C 
ATOM     62  C   UNL A   1      43.844  27.349  30.631  1.00  0.00     0.029 A 
ATOM     63  C   UNL A   1      43.442  28.557  31.178  1.00  0.00     0.049 A 
ATOM     64  H   UNL A   1      41.670  29.651  30.839  1.00  0.00     0.167 HD
ATOM     65  C   UNL A   1      43.669  30.556  32.622  1.00  0.00     0.074 A 
ATOM     66  C   UNL A   1      44.377  31.375  33.584  1.00  0.00     0.031 C 
ATOM     67  C   UNL A   1      44.135  29.383  32.131  1.00  0.00     0.031 A 
BRANCH  54  68
ATOM     68  C   UNL A   1      40.316  26.656  28.117  1.00  0.00    -0.014 A 
ATOM     69  C   UNL A   1      39.534  25.585  28.579  1.00  0.00     0.009 A 
ATOM     70  C   UNL A   1      40.811  26.616  26.804  1.00  0.00     0.009 A 
ATOM     71  C   UNL A   1      39.292  24.480  27.760  1.00  0.00     0.001 A 
ATOM     72  C   UNL A   1      40.544  25.523  25.977  1.00  0.00     0.001 A 
ATOM     73  C   UNL A   1      39.794  24.451  26.460  1.00  0.00     0.000 A 
ENDBRANCH  54  68
BRANCH  55  74
ATOM     74  C   UNL A   1      41.644  34.547  34.059  1.00  0.00    -0.014 A 
ATOM     75  C   UNL A   1      41.150  34.504  35.372  1.00  0.00     0.009 A 
ATOM     76  C   UNL A   1      42.325  35.696  33.628  1.00  0.00     0.009 A 
ATOM     77  C   UNL A   1      41.319  35.595  36.229  1.00  0.00     0.001 A 
ATOM     78  C   UNL A   1      42.515  36.774  34.495  1.00  0.00     0.001 A 
ATOM     79  C   UNL A   1      42.006  36.726  35.792  1.00  0.00     0.000 A 
ENDBRANCH  55  74
BRANCH  67  80
ATOM     80  C   UNL A   1      45.487  28.930  32.600  1.00  0.00    -0.014 A 
ATOM     81  C   UNL A   1      46.658  29.324  31.935  1.00  0.00     0.009 A 
ATOM     82  C   UNL A   1      45.591  28.133  33.751  1.00  0.00     0.009 A 
ATOM     83  C   UNL A   1      47.907  28.908  32.399  1.00  0.00     0.001 A 
ATOM     84  C   UNL A   1      46.843  27.737  34.225  1.00  0.00     0.001 A 
ATOM     85  C   UNL A   1      47.998  28.118  33.545  1.00  0.00     0.000 A 
ENDBRANCH  67  80
ENDBRANCH  41  42
ENDBRANCH  33  36
ENDBRANCH  31  32
ENDBRANCH  30  31
ENDBRANCH  29  30
ENDBRANCH   1  29
TORSDOF 16
ENDMDL
MODEL 3
REMARK VINA RESULT:     -10.4      1.600      6.617
REMARK SMILES C[NH2+][C@@]1(C(=O)NCCCCCCNC(=O)c2ccc(-c3c4nc(c(-c5ccccc5)c5ccc([nH]5)c(-c5ccccc5)c5nc(c(-c6ccccc6)c6ccc3[nH]6)C=C5)C=C4)cc2)CCC[C@H]([N@H+](C)C2CC[NH+](C)CC2)C1
REMARK SMILES IDX 9 1 8 2 7 3 6 4 4 5 5 6 3 8 64 9 77 10 65 11 67 12 66 13
REMARK SMILES IDX 2 14 1 15 68 18 69 19 70 21 71 22 76 23 72 24 75 25 73 26
REMARK SMILES IDX 74 27 10 29 11 30 12 31 13 32 14 33 15 35 16 36 17 37 63 38
REMARK SMILES IDX 18 39 62 40 19 41 20 42 21 43 56 44 22 45 61 46 55 47 57 48
REMARK SMILES IDX 23 49 60 50 54 51 53 52 24 54 46 55 31 56 45 57 32 58 35 59
REMARK SMILES IDX 44 60 58 61 33 62 34 63 43 65 59 66 36 67 25 68 26 69 30 70
REMARK SMILES IDX 27 71 29 72 28 73 47 74 48 75 52 76 49 77 51 78 50 79 37 80
REMARK SMILES IDX 38 81 42 82 39 83 41 84 40 85
REMARK H PARENT 6 7 2 16 2 17 68 20 73 28 13 34 57 53 35 64
REMARK Flexibility Score: inf
ROOT
ATOM      1  C   UNL A   1      31.830  29.309  27.297  1.00  0.00     0.002 C 
ENDROOT
BRANCH   1   2
ATOM      2  C   UNL A   1      32.951  28.235  27.242  1.00  0.00     0.021 C 
BRANCH   2   3
ATOM      3  C   UNL A   1      33.267  27.316  26.040  1.00  0.00     0.116 C 
BRANCH   3   4
ATOM      4  N   UNL A   1      33.828  27.796  24.792  1.00  0.00    -0.351 N 
ATOM      5  C   UNL A   1      33.183  28.189  23.633  1.00  0.00     0.281 C 
ATOM      6  O   UNL A   1      33.851  28.986  22.944  1.00  0.00    -0.268 OA
ATOM      7  H   UNL A   1      34.810  27.852  24.766  1.00  0.00     0.163 HD
BRANCH   5   8
ATOM      8  C   UNL A   1      31.818  27.585  22.967  1.00  0.00     0.181 C 
ATOM      9  C   UNL A   1      30.613  27.609  23.992  1.00  0.00     0.079 C 
ATOM     10  C   UNL A   1      31.839  26.245  22.222  1.00  0.00     0.144 C 
ATOM     11  C   UNL A   1      29.902  26.317  24.422  1.00  0.00     0.013 C 
ATOM     12  C   UNL A   1      31.638  24.977  23.102  1.00  0.00     0.190 C 
ATOM     13  C   UNL A   1      30.244  25.039  23.692  1.00  0.00     0.065 C 
BRANCH   8  14
ATOM     14  N   UNL A   1      31.352  28.688  22.038  1.00  0.00    -0.336 N 
ATOM     15  C   UNL A   1      30.200  29.471  22.426  1.00  0.00     0.331 C 
ATOM     16  H   UNL A   1      32.130  29.336  21.922  1.00  0.00     0.346 HD
ATOM     17  H   UNL A   1      31.049  28.197  21.197  1.00  0.00     0.346 HD
ENDBRANCH   8  14
BRANCH  12  18
ATOM     18  N   UNL A   1      32.846  24.696  23.900  1.00  0.00    -0.332 N 
ATOM     19  C   UNL A   1      33.975  24.759  22.914  1.00  0.00     0.333 C 
ATOM     20  H   UNL A   1      32.740  25.388  24.642  1.00  0.00     0.348 HD
BRANCH  18  21
ATOM     21  C   UNL A   1      33.072  23.530  24.814  1.00  0.00     0.195 C 
ATOM     22  C   UNL A   1      32.309  22.195  24.787  1.00  0.00     0.126 C 
ATOM     23  C   UNL A   1      32.924  23.981  26.297  1.00  0.00     0.126 C 
ATOM     24  C   UNL A   1      30.901  22.234  25.392  1.00  0.00     0.268 C 
ATOM     25  C   UNL A   1      31.505  23.982  26.870  1.00  0.00     0.268 C 
ATOM     26  N   UNL A   1      30.914  22.652  26.795  1.00  0.00    -0.337 N 
ATOM     27  C   UNL A   1      29.543  22.696  27.322  1.00  0.00     0.332 C 
ATOM     28  H   UNL A   1      31.455  21.988  27.351  1.00  0.00     0.347 HD
ENDBRANCH  18  21
ENDBRANCH  12  18
ENDBRANCH   5   8
ENDBRANCH   3   4
ENDBRANCH   2   3
ENDBRANCH   1   2
BRANCH   1  29
ATOM     29  C   UNL A   1      31.544  30.451  26.289  1.00  0.00     0.002 C 
BRANCH  29  30
ATOM     30  C   UNL A   1      31.572  31.948  26.636  1.00  0.00     0.021 C 
BRANCH  30  31
ATOM     31  C   UNL A   1      32.830  32.625  27.157  1.00  0.00     0.116 C 
BRANCH  31  32
ATOM     32  N   UNL A   1      32.594  33.920  27.765  1.00  0.00    -0.352 N 
ATOM     33  C   UNL A   1      33.214  34.622  28.773  1.00  0.00     0.251 C 
ATOM     34  H   UNL A   1      31.828  34.398  27.373  1.00  0.00     0.163 HD
ATOM     35  O   UNL A   1      32.682  35.669  29.141  1.00  0.00    -0.269 OA
BRANCH  33  36
ATOM     36  C   UNL A   1      34.483  34.205  29.446  1.00  0.00     0.039 A 
ATOM     37  C   UNL A   1      35.690  34.426  28.757  1.00  0.00     0.014 A 
ATOM     38  C   UNL A   1      34.533  33.492  30.643  1.00  0.00     0.014 A 
ATOM     39  C   UNL A   1      36.912  33.947  29.257  1.00  0.00     0.010 A 
ATOM     40  C   UNL A   1      35.761  33.083  31.185  1.00  0.00     0.010 A 
ATOM     41  C   UNL A   1      36.962  33.270  30.481  1.00  0.00    -0.014 A 
BRANCH  41  42
ATOM     42  C   UNL A   1      38.227  32.668  30.993  1.00  0.00     0.031 A 
ATOM     43  C   UNL A   1      38.772  31.412  30.354  1.00  0.00     0.074 A 
ATOM     44  C   UNL A   1      38.870  33.200  32.051  1.00  0.00     0.049 A 
ATOM     45  N   UNL A   1      39.793  30.670  30.711  1.00  0.00    -0.248 NA
ATOM     46  C   UNL A   1      38.052  30.905  29.175  1.00  0.00     0.031 C 
ATOM     47  C   UNL A   1      38.454  34.397  32.783  1.00  0.00     0.029 A 
ATOM     48  N   UNL A   1      40.011  32.793  32.702  1.00  0.00    -0.354 N 
ATOM     49  C   UNL A   1      39.807  29.594  29.830  1.00  0.00     0.074 A 
ATOM     50  C   UNL A   1      38.674  29.758  28.947  1.00  0.00     0.031 C 
ATOM     51  C   UNL A   1      39.334  34.636  33.770  1.00  0.00     0.029 A 
ATOM     52  C   UNL A   1      40.357  33.594  33.763  1.00  0.00     0.049 A 
ATOM     53  H   UNL A   1      40.531  32.001  32.433  1.00  0.00     0.167 HD
ATOM     54  C   UNL A   1      40.689  28.567  29.749  1.00  0.00     0.031 A 
ATOM     55  C   UNL A   1      41.379  33.501  34.637  1.00  0.00     0.031 A 
ATOM     56  C   UNL A   1      41.845  28.423  30.591  1.00  0.00     0.049 A 
ATOM     57  C   UNL A   1      42.367  32.374  34.507  1.00  0.00     0.074 A 
ATOM     58  C   UNL A   1      42.835  27.455  30.541  1.00  0.00     0.029 A 
ATOM     59  N   UNL A   1      42.174  29.279  31.628  1.00  0.00    -0.354 N 
ATOM     60  N   UNL A   1      42.385  31.388  33.642  1.00  0.00    -0.248 NA
ATOM     61  C   UNL A   1      43.481  32.354  35.467  1.00  0.00     0.031 C 
ATOM     62  C   UNL A   1      43.745  27.708  31.572  1.00  0.00     0.029 A 
ATOM     63  C   UNL A   1      43.345  28.857  32.234  1.00  0.00     0.049 A 
ATOM     64  H   UNL A   1      41.653  30.071  31.895  1.00  0.00     0.167 HD
ATOM     65  C   UNL A   1      43.522  30.646  33.938  1.00  0.00     0.074 A 
ATOM     66  C   UNL A   1      44.175  31.302  35.052  1.00  0.00     0.031 C 
ATOM     67  C   UNL A   1      43.984  29.522  33.339  1.00  0.00     0.031 A 
BRANCH  54  68
ATOM     68  C   UNL A   1      40.427  27.510  28.709  1.00  0.00    -0.014 A 
ATOM     69  C   UNL A   1      39.667  26.367  29.004  1.00  0.00     0.009 A 
ATOM     70  C   UNL A   1      40.930  27.673  27.409  1.00  0.00     0.009 A 
ATOM     71  C   UNL A   1      39.454  25.388  28.031  1.00  0.00     0.001 A 
ATOM     72  C   UNL A   1      40.691  26.707  26.429  1.00  0.00     0.001 A 
ATOM     73  C   UNL A   1      39.964  25.560  26.744  1.00  0.00     0.000 A 
ENDBRANCH  54  68
BRANCH  55  74
ATOM     74  C   UNL A   1      41.537  34.523  35.705  1.00  0.00    -0.014 A 
ATOM     75  C   UNL A   1      42.290  35.684  35.470  1.00  0.00     0.009 A 
ATOM     76  C   UNL A   1      40.934  34.348  36.960  1.00  0.00     0.009 A 
ATOM     77  C   UNL A   1      42.450  36.640  36.476  1.00  0.00     0.001 A 
ATOM     78  C   UNL A   1      41.076  35.317  37.955  1.00  0.00     0.001 A 
ATOM     79  C   UNL A   1      41.839  36.458  37.715  1.00  0.00     0.000 A 
ENDBRANCH  55  74
BRANCH  67  80
ATOM     80  C   UNL A   1      45.270  28.947  33.855  1.00  0.00    -0.014 A 
ATOM     81  C   UNL A   1      45.282  28.015  34.904  1.00  0.00     0.009 A 
ATOM     82  C   UNL A   1      46.485  29.309  33.251  1.00  0.00     0.009 A 
ATOM     83  C   UNL A   1      46.488  27.477  35.356  1.00  0.00     0.001 A 
ATOM     84  C   UNL A   1      47.687  28.752  33.691  1.00  0.00     0.001 A 
ATOM     85  C   UNL A   1      47.688  27.843  34.747  1.00  0.00     0.000 A 
ENDBRANCH  67  80
ENDBRANCH  41  42
ENDBRANCH  33  36
ENDBRANCH  31  32
ENDBRANCH  30  31
ENDBRANCH  29  30
ENDBRANCH   1  29
TORSDOF 16
ENDMDL
