MODEL 1
REMARK VINA RESULT:     -11.9      0.000      0.000
REMARK SMILES Cc1cc(NC(=O)c2ccc(Br)cc2N)ccc1C(=O)NCCCCCCNC(=O)c1ccc(-c2c3nc(c(-c4ccccc4)c4ccc([nH]4)c(-c4ccccc4)c4nc(c(-c5ccccc5)c5ccc2[nH]5)C=C4)C=C3)cc1
REMARK SMILES IDX 24 1 23 2 22 3 21 4 19 5 20 6 18 8 1 9 2 10 3 11 4 12 17 13
REMARK SMILES IDX 16 14 5 15 6 16 7 18 8 19 9 20 14 21 10 22 13 23 11 24 12 25
REMARK SMILES IDX 15 26 25 29 26 30 27 31 28 32 29 33 30 35 31 36 32 37 78 38
REMARK SMILES IDX 33 39 77 40 34 41 35 42 36 43 71 44 37 45 76 46 70 47 72 48
REMARK SMILES IDX 38 49 75 50 69 51 68 52 39 54 61 55 46 56 60 57 47 58 50 59
REMARK SMILES IDX 59 60 73 61 48 62 49 63 58 65 74 66 51 67 40 68 41 69 45 70
REMARK SMILES IDX 42 71 44 72 43 73 62 74 63 75 67 76 64 77 66 78 65 79 52 80
REMARK SMILES IDX 53 81 57 82 54 83 56 84 55 85
REMARK H PARENT 21 7 5 17 15 27 15 28 28 34 72 53 50 64
REMARK Flexibility Score: inf
ROOT
ATOM      1  C   UNL A   1      34.231  28.208  26.390  1.00  0.00     0.002 C 
ENDROOT
BRANCH   1   2
ATOM      2  C   UNL A   1      33.947  27.685  24.977  1.00  0.00     0.021 C 
BRANCH   2   3
ATOM      3  C   UNL A   1      33.659  28.755  23.912  1.00  0.00     0.116 C 
BRANCH   3   4
ATOM      4  N   UNL A   1      32.242  29.056  23.881  1.00  0.00    -0.352 N 
ATOM      5  C   UNL A   1      31.104  28.294  23.852  1.00  0.00     0.251 C 
ATOM      6  O   UNL A   1      30.036  28.911  23.803  1.00  0.00    -0.269 OA
ATOM      7  H   UNL A   1      32.055  30.023  23.881  1.00  0.00     0.163 HD
BRANCH   5   8
ATOM      8  C   UNL A   1      31.046  26.804  23.981  1.00  0.00     0.042 A 
ATOM      9  C   UNL A   1      31.674  26.104  21.579  1.00  0.00     0.045 C 
ATOM     10  C   UNL A   1      31.336  25.828  23.011  1.00  0.00    -0.036 A 
ATOM     11  C   UNL A   1      31.251  24.461  23.366  1.00  0.00     0.030 A 
ATOM     12  C   UNL A   1      30.776  24.051  24.610  1.00  0.00     0.041 A 
ATOM     13  C   UNL A   1      30.506  26.365  25.212  1.00  0.00     0.016 A 
ATOM     14  C   UNL A   1      30.331  25.010  25.510  1.00  0.00     0.027 A 
BRANCH  12  15
ATOM     15  N   UNL A   1      30.713  22.702  24.993  1.00  0.00    -0.322 N 
ATOM     16  C   UNL A   1      31.739  21.792  25.160  1.00  0.00     0.257 C 
ATOM     17  H   UNL A   1      29.809  22.355  25.168  1.00  0.00     0.170 HD
ATOM     18  O   UNL A   1      31.493  20.586  25.178  1.00  0.00    -0.269 OA
BRANCH  16  19
ATOM     19  C   UNL A   1      33.135  22.248  25.407  1.00  0.00     0.063 A 
ATOM     20  C   UNL A   1      33.993  22.267  24.295  1.00  0.00     0.017 A 
ATOM     21  C   UNL A   1      33.613  22.615  26.686  1.00  0.00     0.045 A 
ATOM     22  C   UNL A   1      35.319  22.680  24.435  1.00  0.00     0.016 A 
ATOM     23  C   UNL A   1      34.950  23.018  26.804  1.00  0.00     0.042 A 
ATOM     24  C   UNL A   1      35.787  23.063  25.688  1.00  0.00     0.020 A 
ATOM     25  Br  UNL A   1      37.582  23.620  25.890  1.00  0.00    -0.051 Br
BRANCH  21  26
ATOM     26  N   UNL A   1      32.879  22.447  27.859  1.00  0.00    -0.398 N 
ATOM     27  H   UNL A   1      32.027  22.924  27.979  1.00  0.00     0.156 HD
ATOM     28  H   UNL A   1      33.213  21.850  28.567  1.00  0.00     0.156 HD
ENDBRANCH  21  26
ENDBRANCH  16  19
ENDBRANCH  12  15
ENDBRANCH   5   8
ENDBRANCH   3   4
ENDBRANCH   2   3
ENDBRANCH   1   2
BRANCH   1  29
ATOM     29  C   UNL A   1      33.013  28.618  27.229  1.00  0.00     0.002 C 
BRANCH  29  30
ATOM     30  C   UNL A   1      32.748  30.121  27.345  1.00  0.00     0.021 C 
BRANCH  30  31
ATOM     31  C   UNL A   1      34.004  30.986  27.316  1.00  0.00     0.116 C 
BRANCH  31  32
ATOM     32  N   UNL A   1      34.331  31.594  28.600  1.00  0.00    -0.352 N 
ATOM     33  C   UNL A   1      35.324  31.269  29.500  1.00  0.00     0.251 C 
ATOM     34  H   UNL A   1      33.757  32.349  28.864  1.00  0.00     0.163 HD
ATOM     35  O   UNL A   1      35.420  31.889  30.558  1.00  0.00    -0.269 OA
BRANCH  33  36
ATOM     36  C   UNL A   1      36.352  30.263  29.142  1.00  0.00     0.039 A 
ATOM     37  C   UNL A   1      36.647  29.265  30.079  1.00  0.00     0.014 A 
ATOM     38  C   UNL A   1      37.126  30.390  27.991  1.00  0.00     0.014 A 
ATOM     39  C   UNL A   1      37.848  28.566  29.980  1.00  0.00     0.010 A 
ATOM     40  C   UNL A   1      38.354  29.758  27.933  1.00  0.00     0.010 A 
ATOM     41  C   UNL A   1      38.742  28.898  28.964  1.00  0.00    -0.014 A 
BRANCH  41  42
ATOM     42  C   UNL A   1      40.143  28.496  28.978  1.00  0.00     0.031 A 
ATOM     43  C   UNL A   1      40.571  27.211  28.399  1.00  0.00     0.074 A 
ATOM     44  C   UNL A   1      41.066  29.325  29.512  1.00  0.00     0.049 A 
ATOM     45  N   UNL A   1      41.645  26.587  28.748  1.00  0.00    -0.248 NA
ATOM     46  C   UNL A   1      39.779  26.496  27.406  1.00  0.00     0.031 C 
ATOM     47  C   UNL A   1      42.519  29.228  29.422  1.00  0.00     0.029 A 
ATOM     48  N   UNL A   1      40.842  30.310  30.472  1.00  0.00    -0.354 N 
ATOM     49  C   UNL A   1      41.831  25.556  27.861  1.00  0.00     0.074 A 
ATOM     50  C   UNL A   1      40.609  25.495  27.090  1.00  0.00     0.031 C 
ATOM     51  C   UNL A   1      43.059  29.909  30.445  1.00  0.00     0.029 A 
ATOM     52  C   UNL A   1      41.971  30.332  31.310  1.00  0.00     0.049 A 
ATOM     53  H   UNL A   1      40.044  30.882  30.549  1.00  0.00     0.167 HD
ATOM     54  C   UNL A   1      43.043  24.940  27.788  1.00  0.00     0.031 A 
ATOM     55  C   UNL A   1      41.852  30.023  32.635  1.00  0.00     0.031 A 
ATOM     56  C   UNL A   1      43.988  25.440  28.783  1.00  0.00     0.049 A 
ATOM     57  C   UNL A   1      42.634  28.800  33.072  1.00  0.00     0.074 A 
ATOM     58  C   UNL A   1      45.077  26.296  28.743  1.00  0.00     0.029 A 
ATOM     59  N   UNL A   1      43.696  25.257  30.125  1.00  0.00    -0.354 N 
ATOM     60  N   UNL A   1      43.298  28.017  32.267  1.00  0.00    -0.248 NA
ATOM     61  C   UNL A   1      42.627  28.301  34.450  1.00  0.00     0.031 C 
ATOM     62  C   UNL A   1      45.435  26.623  30.084  1.00  0.00     0.029 A 
ATOM     63  C   UNL A   1      44.573  25.955  30.931  1.00  0.00     0.049 A 
ATOM     64  H   UNL A   1      42.956  24.700  30.460  1.00  0.00     0.167 HD
ATOM     65  C   UNL A   1      43.746  26.927  32.964  1.00  0.00     0.074 A 
ATOM     66  C   UNL A   1      43.307  27.149  34.327  1.00  0.00     0.031 C 
ATOM     67  C   UNL A   1      44.400  25.890  32.370  1.00  0.00     0.031 A 
BRANCH  54  68
ATOM     68  C   UNL A   1      43.436  24.033  26.650  1.00  0.00    -0.014 A 
ATOM     69  C   UNL A   1      43.165  22.655  26.733  1.00  0.00     0.009 A 
ATOM     70  C   UNL A   1      44.105  24.463  25.492  1.00  0.00     0.009 A 
ATOM     71  C   UNL A   1      43.625  21.749  25.770  1.00  0.00     0.001 A 
ATOM     72  C   UNL A   1      44.608  23.560  24.547  1.00  0.00     0.001 A 
ATOM     73  C   UNL A   1      44.377  22.199  24.692  1.00  0.00     0.000 A 
ENDBRANCH  54  68
BRANCH  55  74
ATOM     74  C   UNL A   1      40.541  30.430  33.220  1.00  0.00    -0.014 A 
ATOM     75  C   UNL A   1      40.293  31.803  33.429  1.00  0.00     0.009 A 
ATOM     76  C   UNL A   1      39.457  29.543  33.242  1.00  0.00     0.009 A 
ATOM     77  C   UNL A   1      38.987  32.285  33.534  1.00  0.00     0.001 A 
ATOM     78  C   UNL A   1      38.150  30.029  33.369  1.00  0.00     0.001 A 
ATOM     79  C   UNL A   1      37.914  31.400  33.478  1.00  0.00     0.000 A 
ENDBRANCH  55  74
BRANCH  67  80
ATOM     80  C   UNL A   1      44.908  24.694  33.119  1.00  0.00    -0.014 A 
ATOM     81  C   UNL A   1      44.107  23.570  33.368  1.00  0.00     0.009 A 
ATOM     82  C   UNL A   1      46.187  24.720  33.710  1.00  0.00     0.009 A 
ATOM     83  C   UNL A   1      44.586  22.497  34.130  1.00  0.00     0.001 A 
ATOM     84  C   UNL A   1      46.659  23.662  34.489  1.00  0.00     0.001 A 
ATOM     85  C   UNL A   1      45.860  22.544  34.690  1.00  0.00     0.000 A 
ENDBRANCH  67  80
ENDBRANCH  41  42
ENDBRANCH  33  36
ENDBRANCH  31  32
ENDBRANCH  30  31
ENDBRANCH  29  30
ENDBRANCH   1  29
TORSDOF 16
ENDMDL
MODEL 2
REMARK VINA RESULT:     -11.7      3.451      8.708
REMARK SMILES Cc1cc(NC(=O)c2ccc(Br)cc2N)ccc1C(=O)NCCCCCCNC(=O)c1ccc(-c2c3nc(c(-c4ccccc4)c4ccc([nH]4)c(-c4ccccc4)c4nc(c(-c5ccccc5)c5ccc2[nH]5)C=C4)C=C3)cc1
REMARK SMILES IDX 24 1 23 2 22 3 21 4 19 5 20 6 18 8 1 9 2 10 3 11 4 12 17 13
REMARK SMILES IDX 16 14 5 15 6 16 7 18 8 19 9 20 14 21 10 22 13 23 11 24 12 25
REMARK SMILES IDX 15 26 25 29 26 30 27 31 28 32 29 33 30 35 31 36 32 37 78 38
REMARK SMILES IDX 33 39 77 40 34 41 35 42 36 43 71 44 37 45 76 46 70 47 72 48
REMARK SMILES IDX 38 49 75 50 69 51 68 52 39 54 61 55 46 56 60 57 47 58 50 59
REMARK SMILES IDX 59 60 73 61 48 62 49 63 58 65 74 66 51 67 40 68 41 69 45 70
REMARK SMILES IDX 42 71 44 72 43 73 62 74 63 75 67 76 64 77 66 78 65 79 52 80
REMARK SMILES IDX 53 81 57 82 54 83 56 84 55 85
REMARK H PARENT 21 7 5 17 15 27 15 28 28 34 72 53 50 64
REMARK Flexibility Score: inf
ROOT
ATOM      1  C   UNL A   1      35.892  22.838  25.393  1.00  0.00     0.002 C 
ENDROOT
BRANCH   1   2
ATOM      2  C   UNL A   1      34.641  22.872  26.279  1.00  0.00     0.021 C 
BRANCH   2   3
ATOM      3  C   UNL A   1      34.490  21.707  27.271  1.00  0.00     0.116 C 
BRANCH   3   4
ATOM      4  N   UNL A   1      33.729  20.633  26.663  1.00  0.00    -0.352 N 
ATOM      5  C   UNL A   1      32.788  20.573  25.670  1.00  0.00     0.251 C 
ATOM      6  O   UNL A   1      32.323  19.456  25.427  1.00  0.00    -0.269 OA
ATOM      7  H   UNL A   1      33.935  19.751  27.050  1.00  0.00     0.163 HD
BRANCH   5   8
ATOM      8  C   UNL A   1      32.362  21.713  24.798  1.00  0.00     0.042 A 
ATOM      9  C   UNL A   1      30.436  22.685  26.210  1.00  0.00     0.045 C 
ATOM     10  C   UNL A   1      31.366  22.675  25.038  1.00  0.00    -0.036 A 
ATOM     11  C   UNL A   1      31.156  23.699  24.083  1.00  0.00     0.030 A 
ATOM     12  C   UNL A   1      31.825  23.713  22.860  1.00  0.00     0.041 A 
ATOM     13  C   UNL A   1      32.980  21.711  23.526  1.00  0.00     0.016 A 
ATOM     14  C   UNL A   1      32.687  22.670  22.552  1.00  0.00     0.027 A 
BRANCH  12  15
ATOM     15  N   UNL A   1      31.653  24.735  21.913  1.00  0.00    -0.322 N 
ATOM     16  C   UNL A   1      31.524  26.097  22.109  1.00  0.00     0.257 C 
ATOM     17  H   UNL A   1      31.621  24.439  20.974  1.00  0.00     0.170 HD
ATOM     18  O   UNL A   1      31.060  26.805  21.216  1.00  0.00    -0.269 OA
BRANCH  16  19
ATOM     19  C   UNL A   1      32.019  26.741  23.357  1.00  0.00     0.063 A 
ATOM     20  C   UNL A   1      33.397  26.637  23.610  1.00  0.00     0.017 A 
ATOM     21  C   UNL A   1      31.170  27.398  24.277  1.00  0.00     0.045 A 
ATOM     22  C   UNL A   1      33.948  27.211  24.757  1.00  0.00     0.016 A 
ATOM     23  C   UNL A   1      31.744  27.959  25.426  1.00  0.00     0.042 A 
ATOM     24  C   UNL A   1      33.119  27.877  25.653  1.00  0.00     0.020 A 
ATOM     25  Br  UNL A   1      33.853  28.655  27.213  1.00  0.00    -0.051 Br
BRANCH  21  26
ATOM     26  N   UNL A   1      29.780  27.382  24.187  1.00  0.00    -0.398 N 
ATOM     27  H   UNL A   1      29.241  27.038  24.934  1.00  0.00     0.156 HD
ATOM     28  H   UNL A   1      29.336  27.715  23.373  1.00  0.00     0.156 HD
ENDBRANCH  21  26
ENDBRANCH  16  19
ENDBRANCH  12  15
ENDBRANCH   5   8
ENDBRANCH   3   4
ENDBRANCH   2   3
ENDBRANCH   1   2
BRANCH   1  29
ATOM     29  C   UNL A   1      36.680  21.520  25.365  1.00  0.00     0.002 C 
BRANCH  29  30
ATOM     30  C   UNL A   1      38.196  21.636  25.535  1.00  0.00     0.021 C 
BRANCH  30  31
ATOM     31  C   UNL A   1      38.653  22.890  26.272  1.00  0.00     0.116 C 
BRANCH  31  32
ATOM     32  N   UNL A   1      40.100  22.987  26.430  1.00  0.00    -0.352 N 
ATOM     33  C   UNL A   1      40.880  24.081  26.741  1.00  0.00     0.251 C 
ATOM     34  H   UNL A   1      40.593  22.145  26.294  1.00  0.00     0.163 HD
ATOM     35  O   UNL A   1      42.104  23.965  26.798  1.00  0.00    -0.269 OA
BRANCH  33  36
ATOM     36  C   UNL A   1      40.244  25.362  27.129  1.00  0.00     0.039 A 
ATOM     37  C   UNL A   1      40.590  26.511  26.409  1.00  0.00     0.014 A 
ATOM     38  C   UNL A   1      39.459  25.467  28.276  1.00  0.00     0.014 A 
ATOM     39  C   UNL A   1      40.356  27.766  26.966  1.00  0.00     0.010 A 
ATOM     40  C   UNL A   1      39.298  26.705  28.870  1.00  0.00     0.010 A 
ATOM     41  C   UNL A   1      39.808  27.846  28.246  1.00  0.00    -0.014 A 
BRANCH  41  42
ATOM     42  C   UNL A   1      39.853  29.060  29.053  1.00  0.00     0.031 A 
ATOM     43  C   UNL A   1      38.799  30.083  28.945  1.00  0.00     0.074 A 
ATOM     44  C   UNL A   1      40.866  29.237  29.928  1.00  0.00     0.049 A 
ATOM     45  N   UNL A   1      38.969  31.325  29.251  1.00  0.00    -0.248 NA
ATOM     46  C   UNL A   1      37.469  29.788  28.426  1.00  0.00     0.031 C 
ATOM     47  C   UNL A   1      40.978  30.244  30.979  1.00  0.00     0.029 A 
ATOM     48  N   UNL A   1      42.133  28.661  29.861  1.00  0.00    -0.354 N 
ATOM     49  C   UNL A   1      37.736  31.927  29.234  1.00  0.00     0.074 A 
ATOM     50  C   UNL A   1      36.845  30.951  28.646  1.00  0.00     0.031 C 
ATOM     51  C   UNL A   1      42.276  30.404  31.283  1.00  0.00     0.029 A 
ATOM     52  C   UNL A   1      43.047  29.621  30.331  1.00  0.00     0.049 A 
ATOM     53  H   UNL A   1      42.348  27.755  29.544  1.00  0.00     0.167 HD
ATOM     54  C   UNL A   1      37.570  33.141  29.829  1.00  0.00     0.031 A 
ATOM     55  C   UNL A   1      44.012  30.117  29.503  1.00  0.00     0.031 A 
ATOM     56  C   UNL A   1      38.822  33.688  30.346  1.00  0.00     0.049 A 
ATOM     57  C   UNL A   1      43.917  31.608  29.242  1.00  0.00     0.074 A 
ATOM     58  C   UNL A   1      39.383  33.801  31.608  1.00  0.00     0.029 A 
ATOM     59  N   UNL A   1      39.835  33.986  29.450  1.00  0.00    -0.354 N 
ATOM     60  N   UNL A   1      42.954  32.377  29.669  1.00  0.00    -0.248 NA
ATOM     61  C   UNL A   1      44.855  32.326  28.373  1.00  0.00     0.031 C 
ATOM     62  C   UNL A   1      40.750  34.174  31.455  1.00  0.00     0.029 A 
ATOM     63  C   UNL A   1      41.010  34.298  30.104  1.00  0.00     0.049 A 
ATOM     64  H   UNL A   1      39.730  33.975  28.471  1.00  0.00     0.167 HD
ATOM     65  C   UNL A   1      43.092  33.623  29.120  1.00  0.00     0.074 A 
ATOM     66  C   UNL A   1      44.298  33.547  28.320  1.00  0.00     0.031 C 
ATOM     67  C   UNL A   1      42.184  34.620  29.315  1.00  0.00     0.031 A 
BRANCH  54  68
ATOM     68  C   UNL A   1      36.216  33.726  30.139  1.00  0.00    -0.014 A 
ATOM     69  C   UNL A   1      35.398  34.181  29.088  1.00  0.00     0.009 A 
ATOM     70  C   UNL A   1      35.704  33.890  31.436  1.00  0.00     0.009 A 
ATOM     71  C   UNL A   1      34.193  34.853  29.325  1.00  0.00     0.001 A 
ATOM     72  C   UNL A   1      34.522  34.600  31.684  1.00  0.00     0.001 A 
ATOM     73  C   UNL A   1      33.771  35.092  30.626  1.00  0.00     0.000 A 
ENDBRANCH  54  68
BRANCH  55  74
ATOM     74  C   UNL A   1      44.499  29.124  28.502  1.00  0.00    -0.014 A 
ATOM     75  C   UNL A   1      45.297  28.051  28.951  1.00  0.00     0.009 A 
ATOM     76  C   UNL A   1      43.916  29.038  27.231  1.00  0.00     0.009 A 
ATOM     77  C   UNL A   1      45.407  26.878  28.200  1.00  0.00     0.001 A 
ATOM     78  C   UNL A   1      44.046  27.869  26.472  1.00  0.00     0.001 A 
ATOM     79  C   UNL A   1      44.758  26.778  26.971  1.00  0.00     0.000 A 
ENDBRANCH  55  74
BRANCH  67  80
ATOM     80  C   UNL A   1      42.325  35.994  28.732  1.00  0.00    -0.014 A 
ATOM     81  C   UNL A   1      41.897  36.305  27.432  1.00  0.00     0.009 A 
ATOM     82  C   UNL A   1      43.017  36.996  29.441  1.00  0.00     0.009 A 
ATOM     83  C   UNL A   1      42.105  37.578  26.889  1.00  0.00     0.001 A 
ATOM     84  C   UNL A   1      43.246  38.260  28.894  1.00  0.00     0.001 A 
ATOM     85  C   UNL A   1      42.780  38.554  27.619  1.00  0.00     0.000 A 
ENDBRANCH  67  80
ENDBRANCH  41  42
ENDBRANCH  33  36
ENDBRANCH  31  32
ENDBRANCH  30  31
ENDBRANCH  29  30
ENDBRANCH   1  29
TORSDOF 16
ENDMDL
MODEL 3
REMARK VINA RESULT:     -11.6      1.665      2.219
REMARK SMILES Cc1cc(NC(=O)c2ccc(Br)cc2N)ccc1C(=O)NCCCCCCNC(=O)c1ccc(-c2c3nc(c(-c4ccccc4)c4ccc([nH]4)c(-c4ccccc4)c4nc(c(-c5ccccc5)c5ccc2[nH]5)C=C4)C=C3)cc1
REMARK SMILES IDX 24 1 23 2 22 3 21 4 19 5 20 6 18 8 1 9 2 10 3 11 4 12 17 13
REMARK SMILES IDX 16 14 5 15 6 16 7 18 8 19 9 20 14 21 10 22 13 23 11 24 12 25
REMARK SMILES IDX 15 26 25 29 26 30 27 31 28 32 29 33 30 35 31 36 32 37 78 38
REMARK SMILES IDX 33 39 77 40 34 41 35 42 36 43 71 44 37 45 76 46 70 47 72 48
REMARK SMILES IDX 38 49 75 50 69 51 68 52 39 54 61 55 46 56 60 57 47 58 50 59
REMARK SMILES IDX 59 60 73 61 48 62 49 63 58 65 74 66 51 67 40 68 41 69 45 70
REMARK SMILES IDX 42 71 44 72 43 73 62 74 63 75 67 76 64 77 66 78 65 79 52 80
REMARK SMILES IDX 53 81 57 82 54 83 56 84 55 85
REMARK H PARENT 21 7 5 17 15 27 15 28 28 34 72 53 50 64
REMARK Flexibility Score: inf
ROOT
ATOM      1  C   UNL A   1      31.669  28.644  24.650  1.00  0.00     0.002 C 
ENDROOT
BRANCH   1   2
ATOM      2  C   UNL A   1      31.437  28.842  23.147  1.00  0.00     0.021 C 
BRANCH   2   3
ATOM      3  C   UNL A   1      30.704  27.700  22.426  1.00  0.00     0.116 C 
BRANCH   3   4
ATOM      4  N   UNL A   1      31.627  26.978  21.572  1.00  0.00    -0.352 N 
ATOM      5  C   UNL A   1      32.566  26.005  21.789  1.00  0.00     0.251 C 
ATOM      6  O   UNL A   1      33.204  25.633  20.800  1.00  0.00    -0.269 OA
ATOM      7  H   UNL A   1      31.565  27.247  20.627  1.00  0.00     0.163 HD
BRANCH   5   8
ATOM      8  C   UNL A   1      32.803  25.291  23.083  1.00  0.00     0.042 A 
ATOM      9  C   UNL A   1      30.590  23.985  23.306  1.00  0.00     0.045 C 
ATOM     10  C   UNL A   1      31.970  24.368  23.740  1.00  0.00    -0.036 A 
ATOM     11  C   UNL A   1      32.416  23.778  24.947  1.00  0.00     0.030 A 
ATOM     12  C   UNL A   1      33.602  24.172  25.564  1.00  0.00     0.041 A 
ATOM     13  C   UNL A   1      33.968  25.720  23.759  1.00  0.00     0.016 A 
ATOM     14  C   UNL A   1      34.343  25.203  25.003  1.00  0.00     0.027 A 
BRANCH  12  15
ATOM     15  N   UNL A   1      34.077  23.579  26.744  1.00  0.00    -0.322 N 
ATOM     16  C   UNL A   1      34.041  22.254  27.133  1.00  0.00     0.257 C 
ATOM     17  H   UNL A   1      34.496  24.196  27.387  1.00  0.00     0.170 HD
ATOM     18  O   UNL A   1      34.200  21.956  28.316  1.00  0.00    -0.269 OA
BRANCH  16  19
ATOM     19  C   UNL A   1      33.899  21.164  26.127  1.00  0.00     0.063 A 
ATOM     20  C   UNL A   1      32.628  20.578  26.016  1.00  0.00     0.017 A 
ATOM     21  C   UNL A   1      34.974  20.698  25.337  1.00  0.00     0.045 A 
ATOM     22  C   UNL A   1      32.404  19.550  25.099  1.00  0.00     0.016 A 
ATOM     23  C   UNL A   1      34.728  19.658  24.429  1.00  0.00     0.042 A 
ATOM     24  C   UNL A   1      33.454  19.103  24.304  1.00  0.00     0.020 A 
ATOM     25  Br  UNL A   1      33.164  17.707  23.061  1.00  0.00    -0.051 Br
BRANCH  21  26
ATOM     26  N   UNL A   1      36.296  21.101  25.520  1.00  0.00    -0.398 N 
ATOM     27  H   UNL A   1      36.643  21.884  25.037  1.00  0.00     0.156 HD
ATOM     28  H   UNL A   1      36.882  20.602  26.134  1.00  0.00     0.156 HD
ENDBRANCH  21  26
ENDBRANCH  16  19
ENDBRANCH  12  15
ENDBRANCH   5   8
ENDBRANCH   3   4
ENDBRANCH   2   3
ENDBRANCH   1   2
BRANCH   1  29
ATOM     29  C   UNL A   1      33.039  29.071  25.196  1.00  0.00     0.002 C 
BRANCH  29  30
ATOM     30  C   UNL A   1      33.038  30.245  26.177  1.00  0.00     0.021 C 
BRANCH  30  31
ATOM     31  C   UNL A   1      33.620  29.920  27.549  1.00  0.00     0.116 C 
BRANCH  31  32
ATOM     32  N   UNL A   1      34.201  31.070  28.231  1.00  0.00    -0.352 N 
ATOM     33  C   UNL A   1      35.446  31.215  28.808  1.00  0.00     0.251 C 
ATOM     34  H   UNL A   1      33.618  31.862  28.287  1.00  0.00     0.163 HD
ATOM     35  O   UNL A   1      35.742  32.269  29.370  1.00  0.00    -0.269 OA
BRANCH  33  36
ATOM     36  C   UNL A   1      36.469  30.157  28.643  1.00  0.00     0.039 A 
ATOM     37  C   UNL A   1      36.740  29.329  29.739  1.00  0.00     0.014 A 
ATOM     38  C   UNL A   1      37.265  30.083  27.501  1.00  0.00     0.014 A 
ATOM     39  C   UNL A   1      37.935  28.615  29.782  1.00  0.00     0.010 A 
ATOM     40  C   UNL A   1      38.487  29.443  27.572  1.00  0.00     0.010 A 
ATOM     41  C   UNL A   1      38.850  28.766  28.740  1.00  0.00    -0.014 A 
BRANCH  41  42
ATOM     42  C   UNL A   1      40.247  28.363  28.847  1.00  0.00     0.031 A 
ATOM     43  C   UNL A   1      40.710  27.076  28.302  1.00  0.00     0.074 A 
ATOM     44  C   UNL A   1      41.133  29.193  29.438  1.00  0.00     0.049 A 
ATOM     45  N   UNL A   1      41.759  26.453  28.721  1.00  0.00    -0.248 NA
ATOM     46  C   UNL A   1      39.985  26.359  27.260  1.00  0.00     0.031 C 
ATOM     47  C   UNL A   1      42.589  29.095  29.445  1.00  0.00     0.029 A 
ATOM     48  N   UNL A   1      40.848  30.181  30.379  1.00  0.00    -0.354 N 
ATOM     49  C   UNL A   1      42.001  25.419  27.851  1.00  0.00     0.074 A 
ATOM     50  C   UNL A   1      40.833  25.357  27.002  1.00  0.00     0.031 C 
ATOM     51  C   UNL A   1      43.061  29.778  30.500  1.00  0.00     0.029 A 
ATOM     52  C   UNL A   1      41.918  30.204  31.290  1.00  0.00     0.049 A 
ATOM     53  H   UNL A   1      40.047  30.753  30.402  1.00  0.00     0.167 HD
ATOM     54  C   UNL A   1      43.215  24.802  27.860  1.00  0.00     0.031 A 
ATOM     55  C   UNL A   1      41.712  29.899  32.605  1.00  0.00     0.031 A 
ATOM     56  C   UNL A   1      44.093  25.304  28.914  1.00  0.00     0.049 A 
ATOM     57  C   UNL A   1      42.463  28.676  33.095  1.00  0.00     0.074 A 
ATOM     58  C   UNL A   1      45.183  26.160  28.943  1.00  0.00     0.029 A 
ATOM     59  N   UNL A   1      43.713  25.124  30.234  1.00  0.00    -0.354 N 
ATOM     60  N   UNL A   1      43.178  27.891  32.338  1.00  0.00    -0.248 NA
ATOM     61  C   UNL A   1      42.365  28.181  34.471  1.00  0.00     0.031 C 
ATOM     62  C   UNL A   1      45.453  26.489  30.304  1.00  0.00     0.029 A 
ATOM     63  C   UNL A   1      44.536  25.824  31.094  1.00  0.00     0.049 A 
ATOM     64  H   UNL A   1      42.953  24.569  30.522  1.00  0.00     0.167 HD
ATOM     65  C   UNL A   1      43.578  26.802  33.065  1.00  0.00     0.074 A 
ATOM     66  C   UNL A   1      43.051  27.029  34.397  1.00  0.00     0.031 C 
ATOM     67  C   UNL A   1      44.269  25.763  32.519  1.00  0.00     0.031 A 
BRANCH  54  68
ATOM     68  C   UNL A   1      43.681  23.892  26.753  1.00  0.00    -0.014 A 
ATOM     69  C   UNL A   1      44.311  24.441  25.620  1.00  0.00     0.009 A 
ATOM     70  C   UNL A   1      43.498  22.499  26.744  1.00  0.00     0.009 A 
ATOM     71  C   UNL A   1      44.642  23.662  24.505  1.00  0.00     0.001 A 
ATOM     72  C   UNL A   1      43.786  21.720  25.616  1.00  0.00     0.001 A 
ATOM     73  C   UNL A   1      44.349  22.305  24.490  1.00  0.00     0.000 A 
ENDBRANCH  54  68
BRANCH  55  74
ATOM     74  C   UNL A   1      40.367  30.308  33.102  1.00  0.00    -0.014 A 
ATOM     75  C   UNL A   1      40.073  31.684  33.197  1.00  0.00     0.009 A 
ATOM     76  C   UNL A   1      39.306  29.394  33.142  1.00  0.00     0.009 A 
ATOM     77  C   UNL A   1      38.751  32.135  33.210  1.00  0.00     0.001 A 
ATOM     78  C   UNL A   1      37.983  29.849  33.177  1.00  0.00     0.001 A 
ATOM     79  C   UNL A   1      37.705  31.216  33.174  1.00  0.00     0.000 A 
ENDBRANCH  55  74
BRANCH  67  80
ATOM     80  C   UNL A   1      44.726  24.569  33.302  1.00  0.00    -0.014 A 
ATOM     81  C   UNL A   1      43.895  23.463  33.535  1.00  0.00     0.009 A 
ATOM     82  C   UNL A   1      45.981  24.581  33.943  1.00  0.00     0.009 A 
ATOM     83  C   UNL A   1      44.324  22.392  34.329  1.00  0.00     0.001 A 
ATOM     84  C   UNL A   1      46.403  23.525  34.754  1.00  0.00     0.001 A 
ATOM     85  C   UNL A   1      45.576  22.424  34.938  1.00  0.00     0.000 A 
ENDBRANCH  67  80
ENDBRANCH  41  42
ENDBRANCH  33  36
ENDBRANCH  31  32
ENDBRANCH  30  31
ENDBRANCH  29  30
ENDBRANCH   1  29
TORSDOF 16
ENDMDL
