MODEL 1
REMARK VINA RESULT:     -12.3      0.000      0.000
REMARK SMILES COc1ccc(CCN2/C(=[NH+]/C(=O)CCC(=O)NCCCCCCNC(=O)c3ccc(-c4c5nc(c(-c6ccccc6)c6ccc([nH]6)c(-c6ccccc6)c6nc(c(-c7ccccc7)c7ccc4[nH]7)C=C6)C=C5)cc3)S[C@@H]3CS(=O)(=O)C[C@@H]32)cc1
REMARK SMILES IDX 19 1 18 2 16 3 17 4 15 6 14 7 12 8 9 9 10 10 83 11 11 12
REMARK SMILES IDX 76 13 77 14 82 15 78 17 79 18 13 19 80 20 81 21 8 22 7 23
REMARK SMILES IDX 6 24 3 25 4 26 85 27 5 28 84 29 2 30 1 31 20 32 21 33 22 34
REMARK SMILES IDX 23 35 24 36 25 37 26 38 27 40 28 41 29 42 75 43 30 44 74 45
REMARK SMILES IDX 31 46 32 47 33 48 68 49 34 50 73 51 67 52 69 53 35 54 72 55
REMARK SMILES IDX 66 56 65 57 36 59 58 60 43 61 57 62 44 63 47 64 56 65 70 66
REMARK SMILES IDX 45 67 46 68 55 70 71 71 48 72 37 73 38 74 42 75 39 76 41 77
REMARK SMILES IDX 40 78 59 79 60 80 64 81 61 82 63 83 62 84 49 85 50 86 54 87
REMARK SMILES IDX 51 88 53 89 52 90
REMARK H PARENT 18 5 11 16 25 39 69 58 47 69
REMARK Flexibility Score: inf
ROOT
ATOM      1  C   UNL A   1      34.313  23.206  26.088  1.00  0.00     0.116 C 
ENDROOT
BRANCH   1   2
ATOM      2  N   UNL A   1      33.771  22.015  25.427  1.00  0.00    -0.356 N 
ATOM      3  C   UNL A   1      33.636  21.739  24.100  1.00  0.00     0.220 C 
ATOM      4  O   UNL A   1      33.016  20.731  23.761  1.00  0.00    -0.275 OA
ATOM      5  H   UNL A   1      33.457  21.307  26.035  1.00  0.00     0.163 HD
BRANCH   3   6
ATOM      6  C   UNL A   1      34.292  22.643  23.087  1.00  0.00     0.112 C 
BRANCH   6   7
ATOM      7  C   UNL A   1      33.278  23.438  22.259  1.00  0.00     0.138 C 
BRANCH   7   8
ATOM      8  C   UNL A   1      32.106  24.054  23.024  1.00  0.00     0.308 C 
ATOM      9  N   UNL A   1      31.571  27.562  24.210  1.00  0.00    -0.251 N 
ATOM     10  C   UNL A   1      31.393  26.132  23.969  1.00  0.00     0.314 C 
ATOM     11  C   UNL A   1      30.340  28.312  24.557  1.00  0.00     0.206 C 
ATOM     12  N   UNL A   1      32.348  25.292  23.639  1.00  0.00    -0.205 N 
ATOM     13  S   UNL A   1      29.646  25.576  23.889  1.00  0.00    -0.030 SA
ATOM     14  C   UNL A   1      28.794  27.141  24.129  1.00  0.00     0.120 C 
ATOM     15  C   UNL A   1      30.189  30.142  23.760  1.00  0.00     0.187 C 
ATOM     16  H   UNL A   1      33.278  25.544  23.833  1.00  0.00     0.316 HD
ATOM     17  C   UNL A   1      27.450  28.107  22.973  1.00  0.00     0.156 C 
ATOM     18  S   UNL A   1      28.193  30.318  22.655  1.00  0.00     0.155 S 
ATOM     19  O   UNL A   1      31.050  23.419  22.987  1.00  0.00    -0.247 OA
ATOM     20  O   UNL A   1      28.453  30.613  21.252  1.00  0.00    -0.229 OA
ATOM     21  O   UNL A   1      27.321  31.265  23.333  1.00  0.00    -0.229 OA
BRANCH   9  22
ATOM     22  C   UNL A   1      32.870  28.387  24.350  1.00  0.00     0.242 C 
BRANCH  22  23
ATOM     23  C   UNL A   1      33.507  29.177  25.720  1.00  0.00     0.081 C 
BRANCH  23  24
ATOM     24  C   UNL A   1      33.155  30.480  26.567  1.00  0.00    -0.044 A 
ATOM     25  C   UNL A   1      32.799  33.071  27.829  1.00  0.00     0.118 A 
ATOM     26  C   UNL A   1      33.965  32.365  27.989  1.00  0.00     0.046 A 
ATOM     27  C   UNL A   1      31.754  32.426  27.165  1.00  0.00     0.046 A 
ATOM     28  C   UNL A   1      34.047  31.042  27.511  1.00  0.00     0.007 A 
ATOM     29  C   UNL A   1      31.933  31.163  26.517  1.00  0.00     0.007 A 
BRANCH  25  30
ATOM     30  O   UNL A   1      32.617  34.365  28.227  1.00  0.00    -0.497 OA
ATOM     31  C   UNL A   1      33.630  34.940  29.056  1.00  0.00     0.278 C 
ENDBRANCH  25  30
ENDBRANCH  23  24
ENDBRANCH  22  23
ENDBRANCH   9  22
ENDBRANCH   7   8
ENDBRANCH   6   7
ENDBRANCH   3   6
ENDBRANCH   1   2
BRANCH   1  32
ATOM     32  C   UNL A   1      35.710  22.993  26.693  1.00  0.00     0.021 C 
BRANCH  32  33
ATOM     33  C   UNL A   1      36.710  23.688  25.821  1.00  0.00     0.002 C 
BRANCH  33  34
ATOM     34  C   UNL A   1      38.221  23.650  26.112  1.00  0.00     0.002 C 
BRANCH  34  35
ATOM     35  C   UNL A   1      39.133  22.310  26.266  1.00  0.00     0.021 C 
BRANCH  35  36
ATOM     36  C   UNL A   1      39.213  20.221  25.789  1.00  0.00     0.116 C 
BRANCH  36  37
ATOM     37  N   UNL A   1      40.288  19.088  25.845  1.00  0.00    -0.352 N 
ATOM     38  C   UNL A   1      41.644  19.194  26.112  1.00  0.00     0.251 C 
ATOM     39  H   UNL A   1      39.959  18.178  25.666  1.00  0.00     0.163 HD
ATOM     40  O   UNL A   1      42.355  18.200  26.154  1.00  0.00    -0.269 OA
BRANCH  38  41
ATOM     41  C   UNL A   1      42.178  20.516  26.451  1.00  0.00     0.039 A 
ATOM     42  C   UNL A   1      42.510  21.412  25.440  1.00  0.00     0.014 A 
ATOM     43  C   UNL A   1      42.199  20.883  27.799  1.00  0.00     0.014 A 
ATOM     44  C   UNL A   1      42.821  22.720  25.791  1.00  0.00     0.010 A 
ATOM     45  C   UNL A   1      42.364  22.212  28.127  1.00  0.00     0.010 A 
ATOM     46  C   UNL A   1      42.717  23.131  27.131  1.00  0.00    -0.014 A 
BRANCH  46  47
ATOM     47  C   UNL A   1      43.059  24.507  27.535  1.00  0.00     0.031 A 
ATOM     48  C   UNL A   1      44.498  24.938  27.466  1.00  0.00     0.074 A 
ATOM     49  C   UNL A   1      42.091  25.326  27.990  1.00  0.00     0.049 A 
ATOM     50  N   UNL A   1      45.033  26.077  27.812  1.00  0.00    -0.248 NA
ATOM     51  C   UNL A   1      45.476  23.942  26.984  1.00  0.00     0.031 C 
ATOM     52  C   UNL A   1      40.674  24.977  28.130  1.00  0.00     0.029 A 
ATOM     53  N   UNL A   1      42.154  26.627  28.408  1.00  0.00    -0.354 N 
ATOM     54  C   UNL A   1      46.399  25.920  27.613  1.00  0.00     0.074 A 
ATOM     55  C   UNL A   1      46.626  24.561  27.192  1.00  0.00     0.031 C 
ATOM     56  C   UNL A   1      39.995  26.057  28.550  1.00  0.00     0.029 A 
ATOM     57  C   UNL A   1      40.933  27.153  28.755  1.00  0.00     0.049 A 
ATOM     58  H   UNL A   1      42.994  27.139  28.455  1.00  0.00     0.167 HD
ATOM     59  C   UNL A   1      47.376  26.845  27.737  1.00  0.00     0.031 A 
ATOM     60  C   UNL A   1      40.620  28.389  29.185  1.00  0.00     0.031 A 
ATOM     61  C   UNL A   1      47.122  28.206  28.115  1.00  0.00     0.049 A 
ATOM     62  C   UNL A   1      41.732  29.396  29.315  1.00  0.00     0.074 A 
ATOM     63  C   UNL A   1      48.017  29.254  28.210  1.00  0.00     0.029 A 
ATOM     64  N   UNL A   1      45.872  28.702  28.454  1.00  0.00    -0.354 N 
ATOM     65  N   UNL A   1      43.009  29.258  29.047  1.00  0.00    -0.248 NA
ATOM     66  C   UNL A   1      41.357  30.732  29.793  1.00  0.00     0.031 C 
ATOM     67  C   UNL A   1      47.318  30.371  28.674  1.00  0.00     0.029 A 
ATOM     68  C   UNL A   1      45.977  30.038  28.791  1.00  0.00     0.049 A 
ATOM     69  H   UNL A   1      45.036  28.182  28.454  1.00  0.00     0.167 HD
ATOM     70  C   UNL A   1      43.584  30.498  29.290  1.00  0.00     0.074 A 
ATOM     71  C   UNL A   1      42.510  31.380  29.703  1.00  0.00     0.031 C 
ATOM     72  C   UNL A   1      44.880  30.882  29.185  1.00  0.00     0.031 A 
BRANCH  59  73
ATOM     73  C   UNL A   1      48.790  26.420  27.465  1.00  0.00    -0.014 A 
ATOM     74  C   UNL A   1      49.626  25.945  28.489  1.00  0.00     0.009 A 
ATOM     75  C   UNL A   1      49.280  26.450  26.150  1.00  0.00     0.009 A 
ATOM     76  C   UNL A   1      50.929  25.531  28.205  1.00  0.00     0.001 A 
ATOM     77  C   UNL A   1      50.571  26.006  25.864  1.00  0.00     0.001 A 
ATOM     78  C   UNL A   1      51.396  25.553  26.892  1.00  0.00     0.000 A 
ENDBRANCH  59  73
BRANCH  60  79
ATOM     79  C   UNL A   1      39.216  28.749  29.521  1.00  0.00    -0.014 A 
ATOM     80  C   UNL A   1      38.350  29.261  28.540  1.00  0.00     0.009 A 
ATOM     81  C   UNL A   1      38.741  28.621  30.836  1.00  0.00     0.009 A 
ATOM     82  C   UNL A   1      37.062  29.686  28.881  1.00  0.00     0.001 A 
ATOM     83  C   UNL A   1      37.441  29.011  31.166  1.00  0.00     0.001 A 
ATOM     84  C   UNL A   1      36.609  29.560  30.192  1.00  0.00     0.000 A 
ENDBRANCH  60  79
BRANCH  72  85
ATOM     85  C   UNL A   1      45.192  32.321  29.473  1.00  0.00    -0.014 A 
ATOM     86  C   UNL A   1      45.208  33.285  28.455  1.00  0.00     0.009 A 
ATOM     87  C   UNL A   1      45.416  32.723  30.799  1.00  0.00     0.009 A 
ATOM     88  C   UNL A   1      45.483  34.619  28.755  1.00  0.00     0.001 A 
ATOM     89  C   UNL A   1      45.651  34.063  31.102  1.00  0.00     0.001 A 
ATOM     90  C   UNL A   1      45.697  35.007  30.078  1.00  0.00     0.000 A 
ENDBRANCH  72  85
ENDBRANCH  46  47
ENDBRANCH  38  41
ENDBRANCH  36  37
ENDBRANCH  35  36
ENDBRANCH  34  35
ENDBRANCH  33  34
ENDBRANCH  32  33
ENDBRANCH   1  32
TORSDOF 19
ENDMDL
MODEL 2
REMARK VINA RESULT:     -11.8      4.323     10.237
REMARK SMILES COc1ccc(CCN2/C(=[NH+]/C(=O)CCC(=O)NCCCCCCNC(=O)c3ccc(-c4c5nc(c(-c6ccccc6)c6ccc([nH]6)c(-c6ccccc6)c6nc(c(-c7ccccc7)c7ccc4[nH]7)C=C6)C=C5)cc3)S[C@@H]3CS(=O)(=O)C[C@@H]32)cc1
REMARK SMILES IDX 19 1 18 2 16 3 17 4 15 6 14 7 12 8 9 9 10 10 83 11 11 12
REMARK SMILES IDX 76 13 77 14 82 15 78 17 79 18 13 19 80 20 81 21 8 22 7 23
REMARK SMILES IDX 6 24 3 25 4 26 85 27 5 28 84 29 2 30 1 31 20 32 21 33 22 34
REMARK SMILES IDX 23 35 24 36 25 37 26 38 27 40 28 41 29 42 75 43 30 44 74 45
REMARK SMILES IDX 31 46 32 47 33 48 68 49 34 50 73 51 67 52 69 53 35 54 72 55
REMARK SMILES IDX 66 56 65 57 36 59 58 60 43 61 57 62 44 63 47 64 56 65 70 66
REMARK SMILES IDX 45 67 46 68 55 70 71 71 48 72 37 73 38 74 42 75 39 76 41 77
REMARK SMILES IDX 40 78 59 79 60 80 64 81 61 82 63 83 62 84 49 85 50 86 54 87
REMARK SMILES IDX 51 88 53 89 52 90
REMARK H PARENT 18 5 11 16 25 39 69 58 47 69
REMARK Flexibility Score: inf
ROOT
ATOM      1  C   UNL A   1      31.310  25.501  26.145  1.00  0.00     0.116 C 
ENDROOT
BRANCH   1   2
ATOM      2  N   UNL A   1      30.537  24.588  26.992  1.00  0.00    -0.356 N 
ATOM      3  C   UNL A   1      30.299  23.255  26.848  1.00  0.00     0.220 C 
ATOM      4  O   UNL A   1      29.496  22.707  27.603  1.00  0.00    -0.275 OA
ATOM      5  H   UNL A   1      30.127  25.002  27.786  1.00  0.00     0.163 HD
BRANCH   3   6
ATOM      6  C   UNL A   1      31.063  22.477  25.806  1.00  0.00     0.112 C 
BRANCH   6   7
ATOM      7  C   UNL A   1      31.842  21.300  26.400  1.00  0.00     0.138 C 
BRANCH   7   8
ATOM      8  C   UNL A   1      33.060  20.820  25.609  1.00  0.00     0.308 C 
ATOM      9  N   UNL A   1      36.330  22.510  24.943  1.00  0.00    -0.251 N 
ATOM     10  C   UNL A   1      35.236  21.542  24.930  1.00  0.00     0.314 C 
ATOM     11  C   UNL A   1      37.664  21.975  24.576  1.00  0.00     0.206 C 
ATOM     12  N   UNL A   1      33.985  21.805  25.233  1.00  0.00    -0.205 N 
ATOM     13  S   UNL A   1      35.755  19.795  24.711  1.00  0.00    -0.030 SA
ATOM     14  C   UNL A   1      37.540  19.994  24.625  1.00  0.00     0.120 C 
ATOM     15  C   UNL A   1      39.204  22.697  25.632  1.00  0.00     0.187 C 
ATOM     16  H   UNL A   1      33.682  22.740  25.194  1.00  0.00     0.316 HD
ATOM     17  C   UNL A   1      39.015  19.201  25.752  1.00  0.00     0.156 C 
ATOM     18  S   UNL A   1      40.399  20.951  26.505  1.00  0.00     0.155 S 
ATOM     19  O   UNL A   1      33.128  19.603  25.418  1.00  0.00    -0.247 OA
ATOM     20  O   UNL A   1      40.403  21.061  27.957  1.00  0.00    -0.229 OA
ATOM     21  O   UNL A   1      41.715  20.879  25.888  1.00  0.00    -0.229 OA
BRANCH   9  22
ATOM     22  C   UNL A   1      36.289  24.047  25.092  1.00  0.00     0.242 C 
BRANCH  22  23
ATOM     23  C   UNL A   1      34.945  25.096  25.124  1.00  0.00     0.081 C 
BRANCH  23  24
ATOM     24  C   UNL A   1      33.957  25.738  24.051  1.00  0.00    -0.044 A 
ATOM     25  C   UNL A   1      31.826  26.810  22.395  1.00  0.00     0.118 A 
ATOM     26  C   UNL A   1      31.975  25.454  22.562  1.00  0.00     0.046 A 
ATOM     27  C   UNL A   1      32.824  27.626  22.930  1.00  0.00     0.046 A 
ATOM     28  C   UNL A   1      33.112  24.957  23.227  1.00  0.00     0.007 A 
ATOM     29  C   UNL A   1      33.859  27.107  23.770  1.00  0.00     0.007 A 
BRANCH  25  30
ATOM     30  O   UNL A   1      30.753  27.402  21.793  1.00  0.00    -0.497 OA
ATOM     31  C   UNL A   1      30.190  28.544  22.444  1.00  0.00     0.278 C 
ENDBRANCH  25  30
ENDBRANCH  23  24
ENDBRANCH  22  23
ENDBRANCH   9  22
ENDBRANCH   7   8
ENDBRANCH   6   7
ENDBRANCH   3   6
ENDBRANCH   1   2
BRANCH   1  32
ATOM     32  C   UNL A   1      30.697  26.905  26.030  1.00  0.00     0.021 C 
BRANCH  32  33
ATOM     33  C   UNL A   1      31.561  27.859  26.795  1.00  0.00     0.002 C 
BRANCH  33  34
ATOM     34  C   UNL A   1      32.056  29.186  26.191  1.00  0.00     0.002 C 
BRANCH  34  35
ATOM     35  C   UNL A   1      31.875  30.664  26.850  1.00  0.00     0.021 C 
BRANCH  35  36
ATOM     36  C   UNL A   1      32.872  32.535  27.177  1.00  0.00     0.116 C 
BRANCH  36  37
ATOM     37  N   UNL A   1      32.458  33.973  27.626  1.00  0.00    -0.352 N 
ATOM     38  C   UNL A   1      33.017  34.765  28.617  1.00  0.00     0.251 C 
ATOM     39  H   UNL A   1      31.700  34.370  27.140  1.00  0.00     0.163 HD
ATOM     40  O   UNL A   1      32.598  35.894  28.828  1.00  0.00    -0.269 OA
BRANCH  38  41
ATOM     41  C   UNL A   1      34.191  34.253  29.328  1.00  0.00     0.039 A 
ATOM     42  C   UNL A   1      34.030  33.392  30.409  1.00  0.00     0.014 A 
ATOM     43  C   UNL A   1      35.451  34.540  28.794  1.00  0.00     0.014 A 
ATOM     44  C   UNL A   1      35.156  32.768  30.931  1.00  0.00     0.010 A 
ATOM     45  C   UNL A   1      36.539  33.809  29.220  1.00  0.00     0.010 A 
ATOM     46  C   UNL A   1      36.407  32.949  30.318  1.00  0.00    -0.014 A 
BRANCH  46  47
ATOM     47  C   UNL A   1      37.622  32.315  30.863  1.00  0.00     0.031 A 
ATOM     48  C   UNL A   1      38.183  32.835  32.157  1.00  0.00     0.074 A 
ATOM     49  C   UNL A   1      38.218  31.322  30.176  1.00  0.00     0.049 A 
ATOM     50  N   UNL A   1      39.260  32.464  32.795  1.00  0.00    -0.248 NA
ATOM     51  C   UNL A   1      37.463  33.952  32.803  1.00  0.00     0.031 C 
ATOM     52  C   UNL A   1      37.765  30.782  28.890  1.00  0.00     0.029 A 
ATOM     53  N   UNL A   1      39.329  30.580  30.473  1.00  0.00    -0.354 N 
ATOM     54  C   UNL A   1      39.354  33.314  33.890  1.00  0.00     0.074 A 
ATOM     55  C   UNL A   1      38.277  34.267  33.796  1.00  0.00     0.031 C 
ATOM     56  C   UNL A   1      38.561  29.760  28.537  1.00  0.00     0.029 A 
ATOM     57  C   UNL A   1      39.605  29.607  29.543  1.00  0.00     0.049 A 
ATOM     58  H   UNL A   1      39.879  30.730  31.276  1.00  0.00     0.167 HD
ATOM     59  C   UNL A   1      40.243  33.276  34.907  1.00  0.00     0.031 A 
ATOM     60  C   UNL A   1      40.593  28.694  29.521  1.00  0.00     0.031 A 
ATOM     61  C   UNL A   1      41.280  32.290  35.003  1.00  0.00     0.049 A 
ATOM     62  C   UNL A   1      41.569  28.681  30.668  1.00  0.00     0.074 A 
ATOM     63  C   UNL A   1      42.200  32.105  36.017  1.00  0.00     0.029 A 
ATOM     64  N   UNL A   1      41.525  31.318  34.046  1.00  0.00    -0.354 N 
ATOM     65  N   UNL A   1      41.599  29.439  31.738  1.00  0.00    -0.248 NA
ATOM     66  C   UNL A   1      42.638  27.677  30.610  1.00  0.00     0.031 C 
ATOM     67  C   UNL A   1      43.047  31.061  35.639  1.00  0.00     0.029 A 
ATOM     68  C   UNL A   1      42.606  30.547  34.429  1.00  0.00     0.049 A 
ATOM     69  H   UNL A   1      41.007  31.195  33.217  1.00  0.00     0.167 HD
ATOM     70  C   UNL A   1      42.667  28.981  32.498  1.00  0.00     0.074 A 
ATOM     71  C   UNL A   1      43.242  27.864  31.775  1.00  0.00     0.031 C 
ATOM     72  C   UNL A   1      43.137  29.436  33.685  1.00  0.00     0.031 A 
BRANCH  59  73
ATOM     73  C   UNL A   1      40.132  34.320  35.980  1.00  0.00    -0.014 A 
ATOM     74  C   UNL A   1      39.315  34.133  37.107  1.00  0.00     0.009 A 
ATOM     75  C   UNL A   1      40.896  35.494  35.885  1.00  0.00     0.009 A 
ATOM     76  C   UNL A   1      39.249  35.109  38.104  1.00  0.00     0.001 A 
ATOM     77  C   UNL A   1      40.854  36.452  36.898  1.00  0.00     0.001 A 
ATOM     78  C   UNL A   1      40.026  36.262  38.003  1.00  0.00     0.000 A 
ENDBRANCH  59  73
BRANCH  60  79
ATOM     79  C   UNL A   1      40.715  27.726  28.398  1.00  0.00    -0.014 A 
ATOM     80  C   UNL A   1      41.441  28.054  27.241  1.00  0.00     0.009 A 
ATOM     81  C   UNL A   1      40.073  26.480  28.456  1.00  0.00     0.009 A 
ATOM     82  C   UNL A   1      41.474  27.180  26.150  1.00  0.00     0.001 A 
ATOM     83  C   UNL A   1      40.139  25.591  27.381  1.00  0.00     0.001 A 
ATOM     84  C   UNL A   1      40.824  25.950  26.222  1.00  0.00     0.000 A 
ENDBRANCH  60  79
BRANCH  72  85
ATOM     85  C   UNL A   1      44.294  28.696  34.291  1.00  0.00    -0.014 A 
ATOM     86  C   UNL A   1      45.620  29.019  33.968  1.00  0.00     0.009 A 
ATOM     87  C   UNL A   1      44.046  27.699  35.247  1.00  0.00     0.009 A 
ATOM     88  C   UNL A   1      46.676  28.326  34.560  1.00  0.00     0.001 A 
ATOM     89  C   UNL A   1      45.103  27.036  35.867  1.00  0.00     0.001 A 
ATOM     90  C   UNL A   1      46.416  27.342  35.514  1.00  0.00     0.000 A 
ENDBRANCH  72  85
ENDBRANCH  46  47
ENDBRANCH  38  41
ENDBRANCH  36  37
ENDBRANCH  35  36
ENDBRANCH  34  35
ENDBRANCH  33  34
ENDBRANCH  32  33
ENDBRANCH   1  32
TORSDOF 19
ENDMDL
MODEL 3
REMARK VINA RESULT:     -11.6      1.804      4.076
REMARK SMILES COc1ccc(CCN2/C(=[NH+]/C(=O)CCC(=O)NCCCCCCNC(=O)c3ccc(-c4c5nc(c(-c6ccccc6)c6ccc([nH]6)c(-c6ccccc6)c6nc(c(-c7ccccc7)c7ccc4[nH]7)C=C6)C=C5)cc3)S[C@@H]3CS(=O)(=O)C[C@@H]32)cc1
REMARK SMILES IDX 19 1 18 2 16 3 17 4 15 6 14 7 12 8 9 9 10 10 83 11 11 12
REMARK SMILES IDX 76 13 77 14 82 15 78 17 79 18 13 19 80 20 81 21 8 22 7 23
REMARK SMILES IDX 6 24 3 25 4 26 85 27 5 28 84 29 2 30 1 31 20 32 21 33 22 34
REMARK SMILES IDX 23 35 24 36 25 37 26 38 27 40 28 41 29 42 75 43 30 44 74 45
REMARK SMILES IDX 31 46 32 47 33 48 68 49 34 50 73 51 67 52 69 53 35 54 72 55
REMARK SMILES IDX 66 56 65 57 36 59 58 60 43 61 57 62 44 63 47 64 56 65 70 66
REMARK SMILES IDX 45 67 46 68 55 70 71 71 48 72 37 73 38 74 42 75 39 76 41 77
REMARK SMILES IDX 40 78 59 79 60 80 64 81 61 82 63 83 62 84 49 85 50 86 54 87
REMARK SMILES IDX 51 88 53 89 52 90
REMARK H PARENT 18 5 11 16 25 39 69 58 47 69
REMARK Flexibility Score: inf
ROOT
ATOM      1  C   UNL A   1      35.644  22.948  27.155  1.00  0.00     0.116 C 
ENDROOT
BRANCH   1   2
ATOM      2  N   UNL A   1      34.391  22.381  27.660  1.00  0.00    -0.356 N 
ATOM      3  C   UNL A   1      33.106  22.789  27.462  1.00  0.00     0.220 C 
ATOM      4  O   UNL A   1      32.204  22.249  28.103  1.00  0.00    -0.275 OA
ATOM      5  H   UNL A   1      34.493  21.583  28.228  1.00  0.00     0.163 HD
BRANCH   3   6
ATOM      6  C   UNL A   1      32.819  23.850  26.430  1.00  0.00     0.112 C 
BRANCH   6   7
ATOM      7  C   UNL A   1      31.688  24.793  26.849  1.00  0.00     0.138 C 
BRANCH   7   8
ATOM      8  C   UNL A   1      31.891  26.278  26.544  1.00  0.00     0.308 C 
ATOM      9  N   UNL A   1      31.670  28.132  23.303  1.00  0.00    -0.251 N 
ATOM     10  C   UNL A   1      31.883  27.815  24.713  1.00  0.00     0.314 C 
ATOM     11  C   UNL A   1      31.433  29.564  22.996  1.00  0.00     0.206 C 
ATOM     12  N   UNL A   1      32.098  26.613  25.198  1.00  0.00    -0.205 N 
ATOM     13  S   UNL A   1      31.566  29.203  25.871  1.00  0.00    -0.030 SA
ATOM     14  C   UNL A   1      31.054  30.482  24.715  1.00  0.00     0.120 C 
ATOM     15  C   UNL A   1      30.061  29.929  21.585  1.00  0.00     0.187 C 
ATOM     16  H   UNL A   1      32.419  25.914  24.585  1.00  0.00     0.316 HD
ATOM     17  C   UNL A   1      29.349  31.557  24.603  1.00  0.00     0.156 C 
ATOM     18  S   UNL A   1      28.505  31.390  22.411  1.00  0.00     0.155 S 
ATOM     19  O   UNL A   1      31.809  27.039  27.511  1.00  0.00    -0.247 OA
ATOM     20  O   UNL A   1      27.195  30.756  22.375  1.00  0.00    -0.229 OA
ATOM     21  O   UNL A   1      28.593  32.667  21.719  1.00  0.00    -0.229 OA
BRANCH   9  22
ATOM     22  C   UNL A   1      31.842  27.242  22.052  1.00  0.00     0.242 C 
BRANCH  22  23
ATOM     23  C   UNL A   1      31.546  25.574  21.862  1.00  0.00     0.081 C 
BRANCH  23  24
ATOM     24  C   UNL A   1      32.020  24.230  22.576  1.00  0.00    -0.044 A 
ATOM     25  C   UNL A   1      32.651  21.566  23.545  1.00  0.00     0.118 A 
ATOM     26  C   UNL A   1      31.388  22.086  23.687  1.00  0.00     0.046 A 
ATOM     27  C   UNL A   1      33.638  22.424  23.054  1.00  0.00     0.046 A 
ATOM     28  C   UNL A   1      31.153  23.437  23.365  1.00  0.00     0.007 A 
ATOM     29  C   UNL A   1      33.327  23.726  22.549  1.00  0.00     0.007 A 
BRANCH  25  30
ATOM     30  O   UNL A   1      32.987  20.267  23.799  1.00  0.00    -0.497 OA
ATOM     31  C   UNL A   1      33.287  19.925  25.155  1.00  0.00     0.278 C 
ENDBRANCH  25  30
ENDBRANCH  23  24
ENDBRANCH  22  23
ENDBRANCH   9  22
ENDBRANCH   7   8
ENDBRANCH   6   7
ENDBRANCH   3   6
ENDBRANCH   1   2
BRANCH   1  32
ATOM     32  C   UNL A   1      35.923  22.615  25.681  1.00  0.00     0.021 C 
BRANCH  32  33
ATOM     33  C   UNL A   1      37.039  23.493  25.205  1.00  0.00     0.002 C 
BRANCH  33  34
ATOM     34  C   UNL A   1      38.419  23.513  25.887  1.00  0.00     0.002 C 
BRANCH  34  35
ATOM     35  C   UNL A   1      39.383  22.224  26.134  1.00  0.00     0.021 C 
BRANCH  35  36
ATOM     36  C   UNL A   1      39.432  20.080  26.091  1.00  0.00     0.116 C 
BRANCH  36  37
ATOM     37  N   UNL A   1      40.531  18.977  25.971  1.00  0.00    -0.352 N 
ATOM     38  C   UNL A   1      41.907  19.110  26.075  1.00  0.00     0.251 C 
ATOM     39  H   UNL A   1      40.204  18.065  25.799  1.00  0.00     0.163 HD
ATOM     40  O   UNL A   1      42.640  18.135  25.991  1.00  0.00    -0.269 OA
BRANCH  38  41
ATOM     41  C   UNL A   1      42.449  20.432  26.397  1.00  0.00     0.039 A 
ATOM     42  C   UNL A   1      42.807  21.306  25.374  1.00  0.00     0.014 A 
ATOM     43  C   UNL A   1      42.449  20.826  27.738  1.00  0.00     0.014 A 
ATOM     44  C   UNL A   1      43.124  22.617  25.705  1.00  0.00     0.010 A 
ATOM     45  C   UNL A   1      42.622  22.160  28.042  1.00  0.00     0.010 A 
ATOM     46  C   UNL A   1      43.002  23.056  27.035  1.00  0.00    -0.014 A 
BRANCH  46  47
ATOM     47  C   UNL A   1      43.350  24.436  27.417  1.00  0.00     0.031 A 
ATOM     48  C   UNL A   1      44.791  24.858  27.342  1.00  0.00     0.074 A 
ATOM     49  C   UNL A   1      42.387  25.266  27.859  1.00  0.00     0.049 A 
ATOM     50  N   UNL A   1      45.333  26.000  27.670  1.00  0.00    -0.248 NA
ATOM     51  C   UNL A   1      45.765  23.850  26.875  1.00  0.00     0.031 C 
ATOM     52  C   UNL A   1      40.968  24.927  28.004  1.00  0.00     0.029 A 
ATOM     53  N   UNL A   1      42.456  26.574  28.256  1.00  0.00    -0.354 N 
ATOM     54  C   UNL A   1      46.698  25.834  27.474  1.00  0.00     0.074 A 
ATOM     55  C   UNL A   1      46.918  24.467  27.074  1.00  0.00     0.031 C 
ATOM     56  C   UNL A   1      40.294  26.016  28.407  1.00  0.00     0.029 A 
ATOM     57  C   UNL A   1      41.237  27.111  28.595  1.00  0.00     0.049 A 
ATOM     58  H   UNL A   1      43.299  27.082  28.296  1.00  0.00     0.167 HD
ATOM     59  C   UNL A   1      47.679  26.756  27.584  1.00  0.00     0.031 A 
ATOM     60  C   UNL A   1      40.930  28.355  29.006  1.00  0.00     0.031 A 
ATOM     61  C   UNL A   1      47.431  28.123  27.940  1.00  0.00     0.049 A 
ATOM     62  C   UNL A   1      42.047  29.358  29.120  1.00  0.00     0.074 A 
ATOM     63  C   UNL A   1      48.332  29.168  28.019  1.00  0.00     0.029 A 
ATOM     64  N   UNL A   1      46.185  28.631  28.271  1.00  0.00    -0.354 N 
ATOM     65  N   UNL A   1      43.324  29.210  28.855  1.00  0.00    -0.248 NA
ATOM     66  C   UNL A   1      41.679  30.704  29.577  1.00  0.00     0.031 C 
ATOM     67  C   UNL A   1      47.638  30.295  28.466  1.00  0.00     0.029 A 
ATOM     68  C   UNL A   1      46.296  29.971  28.588  1.00  0.00     0.049 A 
ATOM     69  H   UNL A   1      45.346  28.114  28.279  1.00  0.00     0.167 HD
ATOM     70  C   UNL A   1      43.905  30.451  29.079  1.00  0.00     0.074 A 
ATOM     71  C   UNL A   1      42.836  31.344  29.478  1.00  0.00     0.031 C 
ATOM     72  C   UNL A   1      45.203  30.826  28.968  1.00  0.00     0.031 A 
BRANCH  59  73
ATOM     73  C   UNL A   1      49.091  26.319  27.319  1.00  0.00    -0.014 A 
ATOM     74  C   UNL A   1      49.622  26.294  26.019  1.00  0.00     0.009 A 
ATOM     75  C   UNL A   1      49.920  25.970  28.396  1.00  0.00     0.009 A 
ATOM     76  C   UNL A   1      50.946  25.908  25.803  1.00  0.00     0.001 A 
ATOM     77  C   UNL A   1      51.253  25.617  28.181  1.00  0.00     0.001 A 
ATOM     78  C   UNL A   1      51.762  25.579  26.884  1.00  0.00     0.000 A 
ENDBRANCH  59  73
BRANCH  60  79
ATOM     79  C   UNL A   1      39.528  28.727  29.336  1.00  0.00    -0.014 A 
ATOM     80  C   UNL A   1      39.028  28.567  30.638  1.00  0.00     0.009 A 
ATOM     81  C   UNL A   1      38.665  29.209  28.339  1.00  0.00     0.009 A 
ATOM     82  C   UNL A   1      37.683  28.829  30.920  1.00  0.00     0.001 A 
ATOM     83  C   UNL A   1      37.332  29.507  28.632  1.00  0.00     0.001 A 
ATOM     84  C   UNL A   1      36.838  29.299  29.918  1.00  0.00     0.000 A 
ENDBRANCH  60  79
BRANCH  72  85
ATOM     85  C   UNL A   1      45.522  32.269  29.234  1.00  0.00    -0.014 A 
ATOM     86  C   UNL A   1      45.907  32.710  30.508  1.00  0.00     0.009 A 
ATOM     87  C   UNL A   1      45.491  33.186  28.172  1.00  0.00     0.009 A 
ATOM     88  C   UNL A   1      46.215  34.054  30.722  1.00  0.00     0.001 A 
ATOM     89  C   UNL A   1      45.839  34.519  28.380  1.00  0.00     0.001 A 
ATOM     90  C   UNL A   1      46.188  34.954  29.656  1.00  0.00     0.000 A 
ENDBRANCH  72  85
ENDBRANCH  46  47
ENDBRANCH  38  41
ENDBRANCH  36  37
ENDBRANCH  35  36
ENDBRANCH  34  35
ENDBRANCH  33  34
ENDBRANCH  32  33
ENDBRANCH   1  32
TORSDOF 19
ENDMDL
