MODEL 1
REMARK VINA RESULT:     -10.5      0.000      0.000
REMARK SMILES COc1ccc([C@H]2CC(c3ccccc3)=NN2C(=O)CCCC(=O)NCCCCCCNC(=O)c2ccc(-c3c4nc(c(-c5ccccc5)c5ccc([nH]5)c(-c5ccccc5)c5nc(c(-c6ccccc6)c6ccc3[nH]6)C=C5)C=C4)cc2)cc1
REMARK SMILES IDX 26 1 25 2 23 3 24 4 22 6 21 7 20 8 18 9 19 10 17 11 7 12
REMARK SMILES IDX 8 13 9 14 16 15 6 16 3 17 4 18 84 19 5 20 83 21 2 22 1 23
REMARK SMILES IDX 10 24 11 25 15 26 12 27 14 28 13 29 27 30 28 31 29 32 30 33
REMARK SMILES IDX 31 34 32 35 33 36 34 38 35 39 36 40 82 41 37 42 81 43 38 44
REMARK SMILES IDX 39 45 40 46 75 47 41 48 80 49 74 50 76 51 42 52 79 53 73 54
REMARK SMILES IDX 72 55 43 57 65 58 50 59 64 60 51 61 54 62 63 63 77 64 52 65
REMARK SMILES IDX 53 66 62 68 78 69 55 70 44 71 45 72 49 73 46 74 48 75 47 76
REMARK SMILES IDX 66 77 67 78 71 79 68 80 70 81 69 82 56 83 57 84 61 85 58 86
REMARK SMILES IDX 60 87 59 88
REMARK H PARENT 25 5 32 37 76 56 54 67
REMARK Flexibility Score: inf
ROOT
ATOM      1  C   UNL A   1      42.693  18.017  26.164  1.00  0.00     0.116 C 
ENDROOT
BRANCH   1   2
ATOM      2  N   UNL A   1      42.166  18.778  27.265  1.00  0.00    -0.356 N 
ATOM      3  C   UNL A   1      41.540  19.989  27.246  1.00  0.00     0.220 C 
ATOM      4  O   UNL A   1      41.590  20.672  28.270  1.00  0.00    -0.275 OA
ATOM      5  H   UNL A   1      42.271  18.368  28.155  1.00  0.00     0.163 HD
BRANCH   3   6
ATOM      6  C   UNL A   1      40.662  20.388  26.076  1.00  0.00     0.100 C 
BRANCH   6   7
ATOM      7  C   UNL A   1      39.630  21.484  26.110  1.00  0.00     0.020 C 
BRANCH   7   8
ATOM      8  C   UNL A   1      38.369  21.293  25.272  1.00  0.00     0.103 C 
BRANCH   8   9
ATOM      9  C   UNL A   1      37.066  22.122  25.400  1.00  0.00     0.243 C 
ATOM     10  O   UNL A   1      37.279  23.338  25.597  1.00  0.00    -0.273 OA
BRANCH   9  11
ATOM     11  N   UNL A   1      35.757  21.705  25.156  1.00  0.00    -0.225 N 
ATOM     12  C   UNL A   1      34.365  22.282  25.167  1.00  0.00     0.147 C 
ATOM     13  C   UNL A   1      33.431  21.111  24.866  1.00  0.00     0.091 C 
ATOM     14  C   UNL A   1      34.403  19.993  24.923  1.00  0.00     0.071 C 
ATOM     15  N   UNL A   1      35.648  20.310  25.053  1.00  0.00    -0.174 NA
BRANCH  12  16
ATOM     16  C   UNL A   1      34.013  23.397  24.201  1.00  0.00    -0.023 A 
ATOM     17  C   UNL A   1      32.858  25.326  22.511  1.00  0.00     0.118 A 
ATOM     18  C   UNL A   1      32.925  23.995  22.107  1.00  0.00     0.047 A 
ATOM     19  C   UNL A   1      33.455  25.711  23.714  1.00  0.00     0.047 A 
ATOM     20  C   UNL A   1      33.532  23.041  22.923  1.00  0.00     0.010 A 
ATOM     21  C   UNL A   1      34.037  24.751  24.557  1.00  0.00     0.010 A 
BRANCH  17  22
ATOM     22  O   UNL A   1      32.085  26.121  21.714  1.00  0.00    -0.497 OA
ATOM     23  C   UNL A   1      31.596  27.320  22.292  1.00  0.00     0.278 C 
ENDBRANCH  17  22
ENDBRANCH  12  16
BRANCH  14  24
ATOM     24  C   UNL A   1      33.935  18.617  24.785  1.00  0.00    -0.002 A 
ATOM     25  C   UNL A   1      34.501  17.775  23.826  1.00  0.00     0.010 A 
ATOM     26  C   UNL A   1      32.909  18.177  25.622  1.00  0.00     0.010 A 
ATOM     27  C   UNL A   1      34.030  16.467  23.711  1.00  0.00     0.001 A 
ATOM     28  C   UNL A   1      32.435  16.874  25.491  1.00  0.00     0.001 A 
ATOM     29  C   UNL A   1      32.996  16.020  24.540  1.00  0.00     0.000 A 
ENDBRANCH  14  24
ENDBRANCH   9  11
ENDBRANCH   8   9
ENDBRANCH   7   8
ENDBRANCH   6   7
ENDBRANCH   3   6
ENDBRANCH   1   2
BRANCH   1  30
ATOM     30  C   UNL A   1      44.172  18.334  25.990  1.00  0.00     0.021 C 
BRANCH  30  31
ATOM     31  C   UNL A   1      44.435  18.890  24.593  1.00  0.00     0.002 C 
BRANCH  31  32
ATOM     32  C   UNL A   1      45.248  20.192  24.603  1.00  0.00     0.002 C 
BRANCH  32  33
ATOM     33  C   UNL A   1      44.412  21.463  24.770  1.00  0.00     0.021 C 
BRANCH  33  34
ATOM     34  C   UNL A   1      44.666  22.201  26.078  1.00  0.00     0.116 C 
BRANCH  34  35
ATOM     35  N   UNL A   1      43.421  22.638  26.692  1.00  0.00    -0.352 N 
ATOM     36  C   UNL A   1      43.122  23.847  27.265  1.00  0.00     0.251 C 
ATOM     37  H   UNL A   1      42.695  21.974  26.696  1.00  0.00     0.163 HD
ATOM     38  O   UNL A   1      42.120  23.987  27.947  1.00  0.00    -0.269 OA
BRANCH  36  39
ATOM     39  C   UNL A   1      44.045  24.975  27.044  1.00  0.00     0.039 A 
ATOM     40  C   UNL A   1      44.111  25.555  25.777  1.00  0.00     0.014 A 
ATOM     41  C   UNL A   1      44.824  25.459  28.099  1.00  0.00     0.014 A 
ATOM     42  C   UNL A   1      44.939  26.659  25.578  1.00  0.00     0.010 A 
ATOM     43  C   UNL A   1      45.581  26.606  27.918  1.00  0.00     0.010 A 
ATOM     44  C   UNL A   1      45.659  27.206  26.653  1.00  0.00    -0.014 A 
BRANCH  44  45
ATOM     45  C   UNL A   1      46.520  28.396  26.470  1.00  0.00     0.031 A 
ATOM     46  C   UNL A   1      47.993  28.222  26.231  1.00  0.00     0.074 A 
ATOM     47  C   UNL A   1      45.985  29.627  26.574  1.00  0.00     0.049 A 
ATOM     48  N   UNL A   1      48.922  29.134  26.099  1.00  0.00    -0.248 NA
ATOM     49  C   UNL A   1      48.495  26.839  26.159  1.00  0.00     0.031 C 
ATOM     50  C   UNL A   1      44.575  29.920  26.840  1.00  0.00     0.029 A 
ATOM     51  N   UNL A   1      46.568  30.864  26.474  1.00  0.00    -0.354 N 
ATOM     52  C   UNL A   1      50.113  28.438  25.945  1.00  0.00     0.074 A 
ATOM     53  C   UNL A   1      49.801  27.030  26.057  1.00  0.00     0.031 C 
ATOM     54  C   UNL A   1      44.398  31.252  26.850  1.00  0.00     0.029 A 
ATOM     55  C   UNL A   1      45.686  31.903  26.638  1.00  0.00     0.049 A 
ATOM     56  H   UNL A   1      47.529  30.994  26.299  1.00  0.00     0.167 HD
ATOM     57  C   UNL A   1      51.353  28.926  25.711  1.00  0.00     0.031 A 
ATOM     58  C   UNL A   1      45.895  33.232  26.629  1.00  0.00     0.031 A 
ATOM     59  C   UNL A   1      51.656  30.327  25.597  1.00  0.00     0.049 A 
ATOM     60  C   UNL A   1      47.287  33.749  26.391  1.00  0.00     0.074 A 
ATOM     61  C   UNL A   1      52.869  30.926  25.309  1.00  0.00     0.029 A 
ATOM     62  N   UNL A   1      50.735  31.349  25.769  1.00  0.00    -0.354 N 
ATOM     63  N   UNL A   1      48.393  33.078  26.176  1.00  0.00    -0.248 NA
ATOM     64  C   UNL A   1      47.457  35.209  26.385  1.00  0.00     0.031 C 
ATOM     65  C   UNL A   1      52.695  32.312  25.366  1.00  0.00     0.029 A 
ATOM     66  C   UNL A   1      51.359  32.575  25.621  1.00  0.00     0.049 A 
ATOM     67  H   UNL A   1      49.779  31.221  25.968  1.00  0.00     0.167 HD
ATOM     68  C   UNL A   1      49.383  34.032  25.975  1.00  0.00     0.074 A 
ATOM     69  C   UNL A   1      48.741  35.327  26.079  1.00  0.00     0.031 C 
ATOM     70  C   UNL A   1      50.702  33.853  25.725  1.00  0.00     0.031 A 
BRANCH  57  71
ATOM     71  C   UNL A   1      52.475  27.934  25.572  1.00  0.00    -0.014 A 
ATOM     72  C   UNL A   1      52.822  27.393  24.323  1.00  0.00     0.009 A 
ATOM     73  C   UNL A   1      53.215  27.556  26.703  1.00  0.00     0.009 A 
ATOM     74  C   UNL A   1      53.861  26.467  24.216  1.00  0.00     0.001 A 
ATOM     75  C   UNL A   1      54.275  26.655  26.588  1.00  0.00     0.001 A 
ATOM     76  C   UNL A   1      54.590  26.103  25.348  1.00  0.00     0.000 A 
ENDBRANCH  57  71
BRANCH  58  77
ATOM     77  C   UNL A   1      44.760  34.169  26.837  1.00  0.00    -0.014 A 
ATOM     78  C   UNL A   1      44.507  34.713  28.105  1.00  0.00     0.009 A 
ATOM     79  C   UNL A   1      43.916  34.518  25.770  1.00  0.00     0.009 A 
ATOM     80  C   UNL A   1      43.414  35.560  28.308  1.00  0.00     0.001 A 
ATOM     81  C   UNL A   1      42.844  35.390  25.969  1.00  0.00     0.001 A 
ATOM     82  C   UNL A   1      42.587  35.901  27.239  1.00  0.00     0.000 A 
ENDBRANCH  58  77
BRANCH  70  83
ATOM     83  C   UNL A   1      51.534  35.085  25.501  1.00  0.00    -0.014 A 
ATOM     84  C   UNL A   1      52.181  35.737  26.561  1.00  0.00     0.009 A 
ATOM     85  C   UNL A   1      51.708  35.571  24.195  1.00  0.00     0.009 A 
ATOM     86  C   UNL A   1      52.959  36.872  26.322  1.00  0.00     0.001 A 
ATOM     87  C   UNL A   1      52.512  36.686  23.953  1.00  0.00     0.001 A 
ATOM     88  C   UNL A   1      53.128  37.341  25.019  1.00  0.00     0.000 A 
ENDBRANCH  70  83
ENDBRANCH  44  45
ENDBRANCH  36  39
ENDBRANCH  34  35
ENDBRANCH  33  34
ENDBRANCH  32  33
ENDBRANCH  31  32
ENDBRANCH  30  31
ENDBRANCH   1  30
TORSDOF 20
ENDMDL
MODEL 2
REMARK VINA RESULT:     -10.4      2.905      4.907
REMARK SMILES COc1ccc([C@H]2CC(c3ccccc3)=NN2C(=O)CCCC(=O)NCCCCCCNC(=O)c2ccc(-c3c4nc(c(-c5ccccc5)c5ccc([nH]5)c(-c5ccccc5)c5nc(c(-c6ccccc6)c6ccc3[nH]6)C=C5)C=C4)cc2)cc1
REMARK SMILES IDX 26 1 25 2 23 3 24 4 22 6 21 7 20 8 18 9 19 10 17 11 7 12
REMARK SMILES IDX 8 13 9 14 16 15 6 16 3 17 4 18 84 19 5 20 83 21 2 22 1 23
REMARK SMILES IDX 10 24 11 25 15 26 12 27 14 28 13 29 27 30 28 31 29 32 30 33
REMARK SMILES IDX 31 34 32 35 33 36 34 38 35 39 36 40 82 41 37 42 81 43 38 44
REMARK SMILES IDX 39 45 40 46 75 47 41 48 80 49 74 50 76 51 42 52 79 53 73 54
REMARK SMILES IDX 72 55 43 57 65 58 50 59 64 60 51 61 54 62 63 63 77 64 52 65
REMARK SMILES IDX 53 66 62 68 78 69 55 70 44 71 45 72 49 73 46 74 48 75 47 76
REMARK SMILES IDX 66 77 67 78 71 79 68 80 70 81 69 82 56 83 57 84 61 85 58 86
REMARK SMILES IDX 60 87 59 88
REMARK H PARENT 25 5 32 37 76 56 54 67
REMARK Flexibility Score: inf
ROOT
ATOM      1  C   UNL A   1      39.088  29.645  28.510  1.00  0.00     0.116 C 
ENDROOT
BRANCH   1   2
ATOM      2  N   UNL A   1      37.951  29.093  29.198  1.00  0.00    -0.356 N 
ATOM      3  C   UNL A   1      36.726  29.650  29.408  1.00  0.00     0.220 C 
ATOM      4  O   UNL A   1      36.079  29.255  30.380  1.00  0.00    -0.275 OA
ATOM      5  H   UNL A   1      38.076  28.188  29.567  1.00  0.00     0.163 HD
BRANCH   3   6
ATOM      6  C   UNL A   1      36.110  30.578  28.379  1.00  0.00     0.100 C 
BRANCH   6   7
ATOM      7  C   UNL A   1      34.820  30.318  27.648  1.00  0.00     0.020 C 
BRANCH   7   8
ATOM      8  C   UNL A   1      34.675  28.983  26.924  1.00  0.00     0.103 C 
BRANCH   8   9
ATOM      9  C   UNL A   1      33.400  28.103  26.901  1.00  0.00     0.243 C 
ATOM     10  O   UNL A   1      32.430  28.632  27.485  1.00  0.00    -0.273 OA
BRANCH   9  11
ATOM     11  N   UNL A   1      33.184  26.925  26.183  1.00  0.00    -0.225 N 
ATOM     12  C   UNL A   1      32.027  26.076  25.725  1.00  0.00     0.147 C 
ATOM     13  C   UNL A   1      32.653  24.858  25.049  1.00  0.00     0.091 C 
ATOM     14  C   UNL A   1      34.078  25.083  25.392  1.00  0.00     0.071 C 
ATOM     15  N   UNL A   1      34.366  26.198  25.975  1.00  0.00    -0.174 NA
BRANCH  12  16
ATOM     16  C   UNL A   1      31.015  26.656  24.756  1.00  0.00    -0.023 A 
ATOM     17  C   UNL A   1      28.877  27.879  23.398  1.00  0.00     0.118 A 
ATOM     18  C   UNL A   1      28.710  26.622  23.973  1.00  0.00     0.047 A 
ATOM     19  C   UNL A   1      30.137  28.482  23.415  1.00  0.00     0.047 A 
ATOM     20  C   UNL A   1      29.777  25.993  24.613  1.00  0.00     0.010 A 
ATOM     21  C   UNL A   1      31.208  27.871  24.087  1.00  0.00     0.010 A 
BRANCH  17  22
ATOM     22  O   UNL A   1      27.719  28.461  22.965  1.00  0.00    -0.497 OA
ATOM     23  C   UNL A   1      27.684  29.879  22.956  1.00  0.00     0.278 C 
ENDBRANCH  17  22
ENDBRANCH  12  16
BRANCH  14  24
ATOM     24  C   UNL A   1      35.079  24.086  25.024  1.00  0.00    -0.002 A 
ATOM     25  C   UNL A   1      35.730  23.346  26.013  1.00  0.00     0.010 A 
ATOM     26  C   UNL A   1      35.371  23.905  23.672  1.00  0.00     0.010 A 
ATOM     27  C   UNL A   1      36.687  22.405  25.633  1.00  0.00     0.001 A 
ATOM     28  C   UNL A   1      36.337  22.974  23.303  1.00  0.00     0.001 A 
ATOM     29  C   UNL A   1      36.993  22.223  24.281  1.00  0.00     0.000 A 
ENDBRANCH  14  24
ENDBRANCH   9  11
ENDBRANCH   8   9
ENDBRANCH   7   8
ENDBRANCH   6   7
ENDBRANCH   3   6
ENDBRANCH   1   2
BRANCH   1  30
ATOM     30  C   UNL A   1      39.146  29.084  27.096  1.00  0.00     0.021 C 
BRANCH  30  31
ATOM     31  C   UNL A   1      40.465  28.348  26.870  1.00  0.00     0.002 C 
BRANCH  31  32
ATOM     32  C   UNL A   1      40.671  27.169  27.831  1.00  0.00     0.002 C 
BRANCH  32  33
ATOM     33  C   UNL A   1      40.145  25.828  27.315  1.00  0.00     0.021 C 
BRANCH  33  34
ATOM     34  C   UNL A   1      40.554  24.634  28.170  1.00  0.00     0.116 C 
BRANCH  34  35
ATOM     35  N   UNL A   1      41.075  23.550  27.353  1.00  0.00    -0.352 N 
ATOM     36  C   UNL A   1      42.112  23.570  26.455  1.00  0.00     0.251 C 
ATOM     37  H   UNL A   1      40.622  22.683  27.459  1.00  0.00     0.163 HD
ATOM     38  O   UNL A   1      42.282  22.649  25.673  1.00  0.00    -0.269 OA
BRANCH  36  39
ATOM     39  C   UNL A   1      43.013  24.736  26.451  1.00  0.00     0.039 A 
ATOM     40  C   UNL A   1      43.762  25.014  27.594  1.00  0.00     0.014 A 
ATOM     41  C   UNL A   1      43.122  25.533  25.308  1.00  0.00     0.014 A 
ATOM     42  C   UNL A   1      44.659  26.081  27.575  1.00  0.00     0.010 A 
ATOM     43  C   UNL A   1      44.073  26.540  25.265  1.00  0.00     0.010 A 
ATOM     44  C   UNL A   1      44.838  26.834  26.403  1.00  0.00    -0.014 A 
BRANCH  44  45
ATOM     45  C   UNL A   1      45.808  27.951  26.352  1.00  0.00     0.031 A 
ATOM     46  C   UNL A   1      47.274  27.661  26.195  1.00  0.00     0.074 A 
ATOM     47  C   UNL A   1      45.374  29.216  26.505  1.00  0.00     0.049 A 
ATOM     48  N   UNL A   1      48.283  28.493  26.181  1.00  0.00    -0.248 NA
ATOM     49  C   UNL A   1      47.660  26.245  26.062  1.00  0.00     0.031 C 
ATOM     50  C   UNL A   1      43.979  29.618  26.701  1.00  0.00     0.029 A 
ATOM     51  N   UNL A   1      46.066  30.400  26.522  1.00  0.00    -0.354 N 
ATOM     52  C   UNL A   1      49.419  27.704  26.056  1.00  0.00     0.074 A 
ATOM     53  C   UNL A   1      48.982  26.325  26.054  1.00  0.00     0.031 C 
ATOM     54  C   UNL A   1      43.916  30.957  26.789  1.00  0.00     0.029 A 
ATOM     55  C   UNL A   1      45.267  31.502  26.701  1.00  0.00     0.049 A 
ATOM     56  H   UNL A   1      47.044  30.455  26.417  1.00  0.00     0.167 HD
ATOM     57  C   UNL A   1      50.709  28.092  25.932  1.00  0.00     0.031 A 
ATOM     58  C   UNL A   1      45.589  32.806  26.793  1.00  0.00     0.031 A 
ATOM     59  C   UNL A   1      51.137  29.465  25.930  1.00  0.00     0.049 A 
ATOM     60  C   UNL A   1      47.033  33.209  26.676  1.00  0.00     0.074 A 
ATOM     61  C   UNL A   1      52.414  29.969  25.758  1.00  0.00     0.029 A 
ATOM     62  N   UNL A   1      50.297  30.552  26.112  1.00  0.00    -0.354 N 
ATOM     63  N   UNL A   1      48.089  32.456  26.486  1.00  0.00    -0.248 NA
ATOM     64  C   UNL A   1      47.326  34.645  26.777  1.00  0.00     0.031 C 
ATOM     65  C   UNL A   1      52.355  31.359  25.896  1.00  0.00     0.029 A 
ATOM     66  C   UNL A   1      51.032  31.725  26.084  1.00  0.00     0.049 A 
ATOM     67  H   UNL A   1      49.322  30.498  26.242  1.00  0.00     0.167 HD
ATOM     68  C   UNL A   1      49.168  33.328  26.411  1.00  0.00     0.074 A 
ATOM     69  C   UNL A   1      48.633  34.667  26.560  1.00  0.00     0.031 C 
ATOM     70  C   UNL A   1      50.481  33.048  26.231  1.00  0.00     0.031 A 
BRANCH  57  71
ATOM     71  C   UNL A   1      51.749  27.014  25.798  1.00  0.00    -0.014 A 
ATOM     72  C   UNL A   1      52.134  26.523  24.540  1.00  0.00     0.009 A 
ATOM     73  C   UNL A   1      52.374  26.501  26.945  1.00  0.00     0.009 A 
ATOM     74  C   UNL A   1      53.096  25.516  24.436  1.00  0.00     0.001 A 
ATOM     75  C   UNL A   1      53.358  25.517  26.836  1.00  0.00     0.001 A 
ATOM     76  C   UNL A   1      53.711  25.018  25.584  1.00  0.00     0.000 A 
ENDBRANCH  57  71
BRANCH  58  77
ATOM     77  C   UNL A   1      44.526  33.826  26.991  1.00  0.00    -0.014 A 
ATOM     78  C   UNL A   1      44.128  34.199  28.283  1.00  0.00     0.009 A 
ATOM     79  C   UNL A   1      43.896  34.426  25.889  1.00  0.00     0.009 A 
ATOM     80  C   UNL A   1      43.100  35.127  28.469  1.00  0.00     0.001 A 
ATOM     81  C   UNL A   1      42.891  35.376  26.077  1.00  0.00     0.001 A 
ATOM     82  C   UNL A   1      42.486  35.717  27.365  1.00  0.00     0.000 A 
ENDBRANCH  58  77
BRANCH  70  83
ATOM     83  C   UNL A   1      51.428  34.212  26.142  1.00  0.00    -0.014 A 
ATOM     84  C   UNL A   1      51.716  34.831  24.916  1.00  0.00     0.009 A 
ATOM     85  C   UNL A   1      52.004  34.725  27.315  1.00  0.00     0.009 A 
ATOM     86  C   UNL A   1      52.589  35.920  24.864  1.00  0.00     0.001 A 
ATOM     87  C   UNL A   1      52.849  35.833  27.265  1.00  0.00     0.001 A 
ATOM     88  C   UNL A   1      53.150  36.423  26.038  1.00  0.00     0.000 A 
ENDBRANCH  70  83
ENDBRANCH  44  45
ENDBRANCH  36  39
ENDBRANCH  34  35
ENDBRANCH  33  34
ENDBRANCH  32  33
ENDBRANCH  31  32
ENDBRANCH  30  31
ENDBRANCH   1  30
TORSDOF 20
ENDMDL
MODEL 3
REMARK VINA RESULT:     -10.1      6.577     13.537
REMARK SMILES COc1ccc([C@H]2CC(c3ccccc3)=NN2C(=O)CCCC(=O)NCCCCCCNC(=O)c2ccc(-c3c4nc(c(-c5ccccc5)c5ccc([nH]5)c(-c5ccccc5)c5nc(c(-c6ccccc6)c6ccc3[nH]6)C=C5)C=C4)cc2)cc1
REMARK SMILES IDX 26 1 25 2 23 3 24 4 22 6 21 7 20 8 18 9 19 10 17 11 7 12
REMARK SMILES IDX 8 13 9 14 16 15 6 16 3 17 4 18 84 19 5 20 83 21 2 22 1 23
REMARK SMILES IDX 10 24 11 25 15 26 12 27 14 28 13 29 27 30 28 31 29 32 30 33
REMARK SMILES IDX 31 34 32 35 33 36 34 38 35 39 36 40 82 41 37 42 81 43 38 44
REMARK SMILES IDX 39 45 40 46 75 47 41 48 80 49 74 50 76 51 42 52 79 53 73 54
REMARK SMILES IDX 72 55 43 57 65 58 50 59 64 60 51 61 54 62 63 63 77 64 52 65
REMARK SMILES IDX 53 66 62 68 78 69 55 70 44 71 45 72 49 73 46 74 48 75 47 76
REMARK SMILES IDX 66 77 67 78 71 79 68 80 70 81 69 82 56 83 57 84 61 85 58 86
REMARK SMILES IDX 60 87 59 88
REMARK H PARENT 25 5 32 37 76 56 54 67
REMARK Flexibility Score: inf
ROOT
ATOM      1  C   UNL A   1      37.501  30.659  33.010  1.00  0.00     0.116 C 
ENDROOT
BRANCH   1   2
ATOM      2  N   UNL A   1      37.780  30.776  34.417  1.00  0.00    -0.356 N 
ATOM      3  C   UNL A   1      38.926  30.473  35.089  1.00  0.00     0.220 C 
ATOM      4  O   UNL A   1      38.828  30.191  36.285  1.00  0.00    -0.275 OA
ATOM      5  H   UNL A   1      37.042  31.123  34.970  1.00  0.00     0.163 HD
BRANCH   3   6
ATOM      6  C   UNL A   1      40.280  30.661  34.434  1.00  0.00     0.100 C 
BRANCH   6   7
ATOM      7  C   UNL A   1      41.458  29.740  34.612  1.00  0.00     0.020 C 
BRANCH   7   8
ATOM      8  C   UNL A   1      41.534  28.510  33.711  1.00  0.00     0.103 C 
BRANCH   8   9
ATOM      9  C   UNL A   1      42.775  27.600  33.531  1.00  0.00     0.243 C 
ATOM     10  O   UNL A   1      42.908  27.181  32.361  1.00  0.00    -0.273 OA
BRANCH   9  11
ATOM     11  N   UNL A   1      43.800  27.357  34.447  1.00  0.00    -0.225 N 
ATOM     12  C   UNL A   1      44.185  26.313  35.463  1.00  0.00     0.147 C 
ATOM     13  C   UNL A   1      45.444  26.846  36.143  1.00  0.00     0.091 C 
ATOM     14  C   UNL A   1      45.489  28.209  35.560  1.00  0.00     0.071 C 
ATOM     15  N   UNL A   1      44.627  28.474  34.636  1.00  0.00    -0.174 NA
BRANCH  12  16
ATOM     16  C   UNL A   1      44.487  24.900  35.003  1.00  0.00    -0.023 A 
ATOM     17  C   UNL A   1      45.208  22.205  34.649  1.00  0.00     0.118 A 
ATOM     18  C   UNL A   1      46.192  23.189  34.699  1.00  0.00     0.047 A 
ATOM     19  C   UNL A   1      43.861  22.575  34.677  1.00  0.00     0.047 A 
ATOM     20  C   UNL A   1      45.839  24.531  34.834  1.00  0.00     0.010 A 
ATOM     21  C   UNL A   1      43.498  23.921  34.847  1.00  0.00     0.010 A 
BRANCH  17  22
ATOM     22  O   UNL A   1      45.685  20.925  34.699  1.00  0.00    -0.497 OA
ATOM     23  C   UNL A   1      47.059  20.746  34.399  1.00  0.00     0.278 C 
ENDBRANCH  17  22
ENDBRANCH  12  16
BRANCH  14  24
ATOM     24  C   UNL A   1      46.507  29.156  36.005  1.00  0.00    -0.002 A 
ATOM     25  C   UNL A   1      46.262  29.987  37.099  1.00  0.00     0.010 A 
ATOM     26  C   UNL A   1      47.713  29.212  35.307  1.00  0.00     0.010 A 
ATOM     27  C   UNL A   1      47.250  30.888  37.499  1.00  0.00     0.001 A 
ATOM     28  C   UNL A   1      48.688  30.123  35.704  1.00  0.00     0.001 A 
ATOM     29  C   UNL A   1      48.459  30.957  36.799  1.00  0.00     0.000 A 
ENDBRANCH  14  24
ENDBRANCH   9  11
ENDBRANCH   8   9
ENDBRANCH   7   8
ENDBRANCH   6   7
ENDBRANCH   3   6
ENDBRANCH   1   2
BRANCH   1  30
ATOM     30  C   UNL A   1      36.460  31.697  32.612  1.00  0.00     0.021 C 
BRANCH  30  31
ATOM     31  C   UNL A   1      36.990  32.572  31.479  1.00  0.00     0.002 C 
BRANCH  31  32
ATOM     32  C   UNL A   1      35.945  33.556  30.936  1.00  0.00     0.002 C 
BRANCH  32  33
ATOM     33  C   UNL A   1      34.711  32.897  30.315  1.00  0.00     0.021 C 
BRANCH  33  34
ATOM     34  C   UNL A   1      34.764  32.795  28.796  1.00  0.00     0.116 C 
BRANCH  34  35
ATOM     35  N   UNL A   1      34.017  31.644  28.315  1.00  0.00    -0.352 N 
ATOM     36  C   UNL A   1      34.483  30.408  27.948  1.00  0.00     0.251 C 
ATOM     37  H   UNL A   1      33.044  31.770  28.243  1.00  0.00     0.163 HD
ATOM     38  O   UNL A   1      33.771  29.624  27.342  1.00  0.00    -0.269 OA
BRANCH  36  39
ATOM     39  C   UNL A   1      35.869  30.050  28.296  1.00  0.00     0.039 A 
ATOM     40  C   UNL A   1      36.132  29.508  29.553  1.00  0.00     0.014 A 
ATOM     41  C   UNL A   1      36.896  30.238  27.365  1.00  0.00     0.014 A 
ATOM     42  C   UNL A   1      37.432  29.114  29.865  1.00  0.00     0.010 A 
ATOM     43  C   UNL A   1      38.169  29.769  27.648  1.00  0.00     0.010 A 
ATOM     44  C   UNL A   1      38.453  29.218  28.906  1.00  0.00    -0.014 A 
BRANCH  44  45
ATOM     45  C   UNL A   1      39.833  28.777  29.207  1.00  0.00     0.031 A 
ATOM     46  C   UNL A   1      40.773  29.704  29.926  1.00  0.00     0.074 A 
ATOM     47  C   UNL A   1      40.254  27.571  28.783  1.00  0.00     0.049 A 
ATOM     48  N   UNL A   1      42.032  29.526  30.235  1.00  0.00    -0.248 NA
ATOM     49  C   UNL A   1      40.235  31.015  30.328  1.00  0.00     0.031 C 
ATOM     50  C   UNL A   1      39.444  26.600  28.044  1.00  0.00     0.029 A 
ATOM     51  N   UNL A   1      41.473  26.956  28.912  1.00  0.00    -0.354 N 
ATOM     52  C   UNL A   1      42.437  30.704  30.849  1.00  0.00     0.074 A 
ATOM     53  C   UNL A   1      41.311  31.610  30.819  1.00  0.00     0.031 C 
ATOM     54  C   UNL A   1      40.178  25.501  27.812  1.00  0.00     0.029 A 
ATOM     55  C   UNL A   1      41.521  25.706  28.344  1.00  0.00     0.049 A 
ATOM     56  H   UNL A   1      42.241  27.371  29.369  1.00  0.00     0.167 HD
ATOM     57  C   UNL A   1      43.635  30.997  31.408  1.00  0.00     0.031 A 
ATOM     58  C   UNL A   1      42.538  24.830  28.254  1.00  0.00     0.031 A 
ATOM     59  C   UNL A   1      44.750  30.090  31.438  1.00  0.00     0.049 A 
ATOM     60  C   UNL A   1      43.866  25.191  28.861  1.00  0.00     0.074 A 
ATOM     61  C   UNL A   1      45.990  30.269  32.024  1.00  0.00     0.029 A 
ATOM     62  N   UNL A   1      44.759  28.833  30.852  1.00  0.00    -0.354 N 
ATOM     63  N   UNL A   1      44.214  26.280  29.503  1.00  0.00    -0.248 NA
ATOM     64  C   UNL A   1      44.939  24.194  28.740  1.00  0.00     0.031 C 
ATOM     65  C   UNL A   1      46.771  29.144  31.741  1.00  0.00     0.029 A 
ATOM     66  C   UNL A   1      45.994  28.236  31.039  1.00  0.00     0.049 A 
ATOM     67  H   UNL A   1      44.001  28.427  30.374  1.00  0.00     0.167 HD
ATOM     68  C   UNL A   1      45.534  26.086  29.891  1.00  0.00     0.074 A 
ATOM     69  C   UNL A   1      45.917  24.769  29.425  1.00  0.00     0.031 C 
ATOM     70  C   UNL A   1      46.354  26.922  30.572  1.00  0.00     0.031 A 
BRANCH  57  71
ATOM     71  C   UNL A   1      43.799  32.360  32.022  1.00  0.00    -0.014 A 
ATOM     72  C   UNL A   1      44.237  33.456  31.260  1.00  0.00     0.009 A 
ATOM     73  C   UNL A   1      43.484  32.558  33.375  1.00  0.00     0.009 A 
ATOM     74  C   UNL A   1      44.391  34.712  31.850  1.00  0.00     0.001 A 
ATOM     75  C   UNL A   1      43.608  33.823  33.954  1.00  0.00     0.001 A 
ATOM     76  C   UNL A   1      44.071  34.895  33.195  1.00  0.00     0.000 A 
ENDBRANCH  57  71
BRANCH  58  77
ATOM     77  C   UNL A   1      42.340  23.522  27.577  1.00  0.00    -0.014 A 
ATOM     78  C   UNL A   1      42.684  23.357  26.228  1.00  0.00     0.009 A 
ATOM     79  C   UNL A   1      41.796  22.431  28.276  1.00  0.00     0.009 A 
ATOM     80  C   UNL A   1      42.457  22.139  25.581  1.00  0.00     0.001 A 
ATOM     81  C   UNL A   1      41.601  21.206  27.636  1.00  0.00     0.001 A 
ATOM     82  C   UNL A   1      41.920  21.064  26.287  1.00  0.00     0.000 A 
ENDBRANCH  58  77
BRANCH  70  83
ATOM     83  C   UNL A   1      47.733  26.420  30.897  1.00  0.00    -0.014 A 
ATOM     84  C   UNL A   1      48.021  25.808  32.126  1.00  0.00     0.009 A 
ATOM     85  C   UNL A   1      48.749  26.522  29.932  1.00  0.00     0.009 A 
ATOM     86  C   UNL A   1      49.309  25.338  32.395  1.00  0.00     0.001 A 
ATOM     87  C   UNL A   1      50.026  26.023  30.190  1.00  0.00     0.001 A 
ATOM     88  C   UNL A   1      50.308  25.440  31.426  1.00  0.00     0.000 A 
ENDBRANCH  70  83
ENDBRANCH  44  45
ENDBRANCH  36  39
ENDBRANCH  34  35
ENDBRANCH  33  34
ENDBRANCH  32  33
ENDBRANCH  31  32
ENDBRANCH  30  31
ENDBRANCH   1  30
TORSDOF 20
ENDMDL
