MODEL 1
REMARK VINA RESULT:     -11.9      0.000      0.000
REMARK SMILES Cc1c(CC(=O)N[C@H](CO)C(=O)NCCCCCCNC(=O)c2ccc(-c3c4nc(c(-c5ccccc5)c5ccc([nH]5)c(-c5ccccc5)c5nc(c(-c6ccccc6)c6ccc3[nH]6)C=C5)C=C4)cc2)cc(-c2ccc(S(C)(=O)=O)cc2)n1-c1cccc(F)c1
REMARK SMILES IDX 15 1 14 2 13 3 11 4 12 5 8 7 7 8 5 9 6 10 4 12 3 13 1 14
REMARK SMILES IDX 2 15 83 16 71 17 72 18 84 19 85 20 90 21 86 22 88 23 87 24
REMARK SMILES IDX 89 25 73 26 74 27 82 28 75 29 81 30 76 31 77 32 78 33 79 34
REMARK SMILES IDX 80 35 9 36 10 37 16 39 17 40 18 41 19 42 20 43 21 44 22 46
REMARK SMILES IDX 23 47 24 48 70 49 25 50 69 51 26 52 27 53 28 54 63 55 29 56
REMARK SMILES IDX 68 57 62 58 64 59 30 60 67 61 61 62 60 63 31 65 53 66 38 67
REMARK SMILES IDX 52 68 39 69 42 70 51 71 65 72 40 73 41 74 50 76 66 77 43 78
REMARK SMILES IDX 32 79 33 80 37 81 34 82 36 83 35 84 54 85 55 86 59 87 56 88
REMARK SMILES IDX 58 89 57 90 44 91 45 92 49 93 46 94 48 95 47 96
REMARK H PARENT 13 6 7 11 10 38 20 45 64 64 42 75
REMARK Flexibility Score: inf
ROOT
ATOM      1  C   UNL A   1      38.841  27.982  28.471  1.00  0.00     0.021 C 
ENDROOT
BRANCH   1   2
ATOM      2  C   UNL A   1      37.893  28.957  29.242  1.00  0.00     0.116 C 
BRANCH   2   3
ATOM      3  N   UNL A   1      38.343  30.348  29.347  1.00  0.00    -0.354 N 
ATOM      4  C   UNL A   1      37.759  31.326  30.086  1.00  0.00     0.244 C 
ATOM      5  O   UNL A   1      38.234  32.450  30.164  1.00  0.00    -0.273 OA
ATOM      6  H   UNL A   1      39.145  30.596  28.833  1.00  0.00     0.163 HD
BRANCH   4   7
ATOM      7  C   UNL A   1      36.566  30.832  30.823  1.00  0.00     0.197 C 
BRANCH   7   8
ATOM      8  N   UNL A   1      35.470  31.882  30.568  1.00  0.00    -0.342 N 
ATOM      9  C   UNL A   1      34.678  32.404  29.541  1.00  0.00     0.225 C 
ATOM     10  O   UNL A   1      33.960  33.340  29.945  1.00  0.00    -0.275 OA
ATOM     11  H   UNL A   1      35.254  32.340  31.413  1.00  0.00     0.164 HD
BRANCH   9  12
ATOM     12  C   UNL A   1      34.489  31.972  27.973  1.00  0.00     0.137 C 
BRANCH  12  13
ATOM     13  C   UNL A   1      33.597  30.680  27.508  1.00  0.00    -0.017 A 
ATOM     14  C   UNL A   1      31.146  31.894  26.430  1.00  0.00     0.065 C 
ATOM     15  C   UNL A   1      32.003  30.695  26.655  1.00  0.00     0.024 A 
ATOM     16  N   UNL A   1      31.748  29.014  25.863  1.00  0.00    -0.313 N 
ATOM     17  C   UNL A   1      34.359  28.893  27.213  1.00  0.00     0.033 A 
ATOM     18  C   UNL A   1      33.229  27.926  26.206  1.00  0.00     0.053 A 
BRANCH  16  19
ATOM     19  C   UNL A   1      30.909  28.692  24.754  1.00  0.00     0.049 A 
ATOM     20  C   UNL A   1      30.641  29.727  23.851  1.00  0.00     0.027 A 
ATOM     21  C   UNL A   1      30.264  27.465  24.657  1.00  0.00     0.065 A 
ATOM     22  C   UNL A   1      29.582  29.616  22.973  1.00  0.00     0.005 A 
ATOM     23  C   UNL A   1      29.226  27.357  23.747  1.00  0.00     0.125 A 
ATOM     24  C   UNL A   1      28.834  28.445  22.969  1.00  0.00     0.039 A 
ATOM     25  F   UNL A   1      28.579  26.192  23.624  1.00  0.00    -0.207 F 
ENDBRANCH  16  19
BRANCH  18  26
ATOM     26  C   UNL A   1      33.618  26.747  25.408  1.00  0.00    -0.001 A 
ATOM     27  C   UNL A   1      33.861  26.810  24.020  1.00  0.00     0.011 A 
ATOM     28  C   UNL A   1      33.801  25.543  26.077  1.00  0.00     0.011 A 
ATOM     29  C   UNL A   1      34.128  25.652  23.290  1.00  0.00     0.021 A 
ATOM     30  C   UNL A   1      34.083  24.384  25.361  1.00  0.00     0.021 A 
ATOM     31  C   UNL A   1      34.197  24.437  23.969  1.00  0.00     0.067 A 
BRANCH  31  32
ATOM     32  S   UNL A   1      34.412  22.930  23.057  1.00  0.00     0.175 S 
ATOM     33  C   UNL A   1      34.355  21.675  24.311  1.00  0.00     0.163 C 
ATOM     34  O   UNL A   1      33.254  22.780  22.199  1.00  0.00    -0.224 OA
ATOM     35  O   UNL A   1      35.757  22.939  22.514  1.00  0.00    -0.224 OA
ENDBRANCH  31  32
ENDBRANCH  18  26
ENDBRANCH  12  13
ENDBRANCH   9  12
ENDBRANCH   7   8
BRANCH   7  36
ATOM     36  C   UNL A   1      37.027  30.471  32.289  1.00  0.00     0.191 C 
BRANCH  36  37
ATOM     37  O   UNL A   1      36.779  29.104  32.624  1.00  0.00    -0.394 OA
ATOM     38  H   UNL A   1      36.991  28.541  31.863  1.00  0.00     0.210 HD
ENDBRANCH  36  37
ENDBRANCH   7  36
ENDBRANCH   4   7
ENDBRANCH   2   3
ENDBRANCH   1   2
BRANCH   1  39
ATOM     39  C   UNL A   1      39.306  25.759  28.514  1.00  0.00     0.002 C 
BRANCH  39  40
ATOM     40  C   UNL A   1      39.194  24.411  27.441  1.00  0.00     0.002 C 
BRANCH  40  41
ATOM     41  C   UNL A   1      40.053  23.097  27.413  1.00  0.00     0.021 C 
BRANCH  41  42
ATOM     42  C   UNL A   1      40.308  22.357  26.077  1.00  0.00     0.116 C 
BRANCH  42  43
ATOM     43  N   UNL A   1      41.654  22.229  25.540  1.00  0.00    -0.352 N 
ATOM     44  C   UNL A   1      42.802  23.014  25.796  1.00  0.00     0.251 C 
ATOM     45  H   UNL A   1      41.785  21.487  24.906  1.00  0.00     0.163 HD
ATOM     46  O   UNL A   1      43.877  22.522  25.446  1.00  0.00    -0.269 OA
BRANCH  44  47
ATOM     47  C   UNL A   1      42.799  24.432  26.443  1.00  0.00     0.039 A 
ATOM     48  C   UNL A   1      43.032  24.621  27.791  1.00  0.00     0.014 A 
ATOM     49  C   UNL A   1      42.264  25.609  25.874  1.00  0.00     0.014 A 
ATOM     50  C   UNL A   1      43.011  25.969  28.436  1.00  0.00     0.010 A 
ATOM     51  C   UNL A   1      42.176  26.988  26.568  1.00  0.00     0.010 A 
ATOM     52  C   UNL A   1      42.668  27.289  27.872  1.00  0.00    -0.014 A 
BRANCH  52  53
ATOM     53  C   UNL A   1      42.349  28.686  28.978  1.00  0.00     0.031 A 
ATOM     54  C   UNL A   1      43.439  29.512  28.409  1.00  0.00     0.074 A 
ATOM     55  C   UNL A   1      41.792  29.302  30.213  1.00  0.00     0.049 A 
ATOM     56  N   UNL A   1      44.586  28.923  28.561  1.00  0.00    -0.248 NA
ATOM     57  C   UNL A   1      43.418  30.487  27.325  1.00  0.00     0.031 C 
ATOM     58  C   UNL A   1      41.046  28.690  31.364  1.00  0.00     0.029 A 
ATOM     59  N   UNL A   1      41.795  30.714  30.813  1.00  0.00    -0.354 N 
ATOM     60  C   UNL A   1      45.521  29.546  27.786  1.00  0.00     0.074 A 
ATOM     61  C   UNL A   1      44.708  30.425  26.938  1.00  0.00     0.031 C 
ATOM     62  C   UNL A   1      40.554  29.586  32.300  1.00  0.00     0.029 A 
ATOM     63  C   UNL A   1      40.912  30.994  32.041  1.00  0.00     0.049 A 
ATOM     64  H   UNL A   1      42.349  31.425  30.421  1.00  0.00     0.167 HD
ATOM     65  C   UNL A   1      46.627  29.801  28.545  1.00  0.00     0.031 A 
ATOM     66  C   UNL A   1      40.640  32.188  32.841  1.00  0.00     0.031 A 
ATOM     67  C   UNL A   1      46.368  30.982  29.342  1.00  0.00     0.049 A 
ATOM     68  C   UNL A   1      41.942  32.844  32.907  1.00  0.00     0.074 A 
ATOM     69  C   UNL A   1      45.748  32.172  28.992  1.00  0.00     0.029 A 
ATOM     70  N   UNL A   1      46.180  30.823  30.699  1.00  0.00    -0.354 N 
ATOM     71  N   UNL A   1      42.918  32.431  33.649  1.00  0.00    -0.248 NA
ATOM     72  C   UNL A   1      42.188  34.008  32.085  1.00  0.00     0.031 C 
ATOM     73  C   UNL A   1      44.749  32.312  29.967  1.00  0.00     0.029 A 
ATOM     74  C   UNL A   1      45.223  31.715  31.123  1.00  0.00     0.049 A 
ATOM     75  H   UNL A   1      46.653  30.176  31.272  1.00  0.00     0.167 HD
ATOM     76  C   UNL A   1      43.961  32.747  32.834  1.00  0.00     0.074 A 
ATOM     77  C   UNL A   1      43.510  33.885  32.029  1.00  0.00     0.031 C 
ATOM     78  C   UNL A   1      44.788  31.729  32.484  1.00  0.00     0.031 A 
BRANCH  65  79
ATOM     79  C   UNL A   1      47.187  28.485  29.100  1.00  0.00    -0.014 A 
ATOM     80  C   UNL A   1      47.643  27.523  28.198  1.00  0.00     0.009 A 
ATOM     81  C   UNL A   1      47.061  28.091  30.461  1.00  0.00     0.009 A 
ATOM     82  C   UNL A   1      47.906  26.213  28.626  1.00  0.00     0.001 A 
ATOM     83  C   UNL A   1      47.272  26.775  30.877  1.00  0.00     0.001 A 
ATOM     84  C   UNL A   1      47.695  25.833  29.954  1.00  0.00     0.000 A 
ENDBRANCH  65  79
BRANCH  66  85
ATOM     85  C   UNL A   1      39.765  33.122  33.931  1.00  0.00    -0.014 A 
ATOM     86  C   UNL A   1      38.347  33.451  33.746  1.00  0.00     0.009 A 
ATOM     87  C   UNL A   1      40.113  33.173  35.295  1.00  0.00     0.009 A 
ATOM     88  C   UNL A   1      37.400  33.710  34.799  1.00  0.00     0.001 A 
ATOM     89  C   UNL A   1      39.164  33.449  36.352  1.00  0.00     0.001 A 
ATOM     90  C   UNL A   1      37.810  33.687  36.116  1.00  0.00     0.000 A 
ENDBRANCH  66  85
BRANCH  78  91
ATOM     91  C   UNL A   1      45.079  30.656  33.506  1.00  0.00    -0.014 A 
ATOM     92  C   UNL A   1      44.436  29.401  33.584  1.00  0.00     0.009 A 
ATOM     93  C   UNL A   1      46.010  30.963  34.504  1.00  0.00     0.009 A 
ATOM     94  C   UNL A   1      44.676  28.522  34.650  1.00  0.00     0.001 A 
ATOM     95  C   UNL A   1      46.278  30.076  35.550  1.00  0.00     0.001 A 
ATOM     96  C   UNL A   1      45.596  28.865  35.635  1.00  0.00     0.000 A 
ENDBRANCH  78  91
ENDBRANCH  52  53
ENDBRANCH  44  47
ENDBRANCH  42  43
ENDBRANCH  41  42
ENDBRANCH  40  41
ENDBRANCH  39  40
ENDBRANCH   1  39
TORSDOF 21
ENDMDL
MODEL 2
REMARK VINA RESULT:     -11.1      3.530      6.618
REMARK SMILES Cc1c(CC(=O)N[C@H](CO)C(=O)NCCCCCCNC(=O)c2ccc(-c3c4nc(c(-c5ccccc5)c5ccc([nH]5)c(-c5ccccc5)c5nc(c(-c6ccccc6)c6ccc3[nH]6)C=C5)C=C4)cc2)cc(-c2ccc(S(C)(=O)=O)cc2)n1-c1cccc(F)c1
REMARK SMILES IDX 15 1 14 2 13 3 11 4 12 5 8 7 7 8 5 9 6 10 4 12 3 13 1 14
REMARK SMILES IDX 2 15 83 16 71 17 72 18 84 19 85 20 90 21 86 22 88 23 87 24
REMARK SMILES IDX 89 25 73 26 74 27 82 28 75 29 81 30 76 31 77 32 78 33 79 34
REMARK SMILES IDX 80 35 9 36 10 37 16 39 17 40 18 41 19 42 20 43 21 44 22 46
REMARK SMILES IDX 23 47 24 48 70 49 25 50 69 51 26 52 27 53 28 54 63 55 29 56
REMARK SMILES IDX 68 57 62 58 64 59 30 60 67 61 61 62 60 63 31 65 53 66 38 67
REMARK SMILES IDX 52 68 39 69 42 70 51 71 65 72 40 73 41 74 50 76 66 77 43 78
REMARK SMILES IDX 32 79 33 80 37 81 34 82 36 83 35 84 54 85 55 86 59 87 56 88
REMARK SMILES IDX 58 89 57 90 44 91 45 92 49 93 46 94 48 95 47 96
REMARK H PARENT 13 6 7 11 10 38 20 45 64 64 42 75
REMARK Flexibility Score: inf
ROOT
ATOM      1  C   UNL A   1      39.780  34.059  29.871  1.00  0.00     0.021 C 
ENDROOT
BRANCH   1   2
ATOM      2  C   UNL A   1      38.225  33.979  30.013  1.00  0.00     0.116 C 
BRANCH   2   3
ATOM      3  N   UNL A   1      37.634  34.770  31.097  1.00  0.00    -0.354 N 
ATOM      4  C   UNL A   1      36.517  34.455  31.802  1.00  0.00     0.244 C 
ATOM      5  O   UNL A   1      36.123  35.143  32.733  1.00  0.00    -0.273 OA
ATOM      6  H   UNL A   1      38.090  35.609  31.335  1.00  0.00     0.163 HD
BRANCH   4   7
ATOM      7  C   UNL A   1      35.923  33.165  31.361  1.00  0.00     0.197 C 
BRANCH   7   8
ATOM      8  N   UNL A   1      34.807  33.551  30.374  1.00  0.00    -0.342 N 
ATOM      9  C   UNL A   1      34.345  33.267  29.086  1.00  0.00     0.225 C 
ATOM     10  O   UNL A   1      33.363  33.974  28.784  1.00  0.00    -0.275 OA
ATOM     11  H   UNL A   1      34.222  34.224  30.791  1.00  0.00     0.164 HD
BRANCH   9  12
ATOM     12  C   UNL A   1      34.809  32.161  27.971  1.00  0.00     0.137 C 
BRANCH  12  13
ATOM     13  C   UNL A   1      33.890  30.870  27.563  1.00  0.00    -0.017 A 
ATOM     14  C   UNL A   1      31.400  32.087  26.583  1.00  0.00     0.065 C 
ATOM     15  C   UNL A   1      32.258  30.885  26.784  1.00  0.00     0.024 A 
ATOM     16  N   UNL A   1      31.957  29.196  26.024  1.00  0.00    -0.313 N 
ATOM     17  C   UNL A   1      34.626  29.074  27.255  1.00  0.00     0.033 A 
ATOM     18  C   UNL A   1      33.446  28.102  26.312  1.00  0.00     0.053 A 
BRANCH  16  19
ATOM     19  C   UNL A   1      31.067  28.867  24.959  1.00  0.00     0.049 A 
ATOM     20  C   UNL A   1      30.432  27.622  25.036  1.00  0.00     0.027 A 
ATOM     21  C   UNL A   1      30.954  29.666  23.827  1.00  0.00     0.065 A 
ATOM     22  C   UNL A   1      29.851  27.076  23.909  1.00  0.00     0.005 A 
ATOM     23  C   UNL A   1      30.336  29.118  22.715  1.00  0.00     0.125 A 
ATOM     24  C   UNL A   1      29.861  27.807  22.728  1.00  0.00     0.039 A 
ATOM     25  F   UNL A   1      30.208  29.854  21.605  1.00  0.00    -0.207 F 
ENDBRANCH  16  19
BRANCH  18  26
ATOM     26  C   UNL A   1      33.791  26.912  25.512  1.00  0.00    -0.001 A 
ATOM     27  C   UNL A   1      33.916  26.946  24.108  1.00  0.00     0.011 A 
ATOM     28  C   UNL A   1      34.053  25.728  26.190  1.00  0.00     0.011 A 
ATOM     29  C   UNL A   1      34.144  25.775  23.384  1.00  0.00     0.021 A 
ATOM     30  C   UNL A   1      34.297  24.557  25.480  1.00  0.00     0.021 A 
ATOM     31  C   UNL A   1      34.294  24.578  24.082  1.00  0.00     0.067 A 
BRANCH  31  32
ATOM     32  S   UNL A   1      34.463  23.054  23.190  1.00  0.00     0.175 S 
ATOM     33  C   UNL A   1      33.136  23.113  22.013  1.00  0.00     0.163 C 
ATOM     34  O   UNL A   1      35.721  23.115  22.473  1.00  0.00    -0.224 OA
ATOM     35  O   UNL A   1      34.174  21.974  24.115  1.00  0.00    -0.224 OA
ENDBRANCH  31  32
ENDBRANCH  18  26
ENDBRANCH  12  13
ENDBRANCH   9  12
ENDBRANCH   7   8
BRANCH   7  36
ATOM     36  C   UNL A   1      35.613  32.315  32.655  1.00  0.00     0.191 C 
BRANCH  36  37
ATOM     37  O   UNL A   1      34.654  32.943  33.509  1.00  0.00    -0.394 OA
ATOM     38  H   UNL A   1      35.007  32.991  34.411  1.00  0.00     0.210 HD
ENDBRANCH  36  37
ENDBRANCH   7  36
ENDBRANCH   4   7
ENDBRANCH   2   3
ENDBRANCH   1   2
BRANCH   1  39
ATOM     39  C   UNL A   1      41.288  35.577  29.109  1.00  0.00     0.002 C 
BRANCH  39  40
ATOM     40  C   UNL A   1      41.905  36.108  27.587  1.00  0.00     0.002 C 
BRANCH  40  41
ATOM     41  C   UNL A   1      42.435  35.251  26.382  1.00  0.00     0.021 C 
BRANCH  41  42
ATOM     42  C   UNL A   1      43.916  34.803  26.331  1.00  0.00     0.116 C 
BRANCH  42  43
ATOM     43  N   UNL A   1      44.266  33.405  26.137  1.00  0.00    -0.352 N 
ATOM     44  C   UNL A   1      44.298  32.348  27.076  1.00  0.00     0.251 C 
ATOM     45  H   UNL A   1      44.516  33.157  25.217  1.00  0.00     0.163 HD
ATOM     46  O   UNL A   1      44.341  31.210  26.603  1.00  0.00    -0.269 OA
BRANCH  44  47
ATOM     47  C   UNL A   1      44.315  32.518  28.626  1.00  0.00     0.039 A 
ATOM     48  C   UNL A   1      43.155  32.693  29.354  1.00  0.00     0.014 A 
ATOM     49  C   UNL A   1      45.438  32.839  29.419  1.00  0.00     0.014 A 
ATOM     50  C   UNL A   1      43.150  32.882  30.837  1.00  0.00     0.010 A 
ATOM     51  C   UNL A   1      45.423  33.106  30.942  1.00  0.00     0.010 A 
ATOM     52  C   UNL A   1      44.274  33.018  31.783  1.00  0.00    -0.014 A 
BRANCH  52  53
ATOM     53  C   UNL A   1      43.970  33.628  33.460  1.00  0.00     0.031 A 
ATOM     54  C   UNL A   1      44.223  32.311  34.089  1.00  0.00     0.074 A 
ATOM     55  C   UNL A   1      43.407  34.596  34.440  1.00  0.00     0.049 A 
ATOM     56  N   UNL A   1      43.382  31.425  33.651  1.00  0.00    -0.248 NA
ATOM     57  C   UNL A   1      45.455  31.739  34.621  1.00  0.00     0.031 C 
ATOM     58  C   UNL A   1      42.590  35.838  34.233  1.00  0.00     0.029 A 
ATOM     59  N   UNL A   1      43.382  34.694  35.971  1.00  0.00    -0.354 N 
ATOM     60  C   UNL A   1      43.807  30.179  34.010  1.00  0.00     0.074 A 
ATOM     61  C   UNL A   1      45.170  30.427  34.494  1.00  0.00     0.031 C 
ATOM     62  C   UNL A   1      42.337  36.585  35.373  1.00  0.00     0.029 A 
ATOM     63  C   UNL A   1      42.860  35.988  36.617  1.00  0.00     0.049 A 
ATOM     64  H   UNL A   1      43.693  33.945  36.527  1.00  0.00     0.167 HD
ATOM     65  C   UNL A   1      42.764  29.499  34.570  1.00  0.00     0.031 A 
ATOM     66  C   UNL A   1      42.721  36.444  38.001  1.00  0.00     0.031 A 
ATOM     67  C   UNL A   1      42.617  29.943  35.941  1.00  0.00     0.049 A 
ATOM     68  C   UNL A   1      42.295  35.238  38.704  1.00  0.00     0.074 A 
ATOM     69  C   UNL A   1      43.585  30.203  36.900  1.00  0.00     0.029 A 
ATOM     70  N   UNL A   1      41.527  30.728  36.258  1.00  0.00    -0.354 N 
ATOM     71  N   UNL A   1      41.103  34.744  38.627  1.00  0.00    -0.248 NA
ATOM     72  C   UNL A   1      43.252  34.522  39.517  1.00  0.00     0.031 C 
ATOM     73  C   UNL A   1      43.278  31.506  37.321  1.00  0.00     0.029 A 
ATOM     74  C   UNL A   1      41.909  31.662  37.191  1.00  0.00     0.049 A 
ATOM     75  H   UNL A   1      40.624  30.634  35.877  1.00  0.00     0.167 HD
ATOM     76  C   UNL A   1      41.409  33.420  38.690  1.00  0.00     0.074 A 
ATOM     77  C   UNL A   1      42.659  33.334  39.450  1.00  0.00     0.031 C 
ATOM     78  C   UNL A   1      40.984  32.647  37.659  1.00  0.00     0.031 A 
BRANCH  65  79
ATOM     79  C   UNL A   1      41.612  29.398  33.562  1.00  0.00    -0.014 A 
ATOM     80  C   UNL A   1      40.339  29.802  33.964  1.00  0.00     0.009 A 
ATOM     81  C   UNL A   1      41.713  28.707  32.323  1.00  0.00     0.009 A 
ATOM     82  C   UNL A   1      39.212  29.481  33.192  1.00  0.00     0.001 A 
ATOM     83  C   UNL A   1      40.588  28.342  31.581  1.00  0.00     0.001 A 
ATOM     84  C   UNL A   1      39.333  28.731  32.020  1.00  0.00     0.000 A 
ENDBRANCH  65  79
BRANCH  66  85
ATOM     85  C   UNL A   1      42.528  37.595  39.211  1.00  0.00    -0.014 A 
ATOM     86  C   UNL A   1      43.523  38.635  39.494  1.00  0.00     0.009 A 
ATOM     87  C   UNL A   1      41.248  38.005  39.633  1.00  0.00     0.009 A 
ATOM     88  C   UNL A   1      43.247  39.935  40.046  1.00  0.00     0.001 A 
ATOM     89  C   UNL A   1      40.973  39.306  40.203  1.00  0.00     0.001 A 
ATOM     90  C   UNL A   1      41.955  40.280  40.384  1.00  0.00     0.000 A 
ENDBRANCH  66  85
BRANCH  78  91
ATOM     91  C   UNL A   1      39.650  32.964  37.027  1.00  0.00    -0.014 A 
ATOM     92  C   UNL A   1      39.461  33.573  35.767  1.00  0.00     0.009 A 
ATOM     93  C   UNL A   1      38.506  32.699  37.789  1.00  0.00     0.009 A 
ATOM     94  C   UNL A   1      38.186  33.952  35.323  1.00  0.00     0.001 A 
ATOM     95  C   UNL A   1      37.231  33.043  37.334  1.00  0.00     0.001 A 
ATOM     96  C   UNL A   1      37.072  33.689  36.111  1.00  0.00     0.000 A 
ENDBRANCH  78  91
ENDBRANCH  52  53
ENDBRANCH  44  47
ENDBRANCH  42  43
ENDBRANCH  41  42
ENDBRANCH  40  41
ENDBRANCH  39  40
ENDBRANCH   1  39
TORSDOF 21
ENDMDL
MODEL 3
REMARK VINA RESULT:     -10.7      4.036      7.631
REMARK SMILES Cc1c(CC(=O)N[C@H](CO)C(=O)NCCCCCCNC(=O)c2ccc(-c3c4nc(c(-c5ccccc5)c5ccc([nH]5)c(-c5ccccc5)c5nc(c(-c6ccccc6)c6ccc3[nH]6)C=C5)C=C4)cc2)cc(-c2ccc(S(C)(=O)=O)cc2)n1-c1cccc(F)c1
REMARK SMILES IDX 15 1 14 2 13 3 11 4 12 5 8 7 7 8 5 9 6 10 4 12 3 13 1 14
REMARK SMILES IDX 2 15 83 16 71 17 72 18 84 19 85 20 90 21 86 22 88 23 87 24
REMARK SMILES IDX 89 25 73 26 74 27 82 28 75 29 81 30 76 31 77 32 78 33 79 34
REMARK SMILES IDX 80 35 9 36 10 37 16 39 17 40 18 41 19 42 20 43 21 44 22 46
REMARK SMILES IDX 23 47 24 48 70 49 25 50 69 51 26 52 27 53 28 54 63 55 29 56
REMARK SMILES IDX 68 57 62 58 64 59 30 60 67 61 61 62 60 63 31 65 53 66 38 67
REMARK SMILES IDX 52 68 39 69 42 70 51 71 65 72 40 73 41 74 50 76 66 77 43 78
REMARK SMILES IDX 32 79 33 80 37 81 34 82 36 83 35 84 54 85 55 86 59 87 56 88
REMARK SMILES IDX 58 89 57 90 44 91 45 92 49 93 46 94 48 95 47 96
REMARK H PARENT 13 6 7 11 10 38 20 45 64 64 42 75
REMARK Flexibility Score: inf
ROOT
ATOM      1  C   UNL A   1      36.108  29.851  27.555  1.00  0.00     0.021 C 
ENDROOT
BRANCH   1   2
ATOM      2  C   UNL A   1      34.651  29.471  27.136  1.00  0.00     0.116 C 
BRANCH   2   3
ATOM      3  N   UNL A   1      33.678  30.568  27.114  1.00  0.00    -0.354 N 
ATOM      4  C   UNL A   1      32.382  30.483  26.716  1.00  0.00     0.244 C 
ATOM      5  O   UNL A   1      31.620  31.436  26.785  1.00  0.00    -0.273 OA
ATOM      6  H   UNL A   1      33.995  31.450  27.416  1.00  0.00     0.163 HD
BRANCH   4   7
ATOM      7  C   UNL A   1      32.018  29.105  26.293  1.00  0.00     0.197 C 
BRANCH   7   8
ATOM      8  N   UNL A   1      31.150  29.285  25.035  1.00  0.00    -0.342 N 
ATOM      9  C   UNL A   1      30.463  28.544  24.070  1.00  0.00     0.225 C 
ATOM     10  O   UNL A   1      29.952  29.280  23.202  1.00  0.00    -0.275 OA
ATOM     11  H   UNL A   1      31.042  30.246  24.848  1.00  0.00     0.164 HD
BRANCH   9  12
ATOM     12  C   UNL A   1      30.168  26.940  23.920  1.00  0.00     0.137 C 
BRANCH  12  13
ATOM     13  C   UNL A   1      31.308  25.868  23.438  1.00  0.00    -0.017 A 
ATOM     14  C   UNL A   1      33.828  27.330  23.828  1.00  0.00     0.065 C 
ATOM     15  C   UNL A   1      33.103  26.066  23.511  1.00  0.00     0.024 A 
ATOM     16  N   UNL A   1      33.884  24.364  23.402  1.00  0.00    -0.313 N 
ATOM     17  C   UNL A   1      30.976  23.937  23.282  1.00  0.00     0.033 A 
ATOM     18  C   UNL A   1      32.546  23.064  23.282  1.00  0.00     0.053 A 
BRANCH  16  19
ATOM     19  C   UNL A   1      35.178  23.969  23.856  1.00  0.00     0.049 A 
ATOM     20  C   UNL A   1      35.895  23.101  23.025  1.00  0.00     0.027 A 
ATOM     21  C   UNL A   1      35.639  24.298  25.126  1.00  0.00     0.065 A 
ATOM     22  C   UNL A   1      36.970  22.397  23.530  1.00  0.00     0.005 A 
ATOM     23  C   UNL A   1      36.740  23.609  25.606  1.00  0.00     0.125 A 
ATOM     24  C   UNL A   1      37.351  22.610  24.849  1.00  0.00     0.039 A 
ATOM     25  F   UNL A   1      37.214  23.896  26.824  1.00  0.00    -0.207 F 
ENDBRANCH  16  19
BRANCH  18  26
ATOM     26  C   UNL A   1      32.713  21.641  23.633  1.00  0.00    -0.001 A 
ATOM     27  C   UNL A   1      33.309  21.216  24.838  1.00  0.00     0.011 A 
ATOM     28  C   UNL A   1      32.206  20.692  22.753  1.00  0.00     0.011 A 
ATOM     29  C   UNL A   1      33.537  19.861  25.082  1.00  0.00     0.021 A 
ATOM     30  C   UNL A   1      32.413  19.338  22.993  1.00  0.00     0.021 A 
ATOM     31  C   UNL A   1      33.118  18.933  24.130  1.00  0.00     0.067 A 
BRANCH  31  32
ATOM     32  S   UNL A   1      33.500  17.214  24.349  1.00  0.00     0.175 S 
ATOM     33  C   UNL A   1      32.395  16.706  25.642  1.00  0.00     0.163 C 
ATOM     34  O   UNL A   1      33.126  16.534  23.126  1.00  0.00    -0.224 OA
ATOM     35  O   UNL A   1      34.849  17.132  24.876  1.00  0.00    -0.224 OA
ENDBRANCH  31  32
ENDBRANCH  18  26
ENDBRANCH  12  13
ENDBRANCH   9  12
ENDBRANCH   7   8
BRANCH   7  36
ATOM     36  C   UNL A   1      31.468  28.345  27.563  1.00  0.00     0.191 C 
BRANCH  36  37
ATOM     37  O   UNL A   1      31.065  27.005  27.273  1.00  0.00    -0.394 OA
ATOM     38  H   UNL A   1      30.392  27.014  26.575  1.00  0.00     0.210 HD
ENDBRANCH  36  37
ENDBRANCH   7  36
ENDBRANCH   4   7
ENDBRANCH   2   3
ENDBRANCH   1   2
BRANCH   1  39
ATOM     39  C   UNL A   1      37.466  29.457  29.333  1.00  0.00     0.002 C 
BRANCH  39  40
ATOM     40  C   UNL A   1      38.319  28.121  30.015  1.00  0.00     0.002 C 
BRANCH  40  41
ATOM     41  C   UNL A   1      39.385  27.183  29.344  1.00  0.00     0.021 C 
BRANCH  41  42
ATOM     42  C   UNL A   1      40.627  27.786  28.643  1.00  0.00     0.116 C 
BRANCH  42  43
ATOM     43  N   UNL A   1      41.968  27.340  28.985  1.00  0.00    -0.352 N 
ATOM     44  C   UNL A   1      42.637  27.376  30.230  1.00  0.00     0.251 C 
ATOM     45  H   UNL A   1      42.486  26.954  28.241  1.00  0.00     0.163 HD
ATOM     46  O   UNL A   1      43.646  26.673  30.319  1.00  0.00    -0.269 OA
BRANCH  44  47
ATOM     47  C   UNL A   1      42.217  28.246  31.455  1.00  0.00     0.039 A 
ATOM     48  C   UNL A   1      43.017  29.263  31.937  1.00  0.00     0.014 A 
ATOM     49  C   UNL A   1      41.209  27.935  32.393  1.00  0.00     0.014 A 
ATOM     50  C   UNL A   1      42.645  30.092  33.124  1.00  0.00     0.010 A 
ATOM     51  C   UNL A   1      40.871  28.754  33.660  1.00  0.00     0.010 A 
ATOM     52  C   UNL A   1      41.497  29.977  34.044  1.00  0.00    -0.014 A 
BRANCH  52  53
ATOM     53  C   UNL A   1      41.512  30.870  35.618  1.00  0.00     0.031 A 
ATOM     54  C   UNL A   1      40.384  31.753  35.239  1.00  0.00     0.074 A 
ATOM     55  C   UNL A   1      42.153  31.325  36.881  1.00  0.00     0.049 A 
ATOM     56  N   UNL A   1      40.685  32.455  34.190  1.00  0.00    -0.248 NA
ATOM     57  C   UNL A   1      38.949  31.596  35.450  1.00  0.00     0.031 C 
ATOM     58  C   UNL A   1      43.533  31.085  37.423  1.00  0.00     0.029 A 
ATOM     59  N   UNL A   1      41.721  32.214  38.054  1.00  0.00    -0.354 N 
ATOM     60  C   UNL A   1      39.554  33.033  33.691  1.00  0.00     0.074 A 
ATOM     61  C   UNL A   1      38.486  32.354  34.435  1.00  0.00     0.031 C 
ATOM     62  C   UNL A   1      43.762  31.554  38.707  1.00  0.00     0.029 A 
ATOM     63  C   UNL A   1      42.621  32.279  39.300  1.00  0.00     0.049 A 
ATOM     64  H   UNL A   1      40.886  32.733  38.011  1.00  0.00     0.167 HD
ATOM     65  C   UNL A   1      39.793  34.359  33.471  1.00  0.00     0.031 A 
ATOM     66  C   UNL A   1      42.522  32.971  40.586  1.00  0.00     0.031 A 
ATOM     67  C   UNL A   1      39.698  35.053  34.738  1.00  0.00     0.049 A 
ATOM     68  C   UNL A   1      41.951  34.263  40.222  1.00  0.00     0.074 A 
ATOM     69  C   UNL A   1      38.783  34.900  35.769  1.00  0.00     0.029 A 
ATOM     70  N   UNL A   1      40.860  35.527  35.309  1.00  0.00    -0.354 N 
ATOM     71  N   UNL A   1      42.618  35.205  39.637  1.00  0.00    -0.248 NA
ATOM     72  C   UNL A   1      40.555  34.519  40.494  1.00  0.00     0.031 C 
ATOM     73  C   UNL A   1      39.597  34.691  36.892  1.00  0.00     0.029 A 
ATOM     74  C   UNL A   1      40.775  35.385  36.674  1.00  0.00     0.049 A 
ATOM     75  H   UNL A   1      41.627  35.906  34.819  1.00  0.00     0.167 HD
ATOM     76  C   UNL A   1      41.631  35.717  38.851  1.00  0.00     0.074 A 
ATOM     77  C   UNL A   1      40.376  35.442  39.555  1.00  0.00     0.031 C 
ATOM     78  C   UNL A   1      41.872  35.746  37.516  1.00  0.00     0.031 A 
BRANCH  65  79
ATOM     79  C   UNL A   1      40.952  34.517  32.479  1.00  0.00    -0.014 A 
ATOM     80  C   UNL A   1      42.125  35.131  32.919  1.00  0.00     0.009 A 
ATOM     81  C   UNL A   1      40.826  34.283  31.081  1.00  0.00     0.009 A 
ATOM     82  C   UNL A   1      43.101  35.545  31.999  1.00  0.00     0.001 A 
ATOM     83  C   UNL A   1      41.772  34.742  30.162  1.00  0.00     0.001 A 
ATOM     84  C   UNL A   1      42.913  35.376  30.625  1.00  0.00     0.000 A 
ENDBRANCH  65  79
BRANCH  66  85
ATOM     85  C   UNL A   1      42.905  33.243  42.200  1.00  0.00    -0.014 A 
ATOM     86  C   UNL A   1      43.077  34.585  42.767  1.00  0.00     0.009 A 
ATOM     87  C   UNL A   1      42.541  32.323  43.203  1.00  0.00     0.009 A 
ATOM     88  C   UNL A   1      42.833  34.957  44.136  1.00  0.00     0.001 A 
ATOM     89  C   UNL A   1      42.312  32.694  44.583  1.00  0.00     0.001 A 
ATOM     90  C   UNL A   1      42.426  34.005  45.047  1.00  0.00     0.000 A 
ENDBRANCH  66  85
BRANCH  78  91
ATOM     91  C   UNL A   1      43.278  36.035  37.046  1.00  0.00    -0.014 A 
ATOM     92  C   UNL A   1      43.826  37.320  36.834  1.00  0.00     0.009 A 
ATOM     93  C   UNL A   1      44.078  34.934  36.720  1.00  0.00     0.009 A 
ATOM     94  C   UNL A   1      45.097  37.487  36.265  1.00  0.00     0.001 A 
ATOM     95  C   UNL A   1      45.359  35.097  36.186  1.00  0.00     0.001 A 
ATOM     96  C   UNL A   1      45.861  36.372  35.938  1.00  0.00     0.000 A 
ENDBRANCH  78  91
ENDBRANCH  52  53
ENDBRANCH  44  47
ENDBRANCH  42  43
ENDBRANCH  41  42
ENDBRANCH  40  41
ENDBRANCH  39  40
ENDBRANCH   1  39
TORSDOF 21
ENDMDL
