MODEL 1
REMARK VINA RESULT:     -12.2      0.000      0.000
REMARK SMILES O=C(NCCCCCCNC(=O)[C@H]1Cc2[nH]cnc2CN1C(=O)c1ccncc1Cl)c1ccc(-c2c3nc(c(-c4ccccc4)c4ccc([nH]4)c(-c4ccccc4)c4nc(c(-c5ccccc5)c5ccc2[nH]5)C=C4)C=C3)cc1
REMARK SMILES IDX 6 1 5 2 4 3 3 4 1 5 2 6 31 8 32 9 78 10 33 11 77 12 34 13
REMARK SMILES IDX 35 14 36 15 71 16 37 17 76 18 70 19 72 20 38 21 75 22 69 23
REMARK SMILES IDX 68 24 39 26 61 27 46 28 60 29 47 30 50 31 59 32 73 33 48 34
REMARK SMILES IDX 49 35 58 37 74 38 51 39 40 40 41 41 45 42 42 43 44 44 43 45
REMARK SMILES IDX 62 46 63 47 67 48 64 49 66 50 65 51 52 52 53 53 57 54 54 55
REMARK SMILES IDX 56 56 55 57 7 58 8 59 9 60 10 61 11 62 12 64 13 65 14 66
REMARK SMILES IDX 21 67 15 68 20 69 16 70 19 71 17 72 18 74 22 75 23 76 24 77
REMARK SMILES IDX 25 78 29 79 26 80 28 81 30 82 27 83
REMARK H PARENT 3 7 72 25 50 36 10 63 16 73
REMARK Flexibility Score: inf
ROOT
ATOM      1  C   UNL A   1      33.039  28.690  27.299  1.00  0.00     0.002 C 
ENDROOT
BRANCH   1   2
ATOM      2  C   UNL A   1      32.915  30.217  27.267  1.00  0.00     0.021 C 
BRANCH   2   3
ATOM      3  C   UNL A   1      34.233  30.981  27.400  1.00  0.00     0.116 C 
BRANCH   3   4
ATOM      4  N   UNL A   1      34.343  31.753  28.619  1.00  0.00    -0.352 N 
ATOM      5  O   UNL A   1      35.072  32.757  30.443  1.00  0.00    -0.269 OA
ATOM      6  C   UNL A   1      35.299  31.902  29.584  1.00  0.00     0.251 C 
ATOM      7  H   UNL A   1      33.541  32.299  28.793  1.00  0.00     0.163 HD
BRANCH   6   8
ATOM      8  C   UNL A   1      36.550  31.099  29.692  1.00  0.00     0.039 A 
ATOM      9  C   UNL A   1      37.846  31.565  29.470  1.00  0.00     0.014 A 
ATOM     10  C   UNL A   1      36.383  29.742  30.033  1.00  0.00     0.014 A 
ATOM     11  C   UNL A   1      38.935  30.699  29.532  1.00  0.00     0.010 A 
ATOM     12  C   UNL A   1      37.468  28.874  30.113  1.00  0.00     0.010 A 
ATOM     13  C   UNL A   1      38.747  29.351  29.839  1.00  0.00    -0.014 A 
BRANCH  13  14
ATOM     14  C   UNL A   1      39.934  28.510  29.976  1.00  0.00     0.031 A 
ATOM     15  C   UNL A   1      40.525  28.427  31.343  1.00  0.00     0.074 A 
ATOM     16  C   UNL A   1      40.408  27.713  28.998  1.00  0.00     0.049 A 
ATOM     17  N   UNL A   1      41.737  28.689  31.717  1.00  0.00    -0.248 NA
ATOM     18  C   UNL A   1      39.630  28.033  32.443  1.00  0.00     0.031 C 
ATOM     19  C   UNL A   1      39.783  27.407  27.711  1.00  0.00     0.029 A 
ATOM     20  N   UNL A   1      41.510  26.907  29.016  1.00  0.00    -0.354 N 
ATOM     21  C   UNL A   1      41.809  28.344  33.067  1.00  0.00     0.074 A 
ATOM     22  C   UNL A   1      40.462  28.043  33.484  1.00  0.00     0.031 C 
ATOM     23  C   UNL A   1      40.387  26.323  27.176  1.00  0.00     0.029 A 
ATOM     24  C   UNL A   1      41.513  25.946  28.015  1.00  0.00     0.049 A 
ATOM     25  H   UNL A   1      42.235  26.998  29.676  1.00  0.00     0.167 HD
ATOM     26  C   UNL A   1      42.992  28.141  33.711  1.00  0.00     0.031 A 
ATOM     27  C   UNL A   1      42.335  24.876  27.916  1.00  0.00     0.031 A 
ATOM     28  C   UNL A   1      44.105  28.733  33.019  1.00  0.00     0.049 A 
ATOM     29  C   UNL A   1      43.517  25.109  28.773  1.00  0.00     0.074 A 
ATOM     30  C   UNL A   1      44.451  30.008  32.622  1.00  0.00     0.029 A 
ATOM     31  N   UNL A   1      44.966  27.895  32.357  1.00  0.00    -0.354 N 
ATOM     32  N   UNL A   1      44.445  25.982  28.512  1.00  0.00    -0.248 NA
ATOM     33  C   UNL A   1      43.505  24.600  30.134  1.00  0.00     0.031 C 
ATOM     34  C   UNL A   1      45.163  29.836  31.398  1.00  0.00     0.029 A 
ATOM     35  C   UNL A   1      45.222  28.466  31.140  1.00  0.00     0.049 A 
ATOM     36  H   UNL A   1      45.330  27.044  32.693  1.00  0.00     0.167 HD
ATOM     37  C   UNL A   1      44.855  26.445  29.752  1.00  0.00     0.074 A 
ATOM     38  C   UNL A   1      44.344  25.467  30.706  1.00  0.00     0.031 C 
ATOM     39  C   UNL A   1      45.323  27.718  29.909  1.00  0.00     0.031 A 
BRANCH  26  40
ATOM     40  C   UNL A   1      43.194  27.077  34.768  1.00  0.00    -0.014 A 
ATOM     41  C   UNL A   1      44.254  27.221  35.684  1.00  0.00     0.009 A 
ATOM     42  C   UNL A   1      42.582  25.811  34.709  1.00  0.00     0.009 A 
ATOM     43  C   UNL A   1      44.734  26.133  36.425  1.00  0.00     0.001 A 
ATOM     44  C   UNL A   1      43.028  24.735  35.484  1.00  0.00     0.001 A 
ATOM     45  C   UNL A   1      44.127  24.887  36.316  1.00  0.00     0.000 A 
ENDBRANCH  26  40
BRANCH  27  46
ATOM     46  C   UNL A   1      42.062  23.561  27.301  1.00  0.00    -0.014 A 
ATOM     47  C   UNL A   1      42.889  23.053  26.288  1.00  0.00     0.009 A 
ATOM     48  C   UNL A   1      41.126  22.688  27.884  1.00  0.00     0.009 A 
ATOM     49  C   UNL A   1      42.800  21.711  25.895  1.00  0.00     0.001 A 
ATOM     50  C   UNL A   1      41.031  21.352  27.487  1.00  0.00     0.001 A 
ATOM     51  C   UNL A   1      41.879  20.861  26.501  1.00  0.00     0.000 A 
ENDBRANCH  27  46
BRANCH  39  52
ATOM     52  C   UNL A   1      45.662  28.506  28.669  1.00  0.00    -0.014 A 
ATOM     53  C   UNL A   1      46.948  28.512  28.103  1.00  0.00     0.009 A 
ATOM     54  C   UNL A   1      44.623  29.141  27.972  1.00  0.00     0.009 A 
ATOM     55  C   UNL A   1      47.196  29.170  26.895  1.00  0.00     0.001 A 
ATOM     56  C   UNL A   1      44.866  29.778  26.752  1.00  0.00     0.001 A 
ATOM     57  C   UNL A   1      46.153  29.798  26.219  1.00  0.00     0.000 A 
ENDBRANCH  39  52
ENDBRANCH  13  14
ENDBRANCH   6   8
ENDBRANCH   3   4
ENDBRANCH   2   3
ENDBRANCH   1   2
BRANCH   1  58
ATOM     58  C   UNL A   1      31.723  27.909  27.343  1.00  0.00     0.002 C 
BRANCH  58  59
ATOM     59  C   UNL A   1      31.377  27.102  26.088  1.00  0.00     0.021 C 
BRANCH  59  60
ATOM     60  C   UNL A   1      32.179  25.823  25.876  1.00  0.00     0.116 C 
BRANCH  60  61
ATOM     61  N   UNL A   1      31.706  24.699  26.665  1.00  0.00    -0.354 N 
ATOM     62  C   UNL A   1      32.345  23.516  26.928  1.00  0.00     0.243 C 
ATOM     63  H   UNL A   1      30.810  24.801  27.062  1.00  0.00     0.163 HD
ATOM     64  O   UNL A   1      32.051  22.938  27.973  1.00  0.00    -0.273 OA
BRANCH  62  65
ATOM     65  C   UNL A   1      33.458  23.028  25.981  1.00  0.00     0.181 C 
ATOM     66  C   UNL A   1      34.728  23.101  26.897  1.00  0.00     0.091 C 
ATOM     67  N   UNL A   1      33.418  21.708  25.241  1.00  0.00    -0.320 N 
ATOM     68  C   UNL A   1      35.902  22.640  26.137  1.00  0.00     0.042 A 
ATOM     69  C   UNL A   1      34.581  21.437  24.349  1.00  0.00     0.178 C 
ATOM     70  N   UNL A   1      37.223  22.801  26.424  1.00  0.00    -0.348 N 
ATOM     71  C   UNL A   1      35.845  21.887  24.992  1.00  0.00     0.081 A 
ATOM     72  C   UNL A   1      37.915  22.178  25.419  1.00  0.00     0.197 A 
ATOM     73  H   UNL A   1      37.605  23.273  27.198  1.00  0.00     0.167 HD
ATOM     74  N   UNL A   1      37.110  21.627  24.534  1.00  0.00    -0.240 NA
BRANCH  67  75
ATOM     75  C   UNL A   1      32.331  20.864  25.010  1.00  0.00     0.256 C 
ATOM     76  O   UNL A   1      31.174  21.151  25.319  1.00  0.00    -0.269 OA
BRANCH  75  77
ATOM     77  C   UNL A   1      32.477  19.586  24.317  1.00  0.00     0.061 A 
ATOM     78  C   UNL A   1      32.900  18.488  25.071  1.00  0.00     0.035 A 
ATOM     79  C   UNL A   1      32.307  19.477  22.942  1.00  0.00     0.072 A 
ATOM     80  C   UNL A   1      33.074  17.284  24.413  1.00  0.00     0.112 A 
ATOM     81  C   UNL A   1      32.522  18.229  22.380  1.00  0.00     0.132 A 
ATOM     82  Cl  UNL A   1      31.827  20.795  21.944  1.00  0.00    -0.082 Cl
ATOM     83  N   UNL A   1      32.897  17.129  23.080  1.00  0.00    -0.263 NA
ENDBRANCH  75  77
ENDBRANCH  67  75
ENDBRANCH  62  65
ENDBRANCH  60  61
ENDBRANCH  59  60
ENDBRANCH  58  59
ENDBRANCH   1  58
TORSDOF 15
ENDMDL
MODEL 2
REMARK VINA RESULT:     -12.1      3.535      8.767
REMARK SMILES O=C(NCCCCCCNC(=O)[C@H]1Cc2[nH]cnc2CN1C(=O)c1ccncc1Cl)c1ccc(-c2c3nc(c(-c4ccccc4)c4ccc([nH]4)c(-c4ccccc4)c4nc(c(-c5ccccc5)c5ccc2[nH]5)C=C4)C=C3)cc1
REMARK SMILES IDX 6 1 5 2 4 3 3 4 1 5 2 6 31 8 32 9 78 10 33 11 77 12 34 13
REMARK SMILES IDX 35 14 36 15 71 16 37 17 76 18 70 19 72 20 38 21 75 22 69 23
REMARK SMILES IDX 68 24 39 26 61 27 46 28 60 29 47 30 50 31 59 32 73 33 48 34
REMARK SMILES IDX 49 35 58 37 74 38 51 39 40 40 41 41 45 42 42 43 44 44 43 45
REMARK SMILES IDX 62 46 63 47 67 48 64 49 66 50 65 51 52 52 53 53 57 54 54 55
REMARK SMILES IDX 56 56 55 57 7 58 8 59 9 60 10 61 11 62 12 64 13 65 14 66
REMARK SMILES IDX 21 67 15 68 20 69 16 70 19 71 17 72 18 74 22 75 23 76 24 77
REMARK SMILES IDX 25 78 29 79 26 80 28 81 30 82 27 83
REMARK H PARENT 3 7 72 25 50 36 10 63 16 73
REMARK Flexibility Score: inf
ROOT
ATOM      1  C   UNL A   1      37.356  23.135  25.426  1.00  0.00     0.002 C 
ENDROOT
BRANCH   1   2
ATOM      2  C   UNL A   1      38.345  21.977  25.594  1.00  0.00     0.021 C 
BRANCH   2   3
ATOM      3  C   UNL A   1      39.480  22.227  26.587  1.00  0.00     0.116 C 
BRANCH   3   4
ATOM      4  N   UNL A   1      40.781  22.360  25.969  1.00  0.00    -0.352 N 
ATOM      5  O   UNL A   1      42.818  23.001  25.415  1.00  0.00    -0.269 OA
ATOM      6  C   UNL A   1      41.779  23.294  26.010  1.00  0.00     0.251 C 
ATOM      7  H   UNL A   1      41.000  21.600  25.382  1.00  0.00     0.163 HD
BRANCH   6   8
ATOM      8  C   UNL A   1      41.689  24.626  26.675  1.00  0.00     0.039 A 
ATOM      9  C   UNL A   1      42.226  24.959  27.919  1.00  0.00     0.014 A 
ATOM     10  C   UNL A   1      40.974  25.617  25.973  1.00  0.00     0.014 A 
ATOM     11  C   UNL A   1      42.015  26.221  28.470  1.00  0.00     0.010 A 
ATOM     12  C   UNL A   1      40.773  26.885  26.511  1.00  0.00     0.010 A 
ATOM     13  C   UNL A   1      41.277  27.179  27.774  1.00  0.00    -0.014 A 
BRANCH  13  14
ATOM     14  C   UNL A   1      41.164  28.512  28.364  1.00  0.00     0.031 A 
ATOM     15  C   UNL A   1      42.311  29.435  28.126  1.00  0.00     0.074 A 
ATOM     16  C   UNL A   1      40.047  28.980  28.955  1.00  0.00     0.049 A 
ATOM     17  N   UNL A   1      43.035  30.065  28.995  1.00  0.00    -0.248 NA
ATOM     18  C   UNL A   1      42.725  29.651  26.730  1.00  0.00     0.031 C 
ATOM     19  C   UNL A   1      38.724  28.354  28.992  1.00  0.00     0.029 A 
ATOM     20  N   UNL A   1      39.841  30.194  29.547  1.00  0.00    -0.354 N 
ATOM     21  C   UNL A   1      43.896  30.883  28.262  1.00  0.00     0.074 A 
ATOM     22  C   UNL A   1      43.731  30.513  26.878  1.00  0.00     0.031 C 
ATOM     23  C   UNL A   1      37.812  29.278  29.368  1.00  0.00     0.029 A 
ATOM     24  C   UNL A   1      38.501  30.509  29.717  1.00  0.00     0.049 A 
ATOM     25  H   UNL A   1      40.574  30.788  29.826  1.00  0.00     0.167 HD
ATOM     26  C   UNL A   1      44.549  31.944  28.814  1.00  0.00     0.031 A 
ATOM     27  C   UNL A   1      37.985  31.714  30.054  1.00  0.00     0.031 A 
ATOM     28  C   UNL A   1      44.618  31.862  30.248  1.00  0.00     0.049 A 
ATOM     29  C   UNL A   1      39.060  32.537  30.650  1.00  0.00     0.074 A 
ATOM     30  C   UNL A   1      45.140  30.967  31.159  1.00  0.00     0.029 A 
ATOM     31  N   UNL A   1      43.811  32.700  30.975  1.00  0.00    -0.354 N 
ATOM     32  N   UNL A   1      39.586  32.314  31.819  1.00  0.00    -0.248 NA
ATOM     33  C   UNL A   1      39.813  33.433  29.788  1.00  0.00     0.031 C 
ATOM     34  C   UNL A   1      44.254  31.015  32.277  1.00  0.00     0.029 A 
ATOM     35  C   UNL A   1      43.262  31.951  31.981  1.00  0.00     0.049 A 
ATOM     36  H   UNL A   1      43.656  33.657  30.806  1.00  0.00     0.167 HD
ATOM     37  C   UNL A   1      40.913  32.687  31.686  1.00  0.00     0.074 A 
ATOM     38  C   UNL A   1      40.960  33.489  30.468  1.00  0.00     0.031 C 
ATOM     39  C   UNL A   1      41.891  32.077  32.418  1.00  0.00     0.031 A 
BRANCH  26  40
ATOM     40  C   UNL A   1      44.790  33.246  28.084  1.00  0.00    -0.014 A 
ATOM     41  C   UNL A   1      43.714  33.858  27.411  1.00  0.00     0.009 A 
ATOM     42  C   UNL A   1      46.076  33.730  27.780  1.00  0.00     0.009 A 
ATOM     43  C   UNL A   1      43.924  34.828  26.423  1.00  0.00     0.001 A 
ATOM     44  C   UNL A   1      46.286  34.733  26.828  1.00  0.00     0.001 A 
ATOM     45  C   UNL A   1      45.213  35.258  26.124  1.00  0.00     0.000 A 
ENDBRANCH  26  40
BRANCH  27  46
ATOM     46  C   UNL A   1      36.673  32.286  29.692  1.00  0.00    -0.014 A 
ATOM     47  C   UNL A   1      35.766  32.694  30.682  1.00  0.00     0.009 A 
ATOM     48  C   UNL A   1      36.407  32.662  28.363  1.00  0.00     0.009 A 
ATOM     49  C   UNL A   1      34.649  33.474  30.354  1.00  0.00     0.001 A 
ATOM     50  C   UNL A   1      35.291  33.434  28.034  1.00  0.00     0.001 A 
ATOM     51  C   UNL A   1      34.419  33.852  29.033  1.00  0.00     0.000 A 
ENDBRANCH  27  46
BRANCH  39  52
ATOM     52  C   UNL A   1      41.473  31.206  33.575  1.00  0.00    -0.014 A 
ATOM     53  C   UNL A   1      41.287  29.819  33.451  1.00  0.00     0.009 A 
ATOM     54  C   UNL A   1      41.409  31.776  34.856  1.00  0.00     0.009 A 
ATOM     55  C   UNL A   1      41.002  29.032  34.570  1.00  0.00     0.001 A 
ATOM     56  C   UNL A   1      41.148  30.985  35.978  1.00  0.00     0.001 A 
ATOM     57  C   UNL A   1      40.938  29.615  35.833  1.00  0.00     0.000 A 
ENDBRANCH  39  52
ENDBRANCH  13  14
ENDBRANCH   6   8
ENDBRANCH   3   4
ENDBRANCH   2   3
ENDBRANCH   1   2
BRANCH   1  58
ATOM     58  C   UNL A   1      36.625  23.208  24.083  1.00  0.00     0.002 C 
BRANCH  58  59
ATOM     59  C   UNL A   1      35.103  23.040  24.133  1.00  0.00     0.021 C 
BRANCH  59  60
ATOM     60  C   UNL A   1      34.295  24.327  24.244  1.00  0.00     0.116 C 
BRANCH  60  61
ATOM     61  N   UNL A   1      33.994  24.941  22.962  1.00  0.00    -0.354 N 
ATOM     62  C   UNL A   1      33.609  26.231  22.707  1.00  0.00     0.243 C 
ATOM     63  H   UNL A   1      34.078  24.354  22.177  1.00  0.00     0.163 HD
ATOM     64  O   UNL A   1      33.892  26.694  21.604  1.00  0.00    -0.273 OA
BRANCH  62  65
ATOM     65  C   UNL A   1      32.952  27.062  23.826  1.00  0.00     0.181 C 
ATOM     66  C   UNL A   1      34.127  27.995  24.279  1.00  0.00     0.091 C 
ATOM     67  N   UNL A   1      31.680  27.865  23.645  1.00  0.00    -0.320 N 
ATOM     68  C   UNL A   1      33.652  28.887  25.350  1.00  0.00     0.042 A 
ATOM     69  C   UNL A   1      31.192  28.575  24.861  1.00  0.00     0.178 C 
ATOM     70  N   UNL A   1      34.380  29.640  26.221  1.00  0.00    -0.348 N 
ATOM     71  C   UNL A   1      32.334  29.157  25.617  1.00  0.00     0.081 A 
ATOM     72  C   UNL A   1      33.476  30.303  27.008  1.00  0.00     0.197 A 
ATOM     73  H   UNL A   1      35.361  29.696  26.274  1.00  0.00     0.167 HD
ATOM     74  N   UNL A   1      32.233  30.021  26.675  1.00  0.00    -0.240 NA
BRANCH  67  75
ATOM     75  C   UNL A   1      30.729  27.784  22.627  1.00  0.00     0.256 C 
ATOM     76  O   UNL A   1      30.791  26.968  21.708  1.00  0.00    -0.269 OA
BRANCH  75  77
ATOM     77  C   UNL A   1      29.539  28.631  22.613  1.00  0.00     0.061 A 
ATOM     78  C   UNL A   1      29.673  29.924  22.099  1.00  0.00     0.035 A 
ATOM     79  C   UNL A   1      28.340  28.216  23.181  1.00  0.00     0.072 A 
ATOM     80  C   UNL A   1      28.558  30.741  22.115  1.00  0.00     0.112 A 
ATOM     81  C   UNL A   1      27.290  29.119  23.158  1.00  0.00     0.132 A 
ATOM     82  Cl  UNL A   1      28.112  26.654  23.867  1.00  0.00    -0.082 Cl
ATOM     83  N   UNL A   1      27.367  30.370  22.637  1.00  0.00    -0.263 NA
ENDBRANCH  75  77
ENDBRANCH  67  75
ENDBRANCH  62  65
ENDBRANCH  60  61
ENDBRANCH  59  60
ENDBRANCH  58  59
ENDBRANCH   1  58
TORSDOF 15
ENDMDL
MODEL 3
REMARK VINA RESULT:     -12.0      1.855      3.083
REMARK SMILES O=C(NCCCCCCNC(=O)[C@H]1Cc2[nH]cnc2CN1C(=O)c1ccncc1Cl)c1ccc(-c2c3nc(c(-c4ccccc4)c4ccc([nH]4)c(-c4ccccc4)c4nc(c(-c5ccccc5)c5ccc2[nH]5)C=C4)C=C3)cc1
REMARK SMILES IDX 6 1 5 2 4 3 3 4 1 5 2 6 31 8 32 9 78 10 33 11 77 12 34 13
REMARK SMILES IDX 35 14 36 15 71 16 37 17 76 18 70 19 72 20 38 21 75 22 69 23
REMARK SMILES IDX 68 24 39 26 61 27 46 28 60 29 47 30 50 31 59 32 73 33 48 34
REMARK SMILES IDX 49 35 58 37 74 38 51 39 40 40 41 41 45 42 42 43 44 44 43 45
REMARK SMILES IDX 62 46 63 47 67 48 64 49 66 50 65 51 52 52 53 53 57 54 54 55
REMARK SMILES IDX 56 56 55 57 7 58 8 59 9 60 10 61 11 62 12 64 13 65 14 66
REMARK SMILES IDX 21 67 15 68 20 69 16 70 19 71 17 72 18 74 22 75 23 76 24 77
REMARK SMILES IDX 25 78 29 79 26 80 28 81 30 82 27 83
REMARK H PARENT 3 7 72 25 50 36 10 63 16 73
REMARK Flexibility Score: inf
ROOT
ATOM      1  C   UNL A   1      33.753  29.730  26.692  1.00  0.00     0.002 C 
ENDROOT
BRANCH   1   2
ATOM      2  C   UNL A   1      34.799  30.313  27.648  1.00  0.00     0.021 C 
BRANCH   2   3
ATOM      3  C   UNL A   1      34.642  31.802  27.956  1.00  0.00     0.116 C 
BRANCH   3   4
ATOM      4  N   UNL A   1      34.608  32.107  29.371  1.00  0.00    -0.352 N 
ATOM      5  O   UNL A   1      35.105  32.364  31.505  1.00  0.00    -0.269 OA
ATOM      6  C   UNL A   1      35.412  31.825  30.439  1.00  0.00     0.251 C 
ATOM      7  H   UNL A   1      33.821  32.645  29.622  1.00  0.00     0.163 HD
BRANCH   6   8
ATOM      8  C   UNL A   1      36.586  30.905  30.418  1.00  0.00     0.039 A 
ATOM      9  C   UNL A   1      36.565  29.542  30.714  1.00  0.00     0.014 A 
ATOM     10  C   UNL A   1      37.822  31.493  30.083  1.00  0.00     0.014 A 
ATOM     11  C   UNL A   1      37.743  28.799  30.730  1.00  0.00     0.010 A 
ATOM     12  C   UNL A   1      39.001  30.754  30.081  1.00  0.00     0.010 A 
ATOM     13  C   UNL A   1      38.963  29.406  30.427  1.00  0.00    -0.014 A 
BRANCH  13  14
ATOM     14  C   UNL A   1      40.152  28.557  30.374  1.00  0.00     0.031 A 
ATOM     15  C   UNL A   1      40.902  28.398  31.654  1.00  0.00     0.074 A 
ATOM     16  C   UNL A   1      40.499  27.814  29.304  1.00  0.00     0.049 A 
ATOM     17  N   UNL A   1      42.152  28.637  31.893  1.00  0.00    -0.248 NA
ATOM     18  C   UNL A   1      40.142  27.945  32.829  1.00  0.00     0.031 C 
ATOM     19  C   UNL A   1      39.721  27.581  28.086  1.00  0.00     0.029 A 
ATOM     20  N   UNL A   1      41.588  27.007  29.146  1.00  0.00    -0.354 N 
ATOM     21  C   UNL A   1      42.382  28.218  33.204  1.00  0.00     0.074 A 
ATOM     22  C   UNL A   1      41.092  27.897  33.762  1.00  0.00     0.031 C 
ATOM     23  C   UNL A   1      40.248  26.527  27.424  1.00  0.00     0.029 A 
ATOM     24  C   UNL A   1      41.463  26.103  28.101  1.00  0.00     0.049 A 
ATOM     25  H   UNL A   1      42.387  27.060  29.718  1.00  0.00     0.167 HD
ATOM     26  C   UNL A   1      43.632  27.978  33.688  1.00  0.00     0.031 A 
ATOM     27  C   UNL A   1      42.259  25.038  27.845  1.00  0.00     0.031 A 
ATOM     28  C   UNL A   1      44.658  28.606  32.901  1.00  0.00     0.049 A 
ATOM     29  C   UNL A   1      43.537  25.223  28.565  1.00  0.00     0.074 A 
ATOM     30  C   UNL A   1      44.965  29.901  32.536  1.00  0.00     0.029 A 
ATOM     31  N   UNL A   1      45.427  27.804  32.096  1.00  0.00    -0.354 N 
ATOM     32  N   UNL A   1      44.434  26.108  28.242  1.00  0.00    -0.248 NA
ATOM     33  C   UNL A   1      43.684  24.639  29.888  1.00  0.00     0.031 C 
ATOM     34  C   UNL A   1      45.524  29.796  31.227  1.00  0.00     0.029 A 
ATOM     35  C   UNL A   1      45.540  28.441  30.890  1.00  0.00     0.049 A 
ATOM     36  H   UNL A   1      45.822  26.936  32.339  1.00  0.00     0.167 HD
ATOM     37  C   UNL A   1      44.993  26.500  29.448  1.00  0.00     0.074 A 
ATOM     38  C   UNL A   1      44.593  25.472  30.402  1.00  0.00     0.031 C 
ATOM     39  C   UNL A   1      45.487  27.762  29.616  1.00  0.00     0.031 A 
BRANCH  26  40
ATOM     40  C   UNL A   1      43.951  26.858  34.654  1.00  0.00    -0.014 A 
ATOM     41  C   UNL A   1      43.893  25.527  34.195  1.00  0.00     0.009 A 
ATOM     42  C   UNL A   1      44.007  27.038  36.049  1.00  0.00     0.009 A 
ATOM     43  C   UNL A   1      43.798  24.449  35.085  1.00  0.00     0.001 A 
ATOM     44  C   UNL A   1      43.962  25.961  36.939  1.00  0.00     0.001 A 
ATOM     45  C   UNL A   1      43.822  24.668  36.457  1.00  0.00     0.000 A 
ENDBRANCH  26  40
BRANCH  27  46
ATOM     46  C   UNL A   1      41.904  23.760  27.197  1.00  0.00    -0.014 A 
ATOM     47  C   UNL A   1      42.743  23.184  26.231  1.00  0.00     0.009 A 
ATOM     48  C   UNL A   1      40.854  22.975  27.707  1.00  0.00     0.009 A 
ATOM     49  C   UNL A   1      42.554  21.860  25.815  1.00  0.00     0.001 A 
ATOM     50  C   UNL A   1      40.661  21.657  27.288  1.00  0.00     0.001 A 
ATOM     51  C   UNL A   1      41.520  21.095  26.350  1.00  0.00     0.000 A 
ENDBRANCH  27  46
BRANCH  39  52
ATOM     52  C   UNL A   1      45.681  28.618  28.390  1.00  0.00    -0.014 A 
ATOM     53  C   UNL A   1      44.689  29.491  27.911  1.00  0.00     0.009 A 
ATOM     54  C   UNL A   1      46.949  28.654  27.790  1.00  0.00     0.009 A 
ATOM     55  C   UNL A   1      44.946  30.344  26.835  1.00  0.00     0.001 A 
ATOM     56  C   UNL A   1      47.212  29.525  26.730  1.00  0.00     0.001 A 
ATOM     57  C   UNL A   1      46.209  30.364  26.249  1.00  0.00     0.000 A 
ENDBRANCH  39  52
ENDBRANCH  13  14
ENDBRANCH   6   8
ENDBRANCH   3   4
ENDBRANCH   2   3
ENDBRANCH   1   2
BRANCH   1  58
ATOM     58  C   UNL A   1      32.312  29.698  27.209  1.00  0.00     0.002 C 
BRANCH  58  59
ATOM     59  C   UNL A   1      31.498  28.449  26.858  1.00  0.00     0.021 C 
BRANCH  59  60
ATOM     60  C   UNL A   1      32.278  27.141  26.796  1.00  0.00     0.116 C 
BRANCH  60  61
ATOM     61  N   UNL A   1      31.436  25.957  26.789  1.00  0.00    -0.354 N 
ATOM     62  C   UNL A   1      31.811  24.647  26.644  1.00  0.00     0.243 C 
ATOM     63  H   UNL A   1      30.471  26.118  26.904  1.00  0.00     0.163 HD
ATOM     64  O   UNL A   1      31.089  23.796  27.159  1.00  0.00    -0.273 OA
BRANCH  62  65
ATOM     65  C   UNL A   1      33.148  24.314  25.955  1.00  0.00     0.181 C 
ATOM     66  C   UNL A   1      33.513  22.930  26.595  1.00  0.00     0.091 C 
ATOM     67  N   UNL A   1      33.333  24.265  24.453  1.00  0.00    -0.320 N 
ATOM     68  C   UNL A   1      34.780  22.449  26.018  1.00  0.00     0.042 A 
ATOM     69  C   UNL A   1      34.714  23.952  23.987  1.00  0.00     0.178 C 
ATOM     70  N   UNL A   1      35.606  21.465  26.470  1.00  0.00    -0.348 N 
ATOM     71  C   UNL A   1      35.326  22.900  24.843  1.00  0.00     0.081 A 
ATOM     72  C   UNL A   1      36.642  21.388  25.576  1.00  0.00     0.197 A 
ATOM     73  H   UNL A   1      35.484  20.919  27.279  1.00  0.00     0.167 HD
ATOM     74  N   UNL A   1      36.505  22.251  24.590  1.00  0.00    -0.240 NA
BRANCH  67  75
ATOM     75  C   UNL A   1      32.510  24.778  23.450  1.00  0.00     0.256 C 
ATOM     76  O   UNL A   1      31.857  24.070  22.683  1.00  0.00    -0.269 OA
BRANCH  75  77
ATOM     77  C   UNL A   1      32.307  26.214  23.276  1.00  0.00     0.061 A 
ATOM     78  C   UNL A   1      33.438  27.002  23.045  1.00  0.00     0.035 A 
ATOM     79  C   UNL A   1      31.057  26.801  23.437  1.00  0.00     0.072 A 
ATOM     80  C   UNL A   1      33.255  28.367  22.915  1.00  0.00     0.112 A 
ATOM     81  C   UNL A   1      30.987  28.177  23.301  1.00  0.00     0.132 A 
ATOM     82  Cl  UNL A   1      29.627  25.899  23.762  1.00  0.00    -0.082 Cl
ATOM     83  N   UNL A   1      32.054  28.976  23.041  1.00  0.00    -0.263 NA
ENDBRANCH  75  77
ENDBRANCH  67  75
ENDBRANCH  62  65
ENDBRANCH  60  61
ENDBRANCH  59  60
ENDBRANCH  58  59
ENDBRANCH   1  58
TORSDOF 15
ENDMDL
