MODEL 1
REMARK VINA RESULT:     -12.1      0.000      0.000
REMARK SMILES Cc1c(C(=O)NCCCCCCNC(=O)c2ccc(-c3c4nc(c(-c5ccccc5)c5ccc([nH]5)c(-c5ccccc5)c5nc(c(-c6ccccc6)c6ccc3[nH]6)C=C5)C=C4)cc2)cccc1N1[C@@H](C)C=C(/C=C(\C#N)C(=O)NCCc2c[nH]c3ccccc23)[C@@H]1C
REMARK SMILES IDX 7 1 6 2 4 3 5 4 3 6 1 7 2 8 67 9 64 10 66 11 65 12 68 13
REMARK SMILES IDX 69 14 91 15 71 16 70 17 72 18 92 19 73 20 74 21 75 22 76 23
REMARK SMILES IDX 77 24 78 25 79 26 80 28 81 29 82 30 83 31 90 32 84 33 85 34
REMARK SMILES IDX 89 35 86 37 88 38 87 39 8 40 9 41 10 42 11 43 12 44 13 45
REMARK SMILES IDX 14 46 15 48 16 49 17 50 63 51 18 52 62 53 19 54 20 55 21 56
REMARK SMILES IDX 56 57 22 58 61 59 55 60 57 61 23 62 60 63 54 64 53 65 24 67
REMARK SMILES IDX 46 68 31 69 45 70 32 71 35 72 44 73 58 74 33 75 34 76 43 78
REMARK SMILES IDX 59 79 36 80 25 81 26 82 30 83 27 84 29 85 28 86 47 87 48 88
REMARK SMILES IDX 52 89 49 90 51 91 50 92 37 93 38 94 42 95 39 96 41 97 40 98
REMARK H PARENT 6 5 79 27 84 36 13 47 57 66 35 77
REMARK Flexibility Score: inf
ROOT
ATOM      1  C   UNL A   1      37.223  23.516  26.062  1.00  0.00     0.116 C 
ENDROOT
BRANCH   1   2
ATOM      2  N   UNL A   1      36.172  22.549  26.178  1.00  0.00    -0.352 N 
ATOM      3  C   UNL A   1      34.955  22.355  25.606  1.00  0.00     0.251 C 
ATOM      4  O   UNL A   1      34.412  21.308  25.987  1.00  0.00    -0.269 OA
ATOM      5  H   UNL A   1      36.386  21.850  26.837  1.00  0.00     0.163 HD
BRANCH   3   6
ATOM      6  C   UNL A   1      34.251  23.198  24.568  1.00  0.00     0.044 A 
ATOM      7  C   UNL A   1      33.614  25.332  25.872  1.00  0.00     0.047 C 
ATOM      8  C   UNL A   1      33.730  24.521  24.613  1.00  0.00    -0.015 A 
ATOM      9  C   UNL A   1      33.130  25.088  23.447  1.00  0.00     0.041 A 
ATOM     10  C   UNL A   1      34.009  22.449  23.391  1.00  0.00     0.014 A 
ATOM     11  C   UNL A   1      32.921  24.282  22.318  1.00  0.00     0.026 A 
ATOM     12  C   UNL A   1      33.330  22.963  22.296  1.00  0.00     0.003 A 
BRANCH   9  13
ATOM     13  N   UNL A   1      32.573  26.351  23.438  1.00  0.00    -0.358 N 
ATOM     14  C   UNL A   1      31.120  26.507  23.317  1.00  0.00     0.103 C 
ATOM     15  C   UNL A   1      33.262  27.598  23.797  1.00  0.00     0.110 C 
ATOM     16  C   UNL A   1      30.938  27.888  23.854  1.00  0.00     0.003 C 
ATOM     17  C   UNL A   1      30.317  25.547  24.200  1.00  0.00     0.035 C 
ATOM     18  C   UNL A   1      32.088  28.449  24.252  1.00  0.00    -0.026 C 
ATOM     19  C   UNL A   1      33.954  28.192  22.566  1.00  0.00     0.036 C 
BRANCH  18  20
ATOM     20  C   UNL A   1      32.256  29.680  24.998  1.00  0.00     0.031 C 
ATOM     21  C   UNL A   1      32.131  29.877  26.331  1.00  0.00     0.117 C 
BRANCH  21  22
ATOM     22  C   UNL A   1      31.783  28.849  27.250  1.00  0.00     0.105 C 
ATOM     23  N   UNL A   1      31.514  27.999  27.985  1.00  0.00    -0.192 NA
ENDBRANCH  21  22
BRANCH  21  24
ATOM     24  C   UNL A   1      32.135  31.295  26.789  1.00  0.00     0.261 C 
ATOM     25  O   UNL A   1      31.182  32.041  26.557  1.00  0.00    -0.268 OA
ATOM     26  N   UNL A   1      33.079  31.728  27.665  1.00  0.00    -0.351 N 
ATOM     27  H   UNL A   1      32.702  32.189  28.450  1.00  0.00     0.163 HD
BRANCH  26  28
ATOM     28  C   UNL A   1      34.549  31.651  27.683  1.00  0.00     0.121 C 
BRANCH  28  29
ATOM     29  C   UNL A   1      35.262  32.774  28.498  1.00  0.00     0.059 C 
BRANCH  29  30
ATOM     30  C   UNL A   1      35.919  32.302  29.798  1.00  0.00    -0.021 A 
ATOM     31  C   UNL A   1      35.275  32.356  31.034  1.00  0.00     0.087 A 
ATOM     32  C   UNL A   1      37.253  32.621  30.210  1.00  0.00     0.003 A 
ATOM     33  N   UNL A   1      35.738  33.600  31.476  1.00  0.00    -0.361 N 
ATOM     34  C   UNL A   1      37.054  33.700  31.072  1.00  0.00     0.046 A 
ATOM     35  C   UNL A   1      38.572  32.211  29.949  1.00  0.00     0.010 A 
ATOM     36  H   UNL A   1      35.224  34.273  31.978  1.00  0.00     0.166 HD
ATOM     37  C   UNL A   1      38.065  34.578  31.450  1.00  0.00     0.026 A 
ATOM     38  C   UNL A   1      39.620  32.958  30.514  1.00  0.00     0.001 A 
ATOM     39  C   UNL A   1      39.368  34.162  31.178  1.00  0.00     0.002 A 
ENDBRANCH  29  30
ENDBRANCH  28  29
ENDBRANCH  26  28
ENDBRANCH  21  24
ENDBRANCH  18  20
ENDBRANCH   9  13
ENDBRANCH   3   6
ENDBRANCH   1   2
BRANCH   1  40
ATOM     40  C   UNL A   1      38.592  22.820  26.119  1.00  0.00     0.021 C 
BRANCH  40  41
ATOM     41  C   UNL A   1      39.534  23.438  27.152  1.00  0.00     0.002 C 
BRANCH  41  42
ATOM     42  C   UNL A   1      40.817  22.633  27.383  1.00  0.00     0.002 C 
BRANCH  42  43
ATOM     43  C   UNL A   1      41.265  21.797  26.186  1.00  0.00     0.021 C 
BRANCH  43  44
ATOM     44  C   UNL A   1      42.700  21.329  26.311  1.00  0.00     0.116 C 
BRANCH  44  45
ATOM     45  N   UNL A   1      43.339  21.303  25.004  1.00  0.00    -0.352 N 
ATOM     46  C   UNL A   1      44.286  22.120  24.432  1.00  0.00     0.251 C 
ATOM     47  H   UNL A   1      43.039  20.566  24.424  1.00  0.00     0.163 HD
ATOM     48  O   UNL A   1      44.455  22.069  23.216  1.00  0.00    -0.269 OA
BRANCH  46  49
ATOM     49  C   UNL A   1      45.268  22.843  25.285  1.00  0.00     0.039 A 
ATOM     50  C   UNL A   1      45.005  22.685  26.656  1.00  0.00     0.014 A 
ATOM     51  C   UNL A   1      45.832  24.019  24.816  1.00  0.00     0.014 A 
ATOM     52  C   UNL A   1      44.889  23.813  27.445  1.00  0.00     0.010 A 
ATOM     53  C   UNL A   1      45.546  25.152  25.519  1.00  0.00     0.010 A 
ATOM     54  C   UNL A   1      45.011  25.034  26.803  1.00  0.00    -0.014 A 
BRANCH  54  55
ATOM     55  C   UNL A   1      44.761  26.309  27.420  1.00  0.00     0.031 A 
ATOM     56  C   UNL A   1      43.389  26.797  27.240  1.00  0.00     0.074 A 
ATOM     57  C   UNL A   1      45.708  26.753  28.277  1.00  0.00     0.049 A 
ATOM     58  N   UNL A   1      43.015  28.004  27.417  1.00  0.00    -0.248 NA
ATOM     59  C   UNL A   1      42.296  25.934  26.763  1.00  0.00     0.031 C 
ATOM     60  C   UNL A   1      45.634  27.757  29.328  1.00  0.00     0.029 A 
ATOM     61  N   UNL A   1      47.071  26.457  28.199  1.00  0.00    -0.354 N 
ATOM     62  C   UNL A   1      41.638  27.976  27.503  1.00  0.00     0.074 A 
ATOM     63  C   UNL A   1      41.234  26.727  26.921  1.00  0.00     0.031 C 
ATOM     64  C   UNL A   1      46.877  28.221  29.573  1.00  0.00     0.029 A 
ATOM     65  C   UNL A   1      47.767  27.617  28.591  1.00  0.00     0.049 A 
ATOM     66  H   UNL A   1      47.470  25.601  27.924  1.00  0.00     0.167 HD
ATOM     67  C   UNL A   1      41.040  28.928  28.266  1.00  0.00     0.031 A 
ATOM     68  C   UNL A   1      48.458  28.315  27.637  1.00  0.00     0.031 A 
ATOM     69  C   UNL A   1      42.050  29.877  28.732  1.00  0.00     0.049 A 
ATOM     70  C   UNL A   1      47.754  29.620  27.311  1.00  0.00     0.074 A 
ATOM     71  C   UNL A   1      42.749  29.976  29.924  1.00  0.00     0.029 A 
ATOM     72  N   UNL A   1      42.788  30.574  27.781  1.00  0.00    -0.354 N 
ATOM     73  N   UNL A   1      46.467  29.815  27.446  1.00  0.00    -0.248 NA
ATOM     74  C   UNL A   1      48.465  30.831  26.915  1.00  0.00     0.031 C 
ATOM     75  C   UNL A   1      43.976  30.647  29.646  1.00  0.00     0.029 A 
ATOM     76  C   UNL A   1      44.008  30.966  28.298  1.00  0.00     0.049 A 
ATOM     77  H   UNL A   1      42.482  30.761  26.864  1.00  0.00     0.167 HD
ATOM     78  C   UNL A   1      46.185  31.143  27.259  1.00  0.00     0.074 A 
ATOM     79  C   UNL A   1      47.465  31.730  26.902  1.00  0.00     0.031 C 
ATOM     80  C   UNL A   1      44.947  31.692  27.451  1.00  0.00     0.031 A 
BRANCH  67  81
ATOM     81  C   UNL A   1      39.647  28.846  28.836  1.00  0.00    -0.014 A 
ATOM     82  C   UNL A   1      38.565  29.161  27.993  1.00  0.00     0.009 A 
ATOM     83  C   UNL A   1      39.319  28.532  30.167  1.00  0.00     0.009 A 
ATOM     84  C   UNL A   1      37.244  29.198  28.454  1.00  0.00     0.001 A 
ATOM     85  C   UNL A   1      37.997  28.571  30.638  1.00  0.00     0.001 A 
ATOM     86  C   UNL A   1      36.959  28.908  29.781  1.00  0.00     0.000 A 
ENDBRANCH  67  81
BRANCH  68  87
ATOM     87  C   UNL A   1      49.142  27.388  26.672  1.00  0.00    -0.014 A 
ATOM     88  C   UNL A   1      48.640  27.371  25.348  1.00  0.00     0.009 A 
ATOM     89  C   UNL A   1      50.470  26.987  26.879  1.00  0.00     0.009 A 
ATOM     90  C   UNL A   1      49.496  27.186  24.257  1.00  0.00     0.001 A 
ATOM     91  C   UNL A   1      51.312  26.763  25.777  1.00  0.00     0.001 A 
ATOM     92  C   UNL A   1      50.846  26.931  24.473  1.00  0.00     0.000 A 
ENDBRANCH  68  87
BRANCH  80  93
ATOM     93  C   UNL A   1      44.498  33.028  26.906  1.00  0.00    -0.014 A 
ATOM     94  C   UNL A   1      44.263  33.283  25.552  1.00  0.00     0.009 A 
ATOM     95  C   UNL A   1      44.129  34.054  27.811  1.00  0.00     0.009 A 
ATOM     96  C   UNL A   1      43.759  34.515  25.118  1.00  0.00     0.001 A 
ATOM     97  C   UNL A   1      43.548  35.249  27.391  1.00  0.00     0.001 A 
ATOM     98  C   UNL A   1      43.387  35.490  26.037  1.00  0.00     0.000 A 
ENDBRANCH  80  93
ENDBRANCH  54  55
ENDBRANCH  46  49
ENDBRANCH  44  45
ENDBRANCH  43  44
ENDBRANCH  42  43
ENDBRANCH  41  42
ENDBRANCH  40  41
ENDBRANCH   1  40
TORSDOF 20
ENDMDL
MODEL 2
REMARK VINA RESULT:     -11.6      3.525     10.332
REMARK SMILES Cc1c(C(=O)NCCCCCCNC(=O)c2ccc(-c3c4nc(c(-c5ccccc5)c5ccc([nH]5)c(-c5ccccc5)c5nc(c(-c6ccccc6)c6ccc3[nH]6)C=C5)C=C4)cc2)cccc1N1[C@@H](C)C=C(/C=C(\C#N)C(=O)NCCc2c[nH]c3ccccc23)[C@@H]1C
REMARK SMILES IDX 7 1 6 2 4 3 5 4 3 6 1 7 2 8 67 9 64 10 66 11 65 12 68 13
REMARK SMILES IDX 69 14 91 15 71 16 70 17 72 18 92 19 73 20 74 21 75 22 76 23
REMARK SMILES IDX 77 24 78 25 79 26 80 28 81 29 82 30 83 31 90 32 84 33 85 34
REMARK SMILES IDX 89 35 86 37 88 38 87 39 8 40 9 41 10 42 11 43 12 44 13 45
REMARK SMILES IDX 14 46 15 48 16 49 17 50 63 51 18 52 62 53 19 54 20 55 21 56
REMARK SMILES IDX 56 57 22 58 61 59 55 60 57 61 23 62 60 63 54 64 53 65 24 67
REMARK SMILES IDX 46 68 31 69 45 70 32 71 35 72 44 73 58 74 33 75 34 76 43 78
REMARK SMILES IDX 59 79 36 80 25 81 26 82 30 83 27 84 29 85 28 86 47 87 48 88
REMARK SMILES IDX 52 89 49 90 51 91 50 92 37 93 38 94 42 95 39 96 41 97 40 98
REMARK H PARENT 6 5 79 27 84 36 13 47 57 66 35 77
REMARK Flexibility Score: inf
ROOT
ATOM      1  C   UNL A   1      33.754  28.804  27.209  1.00  0.00     0.116 C 
ENDROOT
BRANCH   1   2
ATOM      2  N   UNL A   1      32.913  28.988  26.065  1.00  0.00    -0.352 N 
ATOM      3  C   UNL A   1      32.051  28.218  25.351  1.00  0.00     0.251 C 
ATOM      4  O   UNL A   1      31.481  28.851  24.451  1.00  0.00    -0.269 OA
ATOM      5  H   UNL A   1      32.974  29.903  25.706  1.00  0.00     0.163 HD
BRANCH   3   6
ATOM      6  C   UNL A   1      31.684  26.766  25.558  1.00  0.00     0.044 A 
ATOM      7  C   UNL A   1      33.890  25.523  25.063  1.00  0.00     0.047 C 
ATOM      8  C   UNL A   1      32.463  25.577  25.527  1.00  0.00    -0.015 A 
ATOM      9  C   UNL A   1      31.845  24.317  25.795  1.00  0.00     0.041 A 
ATOM     10  C   UNL A   1      30.284  26.618  25.711  1.00  0.00     0.014 A 
ATOM     11  C   UNL A   1      30.451  24.248  25.933  1.00  0.00     0.026 A 
ATOM     12  C   UNL A   1      29.669  25.384  25.863  1.00  0.00     0.003 A 
BRANCH   9  13
ATOM     13  N   UNL A   1      32.537  23.124  25.743  1.00  0.00    -0.358 N 
ATOM     14  C   UNL A   1      32.249  22.158  24.679  1.00  0.00     0.103 C 
ATOM     15  C   UNL A   1      33.750  22.798  26.508  1.00  0.00     0.110 C 
ATOM     16  C   UNL A   1      33.496  21.339  24.692  1.00  0.00     0.003 C 
ATOM     17  C   UNL A   1      32.112  22.787  23.290  1.00  0.00     0.035 C 
ATOM     18  C   UNL A   1      34.389  21.763  25.596  1.00  0.00    -0.026 C 
ATOM     19  C   UNL A   1      33.372  22.203  27.868  1.00  0.00     0.036 C 
BRANCH  18  20
ATOM     20  C   UNL A   1      35.767  21.339  25.742  1.00  0.00     0.031 C 
ATOM     21  C   UNL A   1      36.816  21.596  24.926  1.00  0.00     0.117 C 
BRANCH  21  22
ATOM     22  C   UNL A   1      36.712  22.356  23.727  1.00  0.00     0.105 C 
ATOM     23  N   UNL A   1      36.651  22.971  22.751  1.00  0.00    -0.192 NA
ENDBRANCH  21  22
BRANCH  21  24
ATOM     24  C   UNL A   1      38.067  20.836  25.203  1.00  0.00     0.261 C 
ATOM     25  O   UNL A   1      38.132  19.622  25.005  1.00  0.00    -0.268 OA
ATOM     26  N   UNL A   1      39.226  21.498  25.460  1.00  0.00    -0.351 N 
ATOM     27  H   UNL A   1      39.979  21.202  24.898  1.00  0.00     0.163 HD
BRANCH  26  28
ATOM     28  C   UNL A   1      39.588  22.567  26.405  1.00  0.00     0.121 C 
BRANCH  28  29
ATOM     29  C   UNL A   1      40.541  22.135  27.562  1.00  0.00     0.059 C 
BRANCH  29  30
ATOM     30  C   UNL A   1      41.998  21.920  27.144  1.00  0.00    -0.021 A 
ATOM     31  C   UNL A   1      42.955  21.367  27.993  1.00  0.00     0.087 A 
ATOM     32  C   UNL A   1      42.811  22.885  26.466  1.00  0.00     0.003 A 
ATOM     33  N   UNL A   1      43.484  22.542  28.537  1.00  0.00    -0.361 N 
ATOM     34  C   UNL A   1      43.527  23.468  27.513  1.00  0.00     0.046 A 
ATOM     35  C   UNL A   1      43.006  23.386  25.167  1.00  0.00     0.010 A 
ATOM     36  H   UNL A   1      43.771  22.682  29.468  1.00  0.00     0.166 HD
ATOM     37  C   UNL A   1      44.185  24.689  27.408  1.00  0.00     0.026 A 
ATOM     38  C   UNL A   1      43.856  24.493  25.006  1.00  0.00     0.001 A 
ATOM     39  C   UNL A   1      44.364  25.177  26.114  1.00  0.00     0.002 A 
ENDBRANCH  29  30
ENDBRANCH  28  29
ENDBRANCH  26  28
ENDBRANCH  21  24
ENDBRANCH  18  20
ENDBRANCH   9  13
ENDBRANCH   3   6
ENDBRANCH   1   2
BRANCH   1  40
ATOM     40  C   UNL A   1      34.811  29.917  27.276  1.00  0.00     0.021 C 
BRANCH  40  41
ATOM     41  C   UNL A   1      34.221  31.281  27.633  1.00  0.00     0.002 C 
BRANCH  41  42
ATOM     42  C   UNL A   1      34.885  31.949  28.842  1.00  0.00     0.002 C 
BRANCH  42  43
ATOM     43  C   UNL A   1      36.228  32.612  28.542  1.00  0.00     0.021 C 
BRANCH  43  44
ATOM     44  C   UNL A   1      36.480  33.827  29.410  1.00  0.00     0.116 C 
BRANCH  44  45
ATOM     45  N   UNL A   1      35.330  34.088  30.263  1.00  0.00    -0.352 N 
ATOM     46  C   UNL A   1      35.115  33.864  31.602  1.00  0.00     0.251 C 
ATOM     47  H   UNL A   1      34.569  34.501  29.796  1.00  0.00     0.163 HD
ATOM     48  O   UNL A   1      33.964  33.900  32.031  1.00  0.00    -0.269 OA
BRANCH  46  49
ATOM     49  C   UNL A   1      36.258  33.849  32.556  1.00  0.00     0.039 A 
ATOM     50  C   UNL A   1      37.371  34.554  32.068  1.00  0.00     0.014 A 
ATOM     51  C   UNL A   1      36.439  32.748  33.376  1.00  0.00     0.014 A 
ATOM     52  C   UNL A   1      38.596  33.919  32.030  1.00  0.00     0.010 A 
ATOM     53  C   UNL A   1      37.583  32.030  33.187  1.00  0.00     0.010 A 
ATOM     54  C   UNL A   1      38.625  32.600  32.454  1.00  0.00    -0.014 A 
BRANCH  54  55
ATOM     55  C   UNL A   1      39.764  31.731  32.338  1.00  0.00     0.031 A 
ATOM     56  C   UNL A   1      39.548  30.586  31.445  1.00  0.00     0.074 A 
ATOM     57  C   UNL A   1      40.929  32.201  32.837  1.00  0.00     0.049 A 
ATOM     58  N   UNL A   1      40.270  29.534  31.418  1.00  0.00    -0.248 NA
ATOM     59  C   UNL A   1      38.409  30.509  30.515  1.00  0.00     0.031 C 
ATOM     60  C   UNL A   1      42.301  31.796  32.574  1.00  0.00     0.029 A 
ATOM     61  N   UNL A   1      41.048  33.094  33.905  1.00  0.00    -0.354 N 
ATOM     62  C   UNL A   1      39.972  28.888  30.236  1.00  0.00     0.074 A 
ATOM     63  C   UNL A   1      38.709  29.419  29.806  1.00  0.00     0.031 C 
ATOM     64  C   UNL A   1      43.072  32.167  33.618  1.00  0.00     0.029 A 
ATOM     65  C   UNL A   1      42.185  32.708  34.640  1.00  0.00     0.049 A 
ATOM     66  H   UNL A   1      40.451  33.850  34.107  1.00  0.00     0.167 HD
ATOM     67  C   UNL A   1      40.956  28.144  29.665  1.00  0.00     0.031 A 
ATOM     68  C   UNL A   1      42.003  32.155  35.879  1.00  0.00     0.031 A 
ATOM     69  C   UNL A   1      42.113  28.108  30.558  1.00  0.00     0.049 A 
ATOM     70  C   UNL A   1      42.302  30.667  35.854  1.00  0.00     0.074 A 
ATOM     71  C   UNL A   1      43.284  28.848  30.588  1.00  0.00     0.029 A 
ATOM     72  N   UNL A   1      41.944  27.582  31.835  1.00  0.00    -0.354 N 
ATOM     73  N   UNL A   1      42.189  29.913  34.790  1.00  0.00    -0.248 NA
ATOM     74  C   UNL A   1      42.852  29.945  36.997  1.00  0.00     0.031 C 
ATOM     75  C   UNL A   1      43.755  28.849  31.934  1.00  0.00     0.029 A 
ATOM     76  C   UNL A   1      42.882  28.102  32.707  1.00  0.00     0.049 A 
ATOM     77  H   UNL A   1      41.251  26.929  32.082  1.00  0.00     0.167 HD
ATOM     78  C   UNL A   1      42.718  28.675  35.051  1.00  0.00     0.074 A 
ATOM     79  C   UNL A   1      43.093  28.738  36.454  1.00  0.00     0.031 C 
ATOM     80  C   UNL A   1      42.863  27.696  34.107  1.00  0.00     0.031 A 
BRANCH  67  81
ATOM     81  C   UNL A   1      41.004  27.717  28.221  1.00  0.00    -0.014 A 
ATOM     82  C   UNL A   1      40.459  26.464  27.880  1.00  0.00     0.009 A 
ATOM     83  C   UNL A   1      41.599  28.435  27.169  1.00  0.00     0.009 A 
ATOM     84  C   UNL A   1      40.534  25.943  26.583  1.00  0.00     0.001 A 
ATOM     85  C   UNL A   1      41.682  27.917  25.866  1.00  0.00     0.001 A 
ATOM     86  C   UNL A   1      41.152  26.669  25.574  1.00  0.00     0.000 A 
ENDBRANCH  67  81
BRANCH  68  87
ATOM     87  C   UNL A   1      40.897  32.845  36.626  1.00  0.00    -0.014 A 
ATOM     88  C   UNL A   1      41.062  34.231  36.862  1.00  0.00     0.009 A 
ATOM     89  C   UNL A   1      39.592  32.330  36.618  1.00  0.00     0.009 A 
ATOM     90  C   UNL A   1      39.964  35.098  36.858  1.00  0.00     0.001 A 
ATOM     91  C   UNL A   1      38.494  33.205  36.654  1.00  0.00     0.001 A 
ATOM     92  C   UNL A   1      38.681  34.586  36.703  1.00  0.00     0.000 A 
ENDBRANCH  68  87
BRANCH  80  93
ATOM     93  C   UNL A   1      43.071  26.229  34.406  1.00  0.00    -0.014 A 
ATOM     94  C   UNL A   1      42.227  25.467  35.220  1.00  0.00     0.009 A 
ATOM     95  C   UNL A   1      44.078  25.518  33.708  1.00  0.00     0.009 A 
ATOM     96  C   UNL A   1      42.419  24.091  35.384  1.00  0.00     0.001 A 
ATOM     97  C   UNL A   1      44.221  24.135  33.802  1.00  0.00     0.001 A 
ATOM     98  C   UNL A   1      43.405  23.423  34.664  1.00  0.00     0.000 A 
ENDBRANCH  80  93
ENDBRANCH  54  55
ENDBRANCH  46  49
ENDBRANCH  44  45
ENDBRANCH  43  44
ENDBRANCH  42  43
ENDBRANCH  41  42
ENDBRANCH  40  41
ENDBRANCH   1  40
TORSDOF 20
ENDMDL
MODEL 3
REMARK VINA RESULT:     -11.3      1.587      2.405
REMARK SMILES Cc1c(C(=O)NCCCCCCNC(=O)c2ccc(-c3c4nc(c(-c5ccccc5)c5ccc([nH]5)c(-c5ccccc5)c5nc(c(-c6ccccc6)c6ccc3[nH]6)C=C5)C=C4)cc2)cccc1N1[C@@H](C)C=C(/C=C(\C#N)C(=O)NCCc2c[nH]c3ccccc23)[C@@H]1C
REMARK SMILES IDX 7 1 6 2 4 3 5 4 3 6 1 7 2 8 67 9 64 10 66 11 65 12 68 13
REMARK SMILES IDX 69 14 91 15 71 16 70 17 72 18 92 19 73 20 74 21 75 22 76 23
REMARK SMILES IDX 77 24 78 25 79 26 80 28 81 29 82 30 83 31 90 32 84 33 85 34
REMARK SMILES IDX 89 35 86 37 88 38 87 39 8 40 9 41 10 42 11 43 12 44 13 45
REMARK SMILES IDX 14 46 15 48 16 49 17 50 63 51 18 52 62 53 19 54 20 55 21 56
REMARK SMILES IDX 56 57 22 58 61 59 55 60 57 61 23 62 60 63 54 64 53 65 24 67
REMARK SMILES IDX 46 68 31 69 45 70 32 71 35 72 44 73 58 74 33 75 34 76 43 78
REMARK SMILES IDX 59 79 36 80 25 81 26 82 30 83 27 84 29 85 28 86 47 87 48 88
REMARK SMILES IDX 52 89 49 90 51 91 50 92 37 93 38 94 42 95 39 96 41 97 40 98
REMARK H PARENT 6 5 79 27 84 36 13 47 57 66 35 77
REMARK Flexibility Score: inf
ROOT
ATOM      1  C   UNL A   1      37.581  20.905  25.206  1.00  0.00     0.116 C 
ENDROOT
BRANCH   1   2
ATOM      2  N   UNL A   1      36.400  20.184  24.835  1.00  0.00    -0.352 N 
ATOM      3  C   UNL A   1      35.061  20.349  25.002  1.00  0.00     0.251 C 
ATOM      4  O   UNL A   1      34.399  19.472  24.429  1.00  0.00    -0.269 OA
ATOM      5  H   UNL A   1      36.611  19.365  24.331  1.00  0.00     0.163 HD
BRANCH   3   6
ATOM      6  C   UNL A   1      34.326  21.455  25.723  1.00  0.00     0.044 A 
ATOM      7  C   UNL A   1      33.760  23.118  23.832  1.00  0.00     0.047 C 
ATOM      8  C   UNL A   1      33.674  22.627  25.249  1.00  0.00    -0.015 A 
ATOM      9  C   UNL A   1      33.020  23.499  26.173  1.00  0.00     0.041 A 
ATOM     10  C   UNL A   1      34.419  21.290  27.126  1.00  0.00     0.014 A 
ATOM     11  C   UNL A   1      33.159  23.273  27.550  1.00  0.00     0.026 A 
ATOM     12  C   UNL A   1      33.877  22.194  28.029  1.00  0.00     0.003 A 
BRANCH   9  13
ATOM     13  N   UNL A   1      32.403  24.669  25.781  1.00  0.00    -0.358 N 
ATOM     14  C   UNL A   1      30.972  24.668  25.460  1.00  0.00     0.103 C 
ATOM     15  C   UNL A   1      32.971  26.021  25.890  1.00  0.00     0.110 C 
ATOM     16  C   UNL A   1      30.647  26.117  25.606  1.00  0.00     0.003 C 
ATOM     17  C   UNL A   1      30.112  23.888  26.459  1.00  0.00     0.035 C 
ATOM     18  C   UNL A   1      31.702  26.854  25.978  1.00  0.00    -0.026 C 
ATOM     19  C   UNL A   1      33.786  26.353  24.637  1.00  0.00     0.036 C 
BRANCH  18  20
ATOM     20  C   UNL A   1      31.705  28.239  26.403  1.00  0.00     0.031 C 
ATOM     21  C   UNL A   1      31.678  29.354  25.636  1.00  0.00     0.117 C 
BRANCH  21  22
ATOM     22  C   UNL A   1      31.653  29.329  24.213  1.00  0.00     0.105 C 
ATOM     23  N   UNL A   1      31.627  29.288  23.059  1.00  0.00    -0.192 NA
ENDBRANCH  21  22
BRANCH  21  24
ATOM     24  C   UNL A   1      31.923  30.644  26.340  1.00  0.00     0.261 C 
ATOM     25  O   UNL A   1      31.120  31.575  26.260  1.00  0.00    -0.268 OA
ATOM     26  N   UNL A   1      32.914  30.741  27.264  1.00  0.00    -0.351 N 
ATOM     27  H   UNL A   1      32.612  31.113  28.124  1.00  0.00     0.163 HD
BRANCH  26  28
ATOM     28  C   UNL A   1      34.347  30.405  27.244  1.00  0.00     0.121 C 
BRANCH  28  29
ATOM     29  C   UNL A   1      35.184  30.997  28.420  1.00  0.00     0.059 C 
BRANCH  29  30
ATOM     30  C   UNL A   1      34.798  32.424  28.824  1.00  0.00    -0.021 A 
ATOM     31  C   UNL A   1      35.014  33.527  28.000  1.00  0.00     0.087 A 
ATOM     32  C   UNL A   1      35.068  33.020  30.098  1.00  0.00     0.003 A 
ATOM     33  N   UNL A   1      36.263  33.932  28.484  1.00  0.00    -0.361 N 
ATOM     34  C   UNL A   1      36.237  33.742  29.852  1.00  0.00     0.046 A 
ATOM     35  C   UNL A   1      34.551  33.015  31.404  1.00  0.00     0.010 A 
ATOM     36  H   UNL A   1      37.013  34.283  27.953  1.00  0.00     0.166 HD
ATOM     37  C   UNL A   1      37.080  34.205  30.857  1.00  0.00     0.026 A 
ATOM     38  C   UNL A   1      35.280  33.679  32.406  1.00  0.00     0.001 A 
ATOM     39  C   UNL A   1      36.557  34.188  32.149  1.00  0.00     0.002 A 
ENDBRANCH  29  30
ENDBRANCH  28  29
ENDBRANCH  26  28
ENDBRANCH  21  24
ENDBRANCH  18  20
ENDBRANCH   9  13
ENDBRANCH   3   6
ENDBRANCH   1   2
BRANCH   1  40
ATOM     40  C   UNL A   1      38.761  19.936  25.376  1.00  0.00     0.021 C 
BRANCH  40  41
ATOM     41  C   UNL A   1      40.062  20.640  25.759  1.00  0.00     0.002 C 
BRANCH  41  42
ATOM     42  C   UNL A   1      40.682  20.134  27.066  1.00  0.00     0.002 C 
BRANCH  42  43
ATOM     43  C   UNL A   1      42.077  19.530  26.914  1.00  0.00     0.021 C 
BRANCH  43  44
ATOM     44  C   UNL A   1      42.754  19.954  25.627  1.00  0.00     0.116 C 
BRANCH  44  45
ATOM     45  N   UNL A   1      43.971  20.699  25.916  1.00  0.00    -0.352 N 
ATOM     46  C   UNL A   1      44.283  22.031  25.776  1.00  0.00     0.251 C 
ATOM     47  H   UNL A   1      44.702  20.149  26.278  1.00  0.00     0.163 HD
ATOM     48  O   UNL A   1      45.464  22.369  25.814  1.00  0.00    -0.269 OA
BRANCH  46  49
ATOM     49  C   UNL A   1      43.215  23.065  25.853  1.00  0.00     0.039 A 
ATOM     50  C   UNL A   1      43.463  24.154  25.001  1.00  0.00     0.014 A 
ATOM     51  C   UNL A   1      42.548  23.259  27.052  1.00  0.00     0.014 A 
ATOM     52  C   UNL A   1      43.450  25.429  25.531  1.00  0.00     0.010 A 
ATOM     53  C   UNL A   1      42.705  24.477  27.645  1.00  0.00     0.010 A 
ATOM     54  C   UNL A   1      43.222  25.533  26.893  1.00  0.00    -0.014 A 
BRANCH  54  55
ATOM     55  C   UNL A   1      43.331  26.752  27.648  1.00  0.00     0.031 A 
ATOM     56  C   UNL A   1      42.058  27.464  27.812  1.00  0.00     0.074 A 
ATOM     57  C   UNL A   1      44.494  26.943  28.309  1.00  0.00     0.049 A 
ATOM     58  N   UNL A   1      41.945  28.687  28.161  1.00  0.00    -0.248 NA
ATOM     59  C   UNL A   1      40.757  26.841  27.520  1.00  0.00     0.031 C 
ATOM     60  C   UNL A   1      44.813  27.819  29.426  1.00  0.00     0.029 A 
ATOM     61  N   UNL A   1      45.740  26.451  27.911  1.00  0.00    -0.354 N 
ATOM     62  C   UNL A   1      40.631  28.861  28.544  1.00  0.00     0.074 A 
ATOM     63  C   UNL A   1      39.905  27.765  27.969  1.00  0.00     0.031 C 
ATOM     64  C   UNL A   1      46.142  28.055  29.429  1.00  0.00     0.029 A 
ATOM     65  C   UNL A   1      46.694  27.436  28.231  1.00  0.00     0.049 A 
ATOM     66  H   UNL A   1      45.918  25.581  27.488  1.00  0.00     0.167 HD
ATOM     67  C   UNL A   1      40.377  29.801  29.492  1.00  0.00     0.031 A 
ATOM     68  C   UNL A   1      47.288  28.124  27.207  1.00  0.00     0.031 A 
ATOM     69  C   UNL A   1      41.611  30.523  29.799  1.00  0.00     0.049 A 
ATOM     70  C   UNL A   1      46.773  29.551  27.147  1.00  0.00     0.074 A 
ATOM     71  C   UNL A   1      42.544  30.376  30.813  1.00  0.00     0.029 A 
ATOM     72  N   UNL A   1      42.251  31.202  28.767  1.00  0.00    -0.354 N 
ATOM     73  N   UNL A   1      45.594  29.926  27.575  1.00  0.00    -0.248 NA
ATOM     74  C   UNL A   1      47.590  30.675  26.701  1.00  0.00     0.031 C 
ATOM     75  C   UNL A   1      43.787  30.876  30.326  1.00  0.00     0.029 A 
ATOM     76  C   UNL A   1      43.601  31.338  29.033  1.00  0.00     0.049 A 
ATOM     77  H   UNL A   1      41.804  31.537  27.958  1.00  0.00     0.167 HD
ATOM     78  C   UNL A   1      45.518  31.294  27.560  1.00  0.00     0.074 A 
ATOM     79  C   UNL A   1      46.782  31.713  26.978  1.00  0.00     0.031 C 
ATOM     80  C   UNL A   1      44.461  32.002  28.062  1.00  0.00     0.031 A 
BRANCH  67  81
ATOM     81  C   UNL A   1      39.137  29.871  30.346  1.00  0.00    -0.014 A 
ATOM     82  C   UNL A   1      38.070  29.005  30.039  1.00  0.00     0.009 A 
ATOM     83  C   UNL A   1      38.915  30.770  31.404  1.00  0.00     0.009 A 
ATOM     84  C   UNL A   1      36.847  29.055  30.718  1.00  0.00     0.001 A 
ATOM     85  C   UNL A   1      37.689  30.829  32.087  1.00  0.00     0.001 A 
ATOM     86  C   UNL A   1      36.653  29.973  31.741  1.00  0.00     0.000 A 
ENDBRANCH  67  81
BRANCH  68  87
ATOM     87  C   UNL A   1      47.588  27.219  26.046  1.00  0.00    -0.014 A 
ATOM     88  C   UNL A   1      46.925  27.510  24.829  1.00  0.00     0.009 A 
ATOM     89  C   UNL A   1      48.792  26.503  25.985  1.00  0.00     0.009 A 
ATOM     90  C   UNL A   1      47.555  27.299  23.597  1.00  0.00     0.001 A 
ATOM     91  C   UNL A   1      49.399  26.259  24.741  1.00  0.00     0.001 A 
ATOM     92  C   UNL A   1      48.818  26.717  23.559  1.00  0.00     0.000 A 
ENDBRANCH  68  87
BRANCH  80  93
ATOM     93  C   UNL A   1      44.152  33.446  27.735  1.00  0.00    -0.014 A 
ATOM     94  C   UNL A   1      44.363  34.511  28.616  1.00  0.00     0.009 A 
ATOM     95  C   UNL A   1      43.779  33.790  26.412  1.00  0.00     0.009 A 
ATOM     96  C   UNL A   1      44.145  35.836  28.222  1.00  0.00     0.001 A 
ATOM     97  C   UNL A   1      43.643  35.111  25.992  1.00  0.00     0.001 A 
ATOM     98  C   UNL A   1      43.801  36.137  26.909  1.00  0.00     0.000 A 
ENDBRANCH  80  93
ENDBRANCH  54  55
ENDBRANCH  46  49
ENDBRANCH  44  45
ENDBRANCH  43  44
ENDBRANCH  42  43
ENDBRANCH  41  42
ENDBRANCH  40  41
ENDBRANCH   1  40
TORSDOF 20
ENDMDL
