MODEL 1
REMARK VINA RESULT:     -10.6      0.000      0.000
REMARK SMILES CC[N@H+](Cc1ccc(Br)c(C)c1)[C@H]1COC[C@@H]1C(=O)NCCCCCCNC(=O)c1ccc(-c2c3nc(c(-c4ccccc4)c4ccc([nH]4)c(-c4ccccc4)c4nc(c(-c5ccccc5)c5ccc2[nH]5)C=C4)C=C3)cc1
REMARK SMILES IDX 23 1 22 2 21 3 20 4 18 5 19 6 17 8 13 9 14 10 15 11 16 12
REMARK SMILES IDX 3 13 2 15 1 16 4 17 5 18 6 19 12 20 7 21 10 22 8 23 11 24
REMARK SMILES IDX 9 25 24 26 25 27 26 28 27 29 28 30 29 32 30 33 31 34 77 35
REMARK SMILES IDX 32 36 76 37 33 38 34 39 35 40 70 41 36 42 75 43 69 44 71 45
REMARK SMILES IDX 37 46 74 47 68 48 67 49 38 51 60 52 45 53 59 54 46 55 49 56
REMARK SMILES IDX 58 57 72 58 47 59 48 60 57 62 73 63 50 64 39 65 40 66 44 67
REMARK SMILES IDX 41 68 43 69 42 70 61 71 62 72 66 73 63 74 65 75 64 76 51 77
REMARK SMILES IDX 52 78 56 79 53 80 55 81 54 82
REMARK H PARENT 20 7 3 14 27 31 71 50 49 61
REMARK Flexibility Score: inf
ROOT
ATOM      1  C   UNL A   1      32.514  29.214  26.837  1.00  0.00     0.002 C 
ENDROOT
BRANCH   1   2
ATOM      2  C   UNL A   1      31.948  27.875  27.323  1.00  0.00     0.021 C 
BRANCH   2   3
ATOM      3  C   UNL A   1      31.926  26.759  26.275  1.00  0.00     0.116 C 
BRANCH   3   4
ATOM      4  N   UNL A   1      31.130  25.639  26.731  1.00  0.00    -0.356 N 
ATOM      5  C   UNL A   1      31.445  24.317  26.820  1.00  0.00     0.231 C 
ATOM      6  O   UNL A   1      30.547  23.554  27.177  1.00  0.00    -0.274 OA
ATOM      7  H   UNL A   1      30.219  25.868  27.023  1.00  0.00     0.163 HD
BRANCH   5   8
ATOM      8  C   UNL A   1      32.860  23.845  26.489  1.00  0.00     0.164 C 
ATOM      9  C   UNL A   1      32.916  23.207  25.096  1.00  0.00     0.225 C 
ATOM     10  C   UNL A   1      32.567  21.752  25.438  1.00  0.00     0.226 C 
ATOM     11  O   UNL A   1      33.178  21.473  26.704  1.00  0.00    -0.374 OA
ATOM     12  C   UNL A   1      33.268  22.713  27.429  1.00  0.00     0.180 C 
BRANCH   9  13
ATOM     13  N   UNL A   1      34.224  23.454  24.390  1.00  0.00    -0.326 N 
ATOM     14  H   UNL A   1      34.664  22.539  24.287  1.00  0.00     0.348 HD
BRANCH  13  15
ATOM     15  C   UNL A   1      35.117  24.323  25.190  1.00  0.00     0.259 C 
ATOM     16  C   UNL A   1      36.479  23.716  25.513  1.00  0.00     0.071 C 
ENDBRANCH  13  15
BRANCH  13  17
ATOM     17  C   UNL A   1      34.043  24.019  23.025  1.00  0.00     0.299 C 
BRANCH  17  18
ATOM     18  C   UNL A   1      33.186  25.272  22.929  1.00  0.00     0.007 A 
ATOM     19  C   UNL A   1      31.811  25.167  22.674  1.00  0.00     0.011 A 
ATOM     20  C   UNL A   1      33.754  26.549  23.053  1.00  0.00     0.014 A 
ATOM     21  C   UNL A   1      31.018  26.308  22.571  1.00  0.00     0.016 A 
ATOM     22  C   UNL A   1      32.973  27.712  22.913  1.00  0.00    -0.036 A 
ATOM     23  C   UNL A   1      31.594  27.573  22.687  1.00  0.00     0.020 A 
ATOM     24  C   UNL A   1      33.637  29.058  22.993  1.00  0.00     0.045 C 
ATOM     25  Br  UNL A   1      30.443  29.076  22.521  1.00  0.00    -0.051 Br
ENDBRANCH  17  18
ENDBRANCH  13  17
ENDBRANCH   9  13
ENDBRANCH   5   8
ENDBRANCH   3   4
ENDBRANCH   2   3
ENDBRANCH   1   2
BRANCH   1  26
ATOM     26  C   UNL A   1      31.567  30.059  25.983  1.00  0.00     0.002 C 
BRANCH  26  27
ATOM     27  C   UNL A   1      31.397  31.509  26.438  1.00  0.00     0.021 C 
BRANCH  27  28
ATOM     28  C   UNL A   1      32.636  32.137  27.068  1.00  0.00     0.116 C 
BRANCH  28  29
ATOM     29  N   UNL A   1      32.404  33.501  27.518  1.00  0.00    -0.352 N 
ATOM     30  C   UNL A   1      33.135  34.269  28.389  1.00  0.00     0.251 C 
ATOM     31  H   UNL A   1      31.605  33.937  27.143  1.00  0.00     0.163 HD
ATOM     32  O   UNL A   1      32.693  35.347  28.781  1.00  0.00    -0.269 OA
BRANCH  30  33
ATOM     33  C   UNL A   1      34.445  33.792  28.882  1.00  0.00     0.039 A 
ATOM     34  C   UNL A   1      34.491  33.057  30.070  1.00  0.00     0.014 A 
ATOM     35  C   UNL A   1      35.623  34.067  28.181  1.00  0.00     0.014 A 
ATOM     36  C   UNL A   1      35.709  32.540  30.517  1.00  0.00     0.010 A 
ATOM     37  C   UNL A   1      36.824  33.492  28.591  1.00  0.00     0.010 A 
ATOM     38  C   UNL A   1      36.879  32.720  29.761  1.00  0.00    -0.014 A 
BRANCH  38  39
ATOM     39  C   UNL A   1      38.160  32.087  30.167  1.00  0.00     0.031 A 
ATOM     40  C   UNL A   1      39.098  32.795  31.105  1.00  0.00     0.074 A 
ATOM     41  C   UNL A   1      38.509  30.896  29.640  1.00  0.00     0.049 A 
ATOM     42  N   UNL A   1      40.281  32.421  31.528  1.00  0.00    -0.248 NA
ATOM     43  C   UNL A   1      38.664  34.104  31.618  1.00  0.00     0.031 C 
ATOM     44  C   UNL A   1      37.707  30.122  28.689  1.00  0.00     0.029 A 
ATOM     45  N   UNL A   1      39.633  30.131  29.824  1.00  0.00    -0.354 N 
ATOM     46  C   UNL A   1      40.735  33.451  32.341  1.00  0.00     0.074 A 
ATOM     47  C   UNL A   1      39.724  34.486  32.318  1.00  0.00     0.031 C 
ATOM     48  C   UNL A   1      38.353  28.983  28.394  1.00  0.00     0.029 A 
ATOM     49  C   UNL A   1      39.631  28.963  29.099  1.00  0.00     0.049 A 
ATOM     50  H   UNL A   1      40.372  30.394  30.420  1.00  0.00     0.167 HD
ATOM     51  C   UNL A   1      41.881  33.522  33.059  1.00  0.00     0.031 A 
ATOM     52  C   UNL A   1      40.556  27.990  29.003  1.00  0.00     0.031 A 
ATOM     53  C   UNL A   1      42.884  32.492  33.090  1.00  0.00     0.049 A 
ATOM     54  C   UNL A   1      41.829  28.105  29.793  1.00  0.00     0.074 A 
ATOM     55  C   UNL A   1      44.053  32.449  33.832  1.00  0.00     0.029 A 
ATOM     56  N   UNL A   1      42.842  31.325  32.343  1.00  0.00    -0.354 N 
ATOM     57  N   UNL A   1      42.209  29.053  30.615  1.00  0.00    -0.248 NA
ATOM     58  C   UNL A   1      42.797  27.008  29.650  1.00  0.00     0.031 C 
ATOM     59  C   UNL A   1      44.745  31.282  33.491  1.00  0.00     0.029 A 
ATOM     60  C   UNL A   1      43.977  30.569  32.584  1.00  0.00     0.049 A 
ATOM     61  H   UNL A   1      42.113  31.070  31.732  1.00  0.00     0.167 HD
ATOM     62  C   UNL A   1      43.445  28.654  31.107  1.00  0.00     0.074 A 
ATOM     63  C   UNL A   1      43.742  27.370  30.507  1.00  0.00     0.031 C 
ATOM     64  C   UNL A   1      44.261  29.293  31.980  1.00  0.00     0.031 A 
BRANCH  51  65
ATOM     65  C   UNL A   1      42.118  34.767  33.868  1.00  0.00    -0.014 A 
ATOM     66  C   UNL A   1      42.779  35.878  33.318  1.00  0.00     0.009 A 
ATOM     67  C   UNL A   1      41.632  34.850  35.182  1.00  0.00     0.009 A 
ATOM     68  C   UNL A   1      42.976  37.033  34.080  1.00  0.00     0.001 A 
ATOM     69  C   UNL A   1      41.805  36.015  35.931  1.00  0.00     0.001 A 
ATOM     70  C   UNL A   1      42.484  37.103  35.382  1.00  0.00     0.000 A 
ENDBRANCH  51  65
BRANCH  52  71
ATOM     71  C   UNL A   1      40.314  26.813  28.127  1.00  0.00    -0.014 A 
ATOM     72  C   UNL A   1      39.620  25.694  28.612  1.00  0.00     0.009 A 
ATOM     73  C   UNL A   1      40.789  26.797  26.806  1.00  0.00     0.009 A 
ATOM     74  C   UNL A   1      39.435  24.570  27.803  1.00  0.00     0.001 A 
ATOM     75  C   UNL A   1      40.574  25.684  25.989  1.00  0.00     0.001 A 
ATOM     76  C   UNL A   1      39.907  24.568  26.491  1.00  0.00     0.000 A 
ENDBRANCH  52  71
BRANCH  64  77
ATOM     77  C   UNL A   1      45.537  28.599  32.365  1.00  0.00    -0.014 A 
ATOM     78  C   UNL A   1      46.733  28.824  31.664  1.00  0.00     0.009 A 
ATOM     79  C   UNL A   1      45.549  27.732  33.469  1.00  0.00     0.009 A 
ATOM     80  C   UNL A   1      47.906  28.169  32.042  1.00  0.00     0.001 A 
ATOM     81  C   UNL A   1      46.731  27.101  33.863  1.00  0.00     0.001 A 
ATOM     82  C   UNL A   1      47.906  27.313  33.142  1.00  0.00     0.000 A 
ENDBRANCH  64  77
ENDBRANCH  38  39
ENDBRANCH  30  33
ENDBRANCH  28  29
ENDBRANCH  27  28
ENDBRANCH  26  27
ENDBRANCH   1  26
TORSDOF 17
ENDMDL
MODEL 2
REMARK VINA RESULT:     -10.6      1.947      3.188
REMARK SMILES CC[N@H+](Cc1ccc(Br)c(C)c1)[C@H]1COC[C@@H]1C(=O)NCCCCCCNC(=O)c1ccc(-c2c3nc(c(-c4ccccc4)c4ccc([nH]4)c(-c4ccccc4)c4nc(c(-c5ccccc5)c5ccc2[nH]5)C=C4)C=C3)cc1
REMARK SMILES IDX 23 1 22 2 21 3 20 4 18 5 19 6 17 8 13 9 14 10 15 11 16 12
REMARK SMILES IDX 3 13 2 15 1 16 4 17 5 18 6 19 12 20 7 21 10 22 8 23 11 24
REMARK SMILES IDX 9 25 24 26 25 27 26 28 27 29 28 30 29 32 30 33 31 34 77 35
REMARK SMILES IDX 32 36 76 37 33 38 34 39 35 40 70 41 36 42 75 43 69 44 71 45
REMARK SMILES IDX 37 46 74 47 68 48 67 49 38 51 60 52 45 53 59 54 46 55 49 56
REMARK SMILES IDX 58 57 72 58 47 59 48 60 57 62 73 63 50 64 39 65 40 66 44 67
REMARK SMILES IDX 41 68 43 69 42 70 61 71 62 72 66 73 63 74 65 75 64 76 51 77
REMARK SMILES IDX 52 78 56 79 53 80 55 81 54 82
REMARK H PARENT 20 7 3 14 27 31 71 50 49 61
REMARK Flexibility Score: inf
ROOT
ATOM      1  C   UNL A   1      32.411  29.665  26.966  1.00  0.00     0.002 C 
ENDROOT
BRANCH   1   2
ATOM      2  C   UNL A   1      31.915  28.249  27.282  1.00  0.00     0.021 C 
BRANCH   2   3
ATOM      3  C   UNL A   1      31.429  27.445  26.074  1.00  0.00     0.116 C 
BRANCH   3   4
ATOM      4  N   UNL A   1      30.636  26.309  26.495  1.00  0.00    -0.356 N 
ATOM      5  C   UNL A   1      30.936  24.981  26.500  1.00  0.00     0.231 C 
ATOM      6  O   UNL A   1      30.042  24.209  26.845  1.00  0.00    -0.274 OA
ATOM      7  H   UNL A   1      29.738  26.532  26.832  1.00  0.00     0.163 HD
BRANCH   5   8
ATOM      8  C   UNL A   1      32.333  24.513  26.093  1.00  0.00     0.164 C 
ATOM      9  C   UNL A   1      32.347  24.019  24.642  1.00  0.00     0.225 C 
ATOM     10  C   UNL A   1      31.968  22.544  24.843  1.00  0.00     0.226 C 
ATOM     11  O   UNL A   1      32.597  22.125  26.060  1.00  0.00    -0.374 OA
ATOM     12  C   UNL A   1      32.730  23.283  26.905  1.00  0.00     0.180 C 
BRANCH   9  13
ATOM     13  N   UNL A   1      33.647  24.306  23.937  1.00  0.00    -0.326 N 
ATOM     14  H   UNL A   1      34.242  24.768  24.624  1.00  0.00     0.348 HD
BRANCH  13  15
ATOM     15  C   UNL A   1      33.451  25.221  22.788  1.00  0.00     0.259 C 
ATOM     16  C   UNL A   1      32.037  25.778  22.648  1.00  0.00     0.071 C 
ENDBRANCH  13  15
BRANCH  13  17
ATOM     17  C   UNL A   1      34.349  23.070  23.497  1.00  0.00     0.299 C 
BRANCH  17  18
ATOM     18  C   UNL A   1      35.634  22.733  24.237  1.00  0.00     0.007 A 
ATOM     19  C   UNL A   1      36.392  23.753  24.832  1.00  0.00     0.011 A 
ATOM     20  C   UNL A   1      36.106  21.414  24.306  1.00  0.00     0.014 A 
ATOM     21  C   UNL A   1      37.578  23.459  25.502  1.00  0.00     0.016 A 
ATOM     22  C   UNL A   1      37.322  21.105  24.945  1.00  0.00    -0.036 A 
ATOM     23  C   UNL A   1      38.043  22.144  25.556  1.00  0.00     0.020 A 
ATOM     24  C   UNL A   1      37.817  19.687  24.941  1.00  0.00     0.045 C 
ATOM     25  Br  UNL A   1      39.675  21.833  26.479  1.00  0.00    -0.051 Br
ENDBRANCH  17  18
ENDBRANCH  13  17
ENDBRANCH   9  13
ENDBRANCH   5   8
ENDBRANCH   3   4
ENDBRANCH   2   3
ENDBRANCH   1   2
BRANCH   1  26
ATOM     26  C   UNL A   1      31.487  30.504  26.080  1.00  0.00     0.002 C 
BRANCH  26  27
ATOM     27  C   UNL A   1      31.340  31.969  26.495  1.00  0.00     0.021 C 
BRANCH  27  28
ATOM     28  C   UNL A   1      32.549  32.560  27.214  1.00  0.00     0.116 C 
BRANCH  28  29
ATOM     29  N   UNL A   1      32.353  33.953  27.585  1.00  0.00    -0.352 N 
ATOM     30  C   UNL A   1      33.039  34.719  28.494  1.00  0.00     0.251 C 
ATOM     31  H   UNL A   1      31.621  34.413  27.116  1.00  0.00     0.163 HD
ATOM     32  O   UNL A   1      32.623  35.836  28.797  1.00  0.00    -0.269 OA
BRANCH  30  33
ATOM     33  C   UNL A   1      34.265  34.196  29.132  1.00  0.00     0.039 A 
ATOM     34  C   UNL A   1      34.149  33.470  30.321  1.00  0.00     0.014 A 
ATOM     35  C   UNL A   1      35.524  34.419  28.567  1.00  0.00     0.014 A 
ATOM     36  C   UNL A   1      35.287  32.910  30.905  1.00  0.00     0.010 A 
ATOM     37  C   UNL A   1      36.648  33.801  29.112  1.00  0.00     0.010 A 
ATOM     38  C   UNL A   1      36.541  33.037  30.284  1.00  0.00    -0.014 A 
BRANCH  38  39
ATOM     39  C   UNL A   1      37.742  32.358  30.834  1.00  0.00     0.031 A 
ATOM     40  C   UNL A   1      38.436  32.902  32.053  1.00  0.00     0.074 A 
ATOM     41  C   UNL A   1      38.247  31.283  30.197  1.00  0.00     0.049 A 
ATOM     42  N   UNL A   1      39.525  32.474  32.642  1.00  0.00    -0.248 NA
ATOM     43  C   UNL A   1      37.844  34.095  32.679  1.00  0.00     0.031 C 
ATOM     44  C   UNL A   1      37.694  30.679  28.983  1.00  0.00     0.029 A 
ATOM     45  N   UNL A   1      39.347  30.512  30.478  1.00  0.00    -0.354 N 
ATOM     46  C   UNL A   1      39.755  33.351  33.695  1.00  0.00     0.074 A 
ATOM     47  C   UNL A   1      38.720  34.361  33.637  1.00  0.00     0.031 C 
ATOM     48  C   UNL A   1      38.440  29.617  28.640  1.00  0.00     0.029 A 
ATOM     49  C   UNL A   1      39.548  29.490  29.581  1.00  0.00     0.049 A 
ATOM     50  H   UNL A   1      39.936  30.675  31.250  1.00  0.00     0.167 HD
ATOM     51  C   UNL A   1      40.727  33.309  34.636  1.00  0.00     0.031 A 
ATOM     52  C   UNL A   1      40.519  28.559  29.516  1.00  0.00     0.031 A 
ATOM     53  C   UNL A   1      41.752  32.301  34.700  1.00  0.00     0.049 A 
ATOM     54  C   UNL A   1      41.599  28.549  30.562  1.00  0.00     0.074 A 
ATOM     55  C   UNL A   1      42.747  32.143  35.650  1.00  0.00     0.029 A 
ATOM     56  N   UNL A   1      41.918  31.283  33.774  1.00  0.00    -0.354 N 
ATOM     57  N   UNL A   1      41.759  29.343  31.593  1.00  0.00    -0.248 NA
ATOM     58  C   UNL A   1      42.627  27.506  30.439  1.00  0.00     0.031 C 
ATOM     59  C   UNL A   1      43.549  31.063  35.268  1.00  0.00     0.029 A 
ATOM     60  C   UNL A   1      43.016  30.511  34.114  1.00  0.00     0.049 A 
ATOM     61  H   UNL A   1      41.341  31.131  32.991  1.00  0.00     0.167 HD
ATOM     62  C   UNL A   1      42.887  28.879  32.256  1.00  0.00     0.074 A 
ATOM     63  C   UNL A   1      43.361  27.724  31.522  1.00  0.00     0.031 C 
ATOM     64  C   UNL A   1      43.478  29.365  33.375  1.00  0.00     0.031 A 
BRANCH  51  65
ATOM     65  C   UNL A   1      40.735  34.395  35.676  1.00  0.00    -0.014 A 
ATOM     66  C   UNL A   1      40.024  34.257  36.879  1.00  0.00     0.009 A 
ATOM     67  C   UNL A   1      41.505  35.551  35.472  1.00  0.00     0.009 A 
ATOM     68  C   UNL A   1      40.057  35.270  37.840  1.00  0.00     0.001 A 
ATOM     69  C   UNL A   1      41.559  36.549  36.447  1.00  0.00     0.001 A 
ATOM     70  C   UNL A   1      40.828  36.412  37.627  1.00  0.00     0.000 A 
ENDBRANCH  51  65
BRANCH  52  71
ATOM     71  C   UNL A   1      40.516  27.552  28.423  1.00  0.00    -0.014 A 
ATOM     72  C   UNL A   1      41.147  27.826  27.199  1.00  0.00     0.009 A 
ATOM     73  C   UNL A   1      39.870  26.318  28.591  1.00  0.00     0.009 A 
ATOM     74  C   UNL A   1      41.102  26.897  26.157  1.00  0.00     0.001 A 
ATOM     75  C   UNL A   1      39.855  25.378  27.558  1.00  0.00     0.001 A 
ATOM     76  C   UNL A   1      40.461  25.673  26.338  1.00  0.00     0.000 A 
ENDBRANCH  52  71
BRANCH  64  77
ATOM     77  C   UNL A   1      44.682  28.629  33.893  1.00  0.00    -0.014 A 
ATOM     78  C   UNL A   1      44.556  27.580  34.817  1.00  0.00     0.009 A 
ATOM     79  C   UNL A   1      45.959  28.970  33.421  1.00  0.00     0.009 A 
ATOM     80  C   UNL A   1      45.689  26.911  35.283  1.00  0.00     0.001 A 
ATOM     81  C   UNL A   1      47.087  28.279  33.865  1.00  0.00     0.001 A 
ATOM     82  C   UNL A   1      46.952  27.256  34.804  1.00  0.00     0.000 A 
ENDBRANCH  64  77
ENDBRANCH  38  39
ENDBRANCH  30  33
ENDBRANCH  28  29
ENDBRANCH  27  28
ENDBRANCH  26  27
ENDBRANCH   1  26
TORSDOF 17
ENDMDL
MODEL 3
REMARK VINA RESULT:     -10.4      2.394      6.622
REMARK SMILES CC[N@H+](Cc1ccc(Br)c(C)c1)[C@H]1COC[C@@H]1C(=O)NCCCCCCNC(=O)c1ccc(-c2c3nc(c(-c4ccccc4)c4ccc([nH]4)c(-c4ccccc4)c4nc(c(-c5ccccc5)c5ccc2[nH]5)C=C4)C=C3)cc1
REMARK SMILES IDX 23 1 22 2 21 3 20 4 18 5 19 6 17 8 13 9 14 10 15 11 16 12
REMARK SMILES IDX 3 13 2 15 1 16 4 17 5 18 6 19 12 20 7 21 10 22 8 23 11 24
REMARK SMILES IDX 9 25 24 26 25 27 26 28 27 29 28 30 29 32 30 33 31 34 77 35
REMARK SMILES IDX 32 36 76 37 33 38 34 39 35 40 70 41 36 42 75 43 69 44 71 45
REMARK SMILES IDX 37 46 74 47 68 48 67 49 38 51 60 52 45 53 59 54 46 55 49 56
REMARK SMILES IDX 58 57 72 58 47 59 48 60 57 62 73 63 50 64 39 65 40 66 44 67
REMARK SMILES IDX 41 68 43 69 42 70 61 71 62 72 66 73 63 74 65 75 64 76 51 77
REMARK SMILES IDX 52 78 56 79 53 80 55 81 54 82
REMARK H PARENT 20 7 3 14 27 31 71 50 49 61
REMARK Flexibility Score: inf
ROOT
ATOM      1  C   UNL A   1      30.973  30.294  24.804  1.00  0.00     0.002 C 
ENDROOT
BRANCH   1   2
ATOM      2  C   UNL A   1      31.154  28.862  24.287  1.00  0.00     0.021 C 
BRANCH   2   3
ATOM      3  C   UNL A   1      31.811  27.893  25.273  1.00  0.00     0.116 C 
BRANCH   3   4
ATOM      4  N   UNL A   1      30.825  27.013  25.866  1.00  0.00    -0.356 N 
ATOM      5  C   UNL A   1      30.880  25.677  26.121  1.00  0.00     0.231 C 
ATOM      6  O   UNL A   1      29.861  25.153  26.571  1.00  0.00    -0.274 OA
ATOM      7  H   UNL A   1      29.982  27.451  26.128  1.00  0.00     0.163 HD
BRANCH   5   8
ATOM      8  C   UNL A   1      32.168  24.901  25.851  1.00  0.00     0.164 C 
ATOM      9  C   UNL A   1      32.152  24.275  24.452  1.00  0.00     0.225 C 
ATOM     10  C   UNL A   1      31.469  22.933  24.752  1.00  0.00     0.226 C 
ATOM     11  O   UNL A   1      31.937  22.517  26.041  1.00  0.00    -0.374 OA
ATOM     12  C   UNL A   1      32.264  23.702  26.791  1.00  0.00     0.180 C 
BRANCH   9  13
ATOM     13  N   UNL A   1      33.516  24.226  23.815  1.00  0.00    -0.326 N 
ATOM     14  H   UNL A   1      34.125  24.786  24.413  1.00  0.00     0.348 HD
BRANCH  13  15
ATOM     15  C   UNL A   1      33.504  24.823  22.459  1.00  0.00     0.259 C 
ATOM     16  C   UNL A   1      33.560  26.348  22.430  1.00  0.00     0.071 C 
ENDBRANCH  13  15
BRANCH  13  17
ATOM     17  C   UNL A   1      34.080  22.849  23.767  1.00  0.00     0.299 C 
BRANCH  17  18
ATOM     18  C   UNL A   1      35.427  22.656  24.446  1.00  0.00     0.007 A 
ATOM     19  C   UNL A   1      36.086  23.750  25.028  1.00  0.00     0.011 A 
ATOM     20  C   UNL A   1      36.052  21.401  24.471  1.00  0.00     0.014 A 
ATOM     21  C   UNL A   1      37.327  23.588  25.642  1.00  0.00     0.016 A 
ATOM     22  C   UNL A   1      37.323  21.229  25.053  1.00  0.00    -0.036 A 
ATOM     23  C   UNL A   1      37.943  22.336  25.652  1.00  0.00     0.020 A 
ATOM     24  C   UNL A   1      37.979  19.878  25.002  1.00  0.00     0.045 C 
ATOM     25  Br  UNL A   1      39.639  22.206  26.500  1.00  0.00    -0.051 Br
ENDBRANCH  17  18
ENDBRANCH  13  17
ENDBRANCH   9  13
ENDBRANCH   5   8
ENDBRANCH   3   4
ENDBRANCH   2   3
ENDBRANCH   1   2
BRANCH   1  26
ATOM     26  C   UNL A   1      31.660  30.606  26.135  1.00  0.00     0.002 C 
BRANCH  26  27
ATOM     27  C   UNL A   1      31.406  32.010  26.686  1.00  0.00     0.021 C 
BRANCH  27  28
ATOM     28  C   UNL A   1      32.632  32.705  27.270  1.00  0.00     0.116 C 
BRANCH  28  29
ATOM     29  N   UNL A   1      32.384  34.103  27.586  1.00  0.00    -0.352 N 
ATOM     30  C   UNL A   1      32.988  34.907  28.520  1.00  0.00     0.251 C 
ATOM     31  H   UNL A   1      31.679  34.536  27.053  1.00  0.00     0.163 HD
ATOM     32  O   UNL A   1      32.531  36.023  28.760  1.00  0.00    -0.269 OA
BRANCH  30  33
ATOM     33  C   UNL A   1      34.173  34.427  29.260  1.00  0.00     0.039 A 
ATOM     34  C   UNL A   1      33.991  33.830  30.510  1.00  0.00     0.014 A 
ATOM     35  C   UNL A   1      35.460  34.564  28.730  1.00  0.00     0.014 A 
ATOM     36  C   UNL A   1      35.090  33.308  31.196  1.00  0.00     0.010 A 
ATOM     37  C   UNL A   1      36.545  33.982  29.382  1.00  0.00     0.010 A 
ATOM     38  C   UNL A   1      36.370  33.345  30.620  1.00  0.00    -0.014 A 
BRANCH  38  39
ATOM     39  C   UNL A   1      37.531  32.701  31.287  1.00  0.00     0.031 A 
ATOM     40  C   UNL A   1      38.201  31.505  30.668  1.00  0.00     0.074 A 
ATOM     41  C   UNL A   1      37.944  33.156  32.487  1.00  0.00     0.049 A 
ATOM     42  N   UNL A   1      39.191  30.782  31.131  1.00  0.00    -0.248 NA
ATOM     43  C   UNL A   1      37.678  31.047  29.372  1.00  0.00     0.031 C 
ATOM     44  C   UNL A   1      37.355  34.282  33.215  1.00  0.00     0.029 A 
ATOM     45  N   UNL A   1      38.952  32.721  33.311  1.00  0.00    -0.354 N 
ATOM     46  C   UNL A   1      39.398  29.780  30.193  1.00  0.00     0.074 A 
ATOM     47  C   UNL A   1      38.403  29.958  29.157  1.00  0.00     0.031 C 
ATOM     48  C   UNL A   1      38.029  34.465  34.362  1.00  0.00     0.029 A 
ATOM     49  C   UNL A   1      39.067  33.445  34.473  1.00  0.00     0.049 A 
ATOM     50  H   UNL A   1      39.538  31.961  33.089  1.00  0.00     0.167 HD
ATOM     51  C   UNL A   1      40.342  28.809  30.183  1.00  0.00     0.031 A 
ATOM     52  C   UNL A   1      39.906  33.302  35.516  1.00  0.00     0.031 A 
ATOM     53  C   UNL A   1      41.337  28.635  31.207  1.00  0.00     0.049 A 
ATOM     54  C   UNL A   1      40.931  32.202  35.489  1.00  0.00     0.074 A 
ATOM     55  C   UNL A   1      42.371  27.715  31.256  1.00  0.00     0.029 A 
ATOM     56  N   UNL A   1      41.420  29.391  32.366  1.00  0.00    -0.354 N 
ATOM     57  N   UNL A   1      41.159  31.308  34.558  1.00  0.00    -0.248 NA
ATOM     58  C   UNL A   1      41.821  32.100  36.654  1.00  0.00     0.031 C 
ATOM     59  C   UNL A   1      43.045  27.879  32.471  1.00  0.00     0.029 A 
ATOM     60  C   UNL A   1      42.469  28.941  33.149  1.00  0.00     0.049 A 
ATOM     61  H   UNL A   1      40.822  30.138  32.597  1.00  0.00     0.167 HD
ATOM     62  C   UNL A   1      42.235  30.556  35.012  1.00  0.00     0.074 A 
ATOM     63  C   UNL A   1      42.625  31.110  36.292  1.00  0.00     0.031 C 
ATOM     64  C   UNL A   1      42.846  29.501  34.421  1.00  0.00     0.031 A 
BRANCH  51  65
ATOM     65  C   UNL A   1      40.340  27.849  29.026  1.00  0.00    -0.014 A 
ATOM     66  C   UNL A   1      41.080  28.110  27.861  1.00  0.00     0.009 A 
ATOM     67  C   UNL A   1      39.629  26.642  29.120  1.00  0.00     0.009 A 
ATOM     68  C   UNL A   1      41.079  27.198  26.803  1.00  0.00     0.001 A 
ATOM     69  C   UNL A   1      39.654  25.720  28.073  1.00  0.00     0.001 A 
ATOM     70  C   UNL A   1      40.372  26.002  26.912  1.00  0.00     0.000 A 
ENDBRANCH  51  65
BRANCH  52  71
ATOM     71  C   UNL A   1      39.820  34.226  36.677  1.00  0.00    -0.014 A 
ATOM     72  C   UNL A   1      39.021  33.906  37.786  1.00  0.00     0.009 A 
ATOM     73  C   UNL A   1      40.523  35.440  36.677  1.00  0.00     0.009 A 
ATOM     74  C   UNL A   1      38.903  34.797  38.855  1.00  0.00     0.001 A 
ATOM     75  C   UNL A   1      40.429  36.315  37.762  1.00  0.00     0.001 A 
ATOM     76  C   UNL A   1      39.610  35.998  38.844  1.00  0.00     0.000 A 
ENDBRANCH  52  71
BRANCH  64  77
ATOM     77  C   UNL A   1      44.023  28.898  35.136  1.00  0.00    -0.014 A 
ATOM     78  C   UNL A   1      45.300  29.476  35.060  1.00  0.00     0.009 A 
ATOM     79  C   UNL A   1      43.842  27.752  35.926  1.00  0.00     0.009 A 
ATOM     80  C   UNL A   1      46.377  28.899  35.734  1.00  0.00     0.001 A 
ATOM     81  C   UNL A   1      44.914  27.194  36.623  1.00  0.00     0.001 A 
ATOM     82  C   UNL A   1      46.184  27.763  36.519  1.00  0.00     0.000 A 
ENDBRANCH  64  77
ENDBRANCH  38  39
ENDBRANCH  30  33
ENDBRANCH  28  29
ENDBRANCH  27  28
ENDBRANCH  26  27
ENDBRANCH   1  26
TORSDOF 17
ENDMDL
