MODEL 1
REMARK VINA RESULT:      -9.5      0.000      0.000
REMARK SMILES C[C@@H]([NH2+]CC(C)(C)C(=O)NCCCCCCNC(=O)c1ccc(-c2c3nc(c(-c4ccccc4)c4ccc([nH]4)c(-c4ccccc4)c4nc(c(-c5ccccc5)c5ccc2[nH]5)C=C4)C=C3)cc1)C1CC1
REMARK SMILES IDX 12 1 11 2 10 3 8 4 9 5 5 7 6 8 7 9 4 10 3 11 2 14 1 15 68 16
REMARK SMILES IDX 69 17 70 18 13 19 14 20 15 21 16 22 17 23 18 24 19 26 20 27
REMARK SMILES IDX 21 28 67 29 22 30 66 31 23 32 24 33 25 34 60 35 26 36 65 37
REMARK SMILES IDX 59 38 61 39 27 40 64 41 58 42 57 43 28 45 50 46 35 47 49 48
REMARK SMILES IDX 36 49 39 50 48 51 62 52 37 53 38 54 47 56 63 57 40 58 29 59
REMARK SMILES IDX 30 60 34 61 31 62 33 63 32 64 51 65 52 66 56 67 53 68 55 69
REMARK SMILES IDX 54 70 41 71 42 72 46 73 43 74 45 75 44 76
REMARK H PARENT 10 6 3 12 3 13 17 25 61 44 39 55
REMARK Flexibility Score: inf
ROOT
ATOM      1  C   UNL A   1      33.708  20.767  25.751  1.00  0.00     0.021 C 
ENDROOT
BRANCH   1   2
ATOM      2  C   UNL A   1      32.383  21.069  25.041  1.00  0.00     0.116 C 
BRANCH   2   3
ATOM      3  N   UNL A   1      31.516  21.835  25.906  1.00  0.00    -0.355 N 
ATOM      4  C   UNL A   1      31.814  23.021  26.504  1.00  0.00     0.231 C 
ATOM      5  O   UNL A   1      31.651  23.040  27.723  1.00  0.00    -0.274 OA
ATOM      6  H   UNL A   1      30.621  21.462  26.081  1.00  0.00     0.163 HD
BRANCH   4   7
ATOM      7  C   UNL A   1      32.362  24.208  25.693  1.00  0.00     0.092 C 
ATOM      8  C   UNL A   1      33.896  24.150  25.577  1.00  0.00     0.027 C 
ATOM      9  C   UNL A   1      31.914  25.516  26.382  1.00  0.00     0.027 C 
BRANCH   7  10
ATOM     10  C   UNL A   1      31.747  24.270  24.253  1.00  0.00     0.277 C 
BRANCH  10  11
ATOM     11  N   UNL A   1      31.473  25.541  23.576  1.00  0.00    -0.343 N 
ATOM     12  H   UNL A   1      30.503  25.516  23.264  1.00  0.00     0.346 HD
ATOM     13  H   UNL A   1      31.696  26.254  24.271  1.00  0.00     0.346 HD
BRANCH  11  14
ATOM     14  C   UNL A   1      32.298  25.890  22.414  1.00  0.00     0.182 C 
ATOM     15  C   UNL A   1      32.904  24.564  21.902  1.00  0.00     0.075 C 
BRANCH  14  16
ATOM     16  C   UNL A   1      33.439  26.865  22.624  1.00  0.00     0.047 C 
ATOM     17  C   UNL A   1      33.279  28.369  22.690  1.00  0.00     0.010 C 
ATOM     18  C   UNL A   1      33.708  27.610  23.913  1.00  0.00     0.010 C 
ENDBRANCH  14  16
ENDBRANCH  11  14
ENDBRANCH  10  11
ENDBRANCH   7  10
ENDBRANCH   4   7
ENDBRANCH   2   3
ENDBRANCH   1   2
BRANCH   1  19
ATOM     19  C   UNL A   1      34.830  20.282  24.819  1.00  0.00     0.002 C 
BRANCH  19  20
ATOM     20  C   UNL A   1      36.198  20.931  25.055  1.00  0.00     0.002 C 
BRANCH  20  21
ATOM     21  C   UNL A   1      37.388  19.979  24.943  1.00  0.00     0.021 C 
BRANCH  21  22
ATOM     22  C   UNL A   1      38.659  20.489  25.601  1.00  0.00     0.116 C 
BRANCH  22  23
ATOM     23  N   UNL A   1      39.672  19.454  25.698  1.00  0.00    -0.352 N 
ATOM     24  C   UNL A   1      40.994  19.584  26.042  1.00  0.00     0.251 C 
ATOM     25  H   UNL A   1      39.372  18.539  25.490  1.00  0.00     0.163 HD
ATOM     26  O   UNL A   1      41.779  18.655  25.883  1.00  0.00    -0.269 OA
BRANCH  24  27
ATOM     27  C   UNL A   1      41.469  20.873  26.583  1.00  0.00     0.039 A 
ATOM     28  C   UNL A   1      42.038  21.805  25.713  1.00  0.00     0.014 A 
ATOM     29  C   UNL A   1      41.317  21.172  27.940  1.00  0.00     0.014 A 
ATOM     30  C   UNL A   1      42.402  23.064  26.194  1.00  0.00     0.010 A 
ATOM     31  C   UNL A   1      41.606  22.451  28.401  1.00  0.00     0.010 A 
ATOM     32  C   UNL A   1      42.154  23.408  27.534  1.00  0.00    -0.014 A 
BRANCH  32  33
ATOM     33  C   UNL A   1      42.461  24.766  28.048  1.00  0.00     0.031 A 
ATOM     34  C   UNL A   1      43.858  25.108  28.487  1.00  0.00     0.074 A 
ATOM     35  C   UNL A   1      41.469  25.668  28.181  1.00  0.00     0.049 A 
ATOM     36  N   UNL A   1      44.307  26.216  29.020  1.00  0.00    -0.248 NA
ATOM     37  C   UNL A   1      44.880  24.060  28.327  1.00  0.00     0.031 C 
ATOM     38  C   UNL A   1      40.066  25.448  27.826  1.00  0.00     0.029 A 
ATOM     39  N   UNL A   1      41.492  26.955  28.659  1.00  0.00    -0.354 N 
ATOM     40  C   UNL A   1      45.655  25.992  29.271  1.00  0.00     0.074 A 
ATOM     41  C   UNL A   1      45.939  24.629  28.883  1.00  0.00     0.031 C 
ATOM     42  C   UNL A   1      39.369  26.569  28.071  1.00  0.00     0.029 A 
ATOM     43  C   UNL A   1      40.263  27.570  28.643  1.00  0.00     0.049 A 
ATOM     44  H   UNL A   1      42.311  27.396  28.982  1.00  0.00     0.167 HD
ATOM     45  C   UNL A   1      46.578  26.851  29.763  1.00  0.00     0.031 A 
ATOM     46  C   UNL A   1      39.895  28.799  29.052  1.00  0.00     0.031 A 
ATOM     47  C   UNL A   1      46.296  28.210  30.144  1.00  0.00     0.049 A 
ATOM     48  C   UNL A   1      40.934  29.722  29.626  1.00  0.00     0.074 A 
ATOM     49  C   UNL A   1      47.175  29.175  30.600  1.00  0.00     0.029 A 
ATOM     50  N   UNL A   1      45.039  28.792  30.116  1.00  0.00    -0.354 N 
ATOM     51  N   UNL A   1      42.219  29.520  29.791  1.00  0.00    -0.248 NA
ATOM     52  C   UNL A   1      40.472  31.048  30.062  1.00  0.00     0.031 C 
ATOM     53  C   UNL A   1      46.439  30.325  30.906  1.00  0.00     0.029 A 
ATOM     54  C   UNL A   1      45.113  30.094  30.580  1.00  0.00     0.049 A 
ATOM     55  H   UNL A   1      44.215  28.344  29.813  1.00  0.00     0.167 HD
ATOM     56  C   UNL A   1      42.722  30.698  30.325  1.00  0.00     0.074 A 
ATOM     57  C   UNL A   1      41.608  31.617  30.439  1.00  0.00     0.031 C 
ATOM     58  C   UNL A   1      43.994  30.994  30.689  1.00  0.00     0.031 A 
BRANCH  45  59
ATOM     59  C   UNL A   1      47.983  26.341  29.927  1.00  0.00    -0.014 A 
ATOM     60  C   UNL A   1      48.416  25.773  31.136  1.00  0.00     0.009 A 
ATOM     61  C   UNL A   1      48.876  26.393  28.845  1.00  0.00     0.009 A 
ATOM     62  C   UNL A   1      49.725  25.303  31.269  1.00  0.00     0.001 A 
ATOM     63  C   UNL A   1      50.174  25.894  28.971  1.00  0.00     0.001 A 
ATOM     64  C   UNL A   1      50.600  25.359  30.186  1.00  0.00     0.000 A 
ENDBRANCH  45  59
BRANCH  46  65
ATOM     65  C   UNL A   1      38.478  29.232  28.933  1.00  0.00    -0.014 A 
ATOM     66  C   UNL A   1      37.983  29.728  27.717  1.00  0.00     0.009 A 
ATOM     67  C   UNL A   1      37.614  29.164  30.038  1.00  0.00     0.009 A 
ATOM     68  C   UNL A   1      36.662  30.171  27.618  1.00  0.00     0.001 A 
ATOM     69  C   UNL A   1      36.286  29.579  29.927  1.00  0.00     0.001 A 
ATOM     70  C   UNL A   1      35.814  30.092  28.720  1.00  0.00     0.000 A 
ENDBRANCH  46  65
BRANCH  58  71
ATOM     71  C   UNL A   1      44.256  32.378  31.215  1.00  0.00    -0.014 A 
ATOM     72  C   UNL A   1      44.561  33.441  30.350  1.00  0.00     0.009 A 
ATOM     73  C   UNL A   1      44.145  32.630  32.591  1.00  0.00     0.009 A 
ATOM     74  C   UNL A   1      44.780  34.723  30.860  1.00  0.00     0.001 A 
ATOM     75  C   UNL A   1      44.333  33.918  33.094  1.00  0.00     0.001 A 
ATOM     76  C   UNL A   1      44.659  34.961  32.229  1.00  0.00     0.000 A 
ENDBRANCH  58  71
ENDBRANCH  32  33
ENDBRANCH  24  27
ENDBRANCH  22  23
ENDBRANCH  21  22
ENDBRANCH  20  21
ENDBRANCH  19  20
ENDBRANCH   1  19
TORSDOF 17
ENDMDL
MODEL 2
REMARK VINA RESULT:      -9.4      1.923      3.257
REMARK SMILES C[C@@H]([NH2+]CC(C)(C)C(=O)NCCCCCCNC(=O)c1ccc(-c2c3nc(c(-c4ccccc4)c4ccc([nH]4)c(-c4ccccc4)c4nc(c(-c5ccccc5)c5ccc2[nH]5)C=C4)C=C3)cc1)C1CC1
REMARK SMILES IDX 12 1 11 2 10 3 8 4 9 5 5 7 6 8 7 9 4 10 3 11 2 14 1 15 68 16
REMARK SMILES IDX 69 17 70 18 13 19 14 20 15 21 16 22 17 23 18 24 19 26 20 27
REMARK SMILES IDX 21 28 67 29 22 30 66 31 23 32 24 33 25 34 60 35 26 36 65 37
REMARK SMILES IDX 59 38 61 39 27 40 64 41 58 42 57 43 28 45 50 46 35 47 49 48
REMARK SMILES IDX 36 49 39 50 48 51 62 52 37 53 38 54 47 56 63 57 40 58 29 59
REMARK SMILES IDX 30 60 34 61 31 62 33 63 32 64 51 65 52 66 56 67 53 68 55 69
REMARK SMILES IDX 54 70 41 71 42 72 46 73 43 74 45 75 44 76
REMARK H PARENT 10 6 3 12 3 13 17 25 61 44 39 55
REMARK Flexibility Score: inf
ROOT
ATOM      1  C   UNL A   1      36.939  23.348  24.589  1.00  0.00     0.021 C 
ENDROOT
BRANCH   1   2
ATOM      2  C   UNL A   1      35.773  24.024  25.320  1.00  0.00     0.116 C 
BRANCH   2   3
ATOM      3  N   UNL A   1      34.568  23.936  24.528  1.00  0.00    -0.355 N 
ATOM      4  C   UNL A   1      33.714  22.878  24.471  1.00  0.00     0.231 C 
ATOM      5  O   UNL A   1      33.485  22.459  23.337  1.00  0.00    -0.274 OA
ATOM      6  H   UNL A   1      34.343  24.719  23.974  1.00  0.00     0.163 HD
BRANCH   4   7
ATOM      7  C   UNL A   1      33.140  22.245  25.751  1.00  0.00     0.092 C 
ATOM      8  C   UNL A   1      31.612  22.082  25.660  1.00  0.00     0.027 C 
ATOM      9  C   UNL A   1      33.525  23.140  26.951  1.00  0.00     0.027 C 
BRANCH   7  10
ATOM     10  C   UNL A   1      33.782  20.849  26.056  1.00  0.00     0.277 C 
BRANCH  10  11
ATOM     11  N   UNL A   1      33.103  19.591  25.733  1.00  0.00    -0.343 N 
ATOM     12  H   UNL A   1      33.330  18.926  26.471  1.00  0.00     0.346 HD
ATOM     13  H   UNL A   1      32.117  19.845  25.655  1.00  0.00     0.346 HD
BRANCH  11  14
ATOM     14  C   UNL A   1      33.419  18.950  24.452  1.00  0.00     0.182 C 
ATOM     15  C   UNL A   1      32.257  19.301  23.496  1.00  0.00     0.075 C 
BRANCH  14  16
ATOM     16  C   UNL A   1      33.586  17.443  24.439  1.00  0.00     0.047 C 
ATOM     17  C   UNL A   1      34.360  16.677  23.387  1.00  0.00     0.010 C 
ATOM     18  C   UNL A   1      34.861  16.716  24.802  1.00  0.00     0.010 C 
ENDBRANCH  14  16
ENDBRANCH  11  14
ENDBRANCH  10  11
ENDBRANCH   7  10
ENDBRANCH   4   7
ENDBRANCH   2   3
ENDBRANCH   1   2
BRANCH   1  19
ATOM     19  C   UNL A   1      37.508  22.115  25.307  1.00  0.00     0.002 C 
BRANCH  19  20
ATOM     20  C   UNL A   1      37.150  20.767  24.671  1.00  0.00     0.002 C 
BRANCH  20  21
ATOM     21  C   UNL A   1      38.132  19.636  24.968  1.00  0.00     0.021 C 
BRANCH  21  22
ATOM     22  C   UNL A   1      39.241  20.010  25.938  1.00  0.00     0.116 C 
BRANCH  22  23
ATOM     23  N   UNL A   1      40.292  19.009  25.972  1.00  0.00    -0.352 N 
ATOM     24  C   UNL A   1      41.643  19.197  26.112  1.00  0.00     0.251 C 
ATOM     25  H   UNL A   1      39.995  18.073  25.884  1.00  0.00     0.163 HD
ATOM     26  O   UNL A   1      42.429  18.274  25.918  1.00  0.00    -0.269 OA
BRANCH  24  27
ATOM     27  C   UNL A   1      42.146  20.537  26.473  1.00  0.00     0.039 A 
ATOM     28  C   UNL A   1      42.479  21.433  25.456  1.00  0.00     0.014 A 
ATOM     29  C   UNL A   1      42.253  20.917  27.814  1.00  0.00     0.014 A 
ATOM     30  C   UNL A   1      42.863  22.734  25.783  1.00  0.00     0.010 A 
ATOM     31  C   UNL A   1      42.557  22.235  28.136  1.00  0.00     0.010 A 
ATOM     32  C   UNL A   1      42.869  23.155  27.124  1.00  0.00    -0.014 A 
BRANCH  32  33
ATOM     33  C   UNL A   1      43.199  24.555  27.489  1.00  0.00     0.031 A 
ATOM     34  C   UNL A   1      44.633  25.003  27.539  1.00  0.00     0.074 A 
ATOM     35  C   UNL A   1      42.212  25.403  27.839  1.00  0.00     0.049 A 
ATOM     36  N   UNL A   1      45.123  26.164  27.895  1.00  0.00    -0.248 NA
ATOM     37  C   UNL A   1      45.653  24.011  27.161  1.00  0.00     0.031 C 
ATOM     38  C   UNL A   1      40.784  25.080  27.866  1.00  0.00     0.029 A 
ATOM     39  N   UNL A   1      42.263  26.713  28.245  1.00  0.00    -0.354 N 
ATOM     40  C   UNL A   1      46.502  26.035  27.799  1.00  0.00     0.074 A 
ATOM     41  C   UNL A   1      46.775  24.672  27.403  1.00  0.00     0.031 C 
ATOM     42  C   UNL A   1      40.093  26.169  28.239  1.00  0.00     0.029 A 
ATOM     43  C   UNL A   1      41.029  27.252  28.523  1.00  0.00     0.049 A 
ATOM     44  H   UNL A   1      43.103  27.219  28.329  1.00  0.00     0.167 HD
ATOM     45  C   UNL A   1      47.457  26.973  28.002  1.00  0.00     0.031 A 
ATOM     46  C   UNL A   1      40.691  28.477  28.966  1.00  0.00     0.031 A 
ATOM     47  C   UNL A   1      47.184  28.332  28.391  1.00  0.00     0.049 A 
ATOM     48  C   UNL A   1      41.773  29.491  29.217  1.00  0.00     0.074 A 
ATOM     49  C   UNL A   1      48.079  29.372  28.568  1.00  0.00     0.029 A 
ATOM     50  N   UNL A   1      45.923  28.835  28.667  1.00  0.00    -0.354 N 
ATOM     51  N   UNL A   1      43.068  29.375  29.053  1.00  0.00    -0.248 NA
ATOM     52  C   UNL A   1      41.343  30.809  29.706  1.00  0.00     0.031 C 
ATOM     53  C   UNL A   1      47.364  30.491  29.010  1.00  0.00     0.029 A 
ATOM     54  C   UNL A   1      46.019  30.163  29.045  1.00  0.00     0.049 A 
ATOM     55  H   UNL A   1      45.083  28.324  28.603  1.00  0.00     0.167 HD
ATOM     56  C   UNL A   1      43.605  30.609  29.393  1.00  0.00     0.074 A 
ATOM     57  C   UNL A   1      42.494  31.465  29.755  1.00  0.00     0.031 C 
ATOM     58  C   UNL A   1      44.903  31.000  29.405  1.00  0.00     0.031 A 
BRANCH  45  59
ATOM     59  C   UNL A   1      48.889  26.557  27.818  1.00  0.00    -0.014 A 
ATOM     60  C   UNL A   1      49.647  26.057  28.889  1.00  0.00     0.009 A 
ATOM     61  C   UNL A   1      49.480  26.632  26.547  1.00  0.00     0.009 A 
ATOM     62  C   UNL A   1      50.977  25.674  28.698  1.00  0.00     0.001 A 
ATOM     63  C   UNL A   1      50.800  26.219  26.352  1.00  0.00     0.001 A 
ATOM     64  C   UNL A   1      51.550  25.750  27.430  1.00  0.00     0.000 A 
ENDBRANCH  45  59
BRANCH  46  65
ATOM     65  C   UNL A   1      39.263  28.818  29.200  1.00  0.00    -0.014 A 
ATOM     66  C   UNL A   1      38.484  29.372  28.173  1.00  0.00     0.009 A 
ATOM     67  C   UNL A   1      38.673  28.603  30.455  1.00  0.00     0.009 A 
ATOM     68  C   UNL A   1      37.153  29.727  28.405  1.00  0.00     0.001 A 
ATOM     69  C   UNL A   1      37.334  28.931  30.677  1.00  0.00     0.001 A 
ATOM     70  C   UNL A   1      36.578  29.503  29.655  1.00  0.00     0.000 A 
ENDBRANCH  46  65
BRANCH  58  71
ATOM     71  C   UNL A   1      45.190  32.424  29.792  1.00  0.00    -0.014 A 
ATOM     72  C   UNL A   1      45.189  33.454  28.838  1.00  0.00     0.009 A 
ATOM     73  C   UNL A   1      45.415  32.745  31.140  1.00  0.00     0.009 A 
ATOM     74  C   UNL A   1      45.437  34.772  29.224  1.00  0.00     0.001 A 
ATOM     75  C   UNL A   1      45.632  34.068  31.527  1.00  0.00     0.001 A 
ATOM     76  C   UNL A   1      45.652  35.079  30.568  1.00  0.00     0.000 A 
ENDBRANCH  58  71
ENDBRANCH  32  33
ENDBRANCH  24  27
ENDBRANCH  22  23
ENDBRANCH  21  22
ENDBRANCH  20  21
ENDBRANCH  19  20
ENDBRANCH   1  19
TORSDOF 17
ENDMDL
MODEL 3
REMARK VINA RESULT:      -9.4      1.705      6.867
REMARK SMILES C[C@@H]([NH2+]CC(C)(C)C(=O)NCCCCCCNC(=O)c1ccc(-c2c3nc(c(-c4ccccc4)c4ccc([nH]4)c(-c4ccccc4)c4nc(c(-c5ccccc5)c5ccc2[nH]5)C=C4)C=C3)cc1)C1CC1
REMARK SMILES IDX 12 1 11 2 10 3 8 4 9 5 5 7 6 8 7 9 4 10 3 11 2 14 1 15 68 16
REMARK SMILES IDX 69 17 70 18 13 19 14 20 15 21 16 22 17 23 18 24 19 26 20 27
REMARK SMILES IDX 21 28 67 29 22 30 66 31 23 32 24 33 25 34 60 35 26 36 65 37
REMARK SMILES IDX 59 38 61 39 27 40 64 41 58 42 57 43 28 45 50 46 35 47 49 48
REMARK SMILES IDX 36 49 39 50 48 51 62 52 37 53 38 54 47 56 63 57 40 58 29 59
REMARK SMILES IDX 30 60 34 61 31 62 33 63 32 64 51 65 52 66 56 67 53 68 55 69
REMARK SMILES IDX 54 70 41 71 42 72 46 73 43 74 45 75 44 76
REMARK H PARENT 10 6 3 12 3 13 17 25 61 44 39 55
REMARK Flexibility Score: inf
ROOT
ATOM      1  C   UNL A   1      36.791  23.206  24.561  1.00  0.00     0.021 C 
ENDROOT
BRANCH   1   2
ATOM      2  C   UNL A   1      35.653  23.864  25.348  1.00  0.00     0.116 C 
BRANCH   2   3
ATOM      3  N   UNL A   1      34.436  23.853  24.570  1.00  0.00    -0.355 N 
ATOM      4  C   UNL A   1      33.540  22.832  24.485  1.00  0.00     0.231 C 
ATOM      5  O   UNL A   1      33.281  22.465  23.340  1.00  0.00    -0.274 OA
ATOM      6  H   UNL A   1      34.234  24.665  24.049  1.00  0.00     0.163 HD
BRANCH   4   7
ATOM      7  C   UNL A   1      32.958  22.174  25.749  1.00  0.00     0.092 C 
ATOM      8  C   UNL A   1      31.476  21.804  25.557  1.00  0.00     0.027 C 
ATOM      9  C   UNL A   1      33.130  23.154  26.931  1.00  0.00     0.027 C 
BRANCH   7  10
ATOM     10  C   UNL A   1      33.751  20.888  26.161  1.00  0.00     0.277 C 
BRANCH  10  11
ATOM     11  N   UNL A   1      33.351  19.549  25.719  1.00  0.00    -0.343 N 
ATOM     12  H   UNL A   1      33.713  18.883  26.401  1.00  0.00     0.346 HD
ATOM     13  H   UNL A   1      32.334  19.597  25.645  1.00  0.00     0.346 HD
BRANCH  11  14
ATOM     14  C   UNL A   1      33.796  19.102  24.395  1.00  0.00     0.182 C 
ATOM     15  C   UNL A   1      32.517  18.953  23.539  1.00  0.00     0.075 C 
BRANCH  14  16
ATOM     16  C   UNL A   1      34.561  17.796  24.309  1.00  0.00     0.047 C 
ATOM     17  C   UNL A   1      34.160  16.521  25.019  1.00  0.00     0.010 C 
ATOM     18  C   UNL A   1      34.112  16.587  23.519  1.00  0.00     0.010 C 
ENDBRANCH  14  16
ENDBRANCH  11  14
ENDBRANCH  10  11
ENDBRANCH   7  10
ENDBRANCH   4   7
ENDBRANCH   2   3
ENDBRANCH   1   2
BRANCH   1  19
ATOM     19  C   UNL A   1      37.443  22.008  25.270  1.00  0.00     0.002 C 
BRANCH  19  20
ATOM     20  C   UNL A   1      37.121  20.638  24.663  1.00  0.00     0.002 C 
BRANCH  20  21
ATOM     21  C   UNL A   1      38.198  19.575  24.871  1.00  0.00     0.021 C 
BRANCH  21  22
ATOM     22  C   UNL A   1      39.157  19.873  26.013  1.00  0.00     0.116 C 
BRANCH  22  23
ATOM     23  N   UNL A   1      40.400  19.134  25.883  1.00  0.00    -0.352 N 
ATOM     24  C   UNL A   1      41.684  19.599  26.007  1.00  0.00     0.251 C 
ATOM     25  H   UNL A   1      40.309  18.174  25.681  1.00  0.00     0.163 HD
ATOM     26  O   UNL A   1      42.639  18.905  25.670  1.00  0.00    -0.269 OA
BRANCH  24  27
ATOM     27  C   UNL A   1      41.905  20.963  26.528  1.00  0.00     0.039 A 
ATOM     28  C   UNL A   1      41.931  21.165  27.909  1.00  0.00     0.014 A 
ATOM     29  C   UNL A   1      42.121  22.030  25.651  1.00  0.00     0.014 A 
ATOM     30  C   UNL A   1      42.235  22.431  28.413  1.00  0.00     0.010 A 
ATOM     31  C   UNL A   1      42.502  23.269  26.154  1.00  0.00     0.010 A 
ATOM     32  C   UNL A   1      42.558  23.483  27.539  1.00  0.00    -0.014 A 
BRANCH  32  33
ATOM     33  C   UNL A   1      42.959  24.815  28.055  1.00  0.00     0.031 A 
ATOM     34  C   UNL A   1      41.918  25.870  28.306  1.00  0.00     0.074 A 
ATOM     35  C   UNL A   1      44.265  25.095  28.235  1.00  0.00     0.049 A 
ATOM     36  N   UNL A   1      42.078  27.110  28.695  1.00  0.00    -0.248 NA
ATOM     37  C   UNL A   1      40.516  25.491  28.067  1.00  0.00     0.031 C 
ATOM     38  C   UNL A   1      45.373  24.169  27.993  1.00  0.00     0.029 A 
ATOM     39  N   UNL A   1      44.880  26.246  28.659  1.00  0.00    -0.354 N 
ATOM     40  C   UNL A   1      40.803  27.660  28.732  1.00  0.00     0.074 A 
ATOM     41  C   UNL A   1      39.887  26.638  28.276  1.00  0.00     0.031 C 
ATOM     42  C   UNL A   1      46.530  24.779  28.300  1.00  0.00     0.029 A 
ATOM     43  C   UNL A   1      46.251  26.150  28.714  1.00  0.00     0.049 A 
ATOM     44  H   UNL A   1      44.388  27.063  28.902  1.00  0.00     0.167 HD
ATOM     45  C   UNL A   1      40.425  28.897  29.128  1.00  0.00     0.031 A 
ATOM     46  C   UNL A   1      47.178  27.066  29.050  1.00  0.00     0.031 A 
ATOM     47  C   UNL A   1      41.337  29.912  29.587  1.00  0.00     0.049 A 
ATOM     48  C   UNL A   1      46.735  28.445  29.454  1.00  0.00     0.074 A 
ATOM     49  C   UNL A   1      41.046  31.178  30.063  1.00  0.00     0.029 A 
ATOM     50  N   UNL A   1      42.715  29.776  29.623  1.00  0.00    -0.354 N 
ATOM     51  N   UNL A   1      45.519  28.926  29.552  1.00  0.00    -0.248 NA
ATOM     52  C   UNL A   1      47.793  29.403  29.803  1.00  0.00     0.031 C 
ATOM     53  C   UNL A   1      42.255  31.831  30.330  1.00  0.00     0.029 A 
ATOM     54  C   UNL A   1      43.292  30.948  30.081  1.00  0.00     0.049 A 
ATOM     55  H   UNL A   1      43.210  28.966  29.360  1.00  0.00     0.167 HD
ATOM     56  C   UNL A   1      45.665  30.233  29.997  1.00  0.00     0.074 A 
ATOM     57  C   UNL A   1      47.084  30.462  30.168  1.00  0.00     0.031 C 
ATOM     58  C   UNL A   1      44.707  31.161  30.243  1.00  0.00     0.031 A 
BRANCH  45  59
ATOM     59  C   UNL A   1      38.959  29.227  29.073  1.00  0.00    -0.014 A 
ATOM     60  C   UNL A   1      38.364  29.707  27.895  1.00  0.00     0.009 A 
ATOM     61  C   UNL A   1      38.153  29.019  30.203  1.00  0.00     0.009 A 
ATOM     62  C   UNL A   1      37.000  30.007  27.862  1.00  0.00     0.001 A 
ATOM     63  C   UNL A   1      36.784  29.289  30.158  1.00  0.00     0.001 A 
ATOM     64  C   UNL A   1      36.211  29.793  28.991  1.00  0.00     0.000 A 
ENDBRANCH  45  59
BRANCH  46  65
ATOM     65  C   UNL A   1      48.622  26.711  29.022  1.00  0.00    -0.014 A 
ATOM     66  C   UNL A   1      49.377  26.888  27.853  1.00  0.00     0.009 A 
ATOM     67  C   UNL A   1      49.251  26.185  30.161  1.00  0.00     0.009 A 
ATOM     68  C   UNL A   1      50.724  26.519  27.817  1.00  0.00     0.001 A 
ATOM     69  C   UNL A   1      50.605  25.845  30.132  1.00  0.00     0.001 A 
ATOM     70  C   UNL A   1      51.337  26.003  28.956  1.00  0.00     0.000 A 
ENDBRANCH  46  65
BRANCH  58  71
ATOM     71  C   UNL A   1      45.161  32.500  30.754  1.00  0.00    -0.014 A 
ATOM     72  C   UNL A   1      45.331  32.738  32.127  1.00  0.00     0.009 A 
ATOM     73  C   UNL A   1      45.471  33.522  29.843  1.00  0.00     0.009 A 
ATOM     74  C   UNL A   1      45.774  33.983  32.577  1.00  0.00     0.001 A 
ATOM     75  C   UNL A   1      45.944  34.755  30.294  1.00  0.00     0.001 A 
ATOM     76  C   UNL A   1      46.085  34.988  31.661  1.00  0.00     0.000 A 
ENDBRANCH  58  71
ENDBRANCH  32  33
ENDBRANCH  24  27
ENDBRANCH  22  23
ENDBRANCH  21  22
ENDBRANCH  20  21
ENDBRANCH  19  20
ENDBRANCH   1  19
TORSDOF 17
ENDMDL
