MODEL 1
REMARK VINA RESULT:     -11.4      0.000      0.000
REMARK SMILES O=C(NCCCCCCNC(=O)[C@H]1C[C@](O)(c2ccc(Cl)cc2)[C@@H](c2ccc(Cl)cc2)O1)c1ccc(-c2c3nc(c(-c4ccccc4)c4ccc([nH]4)c(-c4ccccc4)c4nc(c(-c5ccccc5)c5ccc2[nH]5)C=C4)C=C3)cc1
REMARK SMILES IDX 6 1 5 2 4 3 3 4 1 5 2 6 33 8 34 9 80 10 35 11 79 12 36 13
REMARK SMILES IDX 37 14 38 15 73 16 39 17 78 18 72 19 74 20 40 21 77 22 71 23
REMARK SMILES IDX 70 24 41 26 63 27 48 28 62 29 49 30 52 31 61 32 75 33 50 34
REMARK SMILES IDX 51 35 60 37 76 38 53 39 42 40 43 41 47 42 44 43 46 44 45 45
REMARK SMILES IDX 64 46 65 47 69 48 66 49 68 50 67 51 54 52 55 53 59 54 56 55
REMARK SMILES IDX 58 56 57 57 7 58 8 59 9 60 10 61 11 62 12 64 13 65 14 66
REMARK SMILES IDX 32 67 15 68 24 69 17 70 18 71 23 72 19 73 22 74 20 75 21 76
REMARK SMILES IDX 16 77 25 79 26 80 31 81 27 82 30 83 28 84 29 85
REMARK H PARENT 3 7 74 25 52 36 10 63 16 78
REMARK Flexibility Score: inf
ROOT
ATOM      1  C   UNL A   1      41.856  20.117  27.621  1.00  0.00     0.002 C 
ENDROOT
BRANCH   1   2
ATOM      2  C   UNL A   1      42.661  19.072  26.855  1.00  0.00     0.021 C 
BRANCH   2   3
ATOM      3  C   UNL A   1      42.578  19.189  25.342  1.00  0.00     0.116 C 
BRANCH   3   4
ATOM      4  N   UNL A   1      43.819  18.812  24.687  1.00  0.00    -0.352 N 
ATOM      5  O   UNL A   1      45.791  19.170  23.644  1.00  0.00    -0.269 OA
ATOM      6  C   UNL A   1      44.890  19.604  24.349  1.00  0.00     0.251 C 
ATOM      7  H   UNL A   1      43.904  17.859  24.454  1.00  0.00     0.163 HD
BRANCH   6   8
ATOM      8  C   UNL A   1      44.940  21.001  24.838  1.00  0.00     0.039 A 
ATOM      9  C   UNL A   1      45.375  21.280  26.135  1.00  0.00     0.014 A 
ATOM     10  C   UNL A   1      44.565  22.040  23.982  1.00  0.00     0.014 A 
ATOM     11  C   UNL A   1      45.327  22.582  26.616  1.00  0.00     0.010 A 
ATOM     12  C   UNL A   1      44.604  23.361  24.438  1.00  0.00     0.010 A 
ATOM     13  C   UNL A   1      44.980  23.640  25.760  1.00  0.00    -0.014 A 
BRANCH  13  14
ATOM     14  C   UNL A   1      45.160  25.034  26.234  1.00  0.00     0.031 A 
ATOM     15  C   UNL A   1      44.016  25.838  26.781  1.00  0.00     0.074 A 
ATOM     16  C   UNL A   1      46.396  25.567  26.160  1.00  0.00     0.049 A 
ATOM     17  N   UNL A   1      44.025  27.068  27.232  1.00  0.00    -0.248 NA
ATOM     18  C   UNL A   1      42.696  25.191  26.828  1.00  0.00     0.031 C 
ATOM     19  C   UNL A   1      47.580  24.880  25.632  1.00  0.00     0.029 A 
ATOM     20  N   UNL A   1      46.871  26.796  26.537  1.00  0.00    -0.354 N 
ATOM     21  C   UNL A   1      42.715  27.350  27.597  1.00  0.00     0.074 A 
ATOM     22  C   UNL A   1      41.932  26.168  27.303  1.00  0.00     0.031 C 
ATOM     23  C   UNL A   1      48.646  25.682  25.753  1.00  0.00     0.029 A 
ATOM     24  C   UNL A   1      48.213  26.961  26.294  1.00  0.00     0.049 A 
ATOM     25  H   UNL A   1      46.304  27.493  26.942  1.00  0.00     0.167 HD
ATOM     26  C   UNL A   1      42.217  28.495  28.124  1.00  0.00     0.031 A 
ATOM     27  C   UNL A   1      49.005  28.036  26.455  1.00  0.00     0.031 A 
ATOM     28  C   UNL A   1      43.006  29.666  28.412  1.00  0.00     0.049 A 
ATOM     29  C   UNL A   1      48.407  29.300  26.997  1.00  0.00     0.074 A 
ATOM     30  C   UNL A   1      42.600  30.851  29.001  1.00  0.00     0.029 A 
ATOM     31  N   UNL A   1      44.353  29.806  28.119  1.00  0.00    -0.354 N 
ATOM     32  N   UNL A   1      47.182  29.524  27.403  1.00  0.00    -0.248 NA
ATOM     33  C   UNL A   1      49.302  30.461  27.099  1.00  0.00     0.031 C 
ATOM     34  C   UNL A   1      43.684  31.734  29.001  1.00  0.00     0.029 A 
ATOM     35  C   UNL A   1      44.782  31.076  28.473  1.00  0.00     0.049 A 
ATOM     36  H   UNL A   1      44.921  29.109  27.721  1.00  0.00     0.167 HD
ATOM     37  C   UNL A   1      47.160  30.847  27.819  1.00  0.00     0.074 A 
ATOM     38  C   UNL A   1      48.503  31.363  27.650  1.00  0.00     0.031 C 
ATOM     39  C   UNL A   1      46.119  31.575  28.290  1.00  0.00     0.031 A 
BRANCH  26  40
ATOM     40  C   UNL A   1      40.741  28.566  28.405  1.00  0.00    -0.014 A 
ATOM     41  C   UNL A   1      40.214  28.186  29.648  1.00  0.00     0.009 A 
ATOM     42  C   UNL A   1      39.883  29.128  27.446  1.00  0.00     0.009 A 
ATOM     43  C   UNL A   1      38.853  28.355  29.918  1.00  0.00     0.001 A 
ATOM     44  C   UNL A   1      38.528  29.318  27.728  1.00  0.00     0.001 A 
ATOM     45  C   UNL A   1      38.014  28.928  28.962  1.00  0.00     0.000 A 
ENDBRANCH  26  40
BRANCH  27  46
ATOM     46  C   UNL A   1      50.433  27.982  26.042  1.00  0.00    -0.014 A 
ATOM     47  C   UNL A   1      50.811  28.245  24.719  1.00  0.00     0.009 A 
ATOM     48  C   UNL A   1      51.425  27.639  26.977  1.00  0.00     0.009 A 
ATOM     49  C   UNL A   1      52.148  28.127  24.330  1.00  0.00     0.001 A 
ATOM     50  C   UNL A   1      52.765  27.560  26.595  1.00  0.00     0.001 A 
ATOM     51  C   UNL A   1      53.123  27.790  25.268  1.00  0.00     0.000 A 
ENDBRANCH  27  46
BRANCH  39  52
ATOM     52  C   UNL A   1      46.403  33.000  28.669  1.00  0.00    -0.014 A 
ATOM     53  C   UNL A   1      46.846  33.332  29.959  1.00  0.00     0.009 A 
ATOM     54  C   UNL A   1      46.248  34.020  27.718  1.00  0.00     0.009 A 
ATOM     55  C   UNL A   1      47.094  34.663  30.298  1.00  0.00     0.001 A 
ATOM     56  C   UNL A   1      46.527  35.345  28.051  1.00  0.00     0.001 A 
ATOM     57  C   UNL A   1      46.939  35.667  29.343  1.00  0.00     0.000 A 
ENDBRANCH  39  52
ENDBRANCH  13  14
ENDBRANCH   6   8
ENDBRANCH   3   4
ENDBRANCH   2   3
ENDBRANCH   1   2
BRANCH   1  58
ATOM     58  C   UNL A   1      41.389  21.327  26.804  1.00  0.00     0.002 C 
BRANCH  58  59
ATOM     59  C   UNL A   1      40.576  22.387  27.561  1.00  0.00     0.021 C 
BRANCH  59  60
ATOM     60  C   UNL A   1      39.413  23.007  26.790  1.00  0.00     0.116 C 
BRANCH  60  61
ATOM     61  N   UNL A   1      38.905  22.147  25.744  1.00  0.00    -0.354 N 
ATOM     62  C   UNL A   1      37.659  22.119  25.193  1.00  0.00     0.249 C 
ATOM     63  H   UNL A   1      39.545  21.493  25.381  1.00  0.00     0.163 HD
ATOM     64  O   UNL A   1      37.485  21.390  24.215  1.00  0.00    -0.272 OA
BRANCH  62  65
ATOM     65  C   UNL A   1      36.535  22.985  25.803  1.00  0.00     0.211 C 
ATOM     66  C   UNL A   1      35.797  23.797  24.744  1.00  0.00     0.085 C 
ATOM     67  O   UNL A   1      35.587  22.176  26.502  1.00  0.00    -0.357 OA
ATOM     68  C   UNL A   1      34.312  23.469  24.907  1.00  0.00     0.123 C 
ATOM     69  C   UNL A   1      34.323  22.202  25.812  1.00  0.00     0.186 C 
BRANCH  68  70
ATOM     70  C   UNL A   1      33.566  24.716  25.415  1.00  0.00    -0.013 A 
ATOM     71  C   UNL A   1      34.129  25.986  25.141  1.00  0.00     0.008 A 
ATOM     72  C   UNL A   1      32.350  24.694  26.115  1.00  0.00     0.008 A 
ATOM     73  C   UNL A   1      33.513  27.172  25.547  1.00  0.00     0.021 A 
ATOM     74  C   UNL A   1      31.722  25.885  26.511  1.00  0.00     0.021 A 
ATOM     75  C   UNL A   1      32.305  27.115  26.228  1.00  0.00     0.041 A 
ATOM     76  Cl  UNL A   1      31.529  28.569  26.720  1.00  0.00    -0.084 Cl
ENDBRANCH  68  70
BRANCH  68  77
ATOM     77  O   UNL A   1      33.719  23.213  23.625  1.00  0.00    -0.382 OA
ATOM     78  H   UNL A   1      32.789  23.488  23.639  1.00  0.00     0.212 HD
ENDBRANCH  68  77
BRANCH  69  79
ATOM     79  C   UNL A   1      34.097  20.835  25.172  1.00  0.00    -0.016 A 
ATOM     80  C   UNL A   1      35.116  19.882  25.019  1.00  0.00     0.008 A 
ATOM     81  C   UNL A   1      32.803  20.486  24.742  1.00  0.00     0.008 A 
ATOM     82  C   UNL A   1      34.851  18.618  24.481  1.00  0.00     0.021 A 
ATOM     83  C   UNL A   1      32.536  19.226  24.197  1.00  0.00     0.021 A 
ATOM     84  C   UNL A   1      33.562  18.295  24.076  1.00  0.00     0.041 A 
ATOM     85  Cl  UNL A   1      33.235  16.737  23.425  1.00  0.00    -0.084 Cl
ENDBRANCH  69  79
ENDBRANCH  62  65
ENDBRANCH  60  61
ENDBRANCH  59  60
ENDBRANCH  58  59
ENDBRANCH   1  58
TORSDOF 16
ENDMDL
MODEL 2
REMARK VINA RESULT:     -11.3      0.362      5.728
REMARK SMILES O=C(NCCCCCCNC(=O)[C@H]1C[C@](O)(c2ccc(Cl)cc2)[C@@H](c2ccc(Cl)cc2)O1)c1ccc(-c2c3nc(c(-c4ccccc4)c4ccc([nH]4)c(-c4ccccc4)c4nc(c(-c5ccccc5)c5ccc2[nH]5)C=C4)C=C3)cc1
REMARK SMILES IDX 6 1 5 2 4 3 3 4 1 5 2 6 33 8 34 9 80 10 35 11 79 12 36 13
REMARK SMILES IDX 37 14 38 15 73 16 39 17 78 18 72 19 74 20 40 21 77 22 71 23
REMARK SMILES IDX 70 24 41 26 63 27 48 28 62 29 49 30 52 31 61 32 75 33 50 34
REMARK SMILES IDX 51 35 60 37 76 38 53 39 42 40 43 41 47 42 44 43 46 44 45 45
REMARK SMILES IDX 64 46 65 47 69 48 66 49 68 50 67 51 54 52 55 53 59 54 56 55
REMARK SMILES IDX 58 56 57 57 7 58 8 59 9 60 10 61 11 62 12 64 13 65 14 66
REMARK SMILES IDX 32 67 15 68 24 69 17 70 18 71 23 72 19 73 22 74 20 75 21 76
REMARK SMILES IDX 16 77 25 79 26 80 31 81 27 82 30 83 28 84 29 85
REMARK H PARENT 3 7 74 25 52 36 10 63 16 78
REMARK Flexibility Score: inf
ROOT
ATOM      1  C   UNL A   1      41.832  20.153  27.544  1.00  0.00     0.002 C 
ENDROOT
BRANCH   1   2
ATOM      2  C   UNL A   1      42.599  19.084  26.769  1.00  0.00     0.021 C 
BRANCH   2   3
ATOM      3  C   UNL A   1      42.625  19.287  25.263  1.00  0.00     0.116 C 
BRANCH   3   4
ATOM      4  N   UNL A   1      43.884  18.871  24.669  1.00  0.00    -0.352 N 
ATOM      5  O   UNL A   1      45.906  19.166  23.705  1.00  0.00    -0.269 OA
ATOM      6  C   UNL A   1      44.986  19.634  24.362  1.00  0.00     0.251 C 
ATOM      7  H   UNL A   1      43.959  17.912  24.458  1.00  0.00     0.163 HD
BRANCH   6   8
ATOM      8  C   UNL A   1      45.045  21.039  24.824  1.00  0.00     0.039 A 
ATOM      9  C   UNL A   1      45.404  21.335  26.142  1.00  0.00     0.014 A 
ATOM     10  C   UNL A   1      44.756  22.070  23.925  1.00  0.00     0.014 A 
ATOM     11  C   UNL A   1      45.363  22.647  26.592  1.00  0.00     0.010 A 
ATOM     12  C   UNL A   1      44.805  23.398  24.356  1.00  0.00     0.010 A 
ATOM     13  C   UNL A   1      45.103  23.696  25.694  1.00  0.00    -0.014 A 
BRANCH  13  14
ATOM     14  C   UNL A   1      45.293  25.095  26.150  1.00  0.00     0.031 A 
ATOM     15  C   UNL A   1      46.632  25.770  26.097  1.00  0.00     0.074 A 
ATOM     16  C   UNL A   1      44.214  25.753  26.620  1.00  0.00     0.049 A 
ATOM     17  N   UNL A   1      46.948  26.988  26.461  1.00  0.00    -0.248 NA
ATOM     18  C   UNL A   1      47.764  24.987  25.574  1.00  0.00     0.031 C 
ATOM     19  C   UNL A   1      42.864  25.189  26.731  1.00  0.00     0.029 A 
ATOM     20  N   UNL A   1      44.072  27.036  27.080  1.00  0.00    -0.354 N 
ATOM     21  C   UNL A   1      48.312  27.113  26.232  1.00  0.00     0.074 A 
ATOM     22  C   UNL A   1      48.770  25.843  25.710  1.00  0.00     0.031 C 
ATOM     23  C   UNL A   1      42.029  26.130  27.189  1.00  0.00     0.029 A 
ATOM     24  C   UNL A   1      42.792  27.336  27.476  1.00  0.00     0.049 A 
ATOM     25  H   UNL A   1      44.816  27.680  27.122  1.00  0.00     0.167 HD
ATOM     26  C   UNL A   1      49.104  28.192  26.446  1.00  0.00     0.031 A 
ATOM     27  C   UNL A   1      42.289  28.447  28.044  1.00  0.00     0.031 A 
ATOM     28  C   UNL A   1      48.638  29.451  26.967  1.00  0.00     0.049 A 
ATOM     29  C   UNL A   1      43.207  29.603  28.308  1.00  0.00     0.074 A 
ATOM     30  C   UNL A   1      49.356  30.618  27.162  1.00  0.00     0.029 A 
ATOM     31  N   UNL A   1      47.342  29.704  27.390  1.00  0.00    -0.354 N 
ATOM     32  N   UNL A   1      44.479  29.727  28.018  1.00  0.00    -0.248 NA
ATOM     33  C   UNL A   1      42.621  30.769  28.981  1.00  0.00     0.031 C 
ATOM     34  C   UNL A   1      48.512  31.555  27.768  1.00  0.00     0.029 A 
ATOM     35  C   UNL A   1      47.252  30.993  27.888  1.00  0.00     0.049 A 
ATOM     36  H   UNL A   1      46.597  29.063  27.342  1.00  0.00     0.167 HD
ATOM     37  C   UNL A   1      44.843  30.989  28.463  1.00  0.00     0.074 A 
ATOM     38  C   UNL A   1      43.649  31.604  29.008  1.00  0.00     0.031 C 
ATOM     39  C   UNL A   1      46.059  31.584  28.434  1.00  0.00     0.031 A 
BRANCH  26  40
ATOM     40  C   UNL A   1      50.573  28.066  26.148  1.00  0.00    -0.014 A 
ATOM     41  C   UNL A   1      51.479  27.601  27.112  1.00  0.00     0.009 A 
ATOM     42  C   UNL A   1      51.036  28.315  24.844  1.00  0.00     0.009 A 
ATOM     43  C   UNL A   1      52.821  27.399  26.780  1.00  0.00     0.001 A 
ATOM     44  C   UNL A   1      52.373  28.089  24.510  1.00  0.00     0.001 A 
ATOM     45  C   UNL A   1      53.265  27.635  25.479  1.00  0.00     0.000 A 
ENDBRANCH  26  40
BRANCH  27  46
ATOM     46  C   UNL A   1      40.860  28.497  28.453  1.00  0.00    -0.014 A 
ATOM     47  C   UNL A   1      39.887  29.051  27.610  1.00  0.00     0.009 A 
ATOM     48  C   UNL A   1      40.469  28.008  29.711  1.00  0.00     0.009 A 
ATOM     49  C   UNL A   1      38.559  29.150  28.033  1.00  0.00     0.001 A 
ATOM     50  C   UNL A   1      39.135  28.073  30.116  1.00  0.00     0.001 A 
ATOM     51  C   UNL A   1      38.184  28.657  29.282  1.00  0.00     0.000 A 
ENDBRANCH  27  46
BRANCH  39  52
ATOM     52  C   UNL A   1      46.148  32.976  28.993  1.00  0.00    -0.014 A 
ATOM     53  C   UNL A   1      45.719  34.085  28.246  1.00  0.00     0.009 A 
ATOM     54  C   UNL A   1      46.645  33.177  30.290  1.00  0.00     0.009 A 
ATOM     55  C   UNL A   1      45.821  35.373  28.776  1.00  0.00     0.001 A 
ATOM     56  C   UNL A   1      46.715  34.462  30.828  1.00  0.00     0.001 A 
ATOM     57  C   UNL A   1      46.313  35.559  30.067  1.00  0.00     0.000 A 
ENDBRANCH  39  52
ENDBRANCH  13  14
ENDBRANCH   6   8
ENDBRANCH   3   4
ENDBRANCH   2   3
ENDBRANCH   1   2
BRANCH   1  58
ATOM     58  C   UNL A   1      41.302  21.326  26.711  1.00  0.00     0.002 C 
BRANCH  58  59
ATOM     59  C   UNL A   1      40.578  22.437  27.484  1.00  0.00     0.021 C 
BRANCH  59  60
ATOM     60  C   UNL A   1      39.321  22.996  26.821  1.00  0.00     0.116 C 
BRANCH  60  61
ATOM     61  N   UNL A   1      38.822  22.156  25.755  1.00  0.00    -0.354 N 
ATOM     62  C   UNL A   1      37.608  22.193  25.137  1.00  0.00     0.249 C 
ATOM     63  H   UNL A   1      39.443  21.463  25.433  1.00  0.00     0.163 HD
ATOM     64  O   UNL A   1      37.446  21.465  24.156  1.00  0.00    -0.272 OA
BRANCH  62  65
ATOM     65  C   UNL A   1      36.504  23.127  25.679  1.00  0.00     0.211 C 
ATOM     66  C   UNL A   1      35.865  23.961  24.575  1.00  0.00     0.085 C 
ATOM     67  O   UNL A   1      35.479  22.381  26.339  1.00  0.00    -0.357 OA
ATOM     68  C   UNL A   1      34.358  23.717  24.666  1.00  0.00     0.123 C 
ATOM     69  C   UNL A   1      34.255  22.464  25.586  1.00  0.00     0.186 C 
BRANCH  68  70
ATOM     70  C   UNL A   1      33.657  25.010  25.121  1.00  0.00    -0.013 A 
ATOM     71  C   UNL A   1      34.006  26.219  24.474  1.00  0.00     0.008 A 
ATOM     72  C   UNL A   1      32.673  25.080  26.119  1.00  0.00     0.008 A 
ATOM     73  C   UNL A   1      33.410  27.437  24.809  1.00  0.00     0.021 A 
ATOM     74  C   UNL A   1      32.062  26.300  26.447  1.00  0.00     0.021 A 
ATOM     75  C   UNL A   1      32.433  27.470  25.794  1.00  0.00     0.041 A 
ATOM     76  Cl  UNL A   1      31.678  28.960  26.204  1.00  0.00    -0.084 Cl
ENDBRANCH  68  70
BRANCH  68  77
ATOM     77  O   UNL A   1      33.816  23.475  23.359  1.00  0.00    -0.382 OA
ATOM     78  H   UNL A   1      33.076  24.080  23.200  1.00  0.00     0.212 HD
ENDBRANCH  68  77
BRANCH  69  79
ATOM     79  C   UNL A   1      33.987  21.102  24.952  1.00  0.00    -0.016 A 
ATOM     80  C   UNL A   1      34.854  20.007  25.092  1.00  0.00     0.008 A 
ATOM     81  C   UNL A   1      32.802  20.910  24.218  1.00  0.00     0.008 A 
ATOM     82  C   UNL A   1      34.540  18.759  24.543  1.00  0.00     0.021 A 
ATOM     83  C   UNL A   1      32.488  19.666  23.662  1.00  0.00     0.021 A 
ATOM     84  C   UNL A   1      33.356  18.594  23.834  1.00  0.00     0.041 A 
ATOM     85  Cl  UNL A   1      32.965  17.056  23.170  1.00  0.00    -0.084 Cl
ENDBRANCH  69  79
ENDBRANCH  62  65
ENDBRANCH  60  61
ENDBRANCH  59  60
ENDBRANCH  58  59
ENDBRANCH   1  58
TORSDOF 16
ENDMDL
MODEL 3
REMARK VINA RESULT:     -11.2      6.203     11.333
REMARK SMILES O=C(NCCCCCCNC(=O)[C@H]1C[C@](O)(c2ccc(Cl)cc2)[C@@H](c2ccc(Cl)cc2)O1)c1ccc(-c2c3nc(c(-c4ccccc4)c4ccc([nH]4)c(-c4ccccc4)c4nc(c(-c5ccccc5)c5ccc2[nH]5)C=C4)C=C3)cc1
REMARK SMILES IDX 6 1 5 2 4 3 3 4 1 5 2 6 33 8 34 9 80 10 35 11 79 12 36 13
REMARK SMILES IDX 37 14 38 15 73 16 39 17 78 18 72 19 74 20 40 21 77 22 71 23
REMARK SMILES IDX 70 24 41 26 63 27 48 28 62 29 49 30 52 31 61 32 75 33 50 34
REMARK SMILES IDX 51 35 60 37 76 38 53 39 42 40 43 41 47 42 44 43 46 44 45 45
REMARK SMILES IDX 64 46 65 47 69 48 66 49 68 50 67 51 54 52 55 53 59 54 56 55
REMARK SMILES IDX 58 56 57 57 7 58 8 59 9 60 10 61 11 62 12 64 13 65 14 66
REMARK SMILES IDX 32 67 15 68 24 69 17 70 18 71 23 72 19 73 22 74 20 75 21 76
REMARK SMILES IDX 16 77 25 79 26 80 31 81 27 82 30 83 28 84 29 85
REMARK H PARENT 3 7 74 25 52 36 10 63 16 78
REMARK Flexibility Score: inf
ROOT
ATOM      1  C   UNL A   1      34.678  32.843  28.020  1.00  0.00     0.002 C 
ENDROOT
BRANCH   1   2
ATOM      2  C   UNL A   1      33.454  33.754  28.061  1.00  0.00     0.021 C 
BRANCH   2   3
ATOM      3  C   UNL A   1      33.731  35.171  28.537  1.00  0.00     0.116 C 
BRANCH   3   4
ATOM      4  N   UNL A   1      33.017  35.494  29.760  1.00  0.00    -0.352 N 
ATOM      5  O   UNL A   1      32.451  35.273  31.936  1.00  0.00    -0.269 OA
ATOM      6  C   UNL A   1      33.250  35.043  31.038  1.00  0.00     0.251 C 
ATOM      7  H   UNL A   1      32.265  36.121  29.661  1.00  0.00     0.163 HD
BRANCH   6   8
ATOM      8  C   UNL A   1      34.475  34.262  31.318  1.00  0.00     0.039 A 
ATOM      9  C   UNL A   1      35.735  34.811  31.067  1.00  0.00     0.014 A 
ATOM     10  C   UNL A   1      34.362  32.977  31.854  1.00  0.00     0.014 A 
ATOM     11  C   UNL A   1      36.874  34.036  31.243  1.00  0.00     0.010 A 
ATOM     12  C   UNL A   1      35.514  32.231  32.117  1.00  0.00     0.010 A 
ATOM     13  C   UNL A   1      36.778  32.754  31.807  1.00  0.00    -0.014 A 
BRANCH  13  14
ATOM     14  C   UNL A   1      38.023  32.046  32.194  1.00  0.00     0.031 A 
ATOM     15  C   UNL A   1      38.615  30.961  31.342  1.00  0.00     0.074 A 
ATOM     16  C   UNL A   1      38.618  32.409  33.348  1.00  0.00     0.049 A 
ATOM     17  N   UNL A   1      39.698  30.255  31.554  1.00  0.00    -0.248 NA
ATOM     18  C   UNL A   1      37.908  30.617  30.098  1.00  0.00     0.031 C 
ATOM     19  C   UNL A   1      38.121  33.443  34.264  1.00  0.00     0.029 A 
ATOM     20  N   UNL A   1      39.768  31.966  33.947  1.00  0.00    -0.354 N 
ATOM     21  C   UNL A   1      39.793  29.372  30.486  1.00  0.00     0.074 A 
ATOM     22  C   UNL A   1      38.652  29.621  29.632  1.00  0.00     0.031 C 
ATOM     23  C   UNL A   1      38.980  33.579  35.283  1.00  0.00     0.029 A 
ATOM     24  C   UNL A   1      40.043  32.595  35.137  1.00  0.00     0.049 A 
ATOM     25  H   UNL A   1      40.342  31.264  33.561  1.00  0.00     0.167 HD
ATOM     26  C   UNL A   1      40.748  28.440  30.250  1.00  0.00     0.031 A 
ATOM     27  C   UNL A   1      41.022  32.383  36.034  1.00  0.00     0.031 A 
ATOM     28  C   UNL A   1      41.880  28.201  31.108  1.00  0.00     0.049 A 
ATOM     29  C   UNL A   1      42.033  31.309  35.759  1.00  0.00     0.074 A 
ATOM     30  C   UNL A   1      42.929  27.318  30.920  1.00  0.00     0.029 A 
ATOM     31  N   UNL A   1      42.103  28.834  32.321  1.00  0.00    -0.354 N 
ATOM     32  N   UNL A   1      42.147  30.534  34.708  1.00  0.00    -0.248 NA
ATOM     33  C   UNL A   1      43.047  31.079  36.796  1.00  0.00     0.031 C 
ATOM     34  C   UNL A   1      43.750  27.365  32.051  1.00  0.00     0.029 A 
ATOM     35  C   UNL A   1      43.248  28.326  32.913  1.00  0.00     0.049 A 
ATOM     36  H   UNL A   1      41.534  29.539  32.704  1.00  0.00     0.167 HD
ATOM     37  C   UNL A   1      43.252  29.732  34.953  1.00  0.00     0.074 A 
ATOM     38  C   UNL A   1      43.793  30.140  36.233  1.00  0.00     0.031 C 
ATOM     39  C   UNL A   1      43.767  28.738  34.191  1.00  0.00     0.031 A 
BRANCH  26  40
ATOM     40  C   UNL A   1      40.609  27.574  29.028  1.00  0.00    -0.014 A 
ATOM     41  C   UNL A   1      39.801  26.429  29.030  1.00  0.00     0.009 A 
ATOM     42  C   UNL A   1      41.214  27.977  27.825  1.00  0.00     0.009 A 
ATOM     43  C   UNL A   1      39.610  25.697  27.854  1.00  0.00     0.001 A 
ATOM     44  C   UNL A   1      41.002  27.258  26.647  1.00  0.00     0.001 A 
ATOM     45  C   UNL A   1      40.203  26.116  26.663  1.00  0.00     0.000 A 
ENDBRANCH  26  40
BRANCH  27  46
ATOM     46  C   UNL A   1      41.059  33.161  37.300  1.00  0.00    -0.014 A 
ATOM     47  C   UNL A   1      41.874  34.295  37.425  1.00  0.00     0.009 A 
ATOM     48  C   UNL A   1      40.291  32.752  38.403  1.00  0.00     0.009 A 
ATOM     49  C   UNL A   1      41.948  34.980  38.641  1.00  0.00     0.001 A 
ATOM     50  C   UNL A   1      40.337  33.462  39.604  1.00  0.00     0.001 A 
ATOM     51  C   UNL A   1      41.178  34.566  39.726  1.00  0.00     0.000 A 
ENDBRANCH  27  46
BRANCH  39  52
ATOM     52  C   UNL A   1      44.987  28.039  34.720  1.00  0.00    -0.014 A 
ATOM     53  C   UNL A   1      46.275  28.525  34.447  1.00  0.00     0.009 A 
ATOM     54  C   UNL A   1      44.845  26.895  35.520  1.00  0.00     0.009 A 
ATOM     55  C   UNL A   1      47.399  27.857  34.937  1.00  0.00     0.001 A 
ATOM     56  C   UNL A   1      45.969  26.248  36.034  1.00  0.00     0.001 A 
ATOM     57  C   UNL A   1      47.244  26.723  35.732  1.00  0.00     0.000 A 
ENDBRANCH  39  52
ENDBRANCH  13  14
ENDBRANCH   6   8
ENDBRANCH   3   4
ENDBRANCH   2   3
ENDBRANCH   1   2
BRANCH   1  58
ATOM     58  C   UNL A   1      34.421  31.370  28.358  1.00  0.00     0.002 C 
BRANCH  58  59
ATOM     59  C   UNL A   1      35.260  30.339  27.589  1.00  0.00     0.021 C 
BRANCH  59  60
ATOM     60  C   UNL A   1      34.535  29.053  27.197  1.00  0.00     0.116 C 
BRANCH  60  61
ATOM     61  N   UNL A   1      33.153  29.031  27.619  1.00  0.00    -0.354 N 
ATOM     62  C   UNL A   1      32.204  28.083  27.383  1.00  0.00     0.249 C 
ATOM     63  H   UNL A   1      32.856  29.807  28.148  1.00  0.00     0.163 HD
ATOM     64  O   UNL A   1      31.119  28.206  27.956  1.00  0.00    -0.272 OA
BRANCH  62  65
ATOM     65  C   UNL A   1      32.517  26.913  26.425  1.00  0.00     0.211 C 
ATOM     66  C   UNL A   1      31.460  25.815  26.494  1.00  0.00     0.085 C 
ATOM     67  O   UNL A   1      32.614  27.368  25.073  1.00  0.00    -0.357 OA
ATOM     68  C   UNL A   1      30.976  25.590  25.061  1.00  0.00     0.123 C 
ATOM     69  C   UNL A   1      31.522  26.835  24.301  1.00  0.00     0.186 C 
BRANCH  68  70
ATOM     70  C   UNL A   1      31.423  24.196  24.584  1.00  0.00    -0.013 A 
ATOM     71  C   UNL A   1      31.444  23.144  25.530  1.00  0.00     0.008 A 
ATOM     72  C   UNL A   1      31.791  23.879  23.267  1.00  0.00     0.008 A 
ATOM     73  C   UNL A   1      31.818  21.843  25.183  1.00  0.00     0.021 A 
ATOM     74  C   UNL A   1      32.153  22.570  22.913  1.00  0.00     0.021 A 
ATOM     75  C   UNL A   1      32.166  21.561  23.870  1.00  0.00     0.041 A 
ATOM     76  Cl  UNL A   1      32.613  19.961  23.426  1.00  0.00    -0.084 Cl
ENDBRANCH  68  70
BRANCH  68  77
ATOM     77  O   UNL A   1      29.543  25.521  25.029  1.00  0.00    -0.382 OA
ATOM     78  H   UNL A   1      29.250  24.696  25.445  1.00  0.00     0.212 HD
ENDBRANCH  68  77
BRANCH  69  79
ATOM     79  C   UNL A   1      30.565  27.977  23.970  1.00  0.00    -0.016 A 
ATOM     80  C   UNL A   1      30.808  29.311  24.334  1.00  0.00     0.008 A 
ATOM     81  C   UNL A   1      29.395  27.700  23.238  1.00  0.00     0.008 A 
ATOM     82  C   UNL A   1      29.933  30.336  23.959  1.00  0.00     0.021 A 
ATOM     83  C   UNL A   1      28.515  28.721  22.868  1.00  0.00     0.021 A 
ATOM     84  C   UNL A   1      28.792  30.036  23.224  1.00  0.00     0.041 A 
ATOM     85  Cl  UNL A   1      27.722  31.298  22.754  1.00  0.00    -0.084 Cl
ENDBRANCH  69  79
ENDBRANCH  62  65
ENDBRANCH  60  61
ENDBRANCH  59  60
ENDBRANCH  58  59
ENDBRANCH   1  58
TORSDOF 16
ENDMDL
