MODEL 1
REMARK VINA RESULT:     -11.1      0.000      0.000
REMARK SMILES CCn1c(=O)n(CC)c2cc(C(=O)NCCCCCCNC(=O)c3ccc(-c4c5nc(c(-c6ccccc6)c6ccc([nH]6)c(-c6ccccc6)c6nc(c(-c7ccccc7)c7ccc4[nH]7)C=C6)C=C5)cc3)ccc21
REMARK SMILES IDX 18 1 17 2 16 3 15 4 14 5 12 6 13 7 11 9 3 10 4 11 74 12 5 13
REMARK SMILES IDX 6 14 9 15 73 16 10 17 72 18 2 19 1 20 7 21 8 22 19 23 20 24
REMARK SMILES IDX 21 25 22 26 23 28 24 29 25 30 71 31 26 32 70 33 27 34 28 35
REMARK SMILES IDX 29 36 64 37 30 38 69 39 63 40 65 41 31 42 68 43 62 44 61 45
REMARK SMILES IDX 32 47 54 48 39 49 53 50 40 51 43 52 52 53 66 54 41 55 42 56
REMARK SMILES IDX 51 58 67 59 44 60 33 61 34 62 38 63 35 64 37 65 36 66 55 67
REMARK SMILES IDX 56 68 60 69 57 70 59 71 58 72 45 73 46 74 50 75 47 76 49 77
REMARK SMILES IDX 48 78
REMARK H PARENT 14 8 21 27 65 46 43 57
REMARK Flexibility Score: inf
ROOT
ATOM      1  C   UNL A   1      42.105  19.242  27.559  1.00  0.00     0.002 C 
ENDROOT
BRANCH   1   2
ATOM      2  C   UNL A   1      40.887  19.828  26.832  1.00  0.00     0.002 C 
BRANCH   2   3
ATOM      3  C   UNL A   1      40.594  21.301  27.150  1.00  0.00     0.021 C 
BRANCH   3   4
ATOM      4  C   UNL A   1      40.306  22.138  25.902  1.00  0.00     0.116 C 
BRANCH   4   5
ATOM      5  N   UNL A   1      39.231  23.073  26.168  1.00  0.00    -0.352 N 
ATOM      6  C   UNL A   1      37.874  23.030  25.997  1.00  0.00     0.251 C 
ATOM      7  O   UNL A   1      37.249  24.047  26.307  1.00  0.00    -0.269 OA
ATOM      8  H   UNL A   1      39.546  23.922  26.555  1.00  0.00     0.163 HD
BRANCH   6   9
ATOM      9  C   UNL A   1      37.110  21.833  25.529  1.00  0.00     0.042 A 
ATOM     10  N   UNL A   1      34.516  18.673  24.736  1.00  0.00    -0.292 N 
ATOM     11  C   UNL A   1      33.277  19.281  25.040  1.00  0.00     0.329 A 
ATOM     12  C   UNL A   1      35.535  19.621  24.906  1.00  0.00     0.069 A 
ATOM     13  O   UNL A   1      32.171  18.750  25.008  1.00  0.00    -0.248 OA
ATOM     14  N   UNL A   1      33.564  20.618  25.387  1.00  0.00    -0.292 N 
ATOM     15  C   UNL A   1      34.951  20.809  25.337  1.00  0.00     0.070 A 
ATOM     16  C   UNL A   1      36.894  19.526  24.705  1.00  0.00     0.029 A 
ATOM     17  C   UNL A   1      35.710  21.917  25.658  1.00  0.00     0.042 A 
ATOM     18  C   UNL A   1      37.674  20.659  24.987  1.00  0.00     0.016 A 
BRANCH  10  19
ATOM     19  C   UNL A   1      34.697  17.277  24.420  1.00  0.00     0.124 C 
ATOM     20  C   UNL A   1      34.143  16.906  23.053  1.00  0.00     0.028 C 
ENDBRANCH  10  19
BRANCH  14  21
ATOM     21  C   UNL A   1      32.580  21.628  25.689  1.00  0.00     0.124 C 
ATOM     22  C   UNL A   1      31.899  22.189  24.452  1.00  0.00     0.028 C 
ENDBRANCH  14  21
ENDBRANCH   6   9
ENDBRANCH   4   5
ENDBRANCH   3   4
ENDBRANCH   2   3
ENDBRANCH   1   2
BRANCH   1  23
ATOM     23  C   UNL A   1      43.101  18.490  26.669  1.00  0.00     0.021 C 
BRANCH  23  24
ATOM     24  C   UNL A   1      43.200  19.032  25.243  1.00  0.00     0.116 C 
BRANCH  24  25
ATOM     25  N   UNL A   1      44.525  19.511  24.902  1.00  0.00    -0.352 N 
ATOM     26  C   UNL A   1      45.214  20.678  25.078  1.00  0.00     0.251 C 
ATOM     27  H   UNL A   1      45.058  18.830  24.430  1.00  0.00     0.163 HD
ATOM     28  O   UNL A   1      46.395  20.665  24.718  1.00  0.00    -0.269 OA
BRANCH  26  29
ATOM     29  C   UNL A   1      44.648  21.956  25.596  1.00  0.00     0.039 A 
ATOM     30  C   UNL A   1      43.744  22.776  24.930  1.00  0.00     0.014 A 
ATOM     31  C   UNL A   1      45.132  22.383  26.853  1.00  0.00     0.014 A 
ATOM     32  C   UNL A   1      43.425  24.029  25.450  1.00  0.00     0.010 A 
ATOM     33  C   UNL A   1      44.796  23.625  27.391  1.00  0.00     0.010 A 
ATOM     34  C   UNL A   1      43.973  24.473  26.666  1.00  0.00    -0.014 A 
BRANCH  34  35
ATOM     35  C   UNL A   1      43.483  25.745  27.203  1.00  0.00     0.031 A 
ATOM     36  C   UNL A   1      44.377  26.878  26.858  1.00  0.00     0.074 A 
ATOM     37  C   UNL A   1      42.351  25.967  27.908  1.00  0.00     0.049 A 
ATOM     38  N   UNL A   1      45.205  27.462  27.655  1.00  0.00    -0.248 NA
ATOM     39  C   UNL A   1      44.501  27.286  25.450  1.00  0.00     0.031 C 
ATOM     40  C   UNL A   1      41.227  25.053  28.113  1.00  0.00     0.029 A 
ATOM     41  N   UNL A   1      41.936  27.106  28.553  1.00  0.00    -0.354 N 
ATOM     42  C   UNL A   1      45.787  28.478  26.910  1.00  0.00     0.074 A 
ATOM     43  C   UNL A   1      45.464  28.208  25.532  1.00  0.00     0.031 C 
ATOM     44  C   UNL A   1      40.174  25.736  28.626  1.00  0.00     0.029 A 
ATOM     45  C   UNL A   1      40.602  27.088  28.951  1.00  0.00     0.049 A 
ATOM     46  H   UNL A   1      42.532  27.871  28.722  1.00  0.00     0.167 HD
ATOM     47  C   UNL A   1      46.198  29.616  27.529  1.00  0.00     0.031 A 
ATOM     48  C   UNL A   1      39.901  28.097  29.527  1.00  0.00     0.031 A 
ATOM     49  C   UNL A   1      46.305  29.426  28.954  1.00  0.00     0.049 A 
ATOM     50  C   UNL A   1      40.855  28.979  30.224  1.00  0.00     0.074 A 
ATOM     51  C   UNL A   1      47.188  28.844  29.836  1.00  0.00     0.029 A 
ATOM     52  N   UNL A   1      45.111  29.561  29.606  1.00  0.00    -0.354 N 
ATOM     53  N   UNL A   1      41.521  28.616  31.281  1.00  0.00    -0.248 NA
ATOM     54  C   UNL A   1      41.301  30.210  29.582  1.00  0.00     0.031 C 
ATOM     55  C   UNL A   1      46.438  28.532  31.012  1.00  0.00     0.029 A 
ATOM     56  C   UNL A   1      45.132  28.981  30.845  1.00  0.00     0.049 A 
ATOM     57  H   UNL A   1      44.328  30.021  29.228  1.00  0.00     0.167 HD
ATOM     58  C   UNL A   1      42.712  29.299  31.166  1.00  0.00     0.074 A 
ATOM     59  C   UNL A   1      42.451  30.388  30.232  1.00  0.00     0.031 C 
ATOM     60  C   UNL A   1      43.889  28.724  31.541  1.00  0.00     0.031 A 
BRANCH  47  61
ATOM     61  C   UNL A   1      45.959  30.994  26.947  1.00  0.00    -0.014 A 
ATOM     62  C   UNL A   1      44.682  31.581  26.841  1.00  0.00     0.009 A 
ATOM     63  C   UNL A   1      47.059  31.852  26.766  1.00  0.00     0.009 A 
ATOM     64  C   UNL A   1      44.505  32.940  26.568  1.00  0.00     0.001 A 
ATOM     65  C   UNL A   1      46.886  33.223  26.524  1.00  0.00     0.001 A 
ATOM     66  C   UNL A   1      45.609  33.765  26.423  1.00  0.00     0.000 A 
ENDBRANCH  47  61
BRANCH  48  67
ATOM     67  C   UNL A   1      38.502  28.540  29.319  1.00  0.00    -0.014 A 
ATOM     68  C   UNL A   1      38.117  29.055  28.071  1.00  0.00     0.009 A 
ATOM     69  C   UNL A   1      37.665  28.804  30.422  1.00  0.00     0.009 A 
ATOM     70  C   UNL A   1      36.983  29.868  27.943  1.00  0.00     0.001 A 
ATOM     71  C   UNL A   1      36.532  29.619  30.293  1.00  0.00     0.001 A 
ATOM     72  C   UNL A   1      36.205  30.170  29.058  1.00  0.00     0.000 A 
ENDBRANCH  48  67
BRANCH  60  73
ATOM     73  C   UNL A   1      43.862  27.658  32.598  1.00  0.00    -0.014 A 
ATOM     74  C   UNL A   1      43.682  28.078  33.925  1.00  0.00     0.009 A 
ATOM     75  C   UNL A   1      44.078  26.292  32.354  1.00  0.00     0.009 A 
ATOM     76  C   UNL A   1      43.739  27.172  34.983  1.00  0.00     0.001 A 
ATOM     77  C   UNL A   1      44.110  25.378  33.414  1.00  0.00     0.001 A 
ATOM     78  C   UNL A   1      43.951  25.820  34.727  1.00  0.00     0.000 A 
ENDBRANCH  60  73
ENDBRANCH  34  35
ENDBRANCH  26  29
ENDBRANCH  24  25
ENDBRANCH  23  24
ENDBRANCH   1  23
TORSDOF 15
ENDMDL
MODEL 2
REMARK VINA RESULT:     -10.8      2.852      8.385
REMARK SMILES CCn1c(=O)n(CC)c2cc(C(=O)NCCCCCCNC(=O)c3ccc(-c4c5nc(c(-c6ccccc6)c6ccc([nH]6)c(-c6ccccc6)c6nc(c(-c7ccccc7)c7ccc4[nH]7)C=C6)C=C5)cc3)ccc21
REMARK SMILES IDX 18 1 17 2 16 3 15 4 14 5 12 6 13 7 11 9 3 10 4 11 74 12 5 13
REMARK SMILES IDX 6 14 9 15 73 16 10 17 72 18 2 19 1 20 7 21 8 22 19 23 20 24
REMARK SMILES IDX 21 25 22 26 23 28 24 29 25 30 71 31 26 32 70 33 27 34 28 35
REMARK SMILES IDX 29 36 64 37 30 38 69 39 63 40 65 41 31 42 68 43 62 44 61 45
REMARK SMILES IDX 32 47 54 48 39 49 53 50 40 51 43 52 52 53 66 54 41 55 42 56
REMARK SMILES IDX 51 58 67 59 44 60 33 61 34 62 38 63 35 64 37 65 36 66 55 67
REMARK SMILES IDX 56 68 60 69 57 70 59 71 58 72 45 73 46 74 50 75 47 76 49 77
REMARK SMILES IDX 48 78
REMARK H PARENT 14 8 21 27 65 46 43 57
REMARK Flexibility Score: inf
ROOT
ATOM      1  C   UNL A   1      32.986  28.450  25.923  1.00  0.00     0.002 C 
ENDROOT
BRANCH   1   2
ATOM      2  C   UNL A   1      31.526  28.024  25.721  1.00  0.00     0.002 C 
BRANCH   2   3
ATOM      3  C   UNL A   1      31.103  26.778  26.513  1.00  0.00     0.021 C 
BRANCH   3   4
ATOM      4  C   UNL A   1      30.091  25.907  25.764  1.00  0.00     0.116 C 
BRANCH   4   5
ATOM      5  N   UNL A   1      29.816  24.703  26.521  1.00  0.00    -0.352 N 
ATOM      6  C   UNL A   1      30.545  23.583  26.817  1.00  0.00     0.251 C 
ATOM      7  O   UNL A   1      29.970  22.712  27.474  1.00  0.00    -0.269 OA
ATOM      8  H   UNL A   1      28.910  24.688  26.906  1.00  0.00     0.163 HD
BRANCH   6   9
ATOM      9  C   UNL A   1      31.981  23.378  26.456  1.00  0.00     0.042 A 
ATOM     10  N   UNL A   1      35.732  22.628  24.811  1.00  0.00    -0.292 N 
ATOM     11  C   UNL A   1      35.509  23.039  23.477  1.00  0.00     0.329 A 
ATOM     12  C   UNL A   1      34.562  22.852  25.550  1.00  0.00     0.069 A 
ATOM     13  O   UNL A   1      36.309  22.982  22.548  1.00  0.00    -0.248 OA
ATOM     14  N   UNL A   1      34.185  23.525  23.426  1.00  0.00    -0.292 N 
ATOM     15  C   UNL A   1      33.601  23.375  24.690  1.00  0.00     0.070 A 
ATOM     16  C   UNL A   1      34.290  22.649  26.885  1.00  0.00     0.029 A 
ATOM     17  C   UNL A   1      32.313  23.639  25.113  1.00  0.00     0.042 A 
ATOM     18  C   UNL A   1      32.996  22.953  27.339  1.00  0.00     0.016 A 
BRANCH  10  19
ATOM     19  C   UNL A   1      36.929  21.980  25.287  1.00  0.00     0.124 C 
ATOM     20  C   UNL A   1      37.909  22.948  25.930  1.00  0.00     0.028 C 
ENDBRANCH  10  19
BRANCH  14  21
ATOM     21  C   UNL A   1      33.565  24.126  22.271  1.00  0.00     0.124 C 
ATOM     22  C   UNL A   1      33.489  25.642  22.353  1.00  0.00     0.028 C 
ENDBRANCH  14  21
ENDBRANCH   6   9
ENDBRANCH   4   5
ENDBRANCH   3   4
ENDBRANCH   2   3
ENDBRANCH   1   2
BRANCH   1  23
ATOM     23  C   UNL A   1      33.211  29.954  26.112  1.00  0.00     0.021 C 
BRANCH  23  24
ATOM     24  C   UNL A   1      33.620  30.353  27.530  1.00  0.00     0.116 C 
BRANCH  24  25
ATOM     25  N   UNL A   1      34.366  31.595  27.584  1.00  0.00    -0.352 N 
ATOM     26  C   UNL A   1      35.662  31.942  27.844  1.00  0.00     0.251 C 
ATOM     27  H   UNL A   1      33.802  32.378  27.385  1.00  0.00     0.163 HD
ATOM     28  O   UNL A   1      35.939  33.136  27.696  1.00  0.00    -0.269 OA
BRANCH  26  29
ATOM     29  C   UNL A   1      36.727  31.027  28.345  1.00  0.00     0.039 A 
ATOM     30  C   UNL A   1      37.890  31.414  29.003  1.00  0.00     0.014 A 
ATOM     31  C   UNL A   1      36.548  29.655  28.062  1.00  0.00     0.014 A 
ATOM     32  C   UNL A   1      38.885  30.475  29.267  1.00  0.00     0.010 A 
ATOM     33  C   UNL A   1      37.530  28.707  28.348  1.00  0.00     0.010 A 
ATOM     34  C   UNL A   1      38.725  29.125  28.912  1.00  0.00    -0.014 A 
BRANCH  34  35
ATOM     35  C   UNL A   1      39.764  28.185  29.343  1.00  0.00     0.031 A 
ATOM     36  C   UNL A   1      40.021  28.267  30.801  1.00  0.00     0.074 A 
ATOM     37  C   UNL A   1      40.440  27.291  28.587  1.00  0.00     0.049 A 
ATOM     38  N   UNL A   1      41.035  28.832  31.363  1.00  0.00    -0.248 NA
ATOM     39  C   UNL A   1      38.966  27.847  31.737  1.00  0.00     0.031 C 
ATOM     40  C   UNL A   1      40.148  26.874  27.214  1.00  0.00     0.029 A 
ATOM     41  N   UNL A   1      41.516  26.507  28.918  1.00  0.00    -0.354 N 
ATOM     42  C   UNL A   1      40.869  28.626  32.726  1.00  0.00     0.074 A 
ATOM     43  C   UNL A   1      39.509  28.190  32.909  1.00  0.00     0.031 C 
ATOM     44  C   UNL A   1      40.869  25.766  26.914  1.00  0.00     0.029 A 
ATOM     45  C   UNL A   1      41.799  25.499  27.999  1.00  0.00     0.049 A 
ATOM     46  H   UNL A   1      42.045  26.645  29.737  1.00  0.00     0.167 HD
ATOM     47  C   UNL A   1      41.961  28.522  33.529  1.00  0.00     0.031 A 
ATOM     48  C   UNL A   1      42.743  24.529  28.106  1.00  0.00     0.031 A 
ATOM     49  C   UNL A   1      43.142  29.027  32.873  1.00  0.00     0.049 A 
ATOM     50  C   UNL A   1      43.810  25.023  28.995  1.00  0.00     0.074 A 
ATOM     51  C   UNL A   1      43.696  30.254  32.586  1.00  0.00     0.029 A 
ATOM     52  N   UNL A   1      43.726  28.113  32.041  1.00  0.00    -0.354 N 
ATOM     53  N   UNL A   1      44.611  25.997  28.675  1.00  0.00    -0.248 NA
ATOM     54  C   UNL A   1      43.828  24.617  30.395  1.00  0.00     0.031 C 
ATOM     55  C   UNL A   1      44.560  30.055  31.466  1.00  0.00     0.029 A 
ATOM     56  C   UNL A   1      44.558  28.705  31.130  1.00  0.00     0.049 A 
ATOM     57  H   UNL A   1      43.567  27.143  32.091  1.00  0.00     0.167 HD
ATOM     58  C   UNL A   1      44.878  26.607  29.881  1.00  0.00     0.074 A 
ATOM     59  C   UNL A   1      44.540  25.624  30.902  1.00  0.00     0.031 C 
ATOM     60  C   UNL A   1      45.000  27.962  29.968  1.00  0.00     0.031 A 
BRANCH  47  61
ATOM     61  C   UNL A   1      42.068  27.486  34.629  1.00  0.00    -0.014 A 
ATOM     62  C   UNL A   1      41.650  27.714  35.955  1.00  0.00     0.009 A 
ATOM     63  C   UNL A   1      42.322  26.148  34.275  1.00  0.00     0.009 A 
ATOM     64  C   UNL A   1      41.496  26.677  36.879  1.00  0.00     0.001 A 
ATOM     65  C   UNL A   1      42.138  25.101  35.190  1.00  0.00     0.001 A 
ATOM     66  C   UNL A   1      41.727  25.367  36.491  1.00  0.00     0.000 A 
ENDBRANCH  47  61
BRANCH  48  67
ATOM     67  C   UNL A   1      42.697  23.096  27.731  1.00  0.00    -0.014 A 
ATOM     68  C   UNL A   1      43.533  22.621  26.707  1.00  0.00     0.009 A 
ATOM     69  C   UNL A   1      41.598  22.295  28.102  1.00  0.00     0.009 A 
ATOM     70  C   UNL A   1      43.238  21.432  26.027  1.00  0.00     0.001 A 
ATOM     71  C   UNL A   1      41.304  21.106  27.421  1.00  0.00     0.001 A 
ATOM     72  C   UNL A   1      42.111  20.688  26.368  1.00  0.00     0.000 A 
ENDBRANCH  48  67
BRANCH  60  73
ATOM     73  C   UNL A   1      45.445  28.723  28.753  1.00  0.00    -0.014 A 
ATOM     74  C   UNL A   1      44.448  29.354  27.994  1.00  0.00     0.009 A 
ATOM     75  C   UNL A   1      46.771  28.782  28.295  1.00  0.00     0.009 A 
ATOM     76  C   UNL A   1      44.753  30.004  26.799  1.00  0.00     0.001 A 
ATOM     77  C   UNL A   1      47.082  29.455  27.107  1.00  0.00     0.001 A 
ATOM     78  C   UNL A   1      46.072  30.056  26.356  1.00  0.00     0.000 A 
ENDBRANCH  60  73
ENDBRANCH  34  35
ENDBRANCH  26  29
ENDBRANCH  24  25
ENDBRANCH  23  24
ENDBRANCH   1  23
TORSDOF 15
ENDMDL
MODEL 3
REMARK VINA RESULT:     -10.8      3.397      7.091
REMARK SMILES CCn1c(=O)n(CC)c2cc(C(=O)NCCCCCCNC(=O)c3ccc(-c4c5nc(c(-c6ccccc6)c6ccc([nH]6)c(-c6ccccc6)c6nc(c(-c7ccccc7)c7ccc4[nH]7)C=C6)C=C5)cc3)ccc21
REMARK SMILES IDX 18 1 17 2 16 3 15 4 14 5 12 6 13 7 11 9 3 10 4 11 74 12 5 13
REMARK SMILES IDX 6 14 9 15 73 16 10 17 72 18 2 19 1 20 7 21 8 22 19 23 20 24
REMARK SMILES IDX 21 25 22 26 23 28 24 29 25 30 71 31 26 32 70 33 27 34 28 35
REMARK SMILES IDX 29 36 64 37 30 38 69 39 63 40 65 41 31 42 68 43 62 44 61 45
REMARK SMILES IDX 32 47 54 48 39 49 53 50 40 51 43 52 52 53 66 54 41 55 42 56
REMARK SMILES IDX 51 58 67 59 44 60 33 61 34 62 38 63 35 64 37 65 36 66 55 67
REMARK SMILES IDX 56 68 60 69 57 70 59 71 58 72 45 73 46 74 50 75 47 76 49 77
REMARK SMILES IDX 48 78
REMARK H PARENT 14 8 21 27 65 46 43 57
REMARK Flexibility Score: inf
ROOT
ATOM      1  C   UNL A   1      47.013  28.152  29.358  1.00  0.00     0.002 C 
ENDROOT
BRANCH   1   2
ATOM      2  C   UNL A   1      46.200  28.533  28.114  1.00  0.00     0.002 C 
BRANCH   2   3
ATOM      3  C   UNL A   1      45.539  27.352  27.389  1.00  0.00     0.021 C 
BRANCH   3   4
ATOM      4  C   UNL A   1      45.650  27.447  25.865  1.00  0.00     0.116 C 
BRANCH   4   5
ATOM      5  N   UNL A   1      44.442  28.027  25.315  1.00  0.00    -0.352 N 
ATOM      6  C   UNL A   1      43.160  27.573  25.155  1.00  0.00     0.251 C 
ATOM      7  O   UNL A   1      42.371  28.340  24.599  1.00  0.00    -0.269 OA
ATOM      8  H   UNL A   1      44.570  28.946  24.985  1.00  0.00     0.163 HD
BRANCH   6   9
ATOM      9  C   UNL A   1      42.651  26.260  25.657  1.00  0.00     0.042 A 
ATOM     10  N   UNL A   1      41.445  22.349  26.425  1.00  0.00    -0.292 N 
ATOM     11  C   UNL A   1      42.439  21.635  25.718  1.00  0.00     0.329 A 
ATOM     12  C   UNL A   1      41.715  23.720  26.316  1.00  0.00     0.069 A 
ATOM     13  O   UNL A   1      42.517  20.416  25.590  1.00  0.00    -0.248 OA
ATOM     14  N   UNL A   1      43.322  22.599  25.188  1.00  0.00    -0.292 N 
ATOM     15  C   UNL A   1      42.853  23.875  25.529  1.00  0.00     0.070 A 
ATOM     16  C   UNL A   1      41.064  24.809  26.851  1.00  0.00     0.029 A 
ATOM     17  C   UNL A   1      43.333  25.122  25.183  1.00  0.00     0.042 A 
ATOM     18  C   UNL A   1      41.567  26.084  26.542  1.00  0.00     0.016 A 
BRANCH  10  19
ATOM     19  C   UNL A   1      40.287  21.756  27.048  1.00  0.00     0.124 C 
ATOM     20  C   UNL A   1      39.114  21.606  26.092  1.00  0.00     0.028 C 
ENDBRANCH  10  19
BRANCH  14  21
ATOM     21  C   UNL A   1      44.534  22.308  24.464  1.00  0.00     0.124 C 
ATOM     22  C   UNL A   1      45.719  22.019  25.371  1.00  0.00     0.028 C 
ENDBRANCH  14  21
ENDBRANCH   6   9
ENDBRANCH   4   5
ENDBRANCH   3   4
ENDBRANCH   2   3
ENDBRANCH   1   2
BRANCH   1  23
ATOM     23  C   UNL A   1      47.134  26.647  29.626  1.00  0.00     0.021 C 
BRANCH  23  24
ATOM     24  C   UNL A   1      47.366  26.289  31.094  1.00  0.00     0.116 C 
BRANCH  24  25
ATOM     25  N   UNL A   1      46.403  25.339  31.613  1.00  0.00    -0.352 N 
ATOM     26  C   UNL A   1      45.039  25.248  31.635  1.00  0.00     0.251 C 
ATOM     27  H   UNL A   1      46.836  24.573  32.056  1.00  0.00     0.163 HD
ATOM     28  O   UNL A   1      44.578  24.204  32.104  1.00  0.00    -0.269 OA
BRANCH  26  29
ATOM     29  C   UNL A   1      44.087  26.312  31.209  1.00  0.00     0.039 A 
ATOM     30  C   UNL A   1      43.369  26.333  30.018  1.00  0.00     0.014 A 
ATOM     31  C   UNL A   1      43.962  27.417  32.079  1.00  0.00     0.014 A 
ATOM     32  C   UNL A   1      42.643  27.468  29.662  1.00  0.00     0.010 A 
ATOM     33  C   UNL A   1      43.216  28.545  31.740  1.00  0.00     0.010 A 
ATOM     34  C   UNL A   1      42.589  28.591  30.505  1.00  0.00    -0.014 A 
BRANCH  34  35
ATOM     35  C   UNL A   1      41.699  29.687  30.113  1.00  0.00     0.031 A 
ATOM     36  C   UNL A   1      42.451  30.902  29.717  1.00  0.00     0.074 A 
ATOM     37  C   UNL A   1      40.348  29.678  30.054  1.00  0.00     0.049 A 
ATOM     38  N   UNL A   1      42.594  31.971  30.425  1.00  0.00    -0.248 NA
ATOM     39  C   UNL A   1      43.277  30.867  28.500  1.00  0.00     0.031 C 
ATOM     40  C   UNL A   1      39.453  28.523  30.139  1.00  0.00     0.029 A 
ATOM     41  N   UNL A   1      39.479  30.719  29.840  1.00  0.00    -0.354 N 
ATOM     42  C   UNL A   1      43.333  32.844  29.638  1.00  0.00     0.074 A 
ATOM     43  C   UNL A   1      43.878  32.058  28.561  1.00  0.00     0.031 C 
ATOM     44  C   UNL A   1      38.205  28.886  29.753  1.00  0.00     0.029 A 
ATOM     45  C   UNL A   1      38.170  30.328  29.566  1.00  0.00     0.049 A 
ATOM     46  H   UNL A   1      39.756  31.662  29.878  1.00  0.00     0.167 HD
ATOM     47  C   UNL A   1      43.153  34.185  29.769  1.00  0.00     0.031 A 
ATOM     48  C   UNL A   1      37.125  31.128  29.233  1.00  0.00     0.031 A 
ATOM     49  C   UNL A   1      42.473  34.503  31.001  1.00  0.00     0.049 A 
ATOM     50  C   UNL A   1      37.383  32.472  29.781  1.00  0.00     0.074 A 
ATOM     51  C   UNL A   1      42.789  34.598  32.337  1.00  0.00     0.029 A 
ATOM     52  N   UNL A   1      41.114  34.377  30.913  1.00  0.00    -0.354 N 
ATOM     53  N   UNL A   1      37.391  32.733  31.056  1.00  0.00    -0.248 NA
ATOM     54  C   UNL A   1      37.920  33.514  28.915  1.00  0.00     0.031 C 
ATOM     55  C   UNL A   1      41.567  34.412  33.056  1.00  0.00     0.029 A 
ATOM     56  C   UNL A   1      40.527  34.264  32.143  1.00  0.00     0.049 A 
ATOM     57  H   UNL A   1      40.617  34.370  30.064  1.00  0.00     0.167 HD
ATOM     58  C   UNL A   1      38.325  33.739  31.176  1.00  0.00     0.074 A 
ATOM     59  C   UNL A   1      38.470  34.302  29.840  1.00  0.00     0.031 C 
ATOM     60  C   UNL A   1      39.162  33.793  32.250  1.00  0.00     0.031 A 
BRANCH  47  61
ATOM     61  C   UNL A   1      43.075  35.118  28.578  1.00  0.00    -0.014 A 
ATOM     62  C   UNL A   1      41.879  35.721  28.141  1.00  0.00     0.009 A 
ATOM     63  C   UNL A   1      44.269  35.643  28.052  1.00  0.00     0.009 A 
ATOM     64  C   UNL A   1      41.867  36.782  27.231  1.00  0.00     0.001 A 
ATOM     65  C   UNL A   1      44.263  36.728  27.163  1.00  0.00     0.001 A 
ATOM     66  C   UNL A   1      43.061  37.295  26.753  1.00  0.00     0.000 A 
ENDBRANCH  47  61
BRANCH  48  67
ATOM     67  C   UNL A   1      36.033  30.927  28.252  1.00  0.00    -0.014 A 
ATOM     68  C   UNL A   1      34.958  31.830  28.216  1.00  0.00     0.009 A 
ATOM     69  C   UNL A   1      35.858  29.677  27.625  1.00  0.00     0.009 A 
ATOM     70  C   UNL A   1      33.730  31.469  27.648  1.00  0.00     0.001 A 
ATOM     71  C   UNL A   1      34.628  29.317  27.056  1.00  0.00     0.001 A 
ATOM     72  C   UNL A   1      33.557  30.205  27.090  1.00  0.00     0.000 A 
ENDBRANCH  48  67
BRANCH  60  73
ATOM     73  C   UNL A   1      38.711  33.181  33.545  1.00  0.00    -0.014 A 
ATOM     74  C   UNL A   1      39.071  31.845  33.779  1.00  0.00     0.009 A 
ATOM     75  C   UNL A   1      37.900  33.830  34.489  1.00  0.00     0.009 A 
ATOM     76  C   UNL A   1      38.618  31.163  34.908  1.00  0.00     0.001 A 
ATOM     77  C   UNL A   1      37.466  33.154  35.636  1.00  0.00     0.001 A 
ATOM     78  C   UNL A   1      37.816  31.819  35.838  1.00  0.00     0.000 A 
ENDBRANCH  60  73
ENDBRANCH  34  35
ENDBRANCH  26  29
ENDBRANCH  24  25
ENDBRANCH  23  24
ENDBRANCH   1  23
TORSDOF 15
ENDMDL
