MODEL 1
REMARK VINA RESULT:     -10.3      0.000      0.000
REMARK SMILES C[C@H](c1ccc(Br)s1)[NH+]1CCC(CC(=O)NCCCCCCNC(=O)c2ccc(-c3c4nc(c(-c5ccccc5)c5ccc([nH]5)c(-c5ccccc5)c5nc(c(-c6ccccc6)c6ccc3[nH]6)C=C5)C=C4)cc2)CC1
REMARK SMILES IDX 19 1 18 2 17 3 16 4 14 5 15 6 13 8 12 9 9 10 10 11 75 12
REMARK SMILES IDX 11 14 74 15 2 16 1 17 3 18 4 19 8 20 5 21 6 22 7 23 20 24
REMARK SMILES IDX 21 25 22 26 23 27 24 28 25 30 26 31 27 32 73 33 28 34 72 35
REMARK SMILES IDX 29 36 30 37 31 38 66 39 32 40 71 41 65 42 67 43 33 44 70 45
REMARK SMILES IDX 64 46 63 47 34 49 56 50 41 51 55 52 42 53 45 54 54 55 68 56
REMARK SMILES IDX 43 57 44 58 53 60 69 61 46 62 35 63 36 64 40 65 37 66 39 67
REMARK SMILES IDX 38 68 57 69 58 70 62 71 59 72 61 73 60 74 47 75 48 76 52 77
REMARK SMILES IDX 49 78 51 79 50 80
REMARK H PARENT 16 7 9 13 23 29 67 48 45 59
REMARK Flexibility Score: inf
ROOT
ATOM      1  C   UNL A   1      34.607  33.045  29.309  1.00  0.00     0.002 C 
ENDROOT
BRANCH   1   2
ATOM      2  C   UNL A   1      34.889  31.962  28.270  1.00  0.00     0.021 C 
BRANCH   2   3
ATOM      3  C   UNL A   1      33.700  31.609  27.365  1.00  0.00     0.116 C 
BRANCH   3   4
ATOM      4  N   UNL A   1      33.165  30.294  27.686  1.00  0.00    -0.356 N 
ATOM      5  C   UNL A   1      32.179  29.562  27.088  1.00  0.00     0.220 C 
ATOM      6  O   UNL A   1      31.846  28.497  27.611  1.00  0.00    -0.275 OA
ATOM      7  H   UNL A   1      33.582  29.861  28.465  1.00  0.00     0.163 HD
BRANCH   5   8
ATOM      8  C   UNL A   1      31.505  30.047  25.813  1.00  0.00     0.104 C 
BRANCH   8   9
ATOM      9  C   UNL A   1      31.933  29.281  24.546  1.00  0.00     0.009 C 
ATOM     10  N   UNL A   1      33.082  26.766  23.529  1.00  0.00    -0.328 N 
ATOM     11  C   UNL A   1      33.875  27.987  23.485  1.00  0.00     0.263 C 
ATOM     12  C   UNL A   1      31.656  27.059  23.309  1.00  0.00     0.263 C 
ATOM     13  H   UNL A   1      33.187  26.409  24.479  1.00  0.00     0.348 HD
ATOM     14  C   UNL A   1      33.416  28.929  24.584  1.00  0.00     0.066 C 
ATOM     15  C   UNL A   1      31.100  28.001  24.384  1.00  0.00     0.066 C 
BRANCH  10  16
ATOM     16  C   UNL A   1      33.591  25.633  22.722  1.00  0.00     0.222 C 
ATOM     17  C   UNL A   1      32.705  25.272  21.515  1.00  0.00     0.082 C 
BRANCH  16  18
ATOM     18  C   UNL A   1      33.910  24.382  23.519  1.00  0.00     0.063 A 
ATOM     19  C   UNL A   1      34.228  23.106  23.085  1.00  0.00     0.023 A 
ATOM     20  S   UNL A   1      33.884  24.455  25.241  1.00  0.00    -0.127 S 
ATOM     21  C   UNL A   1      34.372  22.182  24.162  1.00  0.00     0.028 A 
ATOM     22  C   UNL A   1      34.207  22.802  25.373  1.00  0.00     0.070 A 
ATOM     23  Br  UNL A   1      34.318  21.912  27.016  1.00  0.00    -0.039 Br
ENDBRANCH  16  18
ENDBRANCH  10  16
ENDBRANCH   8   9
ENDBRANCH   5   8
ENDBRANCH   3   4
ENDBRANCH   2   3
ENDBRANCH   1   2
BRANCH   1  24
ATOM     24  C   UNL A   1      34.458  34.459  28.742  1.00  0.00     0.002 C 
BRANCH  24  25
ATOM     25  C   UNL A   1      33.133  35.164  29.055  1.00  0.00     0.021 C 
BRANCH  25  26
ATOM     26  C   UNL A   1      33.256  36.482  29.816  1.00  0.00     0.116 C 
BRANCH  26  27
ATOM     27  N   UNL A   1      32.439  36.499  31.018  1.00  0.00    -0.352 N 
ATOM     28  C   UNL A   1      32.560  35.769  32.174  1.00  0.00     0.251 C 
ATOM     29  H   UNL A   1      31.682  37.129  31.001  1.00  0.00     0.163 HD
ATOM     30  O   UNL A   1      31.651  35.758  32.996  1.00  0.00    -0.269 OA
BRANCH  28  31
ATOM     31  C   UNL A   1      33.786  34.982  32.430  1.00  0.00     0.039 A 
ATOM     32  C   UNL A   1      35.030  35.597  32.263  1.00  0.00     0.014 A 
ATOM     33  C   UNL A   1      33.711  33.635  32.797  1.00  0.00     0.014 A 
ATOM     34  C   UNL A   1      36.199  34.876  32.517  1.00  0.00     0.010 A 
ATOM     35  C   UNL A   1      34.875  32.937  33.111  1.00  0.00     0.010 A 
ATOM     36  C   UNL A   1      36.130  33.548  32.969  1.00  0.00    -0.014 A 
BRANCH  36  37
ATOM     37  C   UNL A   1      37.361  32.784  33.296  1.00  0.00     0.031 A 
ATOM     38  C   UNL A   1      38.098  33.047  34.579  1.00  0.00     0.074 A 
ATOM     39  C   UNL A   1      37.848  31.894  32.409  1.00  0.00     0.049 A 
ATOM     40  N   UNL A   1      39.218  32.523  35.011  1.00  0.00    -0.248 NA
ATOM     41  C   UNL A   1      37.515  34.050  35.486  1.00  0.00     0.031 C 
ATOM     42  C   UNL A   1      37.248  31.573  31.113  1.00  0.00     0.029 A 
ATOM     43  N   UNL A   1      38.967  31.102  32.463  1.00  0.00    -0.354 N 
ATOM     44  C   UNL A   1      39.481  33.141  36.227  1.00  0.00     0.074 A 
ATOM     45  C   UNL A   1      38.430  34.111  36.444  1.00  0.00     0.031 C 
ATOM     46  C   UNL A   1      37.992  30.635  30.505  1.00  0.00     0.029 A 
ATOM     47  C   UNL A   1      39.139  30.317  31.348  1.00  0.00     0.049 A 
ATOM     48  H   UNL A   1      39.587  31.097  33.227  1.00  0.00     0.167 HD
ATOM     49  C   UNL A   1      40.496  32.912  37.093  1.00  0.00     0.031 A 
ATOM     50  C   UNL A   1      40.115  29.443  31.038  1.00  0.00     0.031 A 
ATOM     51  C   UNL A   1      41.535  31.938  36.885  1.00  0.00     0.049 A 
ATOM     52  C   UNL A   1      41.235  29.212  32.014  1.00  0.00     0.074 A 
ATOM     53  C   UNL A   1      42.574  31.592  37.732  1.00  0.00     0.029 A 
ATOM     54  N   UNL A   1      41.667  31.156  35.749  1.00  0.00    -0.354 N 
ATOM     55  N   UNL A   1      41.432  29.757  33.189  1.00  0.00    -0.248 NA
ATOM     56  C   UNL A   1      42.260  28.233  31.623  1.00  0.00     0.031 C 
ATOM     57  C   UNL A   1      43.362  30.633  37.087  1.00  0.00     0.029 A 
ATOM     58  C   UNL A   1      42.783  30.344  35.862  1.00  0.00     0.049 A 
ATOM     59  H   UNL A   1      41.057  31.175  34.976  1.00  0.00     0.167 HD
ATOM     60  C   UNL A   1      42.586  29.169  33.690  1.00  0.00     0.074 A 
ATOM     61  C   UNL A   1      43.036  28.215  32.696  1.00  0.00     0.031 C 
ATOM     62  C   UNL A   1      43.217  29.400  34.866  1.00  0.00     0.031 A 
BRANCH  49  63
ATOM     63  C   UNL A   1      40.536  33.738  38.349  1.00  0.00    -0.014 A 
ATOM     64  C   UNL A   1      39.899  33.304  39.523  1.00  0.00     0.009 A 
ATOM     65  C   UNL A   1      41.252  34.945  38.370  1.00  0.00     0.009 A 
ATOM     66  C   UNL A   1      39.949  34.082  40.683  1.00  0.00     0.001 A 
ATOM     67  C   UNL A   1      41.322  35.705  39.538  1.00  0.00     0.001 A 
ATOM     68  C   UNL A   1      40.664  35.278  40.691  1.00  0.00     0.000 A 
ENDBRANCH  49  63
BRANCH  50  69
ATOM     69  C   UNL A   1      40.072  28.706  29.748  1.00  0.00    -0.014 A 
ATOM     70  C   UNL A   1      39.476  27.437  29.674  1.00  0.00     0.009 A 
ATOM     71  C   UNL A   1      40.632  29.263  28.587  1.00  0.00     0.009 A 
ATOM     72  C   UNL A   1      39.467  26.730  28.470  1.00  0.00     0.001 A 
ATOM     73  C   UNL A   1      40.596  28.564  27.379  1.00  0.00     0.001 A 
ATOM     74  C   UNL A   1      40.023  27.294  27.323  1.00  0.00     0.000 A 
ENDBRANCH  50  69
BRANCH  62  75
ATOM     75  C   UNL A   1      44.441  28.580  35.160  1.00  0.00    -0.014 A 
ATOM     76  C   UNL A   1      44.348  27.332  35.794  1.00  0.00     0.009 A 
ATOM     77  C   UNL A   1      45.702  29.049  34.758  1.00  0.00     0.009 A 
ATOM     78  C   UNL A   1      45.499  26.584  36.051  1.00  0.00     0.001 A 
ATOM     79  C   UNL A   1      46.847  28.286  34.991  1.00  0.00     0.001 A 
ATOM     80  C   UNL A   1      46.747  27.059  35.644  1.00  0.00     0.000 A 
ENDBRANCH  62  75
ENDBRANCH  36  37
ENDBRANCH  28  31
ENDBRANCH  26  27
ENDBRANCH  25  26
ENDBRANCH  24  25
ENDBRANCH   1  24
TORSDOF 16
ENDMDL
MODEL 2
REMARK VINA RESULT:     -10.2      2.051      6.625
REMARK SMILES C[C@H](c1ccc(Br)s1)[NH+]1CCC(CC(=O)NCCCCCCNC(=O)c2ccc(-c3c4nc(c(-c5ccccc5)c5ccc([nH]5)c(-c5ccccc5)c5nc(c(-c6ccccc6)c6ccc3[nH]6)C=C5)C=C4)cc2)CC1
REMARK SMILES IDX 19 1 18 2 17 3 16 4 14 5 15 6 13 8 12 9 9 10 10 11 75 12
REMARK SMILES IDX 11 14 74 15 2 16 1 17 3 18 4 19 8 20 5 21 6 22 7 23 20 24
REMARK SMILES IDX 21 25 22 26 23 27 24 28 25 30 26 31 27 32 73 33 28 34 72 35
REMARK SMILES IDX 29 36 30 37 31 38 66 39 32 40 71 41 65 42 67 43 33 44 70 45
REMARK SMILES IDX 64 46 63 47 34 49 56 50 41 51 55 52 42 53 45 54 54 55 68 56
REMARK SMILES IDX 43 57 44 58 53 60 69 61 46 62 35 63 36 64 40 65 37 66 39 67
REMARK SMILES IDX 38 68 57 69 58 70 62 71 59 72 61 73 60 74 47 75 48 76 52 77
REMARK SMILES IDX 49 78 51 79 50 80
REMARK H PARENT 16 7 9 13 23 29 67 48 45 59
REMARK Flexibility Score: inf
ROOT
ATOM      1  C   UNL A   1      32.023  29.531  26.452  1.00  0.00     0.002 C 
ENDROOT
BRANCH   1   2
ATOM      2  C   UNL A   1      31.859  28.298  25.567  1.00  0.00     0.021 C 
BRANCH   2   3
ATOM      3  C   UNL A   1      32.254  26.970  26.227  1.00  0.00     0.116 C 
BRANCH   3   4
ATOM      4  N   UNL A   1      31.089  26.277  26.757  1.00  0.00    -0.356 N 
ATOM      5  C   UNL A   1      30.068  25.632  26.120  1.00  0.00     0.220 C 
ATOM      6  O   UNL A   1      29.140  25.194  26.802  1.00  0.00    -0.275 OA
ATOM      7  H   UNL A   1      31.026  26.274  27.739  1.00  0.00     0.163 HD
BRANCH   5   8
ATOM      8  C   UNL A   1      30.071  25.460  24.608  1.00  0.00     0.104 C 
BRANCH   8   9
ATOM      9  C   UNL A   1      30.831  24.211  24.119  1.00  0.00     0.009 C 
ATOM     10  N   UNL A   1      33.339  22.682  24.342  1.00  0.00    -0.328 N 
ATOM     11  C   UNL A   1      33.053  23.418  23.118  1.00  0.00     0.263 C 
ATOM     12  C   UNL A   1      32.101  22.145  24.930  1.00  0.00     0.263 C 
ATOM     13  H   UNL A   1      33.722  23.371  24.989  1.00  0.00     0.348 HD
ATOM     14  C   UNL A   1      32.139  24.589  23.433  1.00  0.00     0.066 C 
ATOM     15  C   UNL A   1      31.116  23.262  25.293  1.00  0.00     0.066 C 
BRANCH  10  16
ATOM     16  C   UNL A   1      34.441  21.695  24.262  1.00  0.00     0.222 C 
ATOM     17  C   UNL A   1      34.071  20.296  24.788  1.00  0.00     0.082 C 
BRANCH  16  18
ATOM     18  C   UNL A   1      35.746  22.152  24.886  1.00  0.00     0.063 A 
ATOM     19  C   UNL A   1      36.141  23.412  25.302  1.00  0.00     0.023 A 
ATOM     20  S   UNL A   1      36.999  20.998  25.149  1.00  0.00    -0.127 S 
ATOM     21  C   UNL A   1      37.492  23.439  25.759  1.00  0.00     0.028 A 
ATOM     22  C   UNL A   1      38.054  22.189  25.720  1.00  0.00     0.070 A 
ATOM     23  Br  UNL A   1      39.816  21.827  26.238  1.00  0.00    -0.039 Br
ENDBRANCH  16  18
ENDBRANCH  10  16
ENDBRANCH   8   9
ENDBRANCH   5   8
ENDBRANCH   3   4
ENDBRANCH   2   3
ENDBRANCH   1   2
BRANCH   1  24
ATOM     24  C   UNL A   1      31.494  30.834  25.848  1.00  0.00     0.002 C 
BRANCH  24  25
ATOM     25  C   UNL A   1      31.364  32.013  26.819  1.00  0.00     0.021 C 
BRANCH  25  26
ATOM     26  C   UNL A   1      32.666  32.745  27.140  1.00  0.00     0.116 C 
BRANCH  26  27
ATOM     27  N   UNL A   1      32.431  34.101  27.608  1.00  0.00    -0.352 N 
ATOM     28  C   UNL A   1      33.017  34.789  28.641  1.00  0.00     0.251 C 
ATOM     29  H   UNL A   1      31.746  34.603  27.109  1.00  0.00     0.163 HD
ATOM     30  O   UNL A   1      32.537  35.848  29.028  1.00  0.00    -0.269 OA
BRANCH  28  31
ATOM     31  C   UNL A   1      34.226  34.249  29.300  1.00  0.00     0.039 A 
ATOM     32  C   UNL A   1      34.084  33.542  30.497  1.00  0.00     0.014 A 
ATOM     33  C   UNL A   1      35.497  34.471  28.761  1.00  0.00     0.014 A 
ATOM     34  C   UNL A   1      35.212  33.009  31.125  1.00  0.00     0.010 A 
ATOM     35  C   UNL A   1      36.613  33.887  29.355  1.00  0.00     0.010 A 
ATOM     36  C   UNL A   1      36.483  33.155  30.544  1.00  0.00    -0.014 A 
BRANCH  36  37
ATOM     37  C   UNL A   1      37.686  32.549  31.170  1.00  0.00     0.031 A 
ATOM     38  C   UNL A   1      38.324  31.330  30.563  1.00  0.00     0.074 A 
ATOM     39  C   UNL A   1      38.169  33.061  32.319  1.00  0.00     0.049 A 
ATOM     40  N   UNL A   1      39.342  30.629  30.996  1.00  0.00    -0.248 NA
ATOM     41  C   UNL A   1      37.726  30.817  29.320  1.00  0.00     0.031 C 
ATOM     42  C   UNL A   1      37.620  34.218  33.029  1.00  0.00     0.029 A 
ATOM     43  N   UNL A   1      39.229  32.667  33.096  1.00  0.00    -0.354 N 
ATOM     44  C   UNL A   1      39.494  29.585  30.091  1.00  0.00     0.074 A 
ATOM     45  C   UNL A   1      38.439  29.719  29.111  1.00  0.00     0.031 C 
ATOM     46  C   UNL A   1      38.361  34.453  34.124  1.00  0.00     0.029 A 
ATOM     47  C   UNL A   1      39.411  33.445  34.213  1.00  0.00     0.049 A 
ATOM     48  H   UNL A   1      39.804  31.899  32.873  1.00  0.00     0.167 HD
ATOM     49  C   UNL A   1      40.437  28.614  30.068  1.00  0.00     0.031 A 
ATOM     50  C   UNL A   1      40.319  33.353  35.203  1.00  0.00     0.031 A 
ATOM     51  C   UNL A   1      41.495  28.488  31.034  1.00  0.00     0.049 A 
ATOM     52  C   UNL A   1      41.351  32.260  35.157  1.00  0.00     0.074 A 
ATOM     53  C   UNL A   1      42.533  27.571  31.062  1.00  0.00     0.029 A 
ATOM     54  N   UNL A   1      41.651  29.302  32.144  1.00  0.00    -0.354 N 
ATOM     55  N   UNL A   1      41.521  31.322  34.258  1.00  0.00    -0.248 NA
ATOM     56  C   UNL A   1      42.324  32.224  36.259  1.00  0.00     0.031 C 
ATOM     57  C   UNL A   1      43.289  27.803  32.216  1.00  0.00     0.029 A 
ATOM     58  C   UNL A   1      42.754  28.896  32.876  1.00  0.00     0.049 A 
ATOM     59  H   UNL A   1      41.065  30.058  32.377  1.00  0.00     0.167 HD
ATOM     60  C   UNL A   1      42.634  30.601  34.670  1.00  0.00     0.074 A 
ATOM     61  C   UNL A   1      43.107  31.221  35.891  1.00  0.00     0.031 C 
ATOM     62  C   UNL A   1      43.212  29.523  34.088  1.00  0.00     0.031 A 
BRANCH  49  63
ATOM     63  C   UNL A   1      40.361  27.601  28.959  1.00  0.00    -0.014 A 
ATOM     64  C   UNL A   1      39.640  26.406  29.115  1.00  0.00     0.009 A 
ATOM     65  C   UNL A   1      40.985  27.863  27.729  1.00  0.00     0.009 A 
ATOM     66  C   UNL A   1      39.576  25.477  28.073  1.00  0.00     0.001 A 
ATOM     67  C   UNL A   1      40.896  26.945  26.681  1.00  0.00     0.001 A 
ATOM     68  C   UNL A   1      40.200  25.749  26.857  1.00  0.00     0.000 A 
ENDBRANCH  49  63
BRANCH  50  69
ATOM     69  C   UNL A   1      40.306  34.334  36.319  1.00  0.00    -0.014 A 
ATOM     70  C   UNL A   1      39.547  34.086  37.474  1.00  0.00     0.009 A 
ATOM     71  C   UNL A   1      41.043  35.526  36.234  1.00  0.00     0.009 A 
ATOM     72  C   UNL A   1      39.506  35.024  38.508  1.00  0.00     0.001 A 
ATOM     73  C   UNL A   1      41.021  36.448  37.281  1.00  0.00     0.001 A 
ATOM     74  C   UNL A   1      40.244  36.202  38.413  1.00  0.00     0.000 A 
ENDBRANCH  50  69
BRANCH  62  75
ATOM     75  C   UNL A   1      44.443  28.967  34.746  1.00  0.00    -0.014 A 
ATOM     76  C   UNL A   1      44.353  28.047  35.802  1.00  0.00     0.009 A 
ATOM     77  C   UNL A   1      45.711  29.340  34.274  1.00  0.00     0.009 A 
ATOM     78  C   UNL A   1      45.510  27.538  36.395  1.00  0.00     0.001 A 
ATOM     79  C   UNL A   1      46.865  28.807  34.849  1.00  0.00     0.001 A 
ATOM     80  C   UNL A   1      46.765  27.915  35.915  1.00  0.00     0.000 A 
ENDBRANCH  62  75
ENDBRANCH  36  37
ENDBRANCH  28  31
ENDBRANCH  26  27
ENDBRANCH  25  26
ENDBRANCH  24  25
ENDBRANCH   1  24
TORSDOF 16
ENDMDL
MODEL 3
REMARK VINA RESULT:     -10.2      0.339      5.959
REMARK SMILES C[C@H](c1ccc(Br)s1)[NH+]1CCC(CC(=O)NCCCCCCNC(=O)c2ccc(-c3c4nc(c(-c5ccccc5)c5ccc([nH]5)c(-c5ccccc5)c5nc(c(-c6ccccc6)c6ccc3[nH]6)C=C5)C=C4)cc2)CC1
REMARK SMILES IDX 19 1 18 2 17 3 16 4 14 5 15 6 13 8 12 9 9 10 10 11 75 12
REMARK SMILES IDX 11 14 74 15 2 16 1 17 3 18 4 19 8 20 5 21 6 22 7 23 20 24
REMARK SMILES IDX 21 25 22 26 23 27 24 28 25 30 26 31 27 32 73 33 28 34 72 35
REMARK SMILES IDX 29 36 30 37 31 38 66 39 32 40 71 41 65 42 67 43 33 44 70 45
REMARK SMILES IDX 64 46 63 47 34 49 56 50 41 51 55 52 42 53 45 54 54 55 68 56
REMARK SMILES IDX 43 57 44 58 53 60 69 61 46 62 35 63 36 64 40 65 37 66 39 67
REMARK SMILES IDX 38 68 57 69 58 70 62 71 59 72 61 73 60 74 47 75 48 76 52 77
REMARK SMILES IDX 49 78 51 79 50 80
REMARK H PARENT 16 7 9 13 23 29 67 48 45 59
REMARK Flexibility Score: inf
ROOT
ATOM      1  C   UNL A   1      34.866  32.760  29.233  1.00  0.00     0.002 C 
ENDROOT
BRANCH   1   2
ATOM      2  C   UNL A   1      35.024  31.566  28.294  1.00  0.00     0.021 C 
BRANCH   2   3
ATOM      3  C   UNL A   1      33.839  31.325  27.349  1.00  0.00     0.116 C 
BRANCH   3   4
ATOM      4  N   UNL A   1      33.122  30.109  27.701  1.00  0.00    -0.356 N 
ATOM      5  C   UNL A   1      32.059  29.495  27.103  1.00  0.00     0.220 C 
ATOM      6  O   UNL A   1      31.571  28.507  27.654  1.00  0.00    -0.275 OA
ATOM      7  H   UNL A   1      33.459  29.653  28.505  1.00  0.00     0.163 HD
BRANCH   5   8
ATOM      8  C   UNL A   1      31.486  30.019  25.794  1.00  0.00     0.104 C 
BRANCH   8   9
ATOM      9  C   UNL A   1      32.012  29.289  24.542  1.00  0.00     0.009 C 
ATOM     10  N   UNL A   1      33.053  26.735  23.508  1.00  0.00    -0.328 N 
ATOM     11  C   UNL A   1      33.953  27.870  23.654  1.00  0.00     0.263 C 
ATOM     12  C   UNL A   1      31.704  27.182  23.125  1.00  0.00     0.263 C 
ATOM     13  H   UNL A   1      32.994  26.314  24.435  1.00  0.00     0.348 HD
ATOM     14  C   UNL A   1      33.437  28.788  24.748  1.00  0.00     0.066 C 
ATOM     15  C   UNL A   1      31.094  28.110  24.182  1.00  0.00     0.066 C 
BRANCH  10  16
ATOM     16  C   UNL A   1      33.562  25.605  22.695  1.00  0.00     0.222 C 
ATOM     17  C   UNL A   1      32.667  25.239  21.496  1.00  0.00     0.082 C 
BRANCH  16  18
ATOM     18  C   UNL A   1      33.896  24.356  23.488  1.00  0.00     0.063 A 
ATOM     19  C   UNL A   1      34.239  23.087  23.050  1.00  0.00     0.023 A 
ATOM     20  S   UNL A   1      33.858  24.420  25.210  1.00  0.00    -0.127 S 
ATOM     21  C   UNL A   1      34.391  22.161  24.124  1.00  0.00     0.028 A 
ATOM     22  C   UNL A   1      34.207  22.772  25.337  1.00  0.00     0.070 A 
ATOM     23  Br  UNL A   1      34.322  21.878  26.977  1.00  0.00    -0.039 Br
ENDBRANCH  16  18
ENDBRANCH  10  16
ENDBRANCH   8   9
ENDBRANCH   5   8
ENDBRANCH   3   4
ENDBRANCH   2   3
ENDBRANCH   1   2
BRANCH   1  24
ATOM     24  C   UNL A   1      34.638  34.103  28.534  1.00  0.00     0.002 C 
BRANCH  24  25
ATOM     25  C   UNL A   1      33.300  34.789  28.834  1.00  0.00     0.021 C 
BRANCH  25  26
ATOM     26  C   UNL A   1      33.394  36.092  29.626  1.00  0.00     0.116 C 
BRANCH  26  27
ATOM     27  N   UNL A   1      32.480  36.112  30.757  1.00  0.00    -0.352 N 
ATOM     28  C   UNL A   1      32.573  35.484  31.974  1.00  0.00     0.251 C 
ATOM     29  H   UNL A   1      31.671  36.659  30.631  1.00  0.00     0.163 HD
ATOM     30  O   UNL A   1      31.602  35.441  32.721  1.00  0.00    -0.269 OA
BRANCH  28  31
ATOM     31  C   UNL A   1      33.843  34.847  32.386  1.00  0.00     0.039 A 
ATOM     32  C   UNL A   1      33.810  33.552  32.908  1.00  0.00     0.014 A 
ATOM     33  C   UNL A   1      35.055  35.537  32.292  1.00  0.00     0.014 A 
ATOM     34  C   UNL A   1      35.000  32.927  33.287  1.00  0.00     0.010 A 
ATOM     35  C   UNL A   1      36.247  34.890  32.611  1.00  0.00     0.010 A 
ATOM     36  C   UNL A   1      36.231  33.581  33.116  1.00  0.00    -0.014 A 
BRANCH  36  37
ATOM     37  C   UNL A   1      37.510  32.912  33.462  1.00  0.00     0.031 A 
ATOM     38  C   UNL A   1      38.118  31.906  32.523  1.00  0.00     0.074 A 
ATOM     39  C   UNL A   1      38.095  33.164  34.649  1.00  0.00     0.049 A 
ATOM     40  N   UNL A   1      39.196  31.179  32.678  1.00  0.00    -0.248 NA
ATOM     41  C   UNL A   1      37.409  31.668  31.256  1.00  0.00     0.031 C 
ATOM     42  C   UNL A   1      37.588  34.090  35.664  1.00  0.00     0.029 A 
ATOM     43  N   UNL A   1      39.242  32.656  35.205  1.00  0.00    -0.354 N 
ATOM     44  C   UNL A   1      39.284  30.387  31.539  1.00  0.00     0.074 A 
ATOM     45  C   UNL A   1      38.129  30.690  30.723  1.00  0.00     0.031 C 
ATOM     46  C   UNL A   1      38.432  34.101  36.708  1.00  0.00     0.029 A 
ATOM     47  C   UNL A   1      39.516  33.158  36.454  1.00  0.00     0.049 A 
ATOM     48  H   UNL A   1      39.813  31.995  34.752  1.00  0.00     0.167 HD
ATOM     49  C   UNL A   1      40.248  29.501  31.195  1.00  0.00     0.031 A 
ATOM     50  C   UNL A   1      40.525  32.885  37.303  1.00  0.00     0.031 A 
ATOM     51  C   UNL A   1      41.405  29.208  31.999  1.00  0.00     0.049 A 
ATOM     52  C   UNL A   1      41.578  31.891  36.900  1.00  0.00     0.074 A 
ATOM     53  C   UNL A   1      42.467  28.368  31.708  1.00  0.00     0.029 A 
ATOM     54  N   UNL A   1      41.652  29.746  33.251  1.00  0.00    -0.354 N 
ATOM     55  N   UNL A   1      41.682  31.202  35.791  1.00  0.00    -0.248 NA
ATOM     56  C   UNL A   1      42.662  31.650  37.864  1.00  0.00     0.031 C 
ATOM     57  C   UNL A   1      43.332  28.363  32.807  1.00  0.00     0.029 A 
ATOM     58  C   UNL A   1      42.837  29.239  33.758  1.00  0.00     0.049 A 
ATOM     59  H   UNL A   1      41.070  30.393  33.713  1.00  0.00     0.167 HD
ATOM     60  C   UNL A   1      42.853  30.466  35.910  1.00  0.00     0.074 A 
ATOM     61  C   UNL A   1      43.432  30.805  37.194  1.00  0.00     0.031 C 
ATOM     62  C   UNL A   1      43.400  29.587  35.035  1.00  0.00     0.031 A 
BRANCH  49  63
ATOM     63  C   UNL A   1      40.087  28.775  29.888  1.00  0.00    -0.014 A 
ATOM     64  C   UNL A   1      40.522  29.346  28.681  1.00  0.00     0.009 A 
ATOM     65  C   UNL A   1      39.530  27.487  29.868  1.00  0.00     0.009 A 
ATOM     66  C   UNL A   1      40.369  28.657  27.476  1.00  0.00     0.001 A 
ATOM     67  C   UNL A   1      39.404  26.789  28.665  1.00  0.00     0.001 A 
ATOM     68  C   UNL A   1      39.815  27.378  27.469  1.00  0.00     0.000 A 
ENDBRANCH  49  63
BRANCH  50  69
ATOM     69  C   UNL A   1      40.598  33.573  38.618  1.00  0.00    -0.014 A 
ATOM     70  C   UNL A   1      39.961  33.027  39.743  1.00  0.00     0.009 A 
ATOM     71  C   UNL A   1      41.298  34.783  38.755  1.00  0.00     0.009 A 
ATOM     72  C   UNL A   1      39.999  33.693  40.970  1.00  0.00     0.001 A 
ATOM     73  C   UNL A   1      41.358  35.431  39.990  1.00  0.00     0.001 A 
ATOM     74  C   UNL A   1      40.700  34.891  41.094  1.00  0.00     0.000 A 
ENDBRANCH  50  69
BRANCH  62  75
ATOM     75  C   UNL A   1      44.708  28.959  35.422  1.00  0.00    -0.014 A 
ATOM     76  C   UNL A   1      45.932  29.570  35.109  1.00  0.00     0.009 A 
ATOM     77  C   UNL A   1      44.713  27.756  36.147  1.00  0.00     0.009 A 
ATOM     78  C   UNL A   1      47.136  28.972  35.484  1.00  0.00     0.001 A 
ATOM     79  C   UNL A   1      45.917  27.176  36.546  1.00  0.00     0.001 A 
ATOM     80  C   UNL A   1      47.128  27.778  36.207  1.00  0.00     0.000 A 
ENDBRANCH  62  75
ENDBRANCH  36  37
ENDBRANCH  28  31
ENDBRANCH  26  27
ENDBRANCH  25  26
ENDBRANCH  24  25
ENDBRANCH   1  24
TORSDOF 16
ENDMDL
