MODEL 1
REMARK VINA RESULT:      -9.7      0.000      0.000
REMARK SMILES CC(C)COc1ccc(CC(=O)NCCCCCCNC(=O)c2ccc(-c3c4nc(c(-c5ccccc5)c5ccc([nH]5)c(-c5ccccc5)c5nc(c(-c6ccccc6)c6ccc3[nH]6)C=C5)C=C4)cc2)cc1
REMARK SMILES IDX 15 1 14 2 13 3 11 4 12 5 10 7 9 8 6 9 7 10 72 11 8 12 71 13
REMARK SMILES IDX 5 14 4 15 2 16 1 17 3 18 16 19 17 20 18 21 19 22 20 23 21 24
REMARK SMILES IDX 22 26 23 27 24 28 70 29 25 30 69 31 26 32 27 33 28 34 63 35
REMARK SMILES IDX 29 36 68 37 62 38 64 39 30 40 67 41 61 42 60 43 31 45 53 46
REMARK SMILES IDX 38 47 52 48 39 49 42 50 51 51 65 52 40 53 41 54 50 56 66 57
REMARK SMILES IDX 43 58 32 59 33 60 37 61 34 62 36 63 35 64 54 65 55 66 59 67
REMARK SMILES IDX 56 68 58 69 57 70 44 71 45 72 49 73 46 74 48 75 47 76
REMARK H PARENT 13 6 20 25 64 44 42 55
REMARK Flexibility Score: inf
ROOT
ATOM      1  C   UNL A   1      34.813  21.268  25.843  1.00  0.00     0.021 C 
ENDROOT
BRANCH   1   2
ATOM      2  C   UNL A   1      34.409  20.392  24.653  1.00  0.00     0.116 C 
BRANCH   2   3
ATOM      3  N   UNL A   1      33.159  20.845  24.070  1.00  0.00    -0.356 N 
ATOM      4  C   UNL A   1      32.855  22.025  23.457  1.00  0.00     0.224 C 
ATOM      5  O   UNL A   1      31.676  22.238  23.165  1.00  0.00    -0.275 OA
ATOM      6  H   UNL A   1      32.417  20.201  24.125  1.00  0.00     0.163 HD
BRANCH   4   7
ATOM      7  C   UNL A   1      33.948  23.004  23.069  1.00  0.00     0.135 C 
BRANCH   7   8
ATOM      8  C   UNL A   1      33.762  24.421  23.553  1.00  0.00    -0.038 A 
ATOM      9  C   UNL A   1      33.686  27.131  24.305  1.00  0.00     0.119 A 
ATOM     10  C   UNL A   1      33.943  26.138  25.253  1.00  0.00     0.047 A 
ATOM     11  C   UNL A   1      33.339  26.751  23.015  1.00  0.00     0.047 A 
ATOM     12  C   UNL A   1      33.954  24.786  24.889  1.00  0.00     0.008 A 
ATOM     13  C   UNL A   1      33.395  25.410  22.634  1.00  0.00     0.008 A 
BRANCH   9  14
ATOM     14  O   UNL A   1      33.888  28.414  24.728  1.00  0.00    -0.493 OA
BRANCH  14  15
ATOM     15  C   UNL A   1      32.765  29.207  25.120  1.00  0.00     0.232 C 
BRANCH  15  16
ATOM     16  C   UNL A   1      32.685  29.452  26.643  1.00  0.00     0.020 C 
ATOM     17  C   UNL A   1      31.781  28.469  27.389  1.00  0.00     0.011 C 
ATOM     18  C   UNL A   1      34.092  29.374  27.242  1.00  0.00     0.011 C 
ENDBRANCH  15  16
ENDBRANCH  14  15
ENDBRANCH   9  14
ENDBRANCH   7   8
ENDBRANCH   4   7
ENDBRANCH   2   3
ENDBRANCH   1   2
BRANCH   1  19
ATOM     19  C   UNL A   1      36.227  21.857  25.740  1.00  0.00     0.002 C 
BRANCH  19  20
ATOM     20  C   UNL A   1      37.033  21.406  24.518  1.00  0.00     0.002 C 
BRANCH  20  21
ATOM     21  C   UNL A   1      37.897  20.164  24.742  1.00  0.00     0.021 C 
BRANCH  21  22
ATOM     22  C   UNL A   1      38.860  20.266  25.920  1.00  0.00     0.116 C 
BRANCH  22  23
ATOM     23  N   UNL A   1      39.868  19.216  25.900  1.00  0.00    -0.352 N 
ATOM     24  C   UNL A   1      41.232  19.316  26.005  1.00  0.00     0.251 C 
ATOM     25  H   UNL A   1      39.520  18.301  25.796  1.00  0.00     0.163 HD
ATOM     26  O   UNL A   1      41.945  18.341  25.773  1.00  0.00    -0.269 OA
BRANCH  24  27
ATOM     27  C   UNL A   1      41.851  20.605  26.377  1.00  0.00     0.039 A 
ATOM     28  C   UNL A   1      42.211  21.500  25.368  1.00  0.00     0.014 A 
ATOM     29  C   UNL A   1      42.073  20.931  27.718  1.00  0.00     0.014 A 
ATOM     30  C   UNL A   1      42.737  22.749  25.707  1.00  0.00     0.010 A 
ATOM     31  C   UNL A   1      42.524  22.203  28.056  1.00  0.00     0.010 A 
ATOM     32  C   UNL A   1      42.861  23.126  27.054  1.00  0.00    -0.014 A 
BRANCH  32  33
ATOM     33  C   UNL A   1      43.338  24.480  27.435  1.00  0.00     0.031 A 
ATOM     34  C   UNL A   1      42.357  25.539  27.860  1.00  0.00     0.074 A 
ATOM     35  C   UNL A   1      44.651  24.774  27.347  1.00  0.00     0.049 A 
ATOM     36  N   UNL A   1      42.578  26.792  28.169  1.00  0.00    -0.248 NA
ATOM     37  C   UNL A   1      40.940  25.144  27.927  1.00  0.00     0.031 C 
ATOM     38  C   UNL A   1      45.703  23.845  26.924  1.00  0.00     0.029 A 
ATOM     39  N   UNL A   1      45.325  25.941  27.606  1.00  0.00    -0.354 N 
ATOM     40  C   UNL A   1      41.332  27.333  28.463  1.00  0.00     0.074 A 
ATOM     41  C   UNL A   1      40.355  26.291  28.236  1.00  0.00     0.031 C 
ATOM     42  C   UNL A   1      46.891  24.468  26.986  1.00  0.00     0.029 A 
ATOM     43  C   UNL A   1      46.681  25.851  27.402  1.00  0.00     0.049 A 
ATOM     44  H   UNL A   1      44.879  26.764  27.911  1.00  0.00     0.167 HD
ATOM     45  C   UNL A   1      41.029  28.577  28.903  1.00  0.00     0.031 A 
ATOM     46  C   UNL A   1      47.647  26.782  27.525  1.00  0.00     0.031 A 
ATOM     47  C   UNL A   1      42.000  29.615  29.126  1.00  0.00     0.049 A 
ATOM     48  C   UNL A   1      47.274  28.172  27.962  1.00  0.00     0.074 A 
ATOM     49  C   UNL A   1      41.794  30.900  29.599  1.00  0.00     0.029 A 
ATOM     50  N   UNL A   1      43.360  29.488  28.891  1.00  0.00    -0.354 N 
ATOM     51  N   UNL A   1      46.098  28.650  28.288  1.00  0.00    -0.248 NA
ATOM     52  C   UNL A   1      48.368  29.150  28.057  1.00  0.00     0.031 C 
ATOM     53  C   UNL A   1      43.022  31.567  29.599  1.00  0.00     0.029 A 
ATOM     54  C   UNL A   1      44.003  30.678  29.187  1.00  0.00     0.049 A 
ATOM     55  H   UNL A   1      43.803  28.673  28.562  1.00  0.00     0.167 HD
ATOM     56  C   UNL A   1      46.316  29.971  28.661  1.00  0.00     0.074 A 
ATOM     57  C   UNL A   1      47.739  30.211  28.538  1.00  0.00     0.031 C 
ATOM     58  C   UNL A   1      45.419  30.901  29.070  1.00  0.00     0.031 A 
BRANCH  45  59
ATOM     59  C   UNL A   1      39.582  28.885  29.175  1.00  0.00    -0.014 A 
ATOM     60  C   UNL A   1      39.020  28.664  30.443  1.00  0.00     0.009 A 
ATOM     61  C   UNL A   1      38.783  29.450  28.168  1.00  0.00     0.009 A 
ATOM     62  C   UNL A   1      37.681  28.972  30.688  1.00  0.00     0.001 A 
ATOM     63  C   UNL A   1      37.452  29.786  28.426  1.00  0.00     0.001 A 
ATOM     64  C   UNL A   1      36.900  29.538  29.681  1.00  0.00     0.000 A 
ENDBRANCH  45  59
BRANCH  46  65
ATOM     65  C   UNL A   1      49.067  26.441  27.238  1.00  0.00    -0.014 A 
ATOM     66  C   UNL A   1      49.918  26.006  28.267  1.00  0.00     0.009 A 
ATOM     67  C   UNL A   1      49.591  26.585  25.943  1.00  0.00     0.009 A 
ATOM     68  C   UNL A   1      51.271  25.766  28.015  1.00  0.00     0.001 A 
ATOM     69  C   UNL A   1      50.935  26.310  25.687  1.00  0.00     0.001 A 
ATOM     70  C   UNL A   1      51.777  25.915  26.725  1.00  0.00     0.000 A 
ENDBRANCH  46  65
BRANCH  58  71
ATOM     71  C   UNL A   1      45.956  32.249  29.463  1.00  0.00    -0.014 A 
ATOM     72  C   UNL A   1      46.052  33.300  28.537  1.00  0.00     0.009 A 
ATOM     73  C   UNL A   1      46.334  32.481  30.796  1.00  0.00     0.009 A 
ATOM     74  C   UNL A   1      46.551  34.544  28.931  1.00  0.00     0.001 A 
ATOM     75  C   UNL A   1      46.800  33.734  31.193  1.00  0.00     0.001 A 
ATOM     76  C   UNL A   1      46.918  34.762  30.259  1.00  0.00     0.000 A 
ENDBRANCH  58  71
ENDBRANCH  32  33
ENDBRANCH  24  27
ENDBRANCH  22  23
ENDBRANCH  21  22
ENDBRANCH  20  21
ENDBRANCH  19  20
ENDBRANCH   1  19
TORSDOF 17
ENDMDL
MODEL 2
REMARK VINA RESULT:      -9.5      1.789      6.335
REMARK SMILES CC(C)COc1ccc(CC(=O)NCCCCCCNC(=O)c2ccc(-c3c4nc(c(-c5ccccc5)c5ccc([nH]5)c(-c5ccccc5)c5nc(c(-c6ccccc6)c6ccc3[nH]6)C=C5)C=C4)cc2)cc1
REMARK SMILES IDX 15 1 14 2 13 3 11 4 12 5 10 7 9 8 6 9 7 10 72 11 8 12 71 13
REMARK SMILES IDX 5 14 4 15 2 16 1 17 3 18 16 19 17 20 18 21 19 22 20 23 21 24
REMARK SMILES IDX 22 26 23 27 24 28 70 29 25 30 69 31 26 32 27 33 28 34 63 35
REMARK SMILES IDX 29 36 68 37 62 38 64 39 30 40 67 41 61 42 60 43 31 45 53 46
REMARK SMILES IDX 38 47 52 48 39 49 42 50 51 51 65 52 40 53 41 54 50 56 66 57
REMARK SMILES IDX 43 58 32 59 33 60 37 61 34 62 36 63 35 64 54 65 55 66 59 67
REMARK SMILES IDX 56 68 58 69 57 70 44 71 45 72 49 73 46 74 48 75 47 76
REMARK H PARENT 13 6 20 25 64 44 42 55
REMARK Flexibility Score: inf
ROOT
ATOM      1  C   UNL A   1      35.899  21.878  25.848  1.00  0.00     0.021 C 
ENDROOT
BRANCH   1   2
ATOM      2  C   UNL A   1      35.551  20.840  24.776  1.00  0.00     0.116 C 
BRANCH   2   3
ATOM      3  N   UNL A   1      34.517  19.934  25.242  1.00  0.00    -0.356 N 
ATOM      4  C   UNL A   1      33.173  19.946  25.010  1.00  0.00     0.224 C 
ATOM      5  O   UNL A   1      32.470  19.146  25.633  1.00  0.00    -0.275 OA
ATOM      6  H   UNL A   1      34.835  19.197  25.812  1.00  0.00     0.163 HD
BRANCH   4   7
ATOM      7  C   UNL A   1      32.574  20.856  23.954  1.00  0.00     0.135 C 
BRANCH   7   8
ATOM      8  C   UNL A   1      31.902  22.105  24.468  1.00  0.00    -0.038 A 
ATOM      9  C   UNL A   1      30.913  24.589  25.347  1.00  0.00     0.119 A 
ATOM     10  C   UNL A   1      31.243  23.590  26.266  1.00  0.00     0.047 A 
ATOM     11  C   UNL A   1      30.956  24.291  23.990  1.00  0.00     0.047 A 
ATOM     12  C   UNL A   1      31.709  22.343  25.832  1.00  0.00     0.008 A 
ATOM     13  C   UNL A   1      31.464  23.068  23.551  1.00  0.00     0.008 A 
BRANCH   9  14
ATOM     14  O   UNL A   1      30.654  25.819  25.882  1.00  0.00    -0.493 OA
BRANCH  14  15
ATOM     15  C   UNL A   1      31.417  26.947  25.448  1.00  0.00     0.232 C 
BRANCH  15  16
ATOM     16  C   UNL A   1      32.942  26.752  25.592  1.00  0.00     0.020 C 
ATOM     17  C   UNL A   1      33.723  26.942  24.291  1.00  0.00     0.011 C 
ATOM     18  C   UNL A   1      33.481  27.735  26.635  1.00  0.00     0.011 C 
ENDBRANCH  15  16
ENDBRANCH  14  15
ENDBRANCH   9  14
ENDBRANCH   7   8
ENDBRANCH   4   7
ENDBRANCH   2   3
ENDBRANCH   1   2
BRANCH   1  19
ATOM     19  C   UNL A   1      37.079  22.789  25.482  1.00  0.00     0.002 C 
BRANCH  19  20
ATOM     20  C   UNL A   1      38.438  22.348  26.032  1.00  0.00     0.002 C 
BRANCH  20  21
ATOM     21  C   UNL A   1      39.018  21.091  25.382  1.00  0.00     0.021 C 
BRANCH  21  22
ATOM     22  C   UNL A   1      39.343  19.965  26.358  1.00  0.00     0.116 C 
BRANCH  22  23
ATOM     23  N   UNL A   1      40.539  19.230  25.974  1.00  0.00    -0.352 N 
ATOM     24  C   UNL A   1      41.841  19.658  25.909  1.00  0.00     0.251 C 
ATOM     25  H   UNL A   1      40.392  18.289  25.723  1.00  0.00     0.163 HD
ATOM     26  O   UNL A   1      42.698  18.956  25.375  1.00  0.00    -0.269 OA
BRANCH  24  27
ATOM     27  C   UNL A   1      42.213  20.976  26.462  1.00  0.00     0.039 A 
ATOM     28  C   UNL A   1      42.612  21.990  25.589  1.00  0.00     0.014 A 
ATOM     29  C   UNL A   1      42.167  21.212  27.839  1.00  0.00     0.014 A 
ATOM     30  C   UNL A   1      42.903  23.260  26.091  1.00  0.00     0.010 A 
ATOM     31  C   UNL A   1      42.382  22.496  28.329  1.00  0.00     0.010 A 
ATOM     32  C   UNL A   1      42.753  23.535  27.460  1.00  0.00    -0.014 A 
BRANCH  32  33
ATOM     33  C   UNL A   1      42.977  24.899  28.002  1.00  0.00     0.031 A 
ATOM     34  C   UNL A   1      44.352  25.327  28.437  1.00  0.00     0.074 A 
ATOM     35  C   UNL A   1      41.931  25.736  28.153  1.00  0.00     0.049 A 
ATOM     36  N   UNL A   1      44.730  26.453  28.989  1.00  0.00    -0.248 NA
ATOM     37  C   UNL A   1      45.442  24.357  28.246  1.00  0.00     0.031 C 
ATOM     38  C   UNL A   1      40.542  25.435  27.794  1.00  0.00     0.029 A 
ATOM     39  N   UNL A   1      41.873  27.014  28.651  1.00  0.00    -0.354 N 
ATOM     40  C   UNL A   1      46.095  26.323  29.213  1.00  0.00     0.074 A 
ATOM     41  C   UNL A   1      46.467  24.990  28.794  1.00  0.00     0.031 C 
ATOM     42  C   UNL A   1      39.778  26.508  28.053  1.00  0.00     0.029 A 
ATOM     43  C   UNL A   1      40.609  27.554  28.641  1.00  0.00     0.049 A 
ATOM     44  H   UNL A   1      42.663  27.498  28.984  1.00  0.00     0.167 HD
ATOM     45  C   UNL A   1      46.966  27.238  29.701  1.00  0.00     0.031 A 
ATOM     46  C   UNL A   1      40.166  28.752  29.067  1.00  0.00     0.031 A 
ATOM     47  C   UNL A   1      46.596  28.564  30.120  1.00  0.00     0.049 A 
ATOM     48  C   UNL A   1      41.148  29.728  29.658  1.00  0.00     0.074 A 
ATOM     49  C   UNL A   1      47.411  29.574  30.602  1.00  0.00     0.029 A 
ATOM     50  N   UNL A   1      45.304  29.064  30.109  1.00  0.00    -0.354 N 
ATOM     51  N   UNL A   1      42.443  29.609  29.811  1.00  0.00    -0.248 NA
ATOM     52  C   UNL A   1      40.602  31.010  30.126  1.00  0.00     0.031 C 
ATOM     53  C   UNL A   1      46.604  30.666  30.933  1.00  0.00     0.029 A 
ATOM     54  C   UNL A   1      45.295  30.360  30.597  1.00  0.00     0.049 A 
ATOM     55  H   UNL A   1      44.509  28.571  29.800  1.00  0.00     0.167 HD
ATOM     56  C   UNL A   1      42.872  30.812  30.358  1.00  0.00     0.074 A 
ATOM     57  C   UNL A   1      41.701  31.652  30.492  1.00  0.00     0.031 C 
ATOM     58  C   UNL A   1      44.124  31.188  30.716  1.00  0.00     0.031 A 
BRANCH  45  59
ATOM     59  C   UNL A   1      48.411  26.835  29.808  1.00  0.00    -0.014 A 
ATOM     60  C   UNL A   1      49.315  27.097  28.765  1.00  0.00     0.009 A 
ATOM     61  C   UNL A   1      48.887  26.232  30.983  1.00  0.00     0.009 A 
ATOM     62  C   UNL A   1      50.658  26.734  28.884  1.00  0.00     0.001 A 
ATOM     63  C   UNL A   1      50.237  25.900  31.111  1.00  0.00     0.001 A 
ATOM     64  C   UNL A   1      51.119  26.142  30.058  1.00  0.00     0.000 A 
ENDBRANCH  45  59
BRANCH  46  65
ATOM     65  C   UNL A   1      38.727  29.111  28.953  1.00  0.00    -0.014 A 
ATOM     66  C   UNL A   1      38.219  29.650  27.761  1.00  0.00     0.009 A 
ATOM     67  C   UNL A   1      37.860  28.953  30.047  1.00  0.00     0.009 A 
ATOM     68  C   UNL A   1      36.887  30.066  27.680  1.00  0.00     0.001 A 
ATOM     69  C   UNL A   1      36.521  29.336  29.953  1.00  0.00     0.001 A 
ATOM     70  C   UNL A   1      36.039  29.905  28.775  1.00  0.00     0.000 A 
ENDBRANCH  46  65
BRANCH  58  71
ATOM     71  C   UNL A   1      44.300  32.586  31.240  1.00  0.00    -0.014 A 
ATOM     72  C   UNL A   1      44.578  33.662  30.382  1.00  0.00     0.009 A 
ATOM     73  C   UNL A   1      44.146  32.834  32.614  1.00  0.00     0.009 A 
ATOM     74  C   UNL A   1      44.733  34.952  30.896  1.00  0.00     0.001 A 
ATOM     75  C   UNL A   1      44.268  34.129  33.119  1.00  0.00     0.001 A 
ATOM     76  C   UNL A   1      44.572  35.185  32.262  1.00  0.00     0.000 A 
ENDBRANCH  58  71
ENDBRANCH  32  33
ENDBRANCH  24  27
ENDBRANCH  22  23
ENDBRANCH  21  22
ENDBRANCH  20  21
ENDBRANCH  19  20
ENDBRANCH   1  19
TORSDOF 17
ENDMDL
MODEL 3
REMARK VINA RESULT:      -9.5      3.057      7.353
REMARK SMILES CC(C)COc1ccc(CC(=O)NCCCCCCNC(=O)c2ccc(-c3c4nc(c(-c5ccccc5)c5ccc([nH]5)c(-c5ccccc5)c5nc(c(-c6ccccc6)c6ccc3[nH]6)C=C5)C=C4)cc2)cc1
REMARK SMILES IDX 15 1 14 2 13 3 11 4 12 5 10 7 9 8 6 9 7 10 72 11 8 12 71 13
REMARK SMILES IDX 5 14 4 15 2 16 1 17 3 18 16 19 17 20 18 21 19 22 20 23 21 24
REMARK SMILES IDX 22 26 23 27 24 28 70 29 25 30 69 31 26 32 27 33 28 34 63 35
REMARK SMILES IDX 29 36 68 37 62 38 64 39 30 40 67 41 61 42 60 43 31 45 53 46
REMARK SMILES IDX 38 47 52 48 39 49 42 50 51 51 65 52 40 53 41 54 50 56 66 57
REMARK SMILES IDX 43 58 32 59 33 60 37 61 34 62 36 63 35 64 54 65 55 66 59 67
REMARK SMILES IDX 56 68 58 69 57 70 44 71 45 72 49 73 46 74 48 75 47 76
REMARK H PARENT 13 6 20 25 64 44 42 55
REMARK Flexibility Score: inf
ROOT
ATOM      1  C   UNL A   1      34.090  19.942  25.139  1.00  0.00     0.021 C 
ENDROOT
BRANCH   1   2
ATOM      2  C   UNL A   1      32.844  20.830  25.042  1.00  0.00     0.116 C 
BRANCH   2   3
ATOM      3  N   UNL A   1      32.244  20.745  23.722  1.00  0.00    -0.356 N 
ATOM      4  C   UNL A   1      32.340  21.594  22.660  1.00  0.00     0.224 C 
ATOM      5  O   UNL A   1      31.620  21.382  21.681  1.00  0.00    -0.275 OA
ATOM      6  H   UNL A   1      31.682  19.951  23.571  1.00  0.00     0.163 HD
BRANCH   4   7
ATOM      7  C   UNL A   1      33.364  22.715  22.651  1.00  0.00     0.135 C 
BRANCH   7   8
ATOM      8  C   UNL A   1      32.833  24.092  22.963  1.00  0.00    -0.038 A 
ATOM      9  C   UNL A   1      32.020  26.650  23.808  1.00  0.00     0.119 A 
ATOM     10  C   UNL A   1      31.127  25.576  23.833  1.00  0.00     0.047 A 
ATOM     11  C   UNL A   1      33.273  26.465  23.237  1.00  0.00     0.047 A 
ATOM     12  C   UNL A   1      31.518  24.308  23.388  1.00  0.00     0.008 A 
ATOM     13  C   UNL A   1      33.686  25.195  22.835  1.00  0.00     0.008 A 
BRANCH   9  14
ATOM     14  O   UNL A   1      31.594  27.784  24.439  1.00  0.00    -0.493 OA
BRANCH  14  15
ATOM     15  C   UNL A   1      32.540  28.593  25.141  1.00  0.00     0.232 C 
BRANCH  15  16
ATOM     16  C   UNL A   1      32.948  28.014  26.514  1.00  0.00     0.020 C 
ATOM     17  C   UNL A   1      34.090  28.768  27.197  1.00  0.00     0.011 C 
ATOM     18  C   UNL A   1      31.733  28.018  27.445  1.00  0.00     0.011 C 
ENDBRANCH  15  16
ENDBRANCH  14  15
ENDBRANCH   9  14
ENDBRANCH   7   8
ENDBRANCH   4   7
ENDBRANCH   2   3
ENDBRANCH   1   2
BRANCH   1  19
ATOM     19  C   UNL A   1      35.411  20.683  24.891  1.00  0.00     0.002 C 
BRANCH  19  20
ATOM     20  C   UNL A   1      35.783  21.725  25.950  1.00  0.00     0.002 C 
BRANCH  20  21
ATOM     21  C   UNL A   1      35.832  23.167  25.444  1.00  0.00     0.021 C 
BRANCH  21  22
ATOM     22  C   UNL A   1      37.224  23.656  25.058  1.00  0.00     0.116 C 
BRANCH  22  23
ATOM     23  N   UNL A   1      38.268  22.730  25.471  1.00  0.00    -0.352 N 
ATOM     24  C   UNL A   1      39.412  22.971  26.189  1.00  0.00     0.251 C 
ATOM     25  H   UNL A   1      38.133  21.794  25.195  1.00  0.00     0.163 HD
ATOM     26  O   UNL A   1      40.280  22.104  26.280  1.00  0.00    -0.269 OA
BRANCH  24  27
ATOM     27  C   UNL A   1      39.613  24.283  26.837  1.00  0.00     0.039 A 
ATOM     28  C   UNL A   1      39.120  24.484  28.127  1.00  0.00     0.014 A 
ATOM     29  C   UNL A   1      40.287  25.312  26.173  1.00  0.00     0.014 A 
ATOM     30  C   UNL A   1      39.359  25.697  28.778  1.00  0.00     0.010 A 
ATOM     31  C   UNL A   1      40.591  26.489  26.850  1.00  0.00     0.010 A 
ATOM     32  C   UNL A   1      40.131  26.695  28.159  1.00  0.00    -0.014 A 
BRANCH  32  33
ATOM     33  C   UNL A   1      40.467  27.957  28.865  1.00  0.00     0.031 A 
ATOM     34  C   UNL A   1      41.806  28.120  29.533  1.00  0.00     0.074 A 
ATOM     35  C   UNL A   1      39.547  28.938  28.952  1.00  0.00     0.049 A 
ATOM     36  N   UNL A   1      42.256  29.121  30.247  1.00  0.00    -0.248 NA
ATOM     37  C   UNL A   1      42.756  27.003  29.399  1.00  0.00     0.031 C 
ATOM     38  C   UNL A   1      38.203  28.897  28.371  1.00  0.00     0.029 A 
ATOM     39  N   UNL A   1      39.603  30.165  29.567  1.00  0.00    -0.354 N 
ATOM     40  C   UNL A   1      43.534  28.754  30.647  1.00  0.00     0.074 A 
ATOM     41  C   UNL A   1      43.765  27.415  30.150  1.00  0.00     0.031 C 
ATOM     42  C   UNL A   1      37.575  30.056  28.628  1.00  0.00     0.029 A 
ATOM     43  C   UNL A   1      38.451  30.902  29.433  1.00  0.00     0.049 A 
ATOM     44  H   UNL A   1      40.394  30.486  30.056  1.00  0.00     0.167 HD
ATOM     45  C   UNL A   1      44.445  29.473  31.346  1.00  0.00     0.031 A 
ATOM     46  C   UNL A   1      38.130  32.118  29.914  1.00  0.00     0.031 A 
ATOM     47  C   UNL A   1      44.215  30.803  31.843  1.00  0.00     0.049 A 
ATOM     48  C   UNL A   1      39.141  32.871  30.735  1.00  0.00     0.074 A 
ATOM     49  C   UNL A   1      45.087  31.625  32.538  1.00  0.00     0.029 A 
ATOM     50  N   UNL A   1      43.030  31.506  31.701  1.00  0.00    -0.354 N 
ATOM     51  N   UNL A   1      40.365  32.531  31.058  1.00  0.00    -0.248 NA
ATOM     52  C   UNL A   1      38.726  34.183  31.252  1.00  0.00     0.031 C 
ATOM     53  C   UNL A   1      44.410  32.804  32.862  1.00  0.00     0.029 A 
ATOM     54  C   UNL A   1      43.139  32.743  32.314  1.00  0.00     0.049 A 
ATOM     55  H   UNL A   1      42.229  31.175  31.233  1.00  0.00     0.167 HD
ATOM     56  C   UNL A   1      40.877  33.600  31.781  1.00  0.00     0.074 A 
ATOM     57  C   UNL A   1      39.837  34.607  31.834  1.00  0.00     0.031 C 
ATOM     58  C   UNL A   1      42.100  33.738  32.351  1.00  0.00     0.031 A 
BRANCH  45  59
ATOM     59  C   UNL A   1      45.779  28.832  31.614  1.00  0.00    -0.014 A 
ATOM     60  C   UNL A   1      45.985  28.035  32.752  1.00  0.00     0.009 A 
ATOM     61  C   UNL A   1      46.829  28.987  30.695  1.00  0.00     0.009 A 
ATOM     62  C   UNL A   1      47.223  27.431  32.979  1.00  0.00     0.001 A 
ATOM     63  C   UNL A   1      48.056  28.355  30.909  1.00  0.00     0.001 A 
ATOM     64  C   UNL A   1      48.255  27.587  32.055  1.00  0.00     0.000 A 
ENDBRANCH  45  59
BRANCH  46  65
ATOM     65  C   UNL A   1      36.796  32.715  29.635  1.00  0.00    -0.014 A 
ATOM     66  C   UNL A   1      35.746  32.574  30.555  1.00  0.00     0.009 A 
ATOM     67  C   UNL A   1      36.553  33.393  28.429  1.00  0.00     0.009 A 
ATOM     68  C   UNL A   1      34.470  33.061  30.257  1.00  0.00     0.001 A 
ATOM     69  C   UNL A   1      35.286  33.910  28.149  1.00  0.00     0.001 A 
ATOM     70  C   UNL A   1      34.243  33.731  29.056  1.00  0.00     0.000 A 
ENDBRANCH  46  65
BRANCH  58  71
ATOM     71  C   UNL A   1      42.398  35.043  33.036  1.00  0.00    -0.014 A 
ATOM     72  C   UNL A   1      41.927  35.317  34.329  1.00  0.00     0.009 A 
ATOM     73  C   UNL A   1      43.200  35.997  32.387  1.00  0.00     0.009 A 
ATOM     74  C   UNL A   1      42.222  36.537  34.943  1.00  0.00     0.001 A 
ATOM     75  C   UNL A   1      43.520  37.199  33.017  1.00  0.00     0.001 A 
ATOM     76  C   UNL A   1      43.023  37.473  34.291  1.00  0.00     0.000 A 
ENDBRANCH  58  71
ENDBRANCH  32  33
ENDBRANCH  24  27
ENDBRANCH  22  23
ENDBRANCH  21  22
ENDBRANCH  20  21
ENDBRANCH  19  20
ENDBRANCH   1  19
TORSDOF 17
ENDMDL
