MODEL 1
REMARK VINA RESULT:     -11.9      0.000      0.000
REMARK SMILES O=C(NCCCCCCNC(=O)c1cc(-c2ccccn2)nc2ccc(F)cc12)c1ccc(-c2c3nc(c(-c4ccccc4)c4ccc([nH]4)c(-c4ccccc4)c4nc(c(-c5ccccc5)c5ccc2[nH]5)C=C4)C=C3)cc1
REMARK SMILES IDX 6 1 5 2 4 3 3 4 1 5 2 6 30 8 31 9 77 10 32 11 76 12 33 13
REMARK SMILES IDX 34 14 35 15 70 16 36 17 75 18 69 19 71 20 37 21 74 22 68 23
REMARK SMILES IDX 67 24 38 26 60 27 45 28 59 29 46 30 49 31 58 32 72 33 47 34
REMARK SMILES IDX 48 35 57 37 73 38 50 39 39 40 40 41 44 42 41 43 43 44 42 45
REMARK SMILES IDX 61 46 62 47 66 48 63 49 65 50 64 51 51 52 52 53 56 54 53 55
REMARK SMILES IDX 55 56 54 57 7 58 8 59 9 60 10 61 11 62 12 64 13 65 14 66
REMARK SMILES IDX 29 67 15 68 23 69 28 70 22 71 24 72 26 73 25 74 27 75 16 76
REMARK SMILES IDX 17 77 21 78 18 79 20 80 19 81
REMARK H PARENT 3 7 71 25 49 36 10 63
REMARK Flexibility Score: inf
ROOT
ATOM      1  C   UNL A   1      37.757  21.329  24.972  1.00  0.00     0.002 C 
ENDROOT
BRANCH   1   2
ATOM      2  C   UNL A   1      38.375  19.931  24.994  1.00  0.00     0.021 C 
BRANCH   2   3
ATOM      3  C   UNL A   1      39.280  19.628  26.182  1.00  0.00     0.116 C 
BRANCH   3   4
ATOM      4  N   UNL A   1      40.548  19.036  25.798  1.00  0.00    -0.352 N 
ATOM      5  O   UNL A   1      42.755  18.946  25.367  1.00  0.00    -0.269 OA
ATOM      6  C   UNL A   1      41.812  19.566  25.852  1.00  0.00     0.251 C 
ATOM      7  H   UNL A   1      40.491  18.117  25.446  1.00  0.00     0.163 HD
BRANCH   6   8
ATOM      8  C   UNL A   1      42.048  20.893  26.467  1.00  0.00     0.039 A 
ATOM      9  C   UNL A   1      42.344  21.972  25.629  1.00  0.00     0.014 A 
ATOM     10  C   UNL A   1      42.018  21.079  27.853  1.00  0.00     0.014 A 
ATOM     11  C   UNL A   1      42.574  23.237  26.174  1.00  0.00     0.010 A 
ATOM     12  C   UNL A   1      42.170  22.356  28.391  1.00  0.00     0.010 A 
ATOM     13  C   UNL A   1      42.472  23.443  27.560  1.00  0.00    -0.014 A 
BRANCH  13  14
ATOM     14  C   UNL A   1      42.724  24.783  28.149  1.00  0.00     0.031 A 
ATOM     15  C   UNL A   1      44.117  25.182  28.553  1.00  0.00     0.074 A 
ATOM     16  C   UNL A   1      41.701  25.640  28.333  1.00  0.00     0.049 A 
ATOM     17  N   UNL A   1      44.534  26.309  29.072  1.00  0.00    -0.248 NA
ATOM     18  C   UNL A   1      45.177  24.176  28.373  1.00  0.00     0.031 C 
ATOM     19  C   UNL A   1      40.299  25.362  28.020  1.00  0.00     0.029 A 
ATOM     20  N   UNL A   1      41.688  26.923  28.819  1.00  0.00    -0.354 N 
ATOM     21  C   UNL A   1      45.898  26.145  29.282  1.00  0.00     0.074 A 
ATOM     22  C   UNL A   1      46.226  24.791  28.899  1.00  0.00     0.031 C 
ATOM     23  C   UNL A   1      39.569  26.458  28.279  1.00  0.00     0.029 A 
ATOM     24  C   UNL A   1      40.444  27.503  28.803  1.00  0.00     0.049 A 
ATOM     25  H   UNL A   1      42.494  27.385  29.146  1.00  0.00     0.167 HD
ATOM     26  C   UNL A   1      46.804  27.049  29.724  1.00  0.00     0.031 A 
ATOM     27  C   UNL A   1      40.049  28.741  29.156  1.00  0.00     0.031 A 
ATOM     28  C   UNL A   1      46.484  28.400  30.096  1.00  0.00     0.049 A 
ATOM     29  C   UNL A   1      41.070  29.732  29.639  1.00  0.00     0.074 A 
ATOM     30  C   UNL A   1      47.339  29.399  30.528  1.00  0.00     0.029 A 
ATOM     31  N   UNL A   1      45.209  28.944  30.072  1.00  0.00    -0.354 N 
ATOM     32  N   UNL A   1      42.362  29.572  29.797  1.00  0.00    -0.248 NA
ATOM     33  C   UNL A   1      40.583  31.076  29.980  1.00  0.00     0.031 C 
ATOM     34  C   UNL A   1      46.573  30.535  30.809  1.00  0.00     0.029 A 
ATOM     35  C   UNL A   1      45.251  30.261  30.496  1.00  0.00     0.049 A 
ATOM     36  H   UNL A   1      44.395  28.464  29.795  1.00  0.00     0.167 HD
ATOM     37  C   UNL A   1      42.844  30.795  30.244  1.00  0.00     0.074 A 
ATOM     38  C   UNL A   1      41.709  31.695  30.310  1.00  0.00     0.031 C 
ATOM     39  C   UNL A   1      44.112  31.140  30.575  1.00  0.00     0.031 A 
BRANCH  26  40
ATOM     40  C   UNL A   1      48.238  26.603  29.814  1.00  0.00    -0.014 A 
ATOM     41  C   UNL A   1      49.100  26.777  28.721  1.00  0.00     0.009 A 
ATOM     42  C   UNL A   1      48.725  25.970  30.970  1.00  0.00     0.009 A 
ATOM     43  C   UNL A   1      50.421  26.329  28.783  1.00  0.00     0.001 A 
ATOM     44  C   UNL A   1      50.056  25.552  31.041  1.00  0.00     0.001 A 
ATOM     45  C   UNL A   1      50.900  25.725  29.947  1.00  0.00     0.000 A 
ENDBRANCH  26  40
BRANCH  27  46
ATOM     46  C   UNL A   1      38.619  29.118  29.009  1.00  0.00    -0.014 A 
ATOM     47  C   UNL A   1      38.126  29.592  27.783  1.00  0.00     0.009 A 
ATOM     48  C   UNL A   1      37.756  29.063  30.113  1.00  0.00     0.009 A 
ATOM     49  C   UNL A   1      36.802  30.022  27.672  1.00  0.00     0.001 A 
ATOM     50  C   UNL A   1      36.425  29.471  29.992  1.00  0.00     0.001 A 
ATOM     51  C   UNL A   1      35.952  29.959  28.775  1.00  0.00     0.000 A 
ENDBRANCH  27  46
BRANCH  39  52
ATOM     52  C   UNL A   1      44.352  32.547  31.046  1.00  0.00    -0.014 A 
ATOM     53  C   UNL A   1      44.229  32.860  32.409  1.00  0.00     0.009 A 
ATOM     54  C   UNL A   1      44.616  33.579  30.132  1.00  0.00     0.009 A 
ATOM     55  C   UNL A   1      44.359  34.178  32.848  1.00  0.00     0.001 A 
ATOM     56  C   UNL A   1      44.773  34.893  30.578  1.00  0.00     0.001 A 
ATOM     57  C   UNL A   1      44.636  35.192  31.932  1.00  0.00     0.000 A 
ENDBRANCH  39  52
ENDBRANCH  13  14
ENDBRANCH   6   8
ENDBRANCH   3   4
ENDBRANCH   2   3
ENDBRANCH   1   2
BRANCH   1  58
ATOM     58  C   UNL A   1      38.501  22.404  25.768  1.00  0.00     0.002 C 
BRANCH  58  59
ATOM     59  C   UNL A   1      37.744  23.715  26.002  1.00  0.00     0.021 C 
BRANCH  59  60
ATOM     60  C   UNL A   1      36.231  23.646  25.820  1.00  0.00     0.116 C 
BRANCH  60  61
ATOM     61  N   UNL A   1      35.814  23.924  24.454  1.00  0.00    -0.352 N 
ATOM     62  C   UNL A   1      34.732  23.444  23.764  1.00  0.00     0.252 C 
ATOM     63  H   UNL A   1      36.392  24.544  23.954  1.00  0.00     0.163 HD
ATOM     64  O   UNL A   1      34.557  23.755  22.587  1.00  0.00    -0.269 OA
BRANCH  62  65
ATOM     65  C   UNL A   1      33.759  22.568  24.446  1.00  0.00     0.051 A 
ATOM     66  C   UNL A   1      34.034  21.203  24.461  1.00  0.00     0.045 A 
ATOM     67  C   UNL A   1      32.601  23.082  25.063  1.00  0.00     0.016 A 
ATOM     68  C   UNL A   1      33.101  20.347  25.018  1.00  0.00     0.090 A 
ATOM     69  C   UNL A   1      31.732  22.132  25.639  1.00  0.00     0.072 A 
ATOM     70  C   UNL A   1      32.263  24.457  25.125  1.00  0.00     0.050 A 
ATOM     71  N   UNL A   1      31.969  20.809  25.605  1.00  0.00    -0.246 NA
ATOM     72  C   UNL A   1      30.572  22.580  26.262  1.00  0.00     0.032 A 
ATOM     73  C   UNL A   1      31.097  24.865  25.759  1.00  0.00     0.123 A 
ATOM     74  C   UNL A   1      30.246  23.937  26.331  1.00  0.00     0.041 A 
ATOM     75  F   UNL A   1      30.795  26.168  25.816  1.00  0.00    -0.207 F 
BRANCH  68  76
ATOM     76  C   UNL A   1      33.286  18.888  24.933  1.00  0.00     0.089 A 
ATOM     77  C   UNL A   1      34.419  18.328  24.343  1.00  0.00     0.030 A 
ATOM     78  N   UNL A   1      32.239  18.126  25.344  1.00  0.00    -0.255 NA
ATOM     79  C   UNL A   1      34.482  16.948  24.166  1.00  0.00     0.004 A 
ATOM     80  C   UNL A   1      32.333  16.789  25.176  1.00  0.00     0.112 A 
ATOM     81  C   UNL A   1      33.419  16.160  24.589  1.00  0.00     0.020 A 
ENDBRANCH  68  76
ENDBRANCH  62  65
ENDBRANCH  60  61
ENDBRANCH  59  60
ENDBRANCH  58  59
ENDBRANCH   1  58
TORSDOF 14
ENDMDL
MODEL 2
REMARK VINA RESULT:     -11.8      4.443      9.654
REMARK SMILES O=C(NCCCCCCNC(=O)c1cc(-c2ccccn2)nc2ccc(F)cc12)c1ccc(-c2c3nc(c(-c4ccccc4)c4ccc([nH]4)c(-c4ccccc4)c4nc(c(-c5ccccc5)c5ccc2[nH]5)C=C4)C=C3)cc1
REMARK SMILES IDX 6 1 5 2 4 3 3 4 1 5 2 6 30 8 31 9 77 10 32 11 76 12 33 13
REMARK SMILES IDX 34 14 35 15 70 16 36 17 75 18 69 19 71 20 37 21 74 22 68 23
REMARK SMILES IDX 67 24 38 26 60 27 45 28 59 29 46 30 49 31 58 32 72 33 47 34
REMARK SMILES IDX 48 35 57 37 73 38 50 39 39 40 40 41 44 42 41 43 43 44 42 45
REMARK SMILES IDX 61 46 62 47 66 48 63 49 65 50 64 51 51 52 52 53 56 54 53 55
REMARK SMILES IDX 55 56 54 57 7 58 8 59 9 60 10 61 11 62 12 64 13 65 14 66
REMARK SMILES IDX 29 67 15 68 23 69 28 70 22 71 24 72 26 73 25 74 27 75 16 76
REMARK SMILES IDX 17 77 21 78 18 79 20 80 19 81
REMARK H PARENT 3 7 71 25 49 36 10 63
REMARK Flexibility Score: inf
ROOT
ATOM      1  C   UNL A   1      31.717  30.622  26.272  1.00  0.00     0.002 C 
ENDROOT
BRANCH   1   2
ATOM      2  C   UNL A   1      31.459  31.997  26.889  1.00  0.00     0.021 C 
BRANCH   2   3
ATOM      3  C   UNL A   1      32.651  32.947  26.906  1.00  0.00     0.116 C 
BRANCH   3   4
ATOM      4  N   UNL A   1      32.425  34.132  27.712  1.00  0.00    -0.352 N 
ATOM      5  O   UNL A   1      32.745  35.594  29.392  1.00  0.00    -0.269 OA
ATOM      6  C   UNL A   1      33.166  34.634  28.752  1.00  0.00     0.251 C 
ATOM      7  H   UNL A   1      31.622  34.651  27.478  1.00  0.00     0.163 HD
BRANCH   6   8
ATOM      8  C   UNL A   1      34.457  34.013  29.129  1.00  0.00     0.039 A 
ATOM      9  C   UNL A   1      34.474  33.106  30.193  1.00  0.00     0.014 A 
ATOM     10  C   UNL A   1      35.650  34.338  28.475  1.00  0.00     0.014 A 
ATOM     11  C   UNL A   1      35.674  32.503  30.576  1.00  0.00     0.010 A 
ATOM     12  C   UNL A   1      36.832  33.677  28.806  1.00  0.00     0.010 A 
ATOM     13  C   UNL A   1      36.861  32.771  29.874  1.00  0.00    -0.014 A 
BRANCH  13  14
ATOM     14  C   UNL A   1      38.143  32.141  30.281  1.00  0.00     0.031 A 
ATOM     15  C   UNL A   1      38.995  32.778  31.344  1.00  0.00     0.074 A 
ATOM     16  C   UNL A   1      38.550  31.001  29.689  1.00  0.00     0.049 A 
ATOM     17  N   UNL A   1      40.138  32.371  31.839  1.00  0.00    -0.248 NA
ATOM     18  C   UNL A   1      38.516  34.050  31.909  1.00  0.00     0.031 C 
ATOM     19  C   UNL A   1      37.836  30.303  28.620  1.00  0.00     0.029 A 
ATOM     20  N   UNL A   1      39.659  30.225  29.913  1.00  0.00    -0.354 N 
ATOM     21  C   UNL A   1      40.511  33.337  32.766  1.00  0.00     0.074 A 
ATOM     22  C   UNL A   1      39.511  34.380  32.718  1.00  0.00     0.031 C 
ATOM     23  C   UNL A   1      38.501  29.178  28.312  1.00  0.00     0.029 A 
ATOM     24  C   UNL A   1      39.702  29.092  29.140  1.00  0.00     0.049 A 
ATOM     25  H   UNL A   1      40.357  30.458  30.568  1.00  0.00     0.167 HD
ATOM     26  C   UNL A   1      41.573  33.341  33.606  1.00  0.00     0.031 A 
ATOM     27  C   UNL A   1      40.596  28.086  29.107  1.00  0.00     0.031 A 
ATOM     28  C   UNL A   1      42.563  32.301  33.665  1.00  0.00     0.049 A 
ATOM     29  C   UNL A   1      41.765  28.107  30.050  1.00  0.00     0.074 A 
ATOM     30  C   UNL A   1      43.659  32.203  34.504  1.00  0.00     0.029 A 
ATOM     31  N   UNL A   1      42.572  31.174  32.858  1.00  0.00    -0.354 N 
ATOM     32  N   UNL A   1      42.083  29.008  30.947  1.00  0.00    -0.248 NA
ATOM     33  C   UNL A   1      42.690  26.965  29.989  1.00  0.00     0.031 C 
ATOM     34  C   UNL A   1      44.357  31.037  34.173  1.00  0.00     0.029 A 
ATOM     35  C   UNL A   1      43.663  30.381  33.168  1.00  0.00     0.049 A 
ATOM     36  H   UNL A   1      41.901  30.969  32.166  1.00  0.00     0.167 HD
ATOM     37  C   UNL A   1      43.237  28.541  31.563  1.00  0.00     0.074 A 
ATOM     38  C   UNL A   1      43.549  27.263  30.954  1.00  0.00     0.031 C 
ATOM     39  C   UNL A   1      43.974  29.121  32.542  1.00  0.00     0.031 A 
BRANCH  26  40
ATOM     40  C   UNL A   1      41.707  34.510  34.544  1.00  0.00    -0.014 A 
ATOM     41  C   UNL A   1      41.093  34.475  35.806  1.00  0.00     0.009 A 
ATOM     42  C   UNL A   1      42.407  35.666  34.161  1.00  0.00     0.009 A 
ATOM     43  C   UNL A   1      41.179  35.572  36.665  1.00  0.00     0.001 A 
ATOM     44  C   UNL A   1      42.518  36.749  35.036  1.00  0.00     0.001 A 
ATOM     45  C   UNL A   1      41.900  36.704  36.283  1.00  0.00     0.000 A 
ENDBRANCH  26  40
BRANCH  27  46
ATOM     46  C   UNL A   1      40.379  26.950  28.174  1.00  0.00    -0.014 A 
ATOM     47  C   UNL A   1      39.619  25.837  28.566  1.00  0.00     0.009 A 
ATOM     48  C   UNL A   1      40.983  26.948  26.909  1.00  0.00     0.009 A 
ATOM     49  C   UNL A   1      39.486  24.736  27.717  1.00  0.00     0.001 A 
ATOM     50  C   UNL A   1      40.828  25.856  26.051  1.00  0.00     0.001 A 
ATOM     51  C   UNL A   1      40.088  24.748  26.460  1.00  0.00     0.000 A 
ENDBRANCH  27  46
BRANCH  39  52
ATOM     52  C   UNL A   1      45.197  28.391  33.020  1.00  0.00    -0.014 A 
ATOM     53  C   UNL A   1      46.440  28.636  32.416  1.00  0.00     0.009 A 
ATOM     54  C   UNL A   1      45.105  27.400  34.009  1.00  0.00     0.009 A 
ATOM     55  C   UNL A   1      47.566  27.900  32.787  1.00  0.00     0.001 A 
ATOM     56  C   UNL A   1      46.239  26.683  34.398  1.00  0.00     0.001 A 
ATOM     57  C   UNL A   1      47.465  26.928  33.782  1.00  0.00     0.000 A 
ENDBRANCH  39  52
ENDBRANCH  13  14
ENDBRANCH   6   8
ENDBRANCH   3   4
ENDBRANCH   2   3
ENDBRANCH   1   2
BRANCH   1  58
ATOM     58  C   UNL A   1      31.807  29.451  27.254  1.00  0.00     0.002 C 
BRANCH  58  59
ATOM     59  C   UNL A   1      33.121  28.665  27.247  1.00  0.00     0.021 C 
BRANCH  59  60
ATOM     60  C   UNL A   1      33.088  27.329  26.511  1.00  0.00     0.116 C 
BRANCH  60  61
ATOM     61  N   UNL A   1      31.861  26.585  26.748  1.00  0.00    -0.352 N 
ATOM     62  C   UNL A   1      30.804  26.365  25.904  1.00  0.00     0.252 C 
ATOM     63  H   UNL A   1      31.777  26.182  27.643  1.00  0.00     0.163 HD
ATOM     64  O   UNL A   1      29.817  25.742  26.292  1.00  0.00    -0.269 OA
BRANCH  62  65
ATOM     65  C   UNL A   1      30.863  26.858  24.514  1.00  0.00     0.051 A 
ATOM     66  C   UNL A   1      30.281  28.097  24.253  1.00  0.00     0.045 A 
ATOM     67  C   UNL A   1      31.485  26.119  23.488  1.00  0.00     0.016 A 
ATOM     68  C   UNL A   1      30.245  28.549  22.948  1.00  0.00     0.090 A 
ATOM     69  C   UNL A   1      31.431  26.684  22.197  1.00  0.00     0.072 A 
ATOM     70  C   UNL A   1      32.131  24.871  23.671  1.00  0.00     0.050 A 
ATOM     71  N   UNL A   1      30.820  27.852  21.935  1.00  0.00    -0.246 NA
ATOM     72  C   UNL A   1      32.027  25.998  21.143  1.00  0.00     0.032 A 
ATOM     73  C   UNL A   1      32.717  24.219  22.595  1.00  0.00     0.123 A 
ATOM     74  C   UNL A   1      32.673  24.773  21.328  1.00  0.00     0.041 A 
ATOM     75  F   UNL A   1      33.331  23.045  22.785  1.00  0.00    -0.207 F 
BRANCH  68  76
ATOM     76  C   UNL A   1      29.519  29.784  22.607  1.00  0.00     0.089 A 
ATOM     77  C   UNL A   1      29.245  30.759  23.567  1.00  0.00     0.030 A 
ATOM     78  N   UNL A   1      29.023  29.861  21.344  1.00  0.00    -0.255 NA
ATOM     79  C   UNL A   1      28.440  31.843  23.225  1.00  0.00     0.004 A 
ATOM     80  C   UNL A   1      28.259  30.931  21.035  1.00  0.00     0.112 A 
ATOM     81  C   UNL A   1      27.935  31.932  21.934  1.00  0.00     0.020 A 
ENDBRANCH  68  76
ENDBRANCH  62  65
ENDBRANCH  60  61
ENDBRANCH  59  60
ENDBRANCH  58  59
ENDBRANCH   1  58
TORSDOF 14
ENDMDL
MODEL 3
REMARK VINA RESULT:     -11.7      4.415      9.556
REMARK SMILES O=C(NCCCCCCNC(=O)c1cc(-c2ccccn2)nc2ccc(F)cc12)c1ccc(-c2c3nc(c(-c4ccccc4)c4ccc([nH]4)c(-c4ccccc4)c4nc(c(-c5ccccc5)c5ccc2[nH]5)C=C4)C=C3)cc1
REMARK SMILES IDX 6 1 5 2 4 3 3 4 1 5 2 6 30 8 31 9 77 10 32 11 76 12 33 13
REMARK SMILES IDX 34 14 35 15 70 16 36 17 75 18 69 19 71 20 37 21 74 22 68 23
REMARK SMILES IDX 67 24 38 26 60 27 45 28 59 29 46 30 49 31 58 32 72 33 47 34
REMARK SMILES IDX 48 35 57 37 73 38 50 39 39 40 40 41 44 42 41 43 43 44 42 45
REMARK SMILES IDX 61 46 62 47 66 48 63 49 65 50 64 51 51 52 52 53 56 54 53 55
REMARK SMILES IDX 55 56 54 57 7 58 8 59 9 60 10 61 11 62 12 64 13 65 14 66
REMARK SMILES IDX 29 67 15 68 23 69 28 70 22 71 24 72 26 73 25 74 27 75 16 76
REMARK SMILES IDX 17 77 21 78 18 79 20 80 19 81
REMARK H PARENT 3 7 71 25 49 36 10 63
REMARK Flexibility Score: inf
ROOT
ATOM      1  C   UNL A   1      31.573  30.518  26.161  1.00  0.00     0.002 C 
ENDROOT
BRANCH   1   2
ATOM      2  C   UNL A   1      31.430  31.968  26.624  1.00  0.00     0.021 C 
BRANCH   2   3
ATOM      3  C   UNL A   1      32.719  32.651  27.063  1.00  0.00     0.116 C 
BRANCH   3   4
ATOM      4  N   UNL A   1      32.494  33.908  27.752  1.00  0.00    -0.352 N 
ATOM      5  O   UNL A   1      32.804  35.519  29.292  1.00  0.00    -0.269 OA
ATOM      6  C   UNL A   1      33.225  34.500  28.751  1.00  0.00     0.251 C 
ATOM      7  H   UNL A   1      31.698  34.409  27.458  1.00  0.00     0.163 HD
BRANCH   6   8
ATOM      8  C   UNL A   1      34.505  33.907  29.202  1.00  0.00     0.039 A 
ATOM      9  C   UNL A   1      34.484  33.028  30.290  1.00  0.00     0.014 A 
ATOM     10  C   UNL A   1      35.722  34.231  28.595  1.00  0.00     0.014 A 
ATOM     11  C   UNL A   1      35.673  32.452  30.744  1.00  0.00     0.010 A 
ATOM     12  C   UNL A   1      36.896  33.596  28.998  1.00  0.00     0.010 A 
ATOM     13  C   UNL A   1      36.887  32.718  30.090  1.00  0.00    -0.014 A 
BRANCH  13  14
ATOM     14  C   UNL A   1      38.156  32.116  30.572  1.00  0.00     0.031 A 
ATOM     15  C   UNL A   1      38.655  30.826  29.982  1.00  0.00     0.074 A 
ATOM     16  C   UNL A   1      38.858  32.721  31.550  1.00  0.00     0.049 A 
ATOM     17  N   UNL A   1      39.744  30.155  30.265  1.00  0.00    -0.248 NA
ATOM     18  C   UNL A   1      37.810  30.191  28.956  1.00  0.00     0.031 C 
ATOM     19  C   UNL A   1      38.466  33.955  32.232  1.00  0.00     0.029 A 
ATOM     20  N   UNL A   1      40.055  32.384  32.129  1.00  0.00    -0.354 N 
ATOM     21  C   UNL A   1      39.710  29.025  29.458  1.00  0.00     0.074 A 
ATOM     22  C   UNL A   1      38.465  29.064  28.724  1.00  0.00     0.031 C 
ATOM     23  C   UNL A   1      39.427  34.295  33.106  1.00  0.00     0.029 A 
ATOM     24  C   UNL A   1      40.486  33.291  33.067  1.00  0.00     0.049 A 
ATOM     25  H   UNL A   1      40.559  31.571  31.895  1.00  0.00     0.167 HD
ATOM     26  C   UNL A   1      40.645  28.056  29.315  1.00  0.00     0.031 A 
ATOM     27  C   UNL A   1      41.613  33.321  33.803  1.00  0.00     0.031 A 
ATOM     28  C   UNL A   1      41.889  28.018  30.034  1.00  0.00     0.049 A 
ATOM     29  C   UNL A   1      42.640  32.240  33.627  1.00  0.00     0.074 A 
ATOM     30  C   UNL A   1      42.913  27.093  29.935  1.00  0.00     0.029 A 
ATOM     31  N   UNL A   1      42.282  28.953  30.980  1.00  0.00    -0.354 N 
ATOM     32  N   UNL A   1      42.610  31.198  32.832  1.00  0.00    -0.248 NA
ATOM     33  C   UNL A   1      43.863  32.345  34.436  1.00  0.00     0.031 C 
ATOM     34  C   UNL A   1      43.906  27.442  30.855  1.00  0.00     0.029 A 
ATOM     35  C   UNL A   1      43.526  28.618  31.484  1.00  0.00     0.049 A 
ATOM     36  H   UNL A   1      41.753  29.737  31.252  1.00  0.00     0.167 HD
ATOM     37  C   UNL A   1      43.810  30.529  33.036  1.00  0.00     0.074 A 
ATOM     38  C   UNL A   1      44.557  31.297  34.013  1.00  0.00     0.031 C 
ATOM     39  C   UNL A   1      44.251  29.380  32.469  1.00  0.00     0.031 A 
BRANCH  26  40
ATOM     40  C   UNL A   1      40.358  26.960  28.325  1.00  0.00    -0.014 A 
ATOM     41  C   UNL A   1      39.626  25.829  28.717  1.00  0.00     0.009 A 
ATOM     42  C   UNL A   1      40.851  27.028  27.011  1.00  0.00     0.009 A 
ATOM     43  C   UNL A   1      39.391  24.789  27.815  1.00  0.00     0.001 A 
ATOM     44  C   UNL A   1      40.587  26.001  26.102  1.00  0.00     0.001 A 
ATOM     45  C   UNL A   1      39.863  24.881  26.505  1.00  0.00     0.000 A 
ENDBRANCH  26  40
BRANCH  27  46
ATOM     46  C   UNL A   1      41.839  34.454  34.738  1.00  0.00    -0.014 A 
ATOM     47  C   UNL A   1      41.440  34.364  36.082  1.00  0.00     0.009 A 
ATOM     48  C   UNL A   1      42.399  35.653  34.275  1.00  0.00     0.009 A 
ATOM     49  C   UNL A   1      41.579  35.460  36.936  1.00  0.00     0.001 A 
ATOM     50  C   UNL A   1      42.559  36.740  35.139  1.00  0.00     0.001 A 
ATOM     51  C   UNL A   1      42.141  36.645  36.465  1.00  0.00     0.000 A 
ENDBRANCH  27  46
BRANCH  39  52
ATOM     52  C   UNL A   1      45.600  28.868  32.888  1.00  0.00    -0.014 A 
ATOM     53  C   UNL A   1      45.713  28.021  34.001  1.00  0.00     0.009 A 
ATOM     54  C   UNL A   1      46.767  29.292  32.234  1.00  0.00     0.009 A 
ATOM     55  C   UNL A   1      46.968  27.613  34.456  1.00  0.00     0.001 A 
ATOM     56  C   UNL A   1      48.020  28.859  32.675  1.00  0.00     0.001 A 
ATOM     57  C   UNL A   1      48.119  28.028  33.789  1.00  0.00     0.000 A 
ENDBRANCH  39  52
ENDBRANCH  13  14
ENDBRANCH   6   8
ENDBRANCH   3   4
ENDBRANCH   2   3
ENDBRANCH   1   2
BRANCH   1  58
ATOM     58  C   UNL A   1      31.772  29.477  27.265  1.00  0.00     0.002 C 
BRANCH  58  59
ATOM     59  C   UNL A   1      33.099  28.712  27.240  1.00  0.00     0.021 C 
BRANCH  59  60
ATOM     60  C   UNL A   1      33.083  27.384  26.489  1.00  0.00     0.116 C 
BRANCH  60  61
ATOM     61  N   UNL A   1      31.878  26.609  26.739  1.00  0.00    -0.352 N 
ATOM     62  C   UNL A   1      30.822  26.354  25.903  1.00  0.00     0.252 C 
ATOM     63  H   UNL A   1      31.810  26.213  27.637  1.00  0.00     0.163 HD
ATOM     64  O   UNL A   1      29.855  25.708  26.302  1.00  0.00    -0.269 OA
BRANCH  62  65
ATOM     65  C   UNL A   1      30.860  26.836  24.509  1.00  0.00     0.051 A 
ATOM     66  C   UNL A   1      30.255  28.063  24.243  1.00  0.00     0.045 A 
ATOM     67  C   UNL A   1      31.484  26.098  23.483  1.00  0.00     0.016 A 
ATOM     68  C   UNL A   1      30.199  28.503  22.934  1.00  0.00     0.090 A 
ATOM     69  C   UNL A   1      31.408  26.651  22.187  1.00  0.00     0.072 A 
ATOM     70  C   UNL A   1      32.151  24.862  23.670  1.00  0.00     0.050 A 
ATOM     71  N   UNL A   1      30.776  27.808  21.922  1.00  0.00    -0.246 NA
ATOM     72  C   UNL A   1      32.005  25.966  21.134  1.00  0.00     0.032 A 
ATOM     73  C   UNL A   1      32.737  24.211  22.593  1.00  0.00     0.123 A 
ATOM     74  C   UNL A   1      32.672  24.754  21.322  1.00  0.00     0.041 A 
ATOM     75  F   UNL A   1      33.372  23.049  22.787  1.00  0.00    -0.207 F 
BRANCH  68  76
ATOM     76  C   UNL A   1      29.450  29.724  22.591  1.00  0.00     0.089 A 
ATOM     77  C   UNL A   1      29.119  30.675  23.557  1.00  0.00     0.030 A 
ATOM     78  N   UNL A   1      28.994  29.809  21.314  1.00  0.00    -0.255 NA
ATOM     79  C   UNL A   1      28.295  31.742  23.207  1.00  0.00     0.004 A 
ATOM     80  C   UNL A   1      28.210  30.863  20.997  1.00  0.00     0.112 A 
ATOM     81  C   UNL A   1      27.829  31.839  21.902  1.00  0.00     0.020 A 
ENDBRANCH  68  76
ENDBRANCH  62  65
ENDBRANCH  60  61
ENDBRANCH  59  60
ENDBRANCH  58  59
ENDBRANCH   1  58
TORSDOF 14
ENDMDL
