MODEL 1
REMARK VINA RESULT:     -10.7      0.000      0.000
REMARK SMILES CN(CC(N)=O)S(=O)(=O)c1ccc(C(=O)NCCCCCCNC(=O)c2ccc(-c3c4nc(c(-c5ccccc5)c5ccc([nH]5)c(-c5ccccc5)c5nc(c(-c6ccccc6)c6ccc3[nH]6)C=C5)C=C4)cc2)cc1Br
REMARK SMILES IDX 18 1 17 2 16 3 14 4 15 5 13 7 10 8 11 9 75 10 12 11 74 12
REMARK SMILES IDX 76 13 7 14 8 15 9 16 2 17 1 18 3 19 4 20 5 21 6 22 19 25
REMARK SMILES IDX 20 26 21 27 22 28 23 29 24 30 25 32 26 33 27 34 73 35 28 36
REMARK SMILES IDX 72 37 29 38 30 39 31 40 66 41 32 42 71 43 65 44 67 45 33 46
REMARK SMILES IDX 70 47 64 48 63 49 34 51 56 52 41 53 55 54 42 55 45 56 54 57
REMARK SMILES IDX 68 58 43 59 44 60 53 62 69 63 46 64 35 65 36 66 40 67 37 68
REMARK SMILES IDX 39 69 38 70 57 71 58 72 62 73 59 74 61 75 60 76 47 77 48 78
REMARK SMILES IDX 52 79 49 80 51 81 50 82
REMARK H PARENT 16 6 5 23 5 24 23 31 67 50 45 61
REMARK Flexibility Score: inf
ROOT
ATOM      1  C   UNL A   1      33.929  20.755  25.551  1.00  0.00     0.021 C 
ENDROOT
BRANCH   1   2
ATOM      2  C   UNL A   1      32.846  21.200  24.579  1.00  0.00     0.116 C 
BRANCH   2   3
ATOM      3  N   UNL A   1      33.292  21.944  23.409  1.00  0.00    -0.352 N 
ATOM      4  C   UNL A   1      33.537  23.300  23.245  1.00  0.00     0.251 C 
ATOM      5  O   UNL A   1      33.899  23.717  22.147  1.00  0.00    -0.269 OA
ATOM      6  H   UNL A   1      33.445  21.397  22.605  1.00  0.00     0.163 HD
BRANCH   4   7
ATOM      7  C   UNL A   1      33.296  24.278  24.348  1.00  0.00     0.041 A 
ATOM      8  C   UNL A   1      32.648  26.508  25.952  1.00  0.00     0.096 A 
ATOM      9  C   UNL A   1      33.983  26.261  25.562  1.00  0.00     0.024 A 
ATOM     10  C   UNL A   1      31.673  25.605  25.539  1.00  0.00     0.038 A 
ATOM     11  C   UNL A   1      34.292  25.188  24.708  1.00  0.00     0.015 A 
ATOM     12  C   UNL A   1      32.046  24.401  24.937  1.00  0.00     0.031 A 
ATOM     13  Br  UNL A   1      29.835  25.985  25.227  1.00  0.00    -0.049 Br
BRANCH   8  14
ATOM     14  S   UNL A   1      32.308  28.051  26.779  1.00  0.00     0.244 S 
ATOM     15  O   UNL A   1      33.590  28.549  27.246  1.00  0.00    -0.207 OA
ATOM     16  O   UNL A   1      31.255  27.761  27.732  1.00  0.00    -0.207 OA
BRANCH  14  17
ATOM     17  N   UNL A   1      31.636  29.133  25.636  1.00  0.00    -0.192 NA
ATOM     18  C   UNL A   1      31.683  30.562  26.060  1.00  0.00     0.125 C 
BRANCH  17  19
ATOM     19  C   UNL A   1      32.023  29.032  24.203  1.00  0.00     0.201 C 
BRANCH  19  20
ATOM     20  C   UNL A   1      30.930  29.278  23.171  1.00  0.00     0.232 C 
ATOM     21  N   UNL A   1      31.322  29.662  21.925  1.00  0.00    -0.369 N 
ATOM     22  O   UNL A   1      29.737  29.132  23.426  1.00  0.00    -0.274 OA
ATOM     23  H   UNL A   1      32.278  29.778  21.724  1.00  0.00     0.159 HD
ATOM     24  H   UNL A   1      30.648  29.825  21.225  1.00  0.00     0.159 HD
ENDBRANCH  19  20
ENDBRANCH  17  19
ENDBRANCH  14  17
ENDBRANCH   8  14
ENDBRANCH   4   7
ENDBRANCH   2   3
ENDBRANCH   1   2
BRANCH   1  25
ATOM     25  C   UNL A   1      35.116  20.003  24.956  1.00  0.00     0.002 C 
BRANCH  25  26
ATOM     26  C   UNL A   1      36.461  20.735  24.956  1.00  0.00     0.002 C 
BRANCH  26  27
ATOM     27  C   UNL A   1      37.723  19.866  24.911  1.00  0.00     0.021 C 
BRANCH  27  28
ATOM     28  C   UNL A   1      38.915  20.367  25.723  1.00  0.00     0.116 C 
BRANCH  28  29
ATOM     29  N   UNL A   1      40.013  19.416  25.761  1.00  0.00    -0.352 N 
ATOM     30  C   UNL A   1      41.337  19.605  26.072  1.00  0.00     0.251 C 
ATOM     31  H   UNL A   1      39.769  18.492  25.526  1.00  0.00     0.163 HD
ATOM     32  O   UNL A   1      42.139  18.691  25.899  1.00  0.00    -0.269 OA
BRANCH  30  33
ATOM     33  C   UNL A   1      41.814  20.904  26.595  1.00  0.00     0.039 A 
ATOM     34  C   UNL A   1      42.262  21.868  25.688  1.00  0.00     0.014 A 
ATOM     35  C   UNL A   1      41.861  21.165  27.968  1.00  0.00     0.014 A 
ATOM     36  C   UNL A   1      42.696  23.114  26.150  1.00  0.00     0.010 A 
ATOM     37  C   UNL A   1      42.233  22.429  28.423  1.00  0.00     0.010 A 
ATOM     38  C   UNL A   1      42.655  23.416  27.520  1.00  0.00    -0.014 A 
BRANCH  38  39
ATOM     39  C   UNL A   1      43.044  24.759  28.023  1.00  0.00     0.031 A 
ATOM     40  C   UNL A   1      41.998  25.809  28.281  1.00  0.00     0.074 A 
ATOM     41  C   UNL A   1      44.348  25.055  28.192  1.00  0.00     0.049 A 
ATOM     42  N   UNL A   1      42.151  27.052  28.663  1.00  0.00    -0.248 NA
ATOM     43  C   UNL A   1      40.597  25.418  28.059  1.00  0.00     0.031 C 
ATOM     44  C   UNL A   1      45.465  24.140  27.946  1.00  0.00     0.029 A 
ATOM     45  N   UNL A   1      44.955  26.216  28.603  1.00  0.00    -0.354 N 
ATOM     46  C   UNL A   1      40.873  27.595  28.709  1.00  0.00     0.074 A 
ATOM     47  C   UNL A   1      39.960  26.560  28.274  1.00  0.00     0.031 C 
ATOM     48  C   UNL A   1      46.618  24.766  28.234  1.00  0.00     0.029 A 
ATOM     49  C   UNL A   1      46.326  26.135  28.644  1.00  0.00     0.049 A 
ATOM     50  H   UNL A   1      44.456  27.029  28.845  1.00  0.00     0.167 HD
ATOM     51  C   UNL A   1      40.490  28.835  29.095  1.00  0.00     0.031 A 
ATOM     52  C   UNL A   1      47.248  27.062  28.970  1.00  0.00     0.031 A 
ATOM     53  C   UNL A   1      41.395  29.862  29.538  1.00  0.00     0.049 A 
ATOM     54  C   UNL A   1      46.799  28.436  29.380  1.00  0.00     0.074 A 
ATOM     55  C   UNL A   1      41.098  31.133  30.001  1.00  0.00     0.029 A 
ATOM     56  N   UNL A   1      42.776  29.737  29.571  1.00  0.00    -0.354 N 
ATOM     57  N   UNL A   1      45.581  28.911  29.479  1.00  0.00    -0.248 NA
ATOM     58  C   UNL A   1      47.852  29.398  29.734  1.00  0.00     0.031 C 
ATOM     59  C   UNL A   1      42.301  31.793  30.267  1.00  0.00     0.029 A 
ATOM     60  C   UNL A   1      43.345  30.916  30.025  1.00  0.00     0.049 A 
ATOM     61  H   UNL A   1      43.277  28.931  29.312  1.00  0.00     0.167 HD
ATOM     62  C   UNL A   1      45.719  30.216  29.934  1.00  0.00     0.074 A 
ATOM     63  C   UNL A   1      47.138  30.452  30.105  1.00  0.00     0.031 C 
ATOM     64  C   UNL A   1      44.758  31.136  30.189  1.00  0.00     0.031 A 
BRANCH  51  65
ATOM     65  C   UNL A   1      39.021  29.154  29.047  1.00  0.00    -0.014 A 
ATOM     66  C   UNL A   1      38.203  28.984  30.175  1.00  0.00     0.009 A 
ATOM     67  C   UNL A   1      38.456  29.668  27.869  1.00  0.00     0.009 A 
ATOM     68  C   UNL A   1      36.840  29.287  30.113  1.00  0.00     0.001 A 
ATOM     69  C   UNL A   1      37.100  29.996  27.819  1.00  0.00     0.001 A 
ATOM     70  C   UNL A   1      36.291  29.796  28.937  1.00  0.00     0.000 A 
ENDBRANCH  51  65
BRANCH  52  71
ATOM     71  C   UNL A   1      48.693  26.718  28.935  1.00  0.00    -0.014 A 
ATOM     72  C   UNL A   1      49.295  26.063  30.020  1.00  0.00     0.009 A 
ATOM     73  C   UNL A   1      49.481  27.050  27.822  1.00  0.00     0.009 A 
ATOM     74  C   UNL A   1      50.661  25.771  30.003  1.00  0.00     0.001 A 
ATOM     75  C   UNL A   1      50.841  26.730  27.795  1.00  0.00     0.001 A 
ATOM     76  C   UNL A   1      51.431  26.101  28.889  1.00  0.00     0.000 A 
ENDBRANCH  52  71
BRANCH  64  77
ATOM     77  C   UNL A   1      45.205  32.470  30.717  1.00  0.00    -0.014 A 
ATOM     78  C   UNL A   1      45.458  33.548  29.854  1.00  0.00     0.009 A 
ATOM     79  C   UNL A   1      45.336  32.661  32.101  1.00  0.00     0.009 A 
ATOM     80  C   UNL A   1      45.865  34.782  30.368  1.00  0.00     0.001 A 
ATOM     81  C   UNL A   1      45.715  33.902  32.613  1.00  0.00     0.001 A 
ATOM     82  C   UNL A   1      45.988  34.959  31.745  1.00  0.00     0.000 A 
ENDBRANCH  64  77
ENDBRANCH  38  39
ENDBRANCH  30  33
ENDBRANCH  28  29
ENDBRANCH  27  28
ENDBRANCH  26  27
ENDBRANCH  25  26
ENDBRANCH   1  25
TORSDOF 17
ENDMDL
MODEL 2
REMARK VINA RESULT:     -10.7      1.425      6.157
REMARK SMILES CN(CC(N)=O)S(=O)(=O)c1ccc(C(=O)NCCCCCCNC(=O)c2ccc(-c3c4nc(c(-c5ccccc5)c5ccc([nH]5)c(-c5ccccc5)c5nc(c(-c6ccccc6)c6ccc3[nH]6)C=C5)C=C4)cc2)cc1Br
REMARK SMILES IDX 18 1 17 2 16 3 14 4 15 5 13 7 10 8 11 9 75 10 12 11 74 12
REMARK SMILES IDX 76 13 7 14 8 15 9 16 2 17 1 18 3 19 4 20 5 21 6 22 19 25
REMARK SMILES IDX 20 26 21 27 22 28 23 29 24 30 25 32 26 33 27 34 73 35 28 36
REMARK SMILES IDX 72 37 29 38 30 39 31 40 66 41 32 42 71 43 65 44 67 45 33 46
REMARK SMILES IDX 70 47 64 48 63 49 34 51 56 52 41 53 55 54 42 55 45 56 54 57
REMARK SMILES IDX 68 58 43 59 44 60 53 62 69 63 46 64 35 65 36 66 40 67 37 68
REMARK SMILES IDX 39 69 38 70 57 71 58 72 62 73 59 74 61 75 60 76 47 77 48 78
REMARK SMILES IDX 52 79 49 80 51 81 50 82
REMARK H PARENT 16 6 5 23 5 24 23 31 67 50 45 61
REMARK Flexibility Score: inf
ROOT
ATOM      1  C   UNL A   1      35.746  22.023  24.457  1.00  0.00     0.021 C 
ENDROOT
BRANCH   1   2
ATOM      2  C   UNL A   1      35.257  21.275  25.690  1.00  0.00     0.116 C 
BRANCH   2   3
ATOM      3  N   UNL A   1      34.183  20.313  25.480  1.00  0.00    -0.352 N 
ATOM      4  C   UNL A   1      32.829  20.512  25.252  1.00  0.00     0.251 C 
ATOM      5  O   UNL A   1      32.093  19.538  25.115  1.00  0.00    -0.269 OA
ATOM      6  H   UNL A   1      34.463  19.370  25.504  1.00  0.00     0.163 HD
BRANCH   4   7
ATOM      7  C   UNL A   1      32.230  21.879  25.246  1.00  0.00     0.041 A 
ATOM      8  C   UNL A   1      31.709  24.653  25.289  1.00  0.00     0.096 A 
ATOM      9  C   UNL A   1      31.581  23.876  26.461  1.00  0.00     0.024 A 
ATOM     10  C   UNL A   1      32.077  24.003  24.115  1.00  0.00     0.038 A 
ATOM     11  C   UNL A   1      31.906  22.508  26.451  1.00  0.00     0.015 A 
ATOM     12  C   UNL A   1      32.113  22.607  24.071  1.00  0.00     0.031 A 
ATOM     13  Br  UNL A   1      33.028  24.758  22.650  1.00  0.00    -0.049 Br
BRANCH   8  14
ATOM     14  S   UNL A   1      31.571  26.424  25.460  1.00  0.00     0.244 S 
ATOM     15  O   UNL A   1      32.920  26.947  25.335  1.00  0.00    -0.207 OA
ATOM     16  O   UNL A   1      30.822  26.641  26.682  1.00  0.00    -0.207 OA
BRANCH  14  17
ATOM     17  N   UNL A   1      30.591  27.008  24.185  1.00  0.00    -0.192 NA
ATOM     18  C   UNL A   1      29.239  26.381  24.131  1.00  0.00     0.125 C 
BRANCH  17  19
ATOM     19  C   UNL A   1      30.463  28.474  23.960  1.00  0.00     0.201 C 
BRANCH  19  20
ATOM     20  C   UNL A   1      30.667  28.975  22.536  1.00  0.00     0.232 C 
ATOM     21  N   UNL A   1      31.931  29.326  22.172  1.00  0.00    -0.369 N 
ATOM     22  O   UNL A   1      29.745  29.059  21.729  1.00  0.00    -0.274 OA
ATOM     23  H   UNL A   1      32.667  29.257  22.822  1.00  0.00     0.159 HD
ATOM     24  H   UNL A   1      32.109  29.648  21.259  1.00  0.00     0.159 HD
ENDBRANCH  19  20
ENDBRANCH  17  19
ENDBRANCH  14  17
ENDBRANCH   8  14
ENDBRANCH   4   7
ENDBRANCH   2   3
ENDBRANCH   1   2
BRANCH   1  25
ATOM     25  C   UNL A   1      37.145  22.625  24.531  1.00  0.00     0.002 C 
BRANCH  25  26
ATOM     26  C   UNL A   1      38.145  21.923  25.455  1.00  0.00     0.002 C 
BRANCH  26  27
ATOM     27  C   UNL A   1      38.653  20.547  25.010  1.00  0.00     0.021 C 
BRANCH  27  28
ATOM     28  C   UNL A   1      39.091  19.598  26.123  1.00  0.00     0.116 C 
BRANCH  28  29
ATOM     29  N   UNL A   1      40.390  18.998  25.875  1.00  0.00    -0.352 N 
ATOM     30  C   UNL A   1      41.646  19.550  25.939  1.00  0.00     0.251 C 
ATOM     31  H   UNL A   1      40.367  18.048  25.621  1.00  0.00     0.163 HD
ATOM     32  O   UNL A   1      42.615  18.907  25.545  1.00  0.00    -0.269 OA
BRANCH  30  33
ATOM     33  C   UNL A   1      41.845  20.921  26.460  1.00  0.00     0.039 A 
ATOM     34  C   UNL A   1      41.695  21.146  27.831  1.00  0.00     0.014 A 
ATOM     35  C   UNL A   1      42.140  21.989  25.608  1.00  0.00     0.014 A 
ATOM     36  C   UNL A   1      41.901  22.424  28.357  1.00  0.00     0.010 A 
ATOM     37  C   UNL A   1      42.408  23.250  26.140  1.00  0.00     0.010 A 
ATOM     38  C   UNL A   1      42.290  23.481  27.518  1.00  0.00    -0.014 A 
BRANCH  38  39
ATOM     39  C   UNL A   1      42.584  24.830  28.068  1.00  0.00     0.031 A 
ATOM     40  C   UNL A   1      43.973  25.181  28.525  1.00  0.00     0.074 A 
ATOM     41  C   UNL A   1      41.584  25.723  28.213  1.00  0.00     0.049 A 
ATOM     42  N   UNL A   1      44.405  26.284  29.085  1.00  0.00    -0.248 NA
ATOM     43  C   UNL A   1      45.009  24.150  28.352  1.00  0.00     0.031 C 
ATOM     44  C   UNL A   1      40.185  25.497  27.841  1.00  0.00     0.029 A 
ATOM     45  N   UNL A   1      41.591  26.998  28.721  1.00  0.00    -0.354 N 
ATOM     46  C   UNL A   1      45.754  26.073  29.346  1.00  0.00     0.074 A 
ATOM     47  C   UNL A   1      46.058  24.722  28.924  1.00  0.00     0.031 C 
ATOM     48  C   UNL A   1      39.475  26.605  28.111  1.00  0.00     0.029 A 
ATOM     49  C   UNL A   1      40.357  27.601  28.710  1.00  0.00     0.049 A 
ATOM     50  H   UNL A   1      42.403  27.439  29.060  1.00  0.00     0.167 HD
ATOM     51  C   UNL A   1      46.661  26.929  29.872  1.00  0.00     0.031 A 
ATOM     52  C   UNL A   1      39.974  28.819  29.140  1.00  0.00     0.031 A 
ATOM     53  C   UNL A   1      46.363  28.276  30.282  1.00  0.00     0.049 A 
ATOM     54  C   UNL A   1      40.997  29.746  29.735  1.00  0.00     0.074 A 
ATOM     55  C   UNL A   1      47.227  29.239  30.776  1.00  0.00     0.029 A 
ATOM     56  N   UNL A   1      45.101  28.850  30.249  1.00  0.00    -0.354 N 
ATOM     57  N   UNL A   1      42.281  29.553  29.914  1.00  0.00    -0.248 NA
ATOM     58  C   UNL A   1      40.518  31.063  30.176  1.00  0.00     0.031 C 
ATOM     59  C   UNL A   1      46.479  30.379  31.087  1.00  0.00     0.029 A 
ATOM     60  C   UNL A   1      45.160  30.146  30.735  1.00  0.00     0.049 A 
ATOM     61  H   UNL A   1      44.285  28.404  29.927  1.00  0.00     0.167 HD
ATOM     62  C   UNL A   1      42.769  30.732  30.460  1.00  0.00     0.074 A 
ATOM     63  C   UNL A   1      41.646  31.640  30.569  1.00  0.00     0.031 C 
ATOM     64  C   UNL A   1      44.034  31.037  30.837  1.00  0.00     0.031 A 
BRANCH  51  65
ATOM     65  C   UNL A   1      48.069  26.430  30.042  1.00  0.00    -0.014 A 
ATOM     66  C   UNL A   1      48.485  25.815  31.235  1.00  0.00     0.009 A 
ATOM     67  C   UNL A   1      48.982  26.540  28.981  1.00  0.00     0.009 A 
ATOM     68  C   UNL A   1      49.796  25.356  31.374  1.00  0.00     0.001 A 
ATOM     69  C   UNL A   1      50.285  26.054  29.115  1.00  0.00     0.001 A 
ATOM     70  C   UNL A   1      50.693  25.472  30.313  1.00  0.00     0.000 A 
ENDBRANCH  51  65
BRANCH  52  71
ATOM     71  C   UNL A   1      38.554  29.240  29.014  1.00  0.00    -0.014 A 
ATOM     72  C   UNL A   1      38.064  29.728  27.793  1.00  0.00     0.009 A 
ATOM     73  C   UNL A   1      37.685  29.166  30.113  1.00  0.00     0.009 A 
ATOM     74  C   UNL A   1      36.739  30.159  27.683  1.00  0.00     0.001 A 
ATOM     75  C   UNL A   1      36.353  29.569  29.992  1.00  0.00     0.001 A 
ATOM     76  C   UNL A   1      35.884  30.074  28.781  1.00  0.00     0.000 A 
ENDBRANCH  52  71
BRANCH  64  77
ATOM     77  C   UNL A   1      44.279  32.422  31.366  1.00  0.00    -0.014 A 
ATOM     78  C   UNL A   1      44.254  32.692  32.743  1.00  0.00     0.009 A 
ATOM     79  C   UNL A   1      44.579  33.463  30.474  1.00  0.00     0.009 A 
ATOM     80  C   UNL A   1      44.492  33.986  33.212  1.00  0.00     0.001 A 
ATOM     81  C   UNL A   1      44.845  34.748  30.947  1.00  0.00     0.001 A 
ATOM     82  C   UNL A   1      44.793  35.010  32.316  1.00  0.00     0.000 A 
ENDBRANCH  64  77
ENDBRANCH  38  39
ENDBRANCH  30  33
ENDBRANCH  28  29
ENDBRANCH  27  28
ENDBRANCH  26  27
ENDBRANCH  25  26
ENDBRANCH   1  25
TORSDOF 17
ENDMDL
MODEL 3
REMARK VINA RESULT:     -10.4      2.615      4.102
REMARK SMILES CN(CC(N)=O)S(=O)(=O)c1ccc(C(=O)NCCCCCCNC(=O)c2ccc(-c3c4nc(c(-c5ccccc5)c5ccc([nH]5)c(-c5ccccc5)c5nc(c(-c6ccccc6)c6ccc3[nH]6)C=C5)C=C4)cc2)cc1Br
REMARK SMILES IDX 18 1 17 2 16 3 14 4 15 5 13 7 10 8 11 9 75 10 12 11 74 12
REMARK SMILES IDX 76 13 7 14 8 15 9 16 2 17 1 18 3 19 4 20 5 21 6 22 19 25
REMARK SMILES IDX 20 26 21 27 22 28 23 29 24 30 25 32 26 33 27 34 73 35 28 36
REMARK SMILES IDX 72 37 29 38 30 39 31 40 66 41 32 42 71 43 65 44 67 45 33 46
REMARK SMILES IDX 70 47 64 48 63 49 34 51 56 52 41 53 55 54 42 55 45 56 54 57
REMARK SMILES IDX 68 58 43 59 44 60 53 62 69 63 46 64 35 65 36 66 40 67 37 68
REMARK SMILES IDX 39 69 38 70 57 71 58 72 62 73 59 74 61 75 60 76 47 77 48 78
REMARK SMILES IDX 52 79 49 80 51 81 50 82
REMARK H PARENT 16 6 5 23 5 24 23 31 67 50 45 61
REMARK Flexibility Score: inf
ROOT
ATOM      1  C   UNL A   1      33.274  20.947  25.402  1.00  0.00     0.021 C 
ENDROOT
BRANCH   1   2
ATOM      2  C   UNL A   1      31.975  21.669  25.073  1.00  0.00     0.116 C 
BRANCH   2   3
ATOM      3  N   UNL A   1      31.030  21.831  26.170  1.00  0.00    -0.352 N 
ATOM      4  C   UNL A   1      30.532  22.981  26.766  1.00  0.00     0.251 C 
ATOM      5  O   UNL A   1      29.743  22.880  27.702  1.00  0.00    -0.269 OA
ATOM      6  H   UNL A   1      30.690  20.989  26.550  1.00  0.00     0.163 HD
BRANCH   4   7
ATOM      7  C   UNL A   1      30.992  24.340  26.350  1.00  0.00     0.041 A 
ATOM      8  C   UNL A   1      31.838  26.653  24.972  1.00  0.00     0.096 A 
ATOM      9  C   UNL A   1      32.776  25.792  25.583  1.00  0.00     0.024 A 
ATOM     10  C   UNL A   1      30.488  26.334  25.093  1.00  0.00     0.038 A 
ATOM     11  C   UNL A   1      32.356  24.606  26.209  1.00  0.00     0.015 A 
ATOM     12  C   UNL A   1      30.087  25.315  25.958  1.00  0.00     0.031 A 
ATOM     13  Br  UNL A   1      29.106  26.771  23.861  1.00  0.00    -0.049 Br
BRANCH   8  14
ATOM     14  S   UNL A   1      32.476  27.965  23.945  1.00  0.00     0.244 S 
ATOM     15  O   UNL A   1      31.871  27.784  22.637  1.00  0.00    -0.207 OA
ATOM     16  O   UNL A   1      33.918  27.907  24.088  1.00  0.00    -0.207 OA
BRANCH  14  17
ATOM     17  N   UNL A   1      31.986  29.459  24.622  1.00  0.00    -0.192 NA
ATOM     18  C   UNL A   1      30.727  30.000  24.033  1.00  0.00     0.125 C 
BRANCH  17  19
ATOM     19  C   UNL A   1      31.951  29.626  26.100  1.00  0.00     0.201 C 
BRANCH  19  20
ATOM     20  C   UNL A   1      33.270  29.468  26.846  1.00  0.00     0.232 C 
ATOM     21  N   UNL A   1      34.198  30.451  26.688  1.00  0.00    -0.369 N 
ATOM     22  O   UNL A   1      33.505  28.506  27.572  1.00  0.00    -0.274 OA
ATOM     23  H   UNL A   1      34.007  31.220  26.104  1.00  0.00     0.159 HD
ATOM     24  H   UNL A   1      35.062  30.392  27.157  1.00  0.00     0.159 HD
ENDBRANCH  19  20
ENDBRANCH  17  19
ENDBRANCH  14  17
ENDBRANCH   8  14
ENDBRANCH   4   7
ENDBRANCH   2   3
ENDBRANCH   1   2
BRANCH   1  25
ATOM     25  C   UNL A   1      34.085  21.494  26.572  1.00  0.00     0.002 C 
BRANCH  25  26
ATOM     26  C   UNL A   1      35.549  21.844  26.289  1.00  0.00     0.002 C 
BRANCH  26  27
ATOM     27  C   UNL A   1      35.884  23.328  26.106  1.00  0.00     0.021 C 
BRANCH  27  28
ATOM     28  C   UNL A   1      37.095  23.642  25.230  1.00  0.00     0.116 C 
BRANCH  28  29
ATOM     29  N   UNL A   1      38.211  22.742  25.465  1.00  0.00    -0.352 N 
ATOM     30  C   UNL A   1      39.415  22.970  26.086  1.00  0.00     0.251 C 
ATOM     31  H   UNL A   1      38.085  21.827  25.127  1.00  0.00     0.163 HD
ATOM     32  O   UNL A   1      40.290  22.109  26.051  1.00  0.00    -0.269 OA
BRANCH  30  33
ATOM     33  C   UNL A   1      39.679  24.250  26.780  1.00  0.00     0.039 A 
ATOM     34  C   UNL A   1      39.187  24.423  28.077  1.00  0.00     0.014 A 
ATOM     35  C   UNL A   1      40.372  25.290  26.154  1.00  0.00     0.014 A 
ATOM     36  C   UNL A   1      39.441  25.611  28.768  1.00  0.00     0.010 A 
ATOM     37  C   UNL A   1      40.680  26.449  26.866  1.00  0.00     0.010 A 
ATOM     38  C   UNL A   1      40.217  26.622  28.179  1.00  0.00    -0.014 A 
BRANCH  38  39
ATOM     39  C   UNL A   1      40.559  27.861  28.924  1.00  0.00     0.031 A 
ATOM     40  C   UNL A   1      39.563  28.983  29.035  1.00  0.00     0.074 A 
ATOM     41  C   UNL A   1      41.791  28.003  29.451  1.00  0.00     0.049 A 
ATOM     42  N   UNL A   1      39.703  30.160  29.593  1.00  0.00    -0.248 NA
ATOM     43  C   UNL A   1      38.244  28.763  28.420  1.00  0.00     0.031 C 
ATOM     44  C   UNL A   1      42.862  27.006  29.386  1.00  0.00     0.029 A 
ATOM     45  N   UNL A   1      42.353  29.049  30.141  1.00  0.00    -0.354 N 
ATOM     46  C   UNL A   1      38.501  30.825  29.380  1.00  0.00     0.074 A 
ATOM     47  C   UNL A   1      37.660  29.938  28.606  1.00  0.00     0.031 C 
ATOM     48  C   UNL A   1      43.942  27.478  30.029  1.00  0.00     0.029 A 
ATOM     49  C   UNL A   1      43.656  28.823  30.517  1.00  0.00     0.049 A 
ATOM     50  H   UNL A   1      41.870  29.882  30.346  1.00  0.00     0.167 HD
ATOM     51  C   UNL A   1      38.124  32.054  29.805  1.00  0.00     0.031 A 
ATOM     52  C   UNL A   1      44.526  29.612  31.175  1.00  0.00     0.031 A 
ATOM     53  C   UNL A   1      38.955  32.933  30.585  1.00  0.00     0.049 A 
ATOM     54  C   UNL A   1      44.088  30.979  31.623  1.00  0.00     0.074 A 
ATOM     55  C   UNL A   1      38.641  34.176  31.109  1.00  0.00     0.029 A 
ATOM     56  N   UNL A   1      40.264  32.663  30.950  1.00  0.00    -0.354 N 
ATOM     57  N   UNL A   1      42.926  31.565  31.469  1.00  0.00    -0.248 NA
ATOM     58  C   UNL A   1      45.080  31.787  32.346  1.00  0.00     0.031 C 
ATOM     59  C   UNL A   1      39.778  34.679  31.750  1.00  0.00     0.029 A 
ATOM     60  C   UNL A   1      40.781  33.727  31.673  1.00  0.00     0.049 A 
ATOM     61  H   UNL A   1      40.755  31.839  30.729  1.00  0.00     0.167 HD
ATOM     62  C   UNL A   1      43.037  32.797  32.100  1.00  0.00     0.074 A 
ATOM     63  C   UNL A   1      44.374  32.868  32.651  1.00  0.00     0.031 C 
ATOM     64  C   UNL A   1      42.113  33.782  32.215  1.00  0.00     0.031 A 
BRANCH  51  65
ATOM     65  C   UNL A   1      36.747  32.526  29.427  1.00  0.00    -0.014 A 
ATOM     66  C   UNL A   1      36.523  33.239  28.238  1.00  0.00     0.009 A 
ATOM     67  C   UNL A   1      35.653  32.221  30.252  1.00  0.00     0.009 A 
ATOM     68  C   UNL A   1      35.237  33.669  27.902  1.00  0.00     0.001 A 
ATOM     69  C   UNL A   1      34.364  32.627  29.899  1.00  0.00     0.001 A 
ATOM     70  C   UNL A   1      34.159  33.359  28.730  1.00  0.00     0.000 A 
ENDBRANCH  51  65
BRANCH  52  71
ATOM     71  C   UNL A   1      45.900  29.126  31.465  1.00  0.00    -0.014 A 
ATOM     72  C   UNL A   1      46.188  28.492  32.683  1.00  0.00     0.009 A 
ATOM     73  C   UNL A   1      46.932  29.301  30.530  1.00  0.00     0.009 A 
ATOM     74  C   UNL A   1      47.488  28.067  32.970  1.00  0.00     0.001 A 
ATOM     75  C   UNL A   1      48.224  28.847  30.808  1.00  0.00     0.001 A 
ATOM     76  C   UNL A   1      48.503  28.241  32.031  1.00  0.00     0.000 A 
ENDBRANCH  52  71
BRANCH  64  77
ATOM     77  C   UNL A   1      42.504  35.004  32.997  1.00  0.00    -0.014 A 
ATOM     78  C   UNL A   1      42.216  35.118  34.365  1.00  0.00     0.009 A 
ATOM     79  C   UNL A   1      43.207  36.039  32.360  1.00  0.00     0.009 A 
ATOM     80  C   UNL A   1      42.597  36.261  35.073  1.00  0.00     0.001 A 
ATOM     81  C   UNL A   1      43.611  37.167  33.076  1.00  0.00     0.001 A 
ATOM     82  C   UNL A   1      43.297  37.280  34.431  1.00  0.00     0.000 A 
ENDBRANCH  64  77
ENDBRANCH  38  39
ENDBRANCH  30  33
ENDBRANCH  28  29
ENDBRANCH  27  28
ENDBRANCH  26  27
ENDBRANCH  25  26
ENDBRANCH   1  25
TORSDOF 17
ENDMDL
