MODEL 1
REMARK VINA RESULT:     -10.9      0.000      0.000
REMARK SMILES O=C(NCCCCCCNC(=O)c1cnc(-c2ccccc2Cl)nc1)c1ccc(-c2c3nc(c(-c4ccccc4)c4ccc([nH]4)c(-c4ccccc4)c4nc(c(-c5ccccc5)c5ccc2[nH]5)C=C4)C=C3)cc1
REMARK SMILES IDX 6 1 5 2 4 3 3 4 1 5 2 6 26 8 27 9 73 10 28 11 72 12 29 13
REMARK SMILES IDX 30 14 31 15 66 16 32 17 71 18 65 19 67 20 33 21 70 22 64 23
REMARK SMILES IDX 63 24 34 26 56 27 41 28 55 29 42 30 45 31 54 32 68 33 43 34
REMARK SMILES IDX 44 35 53 37 69 38 46 39 35 40 36 41 40 42 37 43 39 44 38 45
REMARK SMILES IDX 57 46 58 47 62 48 59 49 61 50 60 51 47 52 48 53 52 54 49 55
REMARK SMILES IDX 51 56 50 57 7 58 8 59 9 60 10 61 11 62 12 64 13 65 14 66
REMARK SMILES IDX 25 67 15 68 24 69 16 70 17 71 18 72 22 73 19 74 21 75 23 76
REMARK SMILES IDX 20 77
REMARK H PARENT 3 7 67 25 45 36 10 63
REMARK Flexibility Score: inf
ROOT
ATOM      1  C   UNL A   1      32.638  28.527  24.945  1.00  0.00     0.002 C 
ENDROOT
BRANCH   1   2
ATOM      2  C   UNL A   1      33.902  28.400  25.796  1.00  0.00     0.021 C 
BRANCH   2   3
ATOM      3  C   UNL A   1      33.682  28.619  27.286  1.00  0.00     0.116 C 
BRANCH   3   4
ATOM      4  N   UNL A   1      33.613  30.031  27.628  1.00  0.00    -0.352 N 
ATOM      5  O   UNL A   1      34.268  31.937  28.648  1.00  0.00    -0.269 OA
ATOM      6  C   UNL A   1      34.551  30.807  28.261  1.00  0.00     0.251 C 
ATOM      7  H   UNL A   1      32.782  30.491  27.371  1.00  0.00     0.163 HD
BRANCH   6   8
ATOM      8  C   UNL A   1      35.907  30.267  28.484  1.00  0.00     0.039 A 
ATOM      9  C   UNL A   1      36.870  30.341  27.474  1.00  0.00     0.014 A 
ATOM     10  C   UNL A   1      36.221  29.695  29.719  1.00  0.00     0.014 A 
ATOM     11  C   UNL A   1      38.112  29.745  27.658  1.00  0.00     0.010 A 
ATOM     12  C   UNL A   1      37.498  29.175  29.934  1.00  0.00     0.010 A 
ATOM     13  C   UNL A   1      38.451  29.189  28.901  1.00  0.00    -0.014 A 
BRANCH  13  14
ATOM     14  C   UNL A   1      39.844  28.746  29.143  1.00  0.00     0.031 A 
ATOM     15  C   UNL A   1      40.871  29.670  29.728  1.00  0.00     0.074 A 
ATOM     16  C   UNL A   1      40.175  27.485  28.801  1.00  0.00     0.049 A 
ATOM     17  N   UNL A   1      42.139  29.441  29.963  1.00  0.00    -0.248 NA
ATOM     18  C   UNL A   1      40.428  31.024  30.093  1.00  0.00     0.031 C 
ATOM     19  C   UNL A   1      39.258  26.502  28.215  1.00  0.00     0.029 A 
ATOM     20  N   UNL A   1      41.365  26.811  28.894  1.00  0.00    -0.354 N 
ATOM     21  C   UNL A   1      42.652  30.624  30.478  1.00  0.00     0.074 A 
ATOM     22  C   UNL A   1      41.561  31.576  30.511  1.00  0.00     0.031 C 
ATOM     23  C   UNL A   1      39.910  25.346  28.027  1.00  0.00     0.029 A 
ATOM     24  C   UNL A   1      41.305  25.528  28.405  1.00  0.00     0.049 A 
ATOM     25  H   UNL A   1      42.182  27.206  29.275  1.00  0.00     0.167 HD
ATOM     26  C   UNL A   1      43.918  30.888  30.879  1.00  0.00     0.031 A 
ATOM     27  C   UNL A   1      42.273  24.609  28.238  1.00  0.00     0.031 A 
ATOM     28  C   UNL A   1      44.994  29.931  30.839  1.00  0.00     0.049 A 
ATOM     29  C   UNL A   1      43.676  24.954  28.641  1.00  0.00     0.074 A 
ATOM     30  C   UNL A   1      46.297  30.085  31.282  1.00  0.00     0.029 A 
ATOM     31  N   UNL A   1      44.901  28.653  30.311  1.00  0.00    -0.354 N 
ATOM     32  N   UNL A   1      44.127  26.052  29.196  1.00  0.00    -0.248 NA
ATOM     33  C   UNL A   1      44.704  23.936  28.392  1.00  0.00     0.031 C 
ATOM     34  C   UNL A   1      47.010  28.929  30.953  1.00  0.00     0.029 A 
ATOM     35  C   UNL A   1      46.136  28.028  30.370  1.00  0.00     0.049 A 
ATOM     36  H   UNL A   1      44.079  28.250  29.947  1.00  0.00     0.167 HD
ATOM     37  C   UNL A   1      45.488  25.852  29.376  1.00  0.00     0.074 A 
ATOM     38  C   UNL A   1      45.783  24.516  28.898  1.00  0.00     0.031 C 
ATOM     39  C   UNL A   1      46.412  26.700  29.886  1.00  0.00     0.031 A 
BRANCH  26  40
ATOM     40  C   UNL A   1      44.235  32.276  31.362  1.00  0.00    -0.014 A 
ATOM     41  C   UNL A   1      44.632  33.291  30.477  1.00  0.00     0.009 A 
ATOM     42  C   UNL A   1      44.048  32.594  32.718  1.00  0.00     0.009 A 
ATOM     43  C   UNL A   1      44.852  34.589  30.946  1.00  0.00     0.001 A 
ATOM     44  C   UNL A   1      44.244  33.897  33.178  1.00  0.00     0.001 A 
ATOM     45  C   UNL A   1      44.652  34.893  32.292  1.00  0.00     0.000 A 
ENDBRANCH  26  40
BRANCH  27  46
ATOM     46  C   UNL A   1      41.956  23.300  27.607  1.00  0.00    -0.014 A 
ATOM     47  C   UNL A   1      41.455  22.237  28.370  1.00  0.00     0.009 A 
ATOM     48  C   UNL A   1      42.167  23.107  26.232  1.00  0.00     0.009 A 
ATOM     49  C   UNL A   1      41.205  20.997  27.775  1.00  0.00     0.001 A 
ATOM     50  C   UNL A   1      41.881  21.880  25.633  1.00  0.00     0.001 A 
ATOM     51  C   UNL A   1      41.414  20.822  26.408  1.00  0.00     0.000 A 
ENDBRANCH  27  46
BRANCH  39  52
ATOM     52  C   UNL A   1      47.826  26.201  29.972  1.00  0.00    -0.014 A 
ATOM     53  C   UNL A   1      48.683  26.251  28.862  1.00  0.00     0.009 A 
ATOM     54  C   UNL A   1      48.321  25.719  31.194  1.00  0.00     0.009 A 
ATOM     55  C   UNL A   1      50.000  25.802  28.967  1.00  0.00     0.001 A 
ATOM     56  C   UNL A   1      49.648  25.301  31.304  1.00  0.00     0.001 A 
ATOM     57  C   UNL A   1      50.484  25.336  30.189  1.00  0.00     0.000 A 
ENDBRANCH  39  52
ENDBRANCH  13  14
ENDBRANCH   6   8
ENDBRANCH   3   4
ENDBRANCH   2   3
ENDBRANCH   1   2
BRANCH   1  58
ATOM     58  C   UNL A   1      31.443  27.702  25.433  1.00  0.00     0.002 C 
BRANCH  58  59
ATOM     59  C   UNL A   1      31.722  26.210  25.644  1.00  0.00     0.021 C 
BRANCH  59  60
ATOM     60  C   UNL A   1      30.607  25.280  25.171  1.00  0.00     0.116 C 
BRANCH  60  61
ATOM     61  N   UNL A   1      29.976  24.586  26.283  1.00  0.00    -0.352 N 
ATOM     62  C   UNL A   1      30.337  23.405  26.875  1.00  0.00     0.254 C 
ATOM     63  H   UNL A   1      29.180  25.024  26.661  1.00  0.00     0.163 HD
ATOM     64  O   UNL A   1      29.583  22.835  27.659  1.00  0.00    -0.269 OA
BRANCH  62  65
ATOM     65  C   UNL A   1      31.631  22.807  26.560  1.00  0.00     0.076 A 
ATOM     66  C   UNL A   1      32.674  22.786  27.456  1.00  0.00     0.129 A 
ATOM     67  C   UNL A   1      31.869  22.224  25.340  1.00  0.00     0.129 A 
ATOM     68  N   UNL A   1      33.900  22.315  27.154  1.00  0.00    -0.236 NA
ATOM     69  N   UNL A   1      33.076  21.735  24.984  1.00  0.00    -0.236 NA
ATOM     70  C   UNL A   1      34.060  21.835  25.901  1.00  0.00     0.160 A 
BRANCH  70  71
ATOM     71  C   UNL A   1      35.398  21.371  25.536  1.00  0.00     0.038 A 
ATOM     72  C   UNL A   1      35.576  20.028  25.140  1.00  0.00     0.013 A 
ATOM     73  C   UNL A   1      36.538  22.194  25.580  1.00  0.00     0.052 A 
ATOM     74  C   UNL A   1      36.831  19.533  24.779  1.00  0.00     0.001 A 
ATOM     75  C   UNL A   1      37.797  21.697  25.215  1.00  0.00     0.021 A 
ATOM     76  Cl  UNL A   1      36.485  23.832  26.146  1.00  0.00    -0.084 Cl
ATOM     77  C   UNL A   1      37.940  20.371  24.811  1.00  0.00     0.002 A 
ENDBRANCH  70  71
ENDBRANCH  62  65
ENDBRANCH  60  61
ENDBRANCH  59  60
ENDBRANCH  58  59
ENDBRANCH   1  58
TORSDOF 14
ENDMDL
MODEL 2
REMARK VINA RESULT:     -10.9      3.252      7.380
REMARK SMILES O=C(NCCCCCCNC(=O)c1cnc(-c2ccccc2Cl)nc1)c1ccc(-c2c3nc(c(-c4ccccc4)c4ccc([nH]4)c(-c4ccccc4)c4nc(c(-c5ccccc5)c5ccc2[nH]5)C=C4)C=C3)cc1
REMARK SMILES IDX 6 1 5 2 4 3 3 4 1 5 2 6 26 8 27 9 73 10 28 11 72 12 29 13
REMARK SMILES IDX 30 14 31 15 66 16 32 17 71 18 65 19 67 20 33 21 70 22 64 23
REMARK SMILES IDX 63 24 34 26 56 27 41 28 55 29 42 30 45 31 54 32 68 33 43 34
REMARK SMILES IDX 44 35 53 37 69 38 46 39 35 40 36 41 40 42 37 43 39 44 38 45
REMARK SMILES IDX 57 46 58 47 62 48 59 49 61 50 60 51 47 52 48 53 52 54 49 55
REMARK SMILES IDX 51 56 50 57 7 58 8 59 9 60 10 61 11 62 12 64 13 65 14 66
REMARK SMILES IDX 25 67 15 68 24 69 16 70 17 71 18 72 22 73 19 74 21 75 23 76
REMARK SMILES IDX 20 77
REMARK H PARENT 3 7 67 25 45 36 10 63
REMARK Flexibility Score: inf
ROOT
ATOM      1  C   UNL A   1      31.659  30.078  25.635  1.00  0.00     0.002 C 
ENDROOT
BRANCH   1   2
ATOM      2  C   UNL A   1      31.400  31.441  26.277  1.00  0.00     0.021 C 
BRANCH   2   3
ATOM      3  C   UNL A   1      32.607  32.047  26.977  1.00  0.00     0.116 C 
BRANCH   3   4
ATOM      4  N   UNL A   1      32.383  33.432  27.355  1.00  0.00    -0.352 N 
ATOM      5  O   UNL A   1      32.657  35.298  28.599  1.00  0.00    -0.269 OA
ATOM      6  C   UNL A   1      33.085  34.203  28.247  1.00  0.00     0.251 C 
ATOM      7  H   UNL A   1      31.625  33.877  26.912  1.00  0.00     0.163 HD
BRANCH   6   8
ATOM      8  C   UNL A   1      34.363  33.699  28.790  1.00  0.00     0.039 A 
ATOM      9  C   UNL A   1      34.375  32.905  29.940  1.00  0.00     0.014 A 
ATOM     10  C   UNL A   1      35.556  34.011  28.134  1.00  0.00     0.014 A 
ATOM     11  C   UNL A   1      35.587  32.515  30.498  1.00  0.00     0.010 A 
ATOM     12  C   UNL A   1      36.767  33.545  28.647  1.00  0.00     0.010 A 
ATOM     13  C   UNL A   1      36.792  32.800  29.837  1.00  0.00    -0.014 A 
BRANCH  13  14
ATOM     14  C   UNL A   1      38.053  32.201  30.336  1.00  0.00     0.031 A 
ATOM     15  C   UNL A   1      38.591  30.921  29.770  1.00  0.00     0.074 A 
ATOM     16  C   UNL A   1      38.699  32.832  31.337  1.00  0.00     0.049 A 
ATOM     17  N   UNL A   1      39.659  30.253  30.128  1.00  0.00    -0.248 NA
ATOM     18  C   UNL A   1      37.839  30.303  28.668  1.00  0.00     0.031 C 
ATOM     19  C   UNL A   1      38.260  34.080  31.971  1.00  0.00     0.029 A 
ATOM     20  N   UNL A   1      39.858  32.516  31.998  1.00  0.00    -0.354 N 
ATOM     21  C   UNL A   1      39.696  29.127  29.316  1.00  0.00     0.074 A 
ATOM     22  C   UNL A   1      38.535  29.193  28.453  1.00  0.00     0.031 C 
ATOM     23  C   UNL A   1      39.151  34.437  32.907  1.00  0.00     0.029 A 
ATOM     24  C   UNL A   1      40.178  33.408  32.993  1.00  0.00     0.049 A 
ATOM     25  H   UNL A   1      40.407  31.729  31.781  1.00  0.00     0.167 HD
ATOM     26  C   UNL A   1      40.613  28.131  29.300  1.00  0.00     0.031 A 
ATOM     27  C   UNL A   1      41.166  33.383  33.907  1.00  0.00     0.031 A 
ATOM     28  C   UNL A   1      41.763  28.077  30.166  1.00  0.00     0.049 A 
ATOM     29  C   UNL A   1      42.132  32.235  33.896  1.00  0.00     0.074 A 
ATOM     30  C   UNL A   1      42.783  27.140  30.182  1.00  0.00     0.029 A 
ATOM     31  N   UNL A   1      42.036  28.982  31.179  1.00  0.00    -0.354 N 
ATOM     32  N   UNL A   1      42.194  31.218  33.072  1.00  0.00    -0.248 NA
ATOM     33  C   UNL A   1      43.161  32.229  34.944  1.00  0.00     0.031 C 
ATOM     34  C   UNL A   1      43.631  27.436  31.253  1.00  0.00     0.029 A 
ATOM     35  C   UNL A   1      43.180  28.597  31.859  1.00  0.00     0.049 A 
ATOM     36  H   UNL A   1      41.498  29.781  31.384  1.00  0.00     0.167 HD
ATOM     37  C   UNL A   1      43.277  30.459  33.492  1.00  0.00     0.074 A 
ATOM     38  C   UNL A   1      43.859  31.148  34.625  1.00  0.00     0.031 C 
ATOM     39  C   UNL A   1      43.743  29.292  32.988  1.00  0.00     0.031 A 
BRANCH  26  40
ATOM     40  C   UNL A   1      40.402  26.987  28.347  1.00  0.00    -0.014 A 
ATOM     41  C   UNL A   1      39.621  25.873  28.693  1.00  0.00     0.009 A 
ATOM     42  C   UNL A   1      40.926  27.069  27.045  1.00  0.00     0.009 A 
ATOM     43  C   UNL A   1      39.386  24.859  27.761  1.00  0.00     0.001 A 
ATOM     44  C   UNL A   1      40.668  26.067  26.109  1.00  0.00     0.001 A 
ATOM     45  C   UNL A   1      39.902  24.959  26.470  1.00  0.00     0.000 A 
ENDBRANCH  26  40
BRANCH  27  46
ATOM     46  C   UNL A   1      41.251  34.448  34.939  1.00  0.00    -0.014 A 
ATOM     47  C   UNL A   1      42.044  35.586  34.736  1.00  0.00     0.009 A 
ATOM     48  C   UNL A   1      40.544  34.322  36.147  1.00  0.00     0.009 A 
ATOM     49  C   UNL A   1      42.154  36.558  35.733  1.00  0.00     0.001 A 
ATOM     50  C   UNL A   1      40.626  35.312  37.126  1.00  0.00     0.001 A 
ATOM     51  C   UNL A   1      41.442  36.423  36.925  1.00  0.00     0.000 A 
ENDBRANCH  27  46
BRANCH  39  52
ATOM     52  C   UNL A   1      44.955  28.697  33.646  1.00  0.00    -0.014 A 
ATOM     53  C   UNL A   1      46.250  29.064  33.249  1.00  0.00     0.009 A 
ATOM     54  C   UNL A   1      44.798  27.796  34.710  1.00  0.00     0.009 A 
ATOM     55  C   UNL A   1      47.365  28.517  33.887  1.00  0.00     0.001 A 
ATOM     56  C   UNL A   1      45.914  27.276  35.368  1.00  0.00     0.001 A 
ATOM     57  C   UNL A   1      47.196  27.631  34.950  1.00  0.00     0.000 A 
ENDBRANCH  39  52
ENDBRANCH  13  14
ENDBRANCH   6   8
ENDBRANCH   3   4
ENDBRANCH   2   3
ENDBRANCH   1   2
BRANCH   1  58
ATOM     58  C   UNL A   1      30.709  29.710  24.490  1.00  0.00     0.002 C 
BRANCH  58  59
ATOM     59  C   UNL A   1      30.593  28.212  24.193  1.00  0.00     0.021 C 
BRANCH  59  60
ATOM     60  C   UNL A   1      30.809  27.833  22.731  1.00  0.00     0.116 C 
BRANCH  60  61
ATOM     61  N   UNL A   1      32.064  28.361  22.216  1.00  0.00    -0.352 N 
ATOM     62  C   UNL A   1      33.323  27.831  22.313  1.00  0.00     0.254 C 
ATOM     63  H   UNL A   1      31.998  29.215  21.732  1.00  0.00     0.163 HD
ATOM     64  O   UNL A   1      34.311  28.497  22.019  1.00  0.00    -0.269 OA
BRANCH  62  65
ATOM     65  C   UNL A   1      33.494  26.461  22.786  1.00  0.00     0.076 A 
ATOM     66  C   UNL A   1      33.773  26.160  24.099  1.00  0.00     0.129 A 
ATOM     67  C   UNL A   1      33.377  25.392  21.931  1.00  0.00     0.129 A 
ATOM     68  N   UNL A   1      34.017  24.909  24.536  1.00  0.00    -0.236 NA
ATOM     69  N   UNL A   1      33.609  24.119  22.315  1.00  0.00    -0.236 NA
ATOM     70  C   UNL A   1      33.958  23.932  23.604  1.00  0.00     0.160 A 
BRANCH  70  71
ATOM     71  C   UNL A   1      34.276  22.575  24.048  1.00  0.00     0.038 A 
ATOM     72  C   UNL A   1      33.243  21.615  24.118  1.00  0.00     0.013 A 
ATOM     73  C   UNL A   1      35.567  22.172  24.434  1.00  0.00     0.052 A 
ATOM     74  C   UNL A   1      33.491  20.305  24.532  1.00  0.00     0.001 A 
ATOM     75  C   UNL A   1      35.814  20.856  24.848  1.00  0.00     0.021 A 
ATOM     76  Cl  UNL A   1      36.907  23.270  24.497  1.00  0.00    -0.084 Cl
ATOM     77  C   UNL A   1      34.779  19.925  24.892  1.00  0.00     0.002 A 
ENDBRANCH  70  71
ENDBRANCH  62  65
ENDBRANCH  60  61
ENDBRANCH  59  60
ENDBRANCH  58  59
ENDBRANCH   1  58
TORSDOF 14
ENDMDL
MODEL 3
REMARK VINA RESULT:     -10.9      1.776      2.449
REMARK SMILES O=C(NCCCCCCNC(=O)c1cnc(-c2ccccc2Cl)nc1)c1ccc(-c2c3nc(c(-c4ccccc4)c4ccc([nH]4)c(-c4ccccc4)c4nc(c(-c5ccccc5)c5ccc2[nH]5)C=C4)C=C3)cc1
REMARK SMILES IDX 6 1 5 2 4 3 3 4 1 5 2 6 26 8 27 9 73 10 28 11 72 12 29 13
REMARK SMILES IDX 30 14 31 15 66 16 32 17 71 18 65 19 67 20 33 21 70 22 64 23
REMARK SMILES IDX 63 24 34 26 56 27 41 28 55 29 42 30 45 31 54 32 68 33 43 34
REMARK SMILES IDX 44 35 53 37 69 38 46 39 35 40 36 41 40 42 37 43 39 44 38 45
REMARK SMILES IDX 57 46 58 47 62 48 59 49 61 50 60 51 47 52 48 53 52 54 49 55
REMARK SMILES IDX 51 56 50 57 7 58 8 59 9 60 10 61 11 62 12 64 13 65 14 66
REMARK SMILES IDX 25 67 15 68 24 69 16 70 17 71 18 72 22 73 19 74 21 75 23 76
REMARK SMILES IDX 20 77
REMARK H PARENT 3 7 67 25 45 36 10 63
REMARK Flexibility Score: inf
ROOT
ATOM      1  C   UNL A   1      31.468  28.588  26.422  1.00  0.00     0.002 C 
ENDROOT
BRANCH   1   2
ATOM      2  C   UNL A   1      32.641  27.962  27.176  1.00  0.00     0.021 C 
BRANCH   2   3
ATOM      3  C   UNL A   1      33.944  28.740  27.071  1.00  0.00     0.116 C 
BRANCH   3   4
ATOM      4  N   UNL A   1      33.818  30.093  27.590  1.00  0.00    -0.352 N 
ATOM      5  O   UNL A   1      34.370  31.863  28.879  1.00  0.00    -0.269 OA
ATOM      6  C   UNL A   1      34.703  30.801  28.363  1.00  0.00     0.251 C 
ATOM      7  H   UNL A   1      32.986  30.563  27.356  1.00  0.00     0.163 HD
BRANCH   6   8
ATOM      8  C   UNL A   1      36.064  30.268  28.578  1.00  0.00     0.039 A 
ATOM      9  C   UNL A   1      37.031  30.377  27.575  1.00  0.00     0.014 A 
ATOM     10  C   UNL A   1      36.377  29.669  29.800  1.00  0.00     0.014 A 
ATOM     11  C   UNL A   1      38.277  29.789  27.750  1.00  0.00     0.010 A 
ATOM     12  C   UNL A   1      37.659  29.156  30.008  1.00  0.00     0.010 A 
ATOM     13  C   UNL A   1      38.616  29.205  28.980  1.00  0.00    -0.014 A 
BRANCH  13  14
ATOM     14  C   UNL A   1      40.013  28.770  29.217  1.00  0.00     0.031 A 
ATOM     15  C   UNL A   1      41.032  29.693  29.817  1.00  0.00     0.074 A 
ATOM     16  C   UNL A   1      40.353  27.516  28.858  1.00  0.00     0.049 A 
ATOM     17  N   UNL A   1      42.301  29.470  30.050  1.00  0.00    -0.248 NA
ATOM     18  C   UNL A   1      40.577  31.038  30.201  1.00  0.00     0.031 C 
ATOM     19  C   UNL A   1      39.444  26.534  28.256  1.00  0.00     0.029 A 
ATOM     20  N   UNL A   1      41.548  26.850  28.942  1.00  0.00    -0.354 N 
ATOM     21  C   UNL A   1      42.804  30.650  30.582  1.00  0.00     0.074 A 
ATOM     22  C   UNL A   1      41.706  31.593  30.628  1.00  0.00     0.031 C 
ATOM     23  C   UNL A   1      40.106  25.387  28.052  1.00  0.00     0.029 A 
ATOM     24  C   UNL A   1      41.499  25.574  28.434  1.00  0.00     0.049 A 
ATOM     25  H   UNL A   1      42.362  27.247  29.329  1.00  0.00     0.167 HD
ATOM     26  C   UNL A   1      44.068  30.918  30.988  1.00  0.00     0.031 A 
ATOM     27  C   UNL A   1      42.474  24.665  28.254  1.00  0.00     0.031 A 
ATOM     28  C   UNL A   1      45.151  29.971  30.936  1.00  0.00     0.049 A 
ATOM     29  C   UNL A   1      43.874  25.016  28.664  1.00  0.00     0.074 A 
ATOM     30  C   UNL A   1      46.452  30.129  31.383  1.00  0.00     0.029 A 
ATOM     31  N   UNL A   1      45.068  28.700  30.389  1.00  0.00    -0.354 N 
ATOM     32  N   UNL A   1      44.316  26.109  29.236  1.00  0.00    -0.248 NA
ATOM     33  C   UNL A   1      44.911  24.009  28.402  1.00  0.00     0.031 C 
ATOM     34  C   UNL A   1      47.175  28.983  31.038  1.00  0.00     0.029 A 
ATOM     35  C   UNL A   1      46.308  28.083  30.440  1.00  0.00     0.049 A 
ATOM     36  H   UNL A   1      44.250  28.296  30.019  1.00  0.00     0.167 HD
ATOM     37  C   UNL A   1      45.679  25.917  29.415  1.00  0.00     0.074 A 
ATOM     38  C   UNL A   1      45.984  24.591  28.918  1.00  0.00     0.031 C 
ATOM     39  C   UNL A   1      46.596  26.765  29.937  1.00  0.00     0.031 A 
BRANCH  26  40
ATOM     40  C   UNL A   1      44.373  32.302  31.492  1.00  0.00    -0.014 A 
ATOM     41  C   UNL A   1      44.278  32.627  32.854  1.00  0.00     0.009 A 
ATOM     42  C   UNL A   1      44.849  33.273  30.595  1.00  0.00     0.009 A 
ATOM     43  C   UNL A   1      44.635  33.902  33.302  1.00  0.00     0.001 A 
ATOM     44  C   UNL A   1      45.229  34.537  31.049  1.00  0.00     0.001 A 
ATOM     45  C   UNL A   1      45.116  34.852  32.402  1.00  0.00     0.000 A 
ENDBRANCH  26  40
BRANCH  27  46
ATOM     46  C   UNL A   1      42.168  23.364  27.605  1.00  0.00    -0.014 A 
ATOM     47  C   UNL A   1      42.413  23.166  26.239  1.00  0.00     0.009 A 
ATOM     48  C   UNL A   1      41.614  22.312  28.353  1.00  0.00     0.009 A 
ATOM     49  C   UNL A   1      42.077  21.954  25.630  1.00  0.00     0.001 A 
ATOM     50  C   UNL A   1      41.314  21.090  27.751  1.00  0.00     0.001 A 
ATOM     51  C   UNL A   1      41.533  20.917  26.386  1.00  0.00     0.000 A 
ENDBRANCH  27  46
BRANCH  39  52
ATOM     52  C   UNL A   1      48.013  26.275  30.018  1.00  0.00    -0.014 A 
ATOM     53  C   UNL A   1      48.887  26.398  28.927  1.00  0.00     0.009 A 
ATOM     54  C   UNL A   1      48.494  25.729  31.218  1.00  0.00     0.009 A 
ATOM     55  C   UNL A   1      50.207  25.957  29.028  1.00  0.00     0.001 A 
ATOM     56  C   UNL A   1      49.824  25.319  31.326  1.00  0.00     0.001 A 
ATOM     57  C   UNL A   1      50.677  25.426  30.229  1.00  0.00     0.000 A 
ENDBRANCH  39  52
ENDBRANCH  13  14
ENDBRANCH   6   8
ENDBRANCH   3   4
ENDBRANCH   2   3
ENDBRANCH   1   2
BRANCH   1  58
ATOM     58  C   UNL A   1      31.792  29.072  25.005  1.00  0.00     0.002 C 
BRANCH  58  59
ATOM     59  C   UNL A   1      30.646  28.953  23.996  1.00  0.00     0.021 C 
BRANCH  59  60
ATOM     60  C   UNL A   1      30.948  28.069  22.788  1.00  0.00     0.116 C 
BRANCH  60  61
ATOM     61  N   UNL A   1      32.200  28.441  22.147  1.00  0.00    -0.352 N 
ATOM     62  C   UNL A   1      33.396  27.773  22.146  1.00  0.00     0.254 C 
ATOM     63  H   UNL A   1      32.186  29.288  21.647  1.00  0.00     0.163 HD
ATOM     64  O   UNL A   1      34.421  28.316  21.744  1.00  0.00    -0.269 OA
BRANCH  62  65
ATOM     65  C   UNL A   1      33.456  26.401  22.640  1.00  0.00     0.076 A 
ATOM     66  C   UNL A   1      33.712  26.099  23.958  1.00  0.00     0.129 A 
ATOM     67  C   UNL A   1      33.250  25.332  21.803  1.00  0.00     0.129 A 
ATOM     68  N   UNL A   1      33.854  24.839  24.415  1.00  0.00    -0.236 NA
ATOM     69  N   UNL A   1      33.378  24.050  22.207  1.00  0.00    -0.236 NA
ATOM     70  C   UNL A   1      33.714  23.856  23.499  1.00  0.00     0.160 A 
BRANCH  70  71
ATOM     71  C   UNL A   1      33.920  22.485  23.964  1.00  0.00     0.038 A 
ATOM     72  C   UNL A   1      32.826  21.594  23.985  1.00  0.00     0.013 A 
ATOM     73  C   UNL A   1      35.162  22.003  24.419  1.00  0.00     0.052 A 
ATOM     74  C   UNL A   1      32.968  20.273  24.417  1.00  0.00     0.001 A 
ATOM     75  C   UNL A   1      35.302  20.678  24.851  1.00  0.00     0.021 A 
ATOM     76  Cl  UNL A   1      36.564  23.014  24.547  1.00  0.00    -0.084 Cl
ATOM     77  C   UNL A   1      34.208  19.814  24.844  1.00  0.00     0.002 A 
ENDBRANCH  70  71
ENDBRANCH  62  65
ENDBRANCH  60  61
ENDBRANCH  59  60
ENDBRANCH  58  59
ENDBRANCH   1  58
TORSDOF 14
ENDMDL
