MODEL 1
REMARK VINA RESULT:     -10.0      0.000      0.000
REMARK SMILES CC[C@H](NS(=O)(=O)Cc1ccccc1)C(=O)NCCCCCCNC(=O)c1ccc(-c2c3nc(c(-c4ccccc4)c4ccc([nH]4)c(-c4ccccc4)c4nc(c(-c5ccccc5)c5ccc2[nH]5)C=C4)C=C3)cc1
REMARK SMILES IDX 19 1 18 2 17 3 15 4 16 5 3 7 2 8 1 9 4 10 5 12 6 13 7 14
REMARK SMILES IDX 8 15 9 16 10 17 14 18 11 19 13 20 12 21 20 22 21 23 22 24
REMARK SMILES IDX 23 25 24 26 25 27 26 29 27 30 28 31 74 32 29 33 73 34 30 35
REMARK SMILES IDX 31 36 32 37 67 38 33 39 72 40 66 41 68 42 34 43 71 44 65 45
REMARK SMILES IDX 64 46 35 48 57 49 42 50 56 51 43 52 46 53 55 54 69 55 44 56
REMARK SMILES IDX 45 57 54 59 70 60 47 61 36 62 37 63 41 64 38 65 40 66 39 67
REMARK SMILES IDX 58 68 59 69 63 70 60 71 62 72 61 73 48 74 49 75 53 76 50 77
REMARK SMILES IDX 52 78 51 79
REMARK H PARENT 17 6 4 11 24 28 68 47 46 58
REMARK Flexibility Score: inf
ROOT
ATOM      1  C   UNL A   1      32.691  28.614  25.372  1.00  0.00     0.021 C 
ENDROOT
BRANCH   1   2
ATOM      2  C   UNL A   1      31.954  27.395  25.908  1.00  0.00     0.116 C 
BRANCH   2   3
ATOM      3  N   UNL A   1      30.652  27.250  25.290  1.00  0.00    -0.355 N 
ATOM      4  C   UNL A   1      30.187  26.213  24.537  1.00  0.00     0.238 C 
ATOM      5  O   UNL A   1      29.046  26.295  24.075  1.00  0.00    -0.273 OA
ATOM      6  H   UNL A   1      30.022  27.993  25.434  1.00  0.00     0.163 HD
BRANCH   4   7
ATOM      7  C   UNL A   1      31.081  24.980  24.255  1.00  0.00     0.158 C 
BRANCH   7   8
ATOM      8  C   UNL A   1      31.403  24.962  22.755  1.00  0.00     0.027 C 
ATOM      9  C   UNL A   1      31.880  26.200  22.038  1.00  0.00     0.006 C 
ENDBRANCH   7   8
BRANCH   7  10
ATOM     10  N   UNL A   1      30.461  23.840  24.955  1.00  0.00    -0.202 NA
ATOM     11  H   UNL A   1      30.613  23.055  24.321  1.00  0.00     0.141 HD
BRANCH  10  12
ATOM     12  S   UNL A   1      30.739  23.196  26.451  1.00  0.00     0.216 S 
ATOM     13  O   UNL A   1      30.966  24.392  27.252  1.00  0.00    -0.212 OA
ATOM     14  O   UNL A   1      29.636  22.340  26.809  1.00  0.00    -0.212 OA
BRANCH  12  15
ATOM     15  C   UNL A   1      32.305  22.272  26.517  1.00  0.00     0.189 C 
BRANCH  15  16
ATOM     16  C   UNL A   1      33.377  22.781  25.593  1.00  0.00    -0.032 A 
ATOM     17  C   UNL A   1      34.185  23.858  25.977  1.00  0.00     0.005 A 
ATOM     18  C   UNL A   1      33.612  22.189  24.343  1.00  0.00     0.005 A 
ATOM     19  C   UNL A   1      35.058  24.458  25.069  1.00  0.00     0.000 A 
ATOM     20  C   UNL A   1      34.531  22.756  23.452  1.00  0.00     0.000 A 
ATOM     21  C   UNL A   1      35.219  23.916  23.799  1.00  0.00     0.000 A 
ENDBRANCH  15  16
ENDBRANCH  12  15
ENDBRANCH  10  12
ENDBRANCH   7  10
ENDBRANCH   4   7
ENDBRANCH   2   3
ENDBRANCH   1   2
BRANCH   1  22
ATOM     22  C   UNL A   1      31.850  29.895  25.351  1.00  0.00     0.002 C 
BRANCH  22  23
ATOM     23  C   UNL A   1      31.600  30.542  26.718  1.00  0.00     0.002 C 
BRANCH  23  24
ATOM     24  C   UNL A   1      31.503  32.068  26.711  1.00  0.00     0.021 C 
BRANCH  24  25
ATOM     25  C   UNL A   1      32.733  32.790  27.246  1.00  0.00     0.116 C 
BRANCH  25  26
ATOM     26  N   UNL A   1      32.446  34.160  27.628  1.00  0.00    -0.352 N 
ATOM     27  C   UNL A   1      33.017  34.920  28.614  1.00  0.00     0.251 C 
ATOM     28  H   UNL A   1      31.743  34.606  27.103  1.00  0.00     0.163 HD
ATOM     29  O   UNL A   1      32.535  36.007  28.915  1.00  0.00    -0.269 OA
BRANCH  27  30
ATOM     30  C   UNL A   1      34.200  34.409  29.333  1.00  0.00     0.039 A 
ATOM     31  C   UNL A   1      34.008  33.753  30.549  1.00  0.00     0.014 A 
ATOM     32  C   UNL A   1      35.488  34.568  28.810  1.00  0.00     0.014 A 
ATOM     33  C   UNL A   1      35.104  33.210  31.217  1.00  0.00     0.010 A 
ATOM     34  C   UNL A   1      36.570  33.959  29.438  1.00  0.00     0.010 A 
ATOM     35  C   UNL A   1      36.389  33.279  30.651  1.00  0.00    -0.014 A 
BRANCH  35  36
ATOM     36  C   UNL A   1      37.542  32.629  31.319  1.00  0.00     0.031 A 
ATOM     37  C   UNL A   1      38.203  31.428  30.701  1.00  0.00     0.074 A 
ATOM     38  C   UNL A   1      37.976  33.109  32.500  1.00  0.00     0.049 A 
ATOM     39  N   UNL A   1      39.225  30.736  31.137  1.00  0.00    -0.248 NA
ATOM     40  C   UNL A   1      37.636  30.926  29.438  1.00  0.00     0.031 C 
ATOM     41  C   UNL A   1      37.388  34.242  33.221  1.00  0.00     0.029 A 
ATOM     42  N   UNL A   1      39.015  32.710  33.301  1.00  0.00    -0.354 N 
ATOM     43  C   UNL A   1      39.421  29.722  30.208  1.00  0.00     0.074 A 
ATOM     44  C   UNL A   1      38.378  29.852  29.214  1.00  0.00     0.031 C 
ATOM     45  C   UNL A   1      38.100  34.469  34.337  1.00  0.00     0.029 A 
ATOM     46  C   UNL A   1      39.163  33.475  34.434  1.00  0.00     0.049 A 
ATOM     47  H   UNL A   1      39.600  31.948  33.085  1.00  0.00     0.167 HD
ATOM     48  C   UNL A   1      40.395  28.782  30.171  1.00  0.00     0.031 A 
ATOM     49  C   UNL A   1      40.052  33.383  35.439  1.00  0.00     0.031 A 
ATOM     50  C   UNL A   1      41.430  28.653  31.162  1.00  0.00     0.049 A 
ATOM     51  C   UNL A   1      41.102  32.307  35.386  1.00  0.00     0.074 A 
ATOM     52  C   UNL A   1      42.485  27.758  31.193  1.00  0.00     0.029 A 
ATOM     53  N   UNL A   1      41.537  29.438  32.300  1.00  0.00    -0.354 N 
ATOM     54  N   UNL A   1      41.317  31.404  34.461  1.00  0.00    -0.248 NA
ATOM     55  C   UNL A   1      42.043  32.250  36.515  1.00  0.00     0.031 C 
ATOM     56  C   UNL A   1      43.198  27.964  32.378  1.00  0.00     0.029 A 
ATOM     57  C   UNL A   1      42.627  29.030  33.052  1.00  0.00     0.049 A 
ATOM     58  H   UNL A   1      40.931  30.176  32.536  1.00  0.00     0.167 HD
ATOM     59  C   UNL A   1      42.431  30.689  34.882  1.00  0.00     0.074 A 
ATOM     60  C   UNL A   1      42.864  31.284  36.130  1.00  0.00     0.031 C 
ATOM     61  C   UNL A   1      43.041  29.632  34.293  1.00  0.00     0.031 A 
BRANCH  48  62
ATOM     62  C   UNL A   1      40.390  27.817  29.018  1.00  0.00    -0.014 A 
ATOM     63  C   UNL A   1      39.685  26.605  29.089  1.00  0.00     0.009 A 
ATOM     64  C   UNL A   1      41.048  28.148  27.824  1.00  0.00     0.009 A 
ATOM     65  C   UNL A   1      39.659  25.735  27.998  1.00  0.00     0.001 A 
ATOM     66  C   UNL A   1      40.997  27.290  26.724  1.00  0.00     0.001 A 
ATOM     67  C   UNL A   1      40.308  26.082  26.813  1.00  0.00     0.000 A 
ENDBRANCH  48  62
BRANCH  49  68
ATOM     68  C   UNL A   1      39.995  34.327  36.587  1.00  0.00    -0.014 A 
ATOM     69  C   UNL A   1      39.209  34.041  37.714  1.00  0.00     0.009 A 
ATOM     70  C   UNL A   1      40.699  35.541  36.544  1.00  0.00     0.009 A 
ATOM     71  C   UNL A   1      39.094  34.969  38.752  1.00  0.00     0.001 A 
ATOM     72  C   UNL A   1      40.612  36.450  37.600  1.00  0.00     0.001 A 
ATOM     73  C   UNL A   1      39.798  36.170  38.695  1.00  0.00     0.000 A 
ENDBRANCH  49  68
BRANCH  61  74
ATOM     74  C   UNL A   1      44.260  29.077  34.977  1.00  0.00    -0.014 A 
ATOM     75  C   UNL A   1      45.540  29.588  34.716  1.00  0.00     0.009 A 
ATOM     76  C   UNL A   1      44.120  28.039  35.910  1.00  0.00     0.009 A 
ATOM     77  C   UNL A   1      46.661  29.039  35.341  1.00  0.00     0.001 A 
ATOM     78  C   UNL A   1      45.238  27.516  36.562  1.00  0.00     0.001 A 
ATOM     79  C   UNL A   1      46.508  28.007  36.266  1.00  0.00     0.000 A 
ENDBRANCH  61  74
ENDBRANCH  35  36
ENDBRANCH  27  30
ENDBRANCH  25  26
ENDBRANCH  24  25
ENDBRANCH  23  24
ENDBRANCH  22  23
ENDBRANCH   1  22
TORSDOF 18
ENDMDL
MODEL 2
REMARK VINA RESULT:      -9.9      1.549      6.243
REMARK SMILES CC[C@H](NS(=O)(=O)Cc1ccccc1)C(=O)NCCCCCCNC(=O)c1ccc(-c2c3nc(c(-c4ccccc4)c4ccc([nH]4)c(-c4ccccc4)c4nc(c(-c5ccccc5)c5ccc2[nH]5)C=C4)C=C3)cc1
REMARK SMILES IDX 19 1 18 2 17 3 15 4 16 5 3 7 2 8 1 9 4 10 5 12 6 13 7 14
REMARK SMILES IDX 8 15 9 16 10 17 14 18 11 19 13 20 12 21 20 22 21 23 22 24
REMARK SMILES IDX 23 25 24 26 25 27 26 29 27 30 28 31 74 32 29 33 73 34 30 35
REMARK SMILES IDX 31 36 32 37 67 38 33 39 72 40 66 41 68 42 34 43 71 44 65 45
REMARK SMILES IDX 64 46 35 48 57 49 42 50 56 51 43 52 46 53 55 54 69 55 44 56
REMARK SMILES IDX 45 57 54 59 70 60 47 61 36 62 37 63 41 64 38 65 40 66 39 67
REMARK SMILES IDX 58 68 59 69 63 70 60 71 62 72 61 73 48 74 49 75 53 76 50 77
REMARK SMILES IDX 52 78 51 79
REMARK H PARENT 17 6 4 11 24 28 68 47 46 58
REMARK Flexibility Score: inf
ROOT
ATOM      1  C   UNL A   1      32.858  28.233  26.623  1.00  0.00     0.021 C 
ENDROOT
BRANCH   1   2
ATOM      2  C   UNL A   1      31.438  27.804  26.964  1.00  0.00     0.116 C 
BRANCH   2   3
ATOM      3  N   UNL A   1      31.198  26.425  26.593  1.00  0.00    -0.355 N 
ATOM      4  C   UNL A   1      31.098  25.894  25.341  1.00  0.00     0.238 C 
ATOM      5  O   UNL A   1      30.861  24.687  25.237  1.00  0.00    -0.273 OA
ATOM      6  H   UNL A   1      31.094  25.790  27.339  1.00  0.00     0.163 HD
BRANCH   4   7
ATOM      7  C   UNL A   1      31.258  26.791  24.088  1.00  0.00     0.158 C 
BRANCH   7   8
ATOM      8  C   UNL A   1      29.915  27.485  23.830  1.00  0.00     0.027 C 
ATOM      9  C   UNL A   1      29.774  28.559  22.781  1.00  0.00     0.006 C 
ENDBRANCH   7   8
BRANCH   7  10
ATOM     10  N   UNL A   1      31.948  25.977  23.071  1.00  0.00    -0.202 NA
ATOM     11  H   UNL A   1      31.964  26.580  22.248  1.00  0.00     0.141 HD
BRANCH  10  12
ATOM     12  S   UNL A   1      33.441  25.269  23.068  1.00  0.00     0.216 S 
ATOM     13  O   UNL A   1      33.972  25.701  21.782  1.00  0.00    -0.212 OA
ATOM     14  O   UNL A   1      34.152  25.659  24.259  1.00  0.00    -0.212 OA
BRANCH  12  15
ATOM     15  C   UNL A   1      33.337  23.456  22.956  1.00  0.00     0.189 C 
BRANCH  15  16
ATOM     16  C   UNL A   1      34.520  22.720  23.524  1.00  0.00    -0.032 A 
ATOM     17  C   UNL A   1      34.327  21.648  24.402  1.00  0.00     0.005 A 
ATOM     18  C   UNL A   1      35.835  23.066  23.181  1.00  0.00     0.005 A 
ATOM     19  C   UNL A   1      35.404  21.071  25.077  1.00  0.00     0.000 A 
ATOM     20  C   UNL A   1      36.920  22.448  23.815  1.00  0.00     0.000 A 
ATOM     21  C   UNL A   1      36.701  21.483  24.796  1.00  0.00     0.000 A 
ENDBRANCH  15  16
ENDBRANCH  12  15
ENDBRANCH  10  12
ENDBRANCH   7  10
ENDBRANCH   4   7
ENDBRANCH   2   3
ENDBRANCH   1   2
BRANCH   1  22
ATOM     22  C   UNL A   1      32.966  29.658  26.069  1.00  0.00     0.002 C 
BRANCH  22  23
ATOM     23  C   UNL A   1      31.636  30.327  25.707  1.00  0.00     0.002 C 
BRANCH  23  24
ATOM     24  C   UNL A   1      31.364  31.661  26.403  1.00  0.00     0.021 C 
BRANCH  24  25
ATOM     25  C   UNL A   1      32.563  32.262  27.125  1.00  0.00     0.116 C 
BRANCH  25  26
ATOM     26  N   UNL A   1      32.369  33.664  27.445  1.00  0.00    -0.352 N 
ATOM     27  C   UNL A   1      33.063  34.455  28.322  1.00  0.00     0.251 C 
ATOM     28  H   UNL A   1      31.635  34.110  26.962  1.00  0.00     0.163 HD
ATOM     29  O   UNL A   1      32.655  35.578  28.599  1.00  0.00    -0.269 OA
BRANCH  27  30
ATOM     30  C   UNL A   1      34.290  33.934  28.956  1.00  0.00     0.039 A 
ATOM     31  C   UNL A   1      34.163  33.030  30.011  1.00  0.00     0.014 A 
ATOM     32  C   UNL A   1      35.556  34.327  28.510  1.00  0.00     0.014 A 
ATOM     33  C   UNL A   1      35.307  32.481  30.586  1.00  0.00     0.010 A 
ATOM     34  C   UNL A   1      36.693  33.719  29.032  1.00  0.00     0.010 A 
ATOM     35  C   UNL A   1      36.580  32.795  30.079  1.00  0.00    -0.014 A 
BRANCH  35  36
ATOM     36  C   UNL A   1      37.792  32.145  30.634  1.00  0.00     0.031 A 
ATOM     37  C   UNL A   1      38.394  32.630  31.924  1.00  0.00     0.074 A 
ATOM     38  C   UNL A   1      38.365  31.132  29.957  1.00  0.00     0.049 A 
ATOM     39  N   UNL A   1      39.444  32.179  32.562  1.00  0.00    -0.248 NA
ATOM     40  C   UNL A   1      37.744  33.779  32.576  1.00  0.00     0.031 C 
ATOM     41  C   UNL A   1      37.900  30.601  28.672  1.00  0.00     0.029 A 
ATOM     42  N   UNL A   1      39.460  30.362  30.255  1.00  0.00    -0.354 N 
ATOM     43  C   UNL A   1      39.580  32.987  33.684  1.00  0.00     0.074 A 
ATOM     44  C   UNL A   1      38.542  33.991  33.612  1.00  0.00     0.031 C 
ATOM     45  C   UNL A   1      38.681  29.569  28.313  1.00  0.00     0.029 A 
ATOM     46  C   UNL A   1      39.726  29.393  29.317  1.00  0.00     0.049 A 
ATOM     47  H   UNL A   1      40.004  30.491  31.065  1.00  0.00     0.167 HD
ATOM     48  C   UNL A   1      40.474  32.887  34.697  1.00  0.00     0.031 A 
ATOM     49  C   UNL A   1      40.704  28.471  29.267  1.00  0.00     0.031 A 
ATOM     50  C   UNL A   1      41.508  31.889  34.766  1.00  0.00     0.049 A 
ATOM     51  C   UNL A   1      41.701  28.406  30.391  1.00  0.00     0.074 A 
ATOM     52  C   UNL A   1      42.438  31.681  35.770  1.00  0.00     0.029 A 
ATOM     53  N   UNL A   1      41.751  30.934  33.790  1.00  0.00    -0.354 N 
ATOM     54  N   UNL A   1      41.770  29.130  31.481  1.00  0.00    -0.248 NA
ATOM     55  C   UNL A   1      42.751  27.383  30.280  1.00  0.00     0.031 C 
ATOM     56  C   UNL A   1      43.280  30.637  35.375  1.00  0.00     0.029 A 
ATOM     57  C   UNL A   1      42.834  30.152  34.157  1.00  0.00     0.049 A 
ATOM     58  H   UNL A   1      41.231  30.828  32.961  1.00  0.00     0.167 HD
ATOM     59  C   UNL A   1      42.850  28.634  32.198  1.00  0.00     0.074 A 
ATOM     60  C   UNL A   1      43.389  27.528  31.432  1.00  0.00     0.031 C 
ATOM     61  C   UNL A   1      43.358  29.057  33.381  1.00  0.00     0.031 A 
BRANCH  48  62
ATOM     62  C   UNL A   1      40.373  33.884  35.817  1.00  0.00    -0.014 A 
ATOM     63  C   UNL A   1      39.572  33.633  36.943  1.00  0.00     0.009 A 
ATOM     64  C   UNL A   1      41.134  35.063  35.778  1.00  0.00     0.009 A 
ATOM     65  C   UNL A   1      39.517  34.551  37.993  1.00  0.00     0.001 A 
ATOM     66  C   UNL A   1      41.099  35.966  36.842  1.00  0.00     0.001 A 
ATOM     67  C   UNL A   1      40.286  35.713  37.945  1.00  0.00     0.000 A 
ENDBRANCH  48  62
BRANCH  49  68
ATOM     68  C   UNL A   1      40.798  27.532  28.117  1.00  0.00    -0.014 A 
ATOM     69  C   UNL A   1      41.515  27.881  26.962  1.00  0.00     0.009 A 
ATOM     70  C   UNL A   1      40.139  26.293  28.155  1.00  0.00     0.009 A 
ATOM     71  C   UNL A   1      41.531  27.030  25.855  1.00  0.00     0.001 A 
ATOM     72  C   UNL A   1      40.189  25.428  27.061  1.00  0.00     0.001 A 
ATOM     73  C   UNL A   1      40.872  25.804  25.906  1.00  0.00     0.000 A 
ENDBRANCH  49  68
BRANCH  61  74
ATOM     74  C   UNL A   1      44.532  28.297  33.933  1.00  0.00    -0.014 A 
ATOM     75  C   UNL A   1      45.846  28.763  33.770  1.00  0.00     0.009 A 
ATOM     76  C   UNL A   1      44.317  27.104  34.640  1.00  0.00     0.009 A 
ATOM     77  C   UNL A   1      46.923  28.025  34.265  1.00  0.00     0.001 A 
ATOM     78  C   UNL A   1      45.393  26.388  35.166  1.00  0.00     0.001 A 
ATOM     79  C   UNL A   1      46.695  26.842  34.965  1.00  0.00     0.000 A 
ENDBRANCH  61  74
ENDBRANCH  35  36
ENDBRANCH  27  30
ENDBRANCH  25  26
ENDBRANCH  24  25
ENDBRANCH  23  24
ENDBRANCH  22  23
ENDBRANCH   1  22
TORSDOF 18
ENDMDL
MODEL 3
REMARK VINA RESULT:      -9.8      6.179     10.539
REMARK SMILES CC[C@H](NS(=O)(=O)Cc1ccccc1)C(=O)NCCCCCCNC(=O)c1ccc(-c2c3nc(c(-c4ccccc4)c4ccc([nH]4)c(-c4ccccc4)c4nc(c(-c5ccccc5)c5ccc2[nH]5)C=C4)C=C3)cc1
REMARK SMILES IDX 19 1 18 2 17 3 15 4 16 5 3 7 2 8 1 9 4 10 5 12 6 13 7 14
REMARK SMILES IDX 8 15 9 16 10 17 14 18 11 19 13 20 12 21 20 22 21 23 22 24
REMARK SMILES IDX 23 25 24 26 25 27 26 29 27 30 28 31 74 32 29 33 73 34 30 35
REMARK SMILES IDX 31 36 32 37 67 38 33 39 72 40 66 41 68 42 34 43 71 44 65 45
REMARK SMILES IDX 64 46 35 48 57 49 42 50 56 51 43 52 46 53 55 54 69 55 44 56
REMARK SMILES IDX 45 57 54 59 70 60 47 61 36 62 37 63 41 64 38 65 40 66 39 67
REMARK SMILES IDX 58 68 59 69 63 70 60 71 62 72 61 73 48 74 49 75 53 76 50 77
REMARK SMILES IDX 52 78 51 79
REMARK H PARENT 17 6 4 11 24 28 68 47 46 58
REMARK Flexibility Score: inf
ROOT
ATOM      1  C   UNL A   1      39.022  23.101  26.509  1.00  0.00     0.021 C 
ENDROOT
BRANCH   1   2
ATOM      2  C   UNL A   1      37.733  23.630  25.899  1.00  0.00     0.116 C 
BRANCH   2   3
ATOM      3  N   UNL A   1      37.649  23.321  24.486  1.00  0.00    -0.355 N 
ATOM      4  C   UNL A   1      36.536  23.263  23.701  1.00  0.00     0.238 C 
ATOM      5  O   UNL A   1      36.676  22.953  22.515  1.00  0.00    -0.273 OA
ATOM      6  H   UNL A   1      38.504  23.129  24.036  1.00  0.00     0.163 HD
BRANCH   4   7
ATOM      7  C   UNL A   1      35.136  23.560  24.293  1.00  0.00     0.158 C 
BRANCH   7   8
ATOM      8  C   UNL A   1      34.416  22.221  24.499  1.00  0.00     0.027 C 
ATOM      9  C   UNL A   1      34.211  21.642  25.876  1.00  0.00     0.006 C 
ENDBRANCH   7   8
BRANCH   7  10
ATOM     10  N   UNL A   1      34.565  24.663  23.497  1.00  0.00    -0.202 NA
ATOM     11  H   UNL A   1      35.371  25.047  23.004  1.00  0.00     0.141 HD
BRANCH  10  12
ATOM     12  S   UNL A   1      33.365  24.682  22.362  1.00  0.00     0.216 S 
ATOM     13  O   UNL A   1      33.665  25.909  21.634  1.00  0.00    -0.212 OA
ATOM     14  O   UNL A   1      33.385  23.440  21.631  1.00  0.00    -0.212 OA
BRANCH  12  15
ATOM     15  C   UNL A   1      31.727  24.955  23.104  1.00  0.00     0.189 C 
BRANCH  15  16
ATOM     16  C   UNL A   1      31.523  24.300  24.442  1.00  0.00    -0.032 A 
ATOM     17  C   UNL A   1      31.026  22.993  24.518  1.00  0.00     0.005 A 
ATOM     18  C   UNL A   1      31.838  24.959  25.639  1.00  0.00     0.005 A 
ATOM     19  C   UNL A   1      30.661  22.436  25.744  1.00  0.00     0.000 A 
ATOM     20  C   UNL A   1      31.526  24.376  26.873  1.00  0.00     0.000 A 
ATOM     21  C   UNL A   1      30.896  23.135  26.922  1.00  0.00     0.000 A 
ENDBRANCH  15  16
ENDBRANCH  12  15
ENDBRANCH  10  12
ENDBRANCH   7  10
ENDBRANCH   4   7
ENDBRANCH   2   3
ENDBRANCH   1   2
BRANCH   1  22
ATOM     22  C   UNL A   1      39.348  21.653  26.125  1.00  0.00     0.002 C 
BRANCH  22  23
ATOM     23  C   UNL A   1      40.713  21.139  26.592  1.00  0.00     0.002 C 
BRANCH  23  24
ATOM     24  C   UNL A   1      41.081  19.732  26.116  1.00  0.00     0.021 C 
BRANCH  24  25
ATOM     25  C   UNL A   1      42.479  19.271  26.503  1.00  0.00     0.116 C 
BRANCH  25  26
ATOM     26  N   UNL A   1      43.274  18.890  25.350  1.00  0.00    -0.352 N 
ATOM     27  C   UNL A   1      44.099  19.661  24.576  1.00  0.00     0.251 C 
ATOM     28  H   UNL A   1      43.210  17.943  25.088  1.00  0.00     0.163 HD
ATOM     29  O   UNL A   1      44.563  19.216  23.531  1.00  0.00    -0.269 OA
BRANCH  27  30
ATOM     30  C   UNL A   1      44.404  21.044  24.992  1.00  0.00     0.039 A 
ATOM     31  C   UNL A   1      43.871  22.096  24.247  1.00  0.00     0.014 A 
ATOM     32  C   UNL A   1      45.202  21.302  26.112  1.00  0.00     0.014 A 
ATOM     33  C   UNL A   1      44.097  23.410  24.655  1.00  0.00     0.010 A 
ATOM     34  C   UNL A   1      45.360  22.609  26.561  1.00  0.00     0.010 A 
ATOM     35  C   UNL A   1      44.815  23.676  25.834  1.00  0.00    -0.014 A 
BRANCH  35  36
ATOM     36  C   UNL A   1      44.983  25.068  26.315  1.00  0.00     0.031 A 
ATOM     37  C   UNL A   1      46.334  25.728  26.284  1.00  0.00     0.074 A 
ATOM     38  C   UNL A   1      43.916  25.730  26.803  1.00  0.00     0.049 A 
ATOM     39  N   UNL A   1      46.667  26.939  26.655  1.00  0.00    -0.248 NA
ATOM     40  C   UNL A   1      47.462  24.921  25.790  1.00  0.00     0.031 C 
ATOM     41  C   UNL A   1      42.562  25.182  26.925  1.00  0.00     0.029 A 
ATOM     42  N   UNL A   1      43.799  27.009  27.284  1.00  0.00    -0.354 N 
ATOM     43  C   UNL A   1      48.036  27.037  26.441  1.00  0.00     0.074 A 
ATOM     44  C   UNL A   1      48.484  25.747  25.963  1.00  0.00     0.031 C 
ATOM     45  C   UNL A   1      41.745  26.131  27.410  1.00  0.00     0.029 A 
ATOM     46  C   UNL A   1      42.523  27.337  27.675  1.00  0.00     0.049 A 
ATOM     47  H   UNL A   1      44.558  27.633  27.343  1.00  0.00     0.167 HD
ATOM     48  C   UNL A   1      48.844  28.111  26.604  1.00  0.00     0.031 A 
ATOM     49  C   UNL A   1      42.034  28.478  28.193  1.00  0.00     0.031 A 
ATOM     50  C   UNL A   1      48.398  29.392  27.082  1.00  0.00     0.049 A 
ATOM     51  C   UNL A   1      42.964  29.643  28.393  1.00  0.00     0.074 A 
ATOM     52  C   UNL A   1      49.133  30.554  27.245  1.00  0.00     0.029 A 
ATOM     53  N   UNL A   1      47.101  29.680  27.479  1.00  0.00    -0.354 N 
ATOM     54  N   UNL A   1      44.241  29.742  28.114  1.00  0.00    -0.248 NA
ATOM     55  C   UNL A   1      42.377  30.862  28.968  1.00  0.00     0.031 C 
ATOM     56  C   UNL A   1      48.293  31.528  27.794  1.00  0.00     0.029 A 
ATOM     57  C   UNL A   1      47.021  30.993  27.911  1.00  0.00     0.049 A 
ATOM     58  H   UNL A   1      46.349  29.045  27.456  1.00  0.00     0.167 HD
ATOM     59  C   UNL A   1      44.604  31.038  28.455  1.00  0.00     0.074 A 
ATOM     60  C   UNL A   1      43.405  31.697  28.932  1.00  0.00     0.031 C 
ATOM     61  C   UNL A   1      45.820  31.631  28.385  1.00  0.00     0.031 A 
BRANCH  48  62
ATOM     62  C   UNL A   1      50.299  27.948  26.261  1.00  0.00    -0.014 A 
ATOM     63  C   UNL A   1      51.232  27.540  27.227  1.00  0.00     0.009 A 
ATOM     64  C   UNL A   1      50.734  28.145  24.941  1.00  0.00     0.009 A 
ATOM     65  C   UNL A   1      52.573  27.357  26.886  1.00  0.00     0.001 A 
ATOM     66  C   UNL A   1      52.070  27.934  24.595  1.00  0.00     0.001 A 
ATOM     67  C   UNL A   1      52.990  27.547  25.568  1.00  0.00     0.000 A 
ENDBRANCH  48  62
BRANCH  49  68
ATOM     68  C   UNL A   1      40.598  28.585  28.565  1.00  0.00    -0.014 A 
ATOM     69  C   UNL A   1      39.655  29.079  27.650  1.00  0.00     0.009 A 
ATOM     70  C   UNL A   1      40.168  28.226  29.852  1.00  0.00     0.009 A 
ATOM     71  C   UNL A   1      38.323  29.254  28.032  1.00  0.00     0.001 A 
ATOM     72  C   UNL A   1      38.829  28.367  30.219  1.00  0.00     0.001 A 
ATOM     73  C   UNL A   1      37.910  28.895  29.314  1.00  0.00     0.000 A 
ENDBRANCH  49  68
BRANCH  61  74
ATOM     74  C   UNL A   1      45.902  33.074  28.802  1.00  0.00    -0.014 A 
ATOM     75  C   UNL A   1      45.684  34.114  27.885  1.00  0.00     0.009 A 
ATOM     76  C   UNL A   1      46.185  33.395  30.138  1.00  0.00     0.009 A 
ATOM     77  C   UNL A   1      45.794  35.446  28.288  1.00  0.00     0.001 A 
ATOM     78  C   UNL A   1      46.258  34.728  30.547  1.00  0.00     0.001 A 
ATOM     79  C   UNL A   1      46.076  35.751  29.619  1.00  0.00     0.000 A 
ENDBRANCH  61  74
ENDBRANCH  35  36
ENDBRANCH  27  30
ENDBRANCH  25  26
ENDBRANCH  24  25
ENDBRANCH  23  24
ENDBRANCH  22  23
ENDBRANCH   1  22
TORSDOF 18
ENDMDL
