MODEL 1
REMARK VINA RESULT:     -10.8      0.000      0.000
REMARK SMILES [NH3+][C@H]1CCCC[C@@H]1C(=O)N1CC(C(=O)NCCCCCCNC(=O)c2ccc(-c3c4nc(c(-c5ccccc5)c5ccc([nH]5)c(-c5ccccc5)c5nc(c(-c6ccccc6)c6ccc3[nH]6)C=C5)C=C4)cc2)C1
REMARK SMILES IDX 18 1 17 2 16 3 15 4 13 5 14 6 12 8 8 9 9 10 10 11 11 12
REMARK SMILES IDX 73 13 7 14 2 15 3 16 4 17 6 18 5 19 1 20 19 24 20 25 21 26
REMARK SMILES IDX 22 27 23 28 24 30 25 31 26 32 72 33 27 34 71 35 28 36 29 37
REMARK SMILES IDX 30 38 65 39 31 40 70 41 64 42 66 43 32 44 69 45 63 46 62 47
REMARK SMILES IDX 33 49 55 50 40 51 54 52 41 53 44 54 53 55 67 56 42 57 43 58
REMARK SMILES IDX 52 60 68 61 45 62 34 63 35 64 39 65 36 66 38 67 37 68 56 69
REMARK SMILES IDX 57 70 61 71 58 72 60 73 59 74 46 75 47 76 51 77 48 78 50 79
REMARK SMILES IDX 49 80
REMARK H PARENT 15 7 1 21 1 22 1 23 22 29 66 48 44 59
REMARK Flexibility Score: inf
ROOT
ATOM      1  C   UNL A   1      35.556  22.573  24.246  1.00  0.00     0.002 C 
ENDROOT
BRANCH   1   2
ATOM      2  C   UNL A   1      35.284  23.116  25.655  1.00  0.00     0.021 C 
BRANCH   2   3
ATOM      3  C   UNL A   1      34.633  22.110  26.602  1.00  0.00     0.116 C 
BRANCH   3   4
ATOM      4  N   UNL A   1      33.800  21.173  25.876  1.00  0.00    -0.356 N 
ATOM      5  C   UNL A   1      32.464  21.198  25.561  1.00  0.00     0.226 C 
ATOM      6  O   UNL A   1      32.036  20.188  24.983  1.00  0.00    -0.275 OA
ATOM      7  H   UNL A   1      34.277  20.375  25.550  1.00  0.00     0.163 HD
BRANCH   5   8
ATOM      8  C   UNL A   1      31.560  22.397  25.864  1.00  0.00     0.117 C 
ATOM      9  C   UNL A   1      31.343  25.674  26.290  1.00  0.00     0.231 C 
ATOM     10  O   UNL A   1      30.129  25.814  26.433  1.00  0.00    -0.274 OA
ATOM     11  N   UNL A   1      31.937  24.444  26.100  1.00  0.00    -0.341 N 
ATOM     12  C   UNL A   1      31.586  23.605  24.942  1.00  0.00     0.134 C 
ATOM     13  C   UNL A   1      31.813  23.323  27.043  1.00  0.00     0.134 C 
BRANCH   9  14
ATOM     14  C   UNL A   1      32.322  26.836  26.451  1.00  0.00     0.136 C 
ATOM     15  C   UNL A   1      31.670  28.142  26.962  1.00  0.00     0.193 C 
ATOM     16  C   UNL A   1      32.644  29.327  26.927  1.00  0.00     0.066 C 
ATOM     17  C   UNL A   1      33.257  29.502  25.541  1.00  0.00     0.006 C 
ATOM     18  C   UNL A   1      33.020  27.039  25.097  1.00  0.00     0.020 C 
ATOM     19  C   UNL A   1      33.969  28.231  25.099  1.00  0.00     0.001 C 
BRANCH  15  20
ATOM     20  N   UNL A   1      31.148  27.993  28.327  1.00  0.00    -0.354 N 
ATOM     21  H   UNL A   1      30.405  28.676  28.483  1.00  0.00     0.344 HD
ATOM     22  H   UNL A   1      31.900  28.150  28.998  1.00  0.00     0.344 HD
ATOM     23  H   UNL A   1      30.775  27.052  28.448  1.00  0.00     0.344 HD
ENDBRANCH  15  20
ENDBRANCH   9  14
ENDBRANCH   5   8
ENDBRANCH   3   4
ENDBRANCH   2   3
ENDBRANCH   1   2
BRANCH   1  24
ATOM     24  C   UNL A   1      37.006  22.151  23.978  1.00  0.00     0.002 C 
BRANCH  24  25
ATOM     25  C   UNL A   1      37.426  20.829  24.621  1.00  0.00     0.021 C 
BRANCH  25  26
ATOM     26  C   UNL A   1      38.467  20.961  25.729  1.00  0.00     0.116 C 
BRANCH  26  27
ATOM     27  N   UNL A   1      39.448  19.886  25.698  1.00  0.00    -0.352 N 
ATOM     28  C   UNL A   1      40.787  19.923  25.992  1.00  0.00     0.251 C 
ATOM     29  H   UNL A   1      39.099  19.006  25.426  1.00  0.00     0.163 HD
ATOM     30  O   UNL A   1      41.508  18.961  25.736  1.00  0.00    -0.269 OA
BRANCH  28  31
ATOM     31  C   UNL A   1      41.370  21.137  26.598  1.00  0.00     0.039 A 
ATOM     32  C   UNL A   1      41.943  22.102  25.765  1.00  0.00     0.014 A 
ATOM     33  C   UNL A   1      41.335  21.332  27.981  1.00  0.00     0.014 A 
ATOM     34  C   UNL A   1      42.407  23.300  26.314  1.00  0.00     0.010 A 
ATOM     35  C   UNL A   1      41.733  22.553  28.517  1.00  0.00     0.010 A 
ATOM     36  C   UNL A   1      42.264  23.553  27.688  1.00  0.00    -0.014 A 
BRANCH  36  37
ATOM     37  C   UNL A   1      42.637  24.864  28.278  1.00  0.00     0.031 A 
ATOM     38  C   UNL A   1      41.605  25.947  28.431  1.00  0.00     0.074 A 
ATOM     39  C   UNL A   1      43.921  25.104  28.611  1.00  0.00     0.049 A 
ATOM     40  N   UNL A   1      41.761  27.186  28.820  1.00  0.00    -0.248 NA
ATOM     41  C   UNL A   1      40.218  25.595  28.083  1.00  0.00     0.031 C 
ATOM     42  C   UNL A   1      45.023  24.145  28.498  1.00  0.00     0.029 A 
ATOM     43  N   UNL A   1      44.520  26.237  29.104  1.00  0.00    -0.354 N 
ATOM     44  C   UNL A   1      40.497  27.761  28.766  1.00  0.00     0.074 A 
ATOM     45  C   UNL A   1      39.596  26.752  28.250  1.00  0.00     0.031 C 
ATOM     46  C   UNL A   1      46.156  24.723  28.930  1.00  0.00     0.029 A 
ATOM     47  C   UNL A   1      45.875  26.106  29.298  1.00  0.00     0.049 A 
ATOM     48  H   UNL A   1      44.026  27.066  29.301  1.00  0.00     0.167 HD
ATOM     49  C   UNL A   1      40.116  29.007  29.133  1.00  0.00     0.031 A 
ATOM     50  C   UNL A   1      46.790  27.004  29.707  1.00  0.00     0.031 A 
ATOM     51  C   UNL A   1      41.010  30.014  29.638  1.00  0.00     0.049 A 
ATOM     52  C   UNL A   1      46.348  28.406  30.032  1.00  0.00     0.074 A 
ATOM     53  C   UNL A   1      40.714  31.301  30.051  1.00  0.00     0.029 A 
ATOM     54  N   UNL A   1      42.377  29.845  29.801  1.00  0.00    -0.354 N 
ATOM     55  N   UNL A   1      45.142  28.919  30.016  1.00  0.00    -0.248 NA
ATOM     56  C   UNL A   1      47.398  29.352  30.438  1.00  0.00     0.031 C 
ATOM     57  C   UNL A   1      41.909  31.930  30.415  1.00  0.00     0.029 A 
ATOM     58  C   UNL A   1      42.940  31.014  30.286  1.00  0.00     0.049 A 
ATOM     59  H   UNL A   1      42.872  29.018  29.602  1.00  0.00     0.167 HD
ATOM     60  C   UNL A   1      45.285  30.233  30.440  1.00  0.00     0.074 A 
ATOM     61  C   UNL A   1      46.689  30.433  30.728  1.00  0.00     0.031 C 
ATOM     62  C   UNL A   1      44.338  31.193  30.578  1.00  0.00     0.031 A 
BRANCH  49  63
ATOM     63  C   UNL A   1      38.657  29.352  29.007  1.00  0.00    -0.014 A 
ATOM     64  C   UNL A   1      38.119  29.770  27.780  1.00  0.00     0.009 A 
ATOM     65  C   UNL A   1      37.800  29.205  30.109  1.00  0.00     0.009 A 
ATOM     66  C   UNL A   1      36.758  30.058  27.665  1.00  0.00     0.001 A 
ATOM     67  C   UNL A   1      36.435  29.465  29.983  1.00  0.00     0.001 A 
ATOM     68  C   UNL A   1      35.916  29.899  28.764  1.00  0.00     0.000 A 
ENDBRANCH  49  63
BRANCH  50  69
ATOM     69  C   UNL A   1      48.227  26.629  29.819  1.00  0.00    -0.014 A 
ATOM     70  C   UNL A   1      49.097  26.808  28.732  1.00  0.00     0.009 A 
ATOM     71  C   UNL A   1      48.723  26.039  30.992  1.00  0.00     0.009 A 
ATOM     72  C   UNL A   1      50.418  26.360  28.801  1.00  0.00     0.001 A 
ATOM     73  C   UNL A   1      50.055  25.626  31.071  1.00  0.00     0.001 A 
ATOM     74  C   UNL A   1      50.896  25.772  29.970  1.00  0.00     0.000 A 
ENDBRANCH  50  69
BRANCH  62  75
ATOM     75  C   UNL A   1      44.783  32.530  31.102  1.00  0.00    -0.014 A 
ATOM     76  C   UNL A   1      45.111  33.583  30.235  1.00  0.00     0.009 A 
ATOM     77  C   UNL A   1      44.841  32.747  32.488  1.00  0.00     0.009 A 
ATOM     78  C   UNL A   1      45.522  34.817  30.746  1.00  0.00     0.001 A 
ATOM     79  C   UNL A   1      45.219  33.991  32.996  1.00  0.00     0.001 A 
ATOM     80  C   UNL A   1      45.569  35.021  32.125  1.00  0.00     0.000 A 
ENDBRANCH  62  75
ENDBRANCH  36  37
ENDBRANCH  28  31
ENDBRANCH  26  27
ENDBRANCH  25  26
ENDBRANCH  24  25
ENDBRANCH   1  24
TORSDOF 15
ENDMDL
MODEL 2
REMARK VINA RESULT:     -10.7      1.388      7.498
REMARK SMILES [NH3+][C@H]1CCCC[C@@H]1C(=O)N1CC(C(=O)NCCCCCCNC(=O)c2ccc(-c3c4nc(c(-c5ccccc5)c5ccc([nH]5)c(-c5ccccc5)c5nc(c(-c6ccccc6)c6ccc3[nH]6)C=C5)C=C4)cc2)C1
REMARK SMILES IDX 18 1 17 2 16 3 15 4 13 5 14 6 12 8 8 9 9 10 10 11 11 12
REMARK SMILES IDX 73 13 7 14 2 15 3 16 4 17 6 18 5 19 1 20 19 24 20 25 21 26
REMARK SMILES IDX 22 27 23 28 24 30 25 31 26 32 72 33 27 34 71 35 28 36 29 37
REMARK SMILES IDX 30 38 65 39 31 40 70 41 64 42 66 43 32 44 69 45 63 46 62 47
REMARK SMILES IDX 33 49 55 50 40 51 54 52 41 53 44 54 53 55 67 56 42 57 43 58
REMARK SMILES IDX 52 60 68 61 45 62 34 63 35 64 39 65 36 66 38 67 37 68 56 69
REMARK SMILES IDX 57 70 61 71 58 72 60 73 59 74 46 75 47 76 51 77 48 78 50 79
REMARK SMILES IDX 49 80
REMARK H PARENT 15 7 1 21 1 22 1 23 22 29 66 48 44 59
REMARK Flexibility Score: inf
ROOT
ATOM      1  C   UNL A   1      34.055  26.829  25.487  1.00  0.00     0.002 C 
ENDROOT
BRANCH   1   2
ATOM      2  C   UNL A   1      33.243  25.643  26.022  1.00  0.00     0.021 C 
BRANCH   2   3
ATOM      3  C   UNL A   1      31.901  25.432  25.321  1.00  0.00     0.116 C 
BRANCH   3   4
ATOM      4  N   UNL A   1      30.909  24.912  26.239  1.00  0.00    -0.356 N 
ATOM      5  C   UNL A   1      30.560  23.625  26.566  1.00  0.00     0.226 C 
ATOM      6  O   UNL A   1      29.602  23.517  27.347  1.00  0.00    -0.275 OA
ATOM      7  H   UNL A   1      30.393  25.603  26.713  1.00  0.00     0.163 HD
BRANCH   5   8
ATOM      8  C   UNL A   1      31.312  22.398  26.040  1.00  0.00     0.117 C 
ATOM      9  C   UNL A   1      34.219  21.110  25.114  1.00  0.00     0.231 C 
ATOM     10  O   UNL A   1      33.901  19.944  24.890  1.00  0.00    -0.274 OA
ATOM     11  N   UNL A   1      33.314  22.070  25.517  1.00  0.00    -0.341 N 
ATOM     12  C   UNL A   1      32.555  21.915  26.769  1.00  0.00     0.134 C 
ATOM     13  C   UNL A   1      32.115  22.434  24.749  1.00  0.00     0.134 C 
BRANCH   9  14
ATOM     14  C   UNL A   1      35.623  21.641  24.828  1.00  0.00     0.136 C 
ATOM     15  C   UNL A   1      36.755  20.806  25.472  1.00  0.00     0.193 C 
ATOM     16  C   UNL A   1      38.126  21.477  25.322  1.00  0.00     0.066 C 
ATOM     17  C   UNL A   1      38.105  22.908  25.849  1.00  0.00     0.006 C 
ATOM     18  C   UNL A   1      35.663  23.106  25.289  1.00  0.00     0.020 C 
ATOM     19  C   UNL A   1      37.044  23.733  25.135  1.00  0.00     0.001 C 
BRANCH  15  20
ATOM     20  N   UNL A   1      36.821  19.451  24.908  1.00  0.00    -0.354 N 
ATOM     21  H   UNL A   1      37.697  19.338  24.398  1.00  0.00     0.344 HD
ATOM     22  H   UNL A   1      36.036  19.309  24.272  1.00  0.00     0.344 HD
ATOM     23  H   UNL A   1      36.776  18.766  25.662  1.00  0.00     0.344 HD
ENDBRANCH  15  20
ENDBRANCH   9  14
ENDBRANCH   5   8
ENDBRANCH   3   4
ENDBRANCH   2   3
ENDBRANCH   1   2
BRANCH   1  24
ATOM     24  C   UNL A   1      33.225  27.979  24.904  1.00  0.00     0.002 C 
BRANCH  24  25
ATOM     25  C   UNL A   1      33.400  29.327  25.607  1.00  0.00     0.021 C 
BRANCH  25  26
ATOM     26  C   UNL A   1      33.589  29.238  27.118  1.00  0.00     0.116 C 
BRANCH  26  27
ATOM     27  N   UNL A   1      33.641  30.549  27.748  1.00  0.00    -0.352 N 
ATOM     28  C   UNL A   1      34.626  31.100  28.528  1.00  0.00     0.251 C 
ATOM     29  H   UNL A   1      32.855  31.122  27.592  1.00  0.00     0.163 HD
ATOM     30  O   UNL A   1      34.426  32.151  29.132  1.00  0.00    -0.269 OA
BRANCH  28  31
ATOM     31  C   UNL A   1      35.925  30.410  28.661  1.00  0.00     0.039 A 
ATOM     32  C   UNL A   1      36.822  30.442  27.590  1.00  0.00     0.014 A 
ATOM     33  C   UNL A   1      36.264  29.750  29.844  1.00  0.00     0.014 A 
ATOM     34  C   UNL A   1      38.093  29.881  27.737  1.00  0.00     0.010 A 
ATOM     35  C   UNL A   1      37.554  29.254  30.013  1.00  0.00     0.010 A 
ATOM     36  C   UNL A   1      38.484  29.324  28.965  1.00  0.00    -0.014 A 
BRANCH  36  37
ATOM     37  C   UNL A   1      39.868  28.830  29.187  1.00  0.00     0.031 A 
ATOM     38  C   UNL A   1      40.911  29.740  29.774  1.00  0.00     0.074 A 
ATOM     39  C   UNL A   1      40.202  27.585  28.794  1.00  0.00     0.049 A 
ATOM     40  N   UNL A   1      42.191  29.527  29.941  1.00  0.00    -0.248 NA
ATOM     41  C   UNL A   1      40.459  31.070  30.214  1.00  0.00     0.031 C 
ATOM     42  C   UNL A   1      39.289  26.607  28.197  1.00  0.00     0.029 A 
ATOM     43  N   UNL A   1      41.409  26.930  28.829  1.00  0.00    -0.354 N 
ATOM     44  C   UNL A   1      42.697  30.692  30.505  1.00  0.00     0.074 A 
ATOM     45  C   UNL A   1      41.597  31.629  30.597  1.00  0.00     0.031 C 
ATOM     46  C   UNL A   1      39.963  25.472  27.943  1.00  0.00     0.029 A 
ATOM     47  C   UNL A   1      41.363  25.659  28.307  1.00  0.00     0.049 A 
ATOM     48  H   UNL A   1      42.229  27.333  29.195  1.00  0.00     0.167 HD
ATOM     49  C   UNL A   1      43.956  30.951  30.929  1.00  0.00     0.031 A 
ATOM     50  C   UNL A   1      42.342  24.754  28.124  1.00  0.00     0.031 A 
ATOM     51  C   UNL A   1      45.052  30.025  30.831  1.00  0.00     0.049 A 
ATOM     52  C   UNL A   1      43.749  25.101  28.532  1.00  0.00     0.074 A 
ATOM     53  C   UNL A   1      46.362  30.193  31.247  1.00  0.00     0.029 A 
ATOM     54  N   UNL A   1      44.967  28.757  30.279  1.00  0.00    -0.354 N 
ATOM     55  N   UNL A   1      44.199  26.192  29.104  1.00  0.00    -0.248 NA
ATOM     56  C   UNL A   1      44.781  24.087  28.274  1.00  0.00     0.031 C 
ATOM     57  C   UNL A   1      47.082  29.045  30.900  1.00  0.00     0.029 A 
ATOM     58  C   UNL A   1      46.206  28.140  30.323  1.00  0.00     0.049 A 
ATOM     59  H   UNL A   1      44.147  28.355  29.911  1.00  0.00     0.167 HD
ATOM     60  C   UNL A   1      45.558  25.979  29.302  1.00  0.00     0.074 A 
ATOM     61  C   UNL A   1      45.852  24.650  28.812  1.00  0.00     0.031 C 
ATOM     62  C   UNL A   1      46.481  26.812  29.841  1.00  0.00     0.031 A 
BRANCH  49  63
ATOM     63  C   UNL A   1      44.217  32.297  31.548  1.00  0.00    -0.014 A 
ATOM     64  C   UNL A   1      44.159  32.474  32.939  1.00  0.00     0.009 A 
ATOM     65  C   UNL A   1      44.581  33.386  30.740  1.00  0.00     0.009 A 
ATOM     66  C   UNL A   1      44.434  33.720  33.507  1.00  0.00     0.001 A 
ATOM     67  C   UNL A   1      44.884  34.622  31.312  1.00  0.00     0.001 A 
ATOM     68  C   UNL A   1      44.802  34.791  32.694  1.00  0.00     0.000 A 
ENDBRANCH  49  63
BRANCH  50  69
ATOM     69  C   UNL A   1      42.049  23.431  27.506  1.00  0.00    -0.014 A 
ATOM     70  C   UNL A   1      41.498  22.393  28.273  1.00  0.00     0.009 A 
ATOM     71  C   UNL A   1      42.369  23.182  26.162  1.00  0.00     0.009 A 
ATOM     72  C   UNL A   1      41.321  21.121  27.721  1.00  0.00     0.001 A 
ATOM     73  C   UNL A   1      42.156  21.921  25.603  1.00  0.00     0.001 A 
ATOM     74  C   UNL A   1      41.648  20.887  26.387  1.00  0.00     0.000 A 
ENDBRANCH  50  69
BRANCH  62  75
ATOM     75  C   UNL A   1      47.886  26.293  29.968  1.00  0.00    -0.014 A 
ATOM     76  C   UNL A   1      48.366  25.766  31.177  1.00  0.00     0.009 A 
ATOM     77  C   UNL A   1      48.732  26.301  28.847  1.00  0.00     0.009 A 
ATOM     78  C   UNL A   1      49.675  25.290  31.269  1.00  0.00     0.001 A 
ATOM     79  C   UNL A   1      50.029  25.794  28.934  1.00  0.00     0.001 A 
ATOM     80  C   UNL A   1      50.503  25.298  30.147  1.00  0.00     0.000 A 
ENDBRANCH  62  75
ENDBRANCH  36  37
ENDBRANCH  28  31
ENDBRANCH  26  27
ENDBRANCH  25  26
ENDBRANCH  24  25
ENDBRANCH   1  24
TORSDOF 15
ENDMDL
MODEL 3
REMARK VINA RESULT:     -10.6      0.785      6.044
REMARK SMILES [NH3+][C@H]1CCCC[C@@H]1C(=O)N1CC(C(=O)NCCCCCCNC(=O)c2ccc(-c3c4nc(c(-c5ccccc5)c5ccc([nH]5)c(-c5ccccc5)c5nc(c(-c6ccccc6)c6ccc3[nH]6)C=C5)C=C4)cc2)C1
REMARK SMILES IDX 18 1 17 2 16 3 15 4 13 5 14 6 12 8 8 9 9 10 10 11 11 12
REMARK SMILES IDX 73 13 7 14 2 15 3 16 4 17 6 18 5 19 1 20 19 24 20 25 21 26
REMARK SMILES IDX 22 27 23 28 24 30 25 31 26 32 72 33 27 34 71 35 28 36 29 37
REMARK SMILES IDX 30 38 65 39 31 40 70 41 64 42 66 43 32 44 69 45 63 46 62 47
REMARK SMILES IDX 33 49 55 50 40 51 54 52 41 53 44 54 53 55 67 56 42 57 43 58
REMARK SMILES IDX 52 60 68 61 45 62 34 63 35 64 39 65 36 66 38 67 37 68 56 69
REMARK SMILES IDX 57 70 61 71 58 72 60 73 59 74 46 75 47 76 51 77 48 78 50 79
REMARK SMILES IDX 49 80
REMARK H PARENT 15 7 1 21 1 22 1 23 22 29 66 48 44 59
REMARK Flexibility Score: inf
ROOT
ATOM      1  C   UNL A   1      36.494  22.082  23.940  1.00  0.00     0.002 C 
ENDROOT
BRANCH   1   2
ATOM      2  C   UNL A   1      35.739  23.354  24.344  1.00  0.00     0.021 C 
BRANCH   2   3
ATOM      3  C   UNL A   1      34.630  23.761  23.375  1.00  0.00     0.116 C 
BRANCH   3   4
ATOM      4  N   UNL A   1      33.793  22.629  23.034  1.00  0.00    -0.356 N 
ATOM      5  C   UNL A   1      32.554  22.245  23.486  1.00  0.00     0.226 C 
ATOM      6  O   UNL A   1      32.137  21.166  23.039  1.00  0.00    -0.275 OA
ATOM      7  H   UNL A   1      34.181  22.028  22.358  1.00  0.00     0.163 HD
BRANCH   5   8
ATOM      8  C   UNL A   1      31.717  23.095  24.447  1.00  0.00     0.117 C 
ATOM      9  C   UNL A   1      31.458  25.931  26.138  1.00  0.00     0.231 C 
ATOM     10  O   UNL A   1      30.337  25.811  26.630  1.00  0.00    -0.274 OA
ATOM     11  N   UNL A   1      32.035  24.961  25.345  1.00  0.00    -0.341 N 
ATOM     12  C   UNL A   1      31.401  24.538  24.086  1.00  0.00     0.134 C 
ATOM     13  C   UNL A   1      32.261  23.577  25.783  1.00  0.00     0.134 C 
BRANCH   9  14
ATOM     14  C   UNL A   1      32.375  27.105  26.476  1.00  0.00     0.136 C 
ATOM     15  C   UNL A   1      31.638  28.329  27.068  1.00  0.00     0.193 C 
ATOM     16  C   UNL A   1      32.562  29.546  27.213  1.00  0.00     0.066 C 
ATOM     17  C   UNL A   1      33.251  29.881  25.894  1.00  0.00     0.006 C 
ATOM     18  C   UNL A   1      33.147  27.468  25.197  1.00  0.00     0.020 C 
ATOM     19  C   UNL A   1      34.043  28.687  25.379  1.00  0.00     0.001 C 
BRANCH  15  20
ATOM     20  N   UNL A   1      31.038  28.026  28.374  1.00  0.00    -0.354 N 
ATOM     21  H   UNL A   1      31.776  27.805  29.043  1.00  0.00     0.344 HD
ATOM     22  H   UNL A   1      30.412  27.226  28.283  1.00  0.00     0.344 HD
ATOM     23  H   UNL A   1      30.512  28.835  28.703  1.00  0.00     0.344 HD
ENDBRANCH  15  20
ENDBRANCH   9  14
ENDBRANCH   5   8
ENDBRANCH   3   4
ENDBRANCH   2   3
ENDBRANCH   1   2
BRANCH   1  24
ATOM     24  C   UNL A   1      36.488  20.959  24.984  1.00  0.00     0.002 C 
BRANCH  24  25
ATOM     25  C   UNL A   1      37.690  20.014  24.929  1.00  0.00     0.021 C 
BRANCH  25  26
ATOM     26  C   UNL A   1      38.900  20.476  25.736  1.00  0.00     0.116 C 
BRANCH  26  27
ATOM     27  N   UNL A   1      39.940  19.460  25.803  1.00  0.00    -0.352 N 
ATOM     28  C   UNL A   1      41.272  19.599  26.103  1.00  0.00     0.251 C 
ATOM     29  H   UNL A   1      39.646  18.542  25.603  1.00  0.00     0.163 HD
ATOM     30  O   UNL A   1      42.049  18.663  25.933  1.00  0.00    -0.269 OA
BRANCH  28  31
ATOM     31  C   UNL A   1      41.777  20.892  26.608  1.00  0.00     0.039 A 
ATOM     32  C   UNL A   1      42.301  21.817  25.701  1.00  0.00     0.014 A 
ATOM     33  C   UNL A   1      41.718  21.197  27.970  1.00  0.00     0.014 A 
ATOM     34  C   UNL A   1      42.689  23.081  26.151  1.00  0.00     0.010 A 
ATOM     35  C   UNL A   1      42.039  22.480  28.405  1.00  0.00     0.010 A 
ATOM     36  C   UNL A   1      42.518  23.438  27.498  1.00  0.00    -0.014 A 
BRANCH  36  37
ATOM     37  C   UNL A   1      42.808  24.813  27.979  1.00  0.00     0.031 A 
ATOM     38  C   UNL A   1      44.203  25.191  28.396  1.00  0.00     0.074 A 
ATOM     39  C   UNL A   1      41.801  25.701  28.107  1.00  0.00     0.049 A 
ATOM     40  N   UNL A   1      44.628  26.302  28.941  1.00  0.00    -0.248 NA
ATOM     41  C   UNL A   1      45.253  24.180  28.188  1.00  0.00     0.031 C 
ATOM     42  C   UNL A   1      40.401  25.456  27.752  1.00  0.00     0.029 A 
ATOM     43  N   UNL A   1      41.801  26.990  28.581  1.00  0.00    -0.354 N 
ATOM     44  C   UNL A   1      45.991  26.126  29.142  1.00  0.00     0.074 A 
ATOM     45  C   UNL A   1      46.311  24.781  28.713  1.00  0.00     0.031 C 
ATOM     46  C   UNL A   1      39.683  26.564  28.002  1.00  0.00     0.029 A 
ATOM     47  C   UNL A   1      40.558  27.577  28.582  1.00  0.00     0.049 A 
ATOM     48  H   UNL A   1      42.614  27.450  28.891  1.00  0.00     0.167 HD
ATOM     49  C   UNL A   1      46.900  27.010  29.616  1.00  0.00     0.031 A 
ATOM     50  C   UNL A   1      40.163  28.787  29.020  1.00  0.00     0.031 A 
ATOM     51  C   UNL A   1      46.583  28.345  30.050  1.00  0.00     0.049 A 
ATOM     52  C   UNL A   1      41.184  29.719  29.618  1.00  0.00     0.074 A 
ATOM     53  C   UNL A   1      47.439  29.320  30.534  1.00  0.00     0.029 A 
ATOM     54  N   UNL A   1      45.310  28.893  30.052  1.00  0.00    -0.354 N 
ATOM     55  N   UNL A   1      42.476  29.552  29.759  1.00  0.00    -0.248 NA
ATOM     56  C   UNL A   1      40.687  31.012  30.111  1.00  0.00     0.031 C 
ATOM     57  C   UNL A   1      46.676  30.441  30.877  1.00  0.00     0.029 A 
ATOM     58  C   UNL A   1      45.354  30.185  30.550  1.00  0.00     0.049 A 
ATOM     59  H   UNL A   1      44.496  28.432  29.745  1.00  0.00     0.167 HD
ATOM     60  C   UNL A   1      42.949  30.728  30.325  1.00  0.00     0.074 A 
ATOM     61  C   UNL A   1      41.811  31.608  30.480  1.00  0.00     0.031 C 
ATOM     62  C   UNL A   1      44.214  31.052  30.688  1.00  0.00     0.031 A 
BRANCH  49  63
ATOM     63  C   UNL A   1      48.334  26.562  29.687  1.00  0.00    -0.014 A 
ATOM     64  C   UNL A   1      49.244  26.897  28.672  1.00  0.00     0.009 A 
ATOM     65  C   UNL A   1      48.795  25.850  30.805  1.00  0.00     0.009 A 
ATOM     66  C   UNL A   1      50.581  26.504  28.762  1.00  0.00     0.001 A 
ATOM     67  C   UNL A   1      50.138  25.484  30.906  1.00  0.00     0.001 A 
ATOM     68  C   UNL A   1      51.028  25.803  29.881  1.00  0.00     0.000 A 
ENDBRANCH  49  63
BRANCH  50  69
ATOM     69  C   UNL A   1      38.735  29.198  28.937  1.00  0.00    -0.014 A 
ATOM     70  C   UNL A   1      37.884  29.046  30.042  1.00  0.00     0.009 A 
ATOM     71  C   UNL A   1      38.201  29.691  27.736  1.00  0.00     0.009 A 
ATOM     72  C   UNL A   1      36.521  29.332  29.933  1.00  0.00     0.001 A 
ATOM     73  C   UNL A   1      36.845  30.012  27.640  1.00  0.00     0.001 A 
ATOM     74  C   UNL A   1      36.003  29.817  28.733  1.00  0.00     0.000 A 
ENDBRANCH  50  69
BRANCH  62  75
ATOM     75  C   UNL A   1      44.440  32.429  31.246  1.00  0.00    -0.014 A 
ATOM     76  C   UNL A   1      44.763  33.512  30.415  1.00  0.00     0.009 A 
ATOM     77  C   UNL A   1      44.292  32.651  32.625  1.00  0.00     0.009 A 
ATOM     78  C   UNL A   1      44.968  34.783  30.958  1.00  0.00     0.001 A 
ATOM     79  C   UNL A   1      44.465  33.928  33.160  1.00  0.00     0.001 A 
ATOM     80  C   UNL A   1      44.812  34.991  32.328  1.00  0.00     0.000 A 
ENDBRANCH  62  75
ENDBRANCH  36  37
ENDBRANCH  28  31
ENDBRANCH  26  27
ENDBRANCH  25  26
ENDBRANCH  24  25
ENDBRANCH   1  24
TORSDOF 15
ENDMDL
