MODEL 1
REMARK VINA RESULT:     -10.7      0.000      0.000
REMARK SMILES C[C@@H](C(=O)NCCCCCCNC(=O)c1ccc(-c2c3nc(c(-c4ccccc4)c4ccc([nH]4)c(-c4ccccc4)c4nc(c(-c5ccccc5)c5ccc2[nH]5)C=C4)C=C3)cc1)c1ccc2c3cc(Cl)ccc3n(C(=O)c3cocn3)c2c1
REMARK SMILES IDX 8 1 7 2 6 3 5 4 3 5 4 6 2 8 1 9 63 10 64 11 83 12 65 13
REMARK SMILES IDX 82 14 66 15 74 16 67 17 73 18 68 19 72 20 69 21 71 22 70 23
REMARK SMILES IDX 75 24 76 25 77 26 78 27 81 28 79 29 80 30 9 31 10 32 11 33
REMARK SMILES IDX 12 34 13 35 14 37 15 38 16 39 62 40 17 41 61 42 18 43 19 44
REMARK SMILES IDX 20 45 55 46 21 47 60 48 54 49 56 50 22 51 59 52 53 53 52 54
REMARK SMILES IDX 23 56 45 57 30 58 44 59 31 60 34 61 43 62 57 63 32 64 33 65
REMARK SMILES IDX 42 67 58 68 35 69 24 70 25 71 29 72 26 73 28 74 27 75 46 76
REMARK SMILES IDX 47 77 51 78 48 79 50 80 49 81 36 82 37 83 41 84 38 85 40 86
REMARK SMILES IDX 39 87
REMARK H PARENT 5 7 12 36 56 55 34 66
REMARK Flexibility Score: inf
ROOT
ATOM      1  C   UNL A   1      40.932  27.197  29.185  1.00  0.00     0.002 C 
ENDROOT
BRANCH   1   2
ATOM      2  C   UNL A   1      42.061  28.189  29.496  1.00  0.00     0.021 C 
BRANCH   2   3
ATOM      3  C   UNL A   1      41.616  29.655  29.500  1.00  0.00     0.116 C 
BRANCH   3   4
ATOM      4  N   UNL A   1      40.746  29.891  30.632  1.00  0.00    -0.356 N 
ATOM      5  C   UNL A   1      39.990  31.006  30.870  1.00  0.00     0.227 C 
ATOM      6  O   UNL A   1      39.819  31.326  32.045  1.00  0.00    -0.274 OA
ATOM      7  H   UNL A   1      40.694  29.173  31.304  1.00  0.00     0.163 HD
BRANCH   5   8
ATOM      8  C   UNL A   1      39.399  31.776  29.673  1.00  0.00     0.105 C 
ATOM      9  C   UNL A   1      39.340  33.261  30.054  1.00  0.00     0.023 C 
BRANCH   8  10
ATOM     10  C   UNL A   1      38.051  31.227  29.186  1.00  0.00    -0.034 A 
ATOM     11  C   UNL A   1      37.886  29.874  28.872  1.00  0.00     0.005 A 
ATOM     12  C   UNL A   1      36.930  32.074  29.079  1.00  0.00     0.032 A 
ATOM     13  C   UNL A   1      36.665  29.378  28.404  1.00  0.00     0.011 A 
ATOM     14  C   UNL A   1      35.731  31.601  28.505  1.00  0.00     0.058 A 
ATOM     15  C   UNL A   1      35.582  30.255  28.198  1.00  0.00     0.008 A 
ATOM     16  N   UNL A   1      34.551  32.278  28.142  1.00  0.00    -0.274 N 
ATOM     17  C   UNL A   1      34.275  30.075  27.678  1.00  0.00     0.009 A 
ATOM     18  C   UNL A   1      33.680  31.339  27.558  1.00  0.00     0.057 A 
ATOM     19  C   UNL A   1      33.590  28.926  27.228  1.00  0.00     0.031 A 
ATOM     20  C   UNL A   1      32.460  31.475  26.866  1.00  0.00     0.029 A 
ATOM     21  C   UNL A   1      32.354  29.065  26.607  1.00  0.00     0.041 A 
ATOM     22  C   UNL A   1      31.806  30.323  26.406  1.00  0.00     0.023 A 
ATOM     23  Cl  UNL A   1      31.528  27.664  26.042  1.00  0.00    -0.084 Cl
BRANCH  16  24
ATOM     24  C   UNL A   1      34.359  33.684  28.291  1.00  0.00     0.284 C 
ATOM     25  O   UNL A   1      34.696  34.382  27.334  1.00  0.00    -0.266 OA
BRANCH  24  26
ATOM     26  C   UNL A   1      33.840  34.358  29.478  1.00  0.00     0.167 A 
ATOM     27  C   UNL A   1      34.281  34.301  30.783  1.00  0.00     0.231 A 
ATOM     28  N   UNL A   1      32.848  35.329  29.395  1.00  0.00    -0.211 NA
ATOM     29  O   UNL A   1      33.571  35.204  31.520  1.00  0.00    -0.451 OA
ATOM     30  C   UNL A   1      32.745  35.794  30.616  1.00  0.00     0.308 A 
ENDBRANCH  24  26
ENDBRANCH  16  24
ENDBRANCH   8  10
ENDBRANCH   5   8
ENDBRANCH   3   4
ENDBRANCH   2   3
ENDBRANCH   1   2
BRANCH   1  31
ATOM     31  C   UNL A   1      40.284  27.376  27.810  1.00  0.00     0.002 C 
BRANCH  31  32
ATOM     32  C   UNL A   1      40.178  26.093  26.986  1.00  0.00     0.021 C 
BRANCH  32  33
ATOM     33  C   UNL A   1      40.340  24.816  27.799  1.00  0.00     0.116 C 
BRANCH  33  34
ATOM     34  N   UNL A   1      40.864  23.722  26.996  1.00  0.00    -0.352 N 
ATOM     35  C   UNL A   1      42.016  23.689  26.247  1.00  0.00     0.251 C 
ATOM     36  H   UNL A   1      40.323  22.900  26.989  1.00  0.00     0.163 HD
ATOM     37  O   UNL A   1      42.239  22.774  25.469  1.00  0.00    -0.269 OA
BRANCH  35  38
ATOM     38  C   UNL A   1      42.980  24.800  26.388  1.00  0.00     0.039 A 
ATOM     39  C   UNL A   1      43.597  25.017  27.622  1.00  0.00     0.014 A 
ATOM     40  C   UNL A   1      43.292  25.596  25.284  1.00  0.00     0.014 A 
ATOM     41  C   UNL A   1      44.577  26.005  27.735  1.00  0.00     0.010 A 
ATOM     42  C   UNL A   1      44.316  26.527  25.380  1.00  0.00     0.010 A 
ATOM     43  C   UNL A   1      44.962  26.747  26.608  1.00  0.00    -0.014 A 
BRANCH  43  44
ATOM     44  C   UNL A   1      46.015  27.788  26.673  1.00  0.00     0.031 A 
ATOM     45  C   UNL A   1      45.615  29.233  26.763  1.00  0.00     0.074 A 
ATOM     46  C   UNL A   1      47.311  27.451  26.533  1.00  0.00     0.049 A 
ATOM     47  N   UNL A   1      46.355  30.306  26.648  1.00  0.00    -0.248 NA
ATOM     48  C   UNL A   1      44.183  29.504  26.970  1.00  0.00     0.031 C 
ATOM     49  C   UNL A   1      47.826  26.087  26.411  1.00  0.00     0.029 A 
ATOM     50  N   UNL A   1      48.430  28.241  26.442  1.00  0.00    -0.354 N 
ATOM     51  C   UNL A   1      45.473  31.376  26.730  1.00  0.00     0.074 A 
ATOM     52  C   UNL A   1      44.143  30.822  26.860  1.00  0.00     0.031 C 
ATOM     53  C   UNL A   1      49.160  26.135  26.264  1.00  0.00     0.029 A 
ATOM     54  C   UNL A   1      49.587  27.530  26.234  1.00  0.00     0.049 A 
ATOM     55  H   UNL A   1      48.405  29.222  26.518  1.00  0.00     0.167 HD
ATOM     56  C   UNL A   1      45.746  32.702  26.708  1.00  0.00     0.031 A 
ATOM     57  C   UNL A   1      50.846  27.956  26.019  1.00  0.00     0.031 A 
ATOM     58  C   UNL A   1      47.071  33.248  26.594  1.00  0.00     0.049 A 
ATOM     59  C   UNL A   1      51.131  29.432  25.996  1.00  0.00     0.074 A 
ATOM     60  C   UNL A   1      47.464  34.574  26.625  1.00  0.00     0.029 A 
ATOM     61  N   UNL A   1      48.222  32.491  26.425  1.00  0.00    -0.354 N 
ATOM     62  N   UNL A   1      50.297  30.435  26.127  1.00  0.00    -0.248 NA
ATOM     63  C   UNL A   1      52.532  29.834  25.804  1.00  0.00     0.031 C 
ATOM     64  C   UNL A   1      48.847  34.622  26.425  1.00  0.00     0.029 A 
ATOM     65  C   UNL A   1      49.322  33.324  26.330  1.00  0.00     0.049 A 
ATOM     66  H   UNL A   1      48.250  31.507  26.381  1.00  0.00     0.167 HD
ATOM     67  C   UNL A   1      51.074  31.585  26.067  1.00  0.00     0.074 A 
ATOM     68  C   UNL A   1      52.445  31.156  25.889  1.00  0.00     0.031 C 
ATOM     69  C   UNL A   1      50.682  32.880  26.161  1.00  0.00     0.031 A 
BRANCH  56  70
ATOM     70  C   UNL A   1      44.577  33.645  26.783  1.00  0.00    -0.014 A 
ATOM     71  C   UNL A   1      43.950  34.129  25.623  1.00  0.00     0.009 A 
ATOM     72  C   UNL A   1      44.099  34.061  28.035  1.00  0.00     0.009 A 
ATOM     73  C   UNL A   1      42.906  35.052  25.715  1.00  0.00     0.001 A 
ATOM     74  C   UNL A   1      43.033  34.957  28.125  1.00  0.00     0.001 A 
ATOM     75  C   UNL A   1      42.447  35.464  26.965  1.00  0.00     0.000 A 
ENDBRANCH  56  70
BRANCH  57  76
ATOM     76  C   UNL A   1      51.930  26.961  25.819  1.00  0.00    -0.014 A 
ATOM     77  C   UNL A   1      52.247  26.502  24.533  1.00  0.00     0.009 A 
ATOM     78  C   UNL A   1      52.679  26.492  26.911  1.00  0.00     0.009 A 
ATOM     79  C   UNL A   1      53.282  25.584  24.343  1.00  0.00     0.001 A 
ATOM     80  C   UNL A   1      53.730  25.594  26.716  1.00  0.00     0.001 A 
ATOM     81  C   UNL A   1      54.028  25.136  25.433  1.00  0.00     0.000 A 
ENDBRANCH  57  76
BRANCH  69  82
ATOM     82  C   UNL A   1      51.753  33.934  26.126  1.00  0.00    -0.014 A 
ATOM     83  C   UNL A   1      52.417  34.342  27.291  1.00  0.00     0.009 A 
ATOM     84  C   UNL A   1      52.156  34.462  24.889  1.00  0.00     0.009 A 
ATOM     85  C   UNL A   1      53.456  35.273  27.218  1.00  0.00     0.001 A 
ATOM     86  C   UNL A   1      53.212  35.371  24.817  1.00  0.00     0.001 A 
ATOM     87  C   UNL A   1      53.857  35.779  25.983  1.00  0.00     0.000 A 
ENDBRANCH  69  82
ENDBRANCH  43  44
ENDBRANCH  35  38
ENDBRANCH  33  34
ENDBRANCH  32  33
ENDBRANCH  31  32
ENDBRANCH   1  31
TORSDOF 16
ENDMDL
MODEL 2
REMARK VINA RESULT:     -10.7      6.945     12.473
REMARK SMILES C[C@@H](C(=O)NCCCCCCNC(=O)c1ccc(-c2c3nc(c(-c4ccccc4)c4ccc([nH]4)c(-c4ccccc4)c4nc(c(-c5ccccc5)c5ccc2[nH]5)C=C4)C=C3)cc1)c1ccc2c3cc(Cl)ccc3n(C(=O)c3cocn3)c2c1
REMARK SMILES IDX 8 1 7 2 6 3 5 4 3 5 4 6 2 8 1 9 63 10 64 11 83 12 65 13
REMARK SMILES IDX 82 14 66 15 74 16 67 17 73 18 68 19 72 20 69 21 71 22 70 23
REMARK SMILES IDX 75 24 76 25 77 26 78 27 81 28 79 29 80 30 9 31 10 32 11 33
REMARK SMILES IDX 12 34 13 35 14 37 15 38 16 39 62 40 17 41 61 42 18 43 19 44
REMARK SMILES IDX 20 45 55 46 21 47 60 48 54 49 56 50 22 51 59 52 53 53 52 54
REMARK SMILES IDX 23 56 45 57 30 58 44 59 31 60 34 61 43 62 57 63 32 64 33 65
REMARK SMILES IDX 42 67 58 68 35 69 24 70 25 71 29 72 26 73 28 74 27 75 46 76
REMARK SMILES IDX 47 77 51 78 48 79 50 80 49 81 36 82 37 83 41 84 38 85 40 86
REMARK SMILES IDX 39 87
REMARK H PARENT 5 7 12 36 56 55 34 66
REMARK Flexibility Score: inf
ROOT
ATOM      1  C   UNL A   1      32.402  28.946  27.078  1.00  0.00     0.002 C 
ENDROOT
BRANCH   1   2
ATOM      2  C   UNL A   1      31.636  27.658  26.745  1.00  0.00     0.021 C 
BRANCH   2   3
ATOM      3  C   UNL A   1      30.623  27.816  25.606  1.00  0.00     0.116 C 
BRANCH   3   4
ATOM      4  N   UNL A   1      30.148  26.512  25.199  1.00  0.00    -0.356 N 
ATOM      5  C   UNL A   1      30.371  25.892  24.000  1.00  0.00     0.227 C 
ATOM      6  O   UNL A   1      29.480  25.157  23.576  1.00  0.00    -0.274 OA
ATOM      7  H   UNL A   1      29.606  26.017  25.855  1.00  0.00     0.163 HD
BRANCH   5   8
ATOM      8  C   UNL A   1      31.704  26.140  23.268  1.00  0.00     0.105 C 
ATOM      9  C   UNL A   1      31.469  25.898  21.771  1.00  0.00     0.023 C 
BRANCH   8  10
ATOM     10  C   UNL A   1      32.880  25.329  23.830  1.00  0.00    -0.034 A 
ATOM     11  C   UNL A   1      34.035  25.957  24.306  1.00  0.00     0.005 A 
ATOM     12  C   UNL A   1      32.806  23.925  23.913  1.00  0.00     0.032 A 
ATOM     13  C   UNL A   1      35.118  25.218  24.795  1.00  0.00     0.011 A 
ATOM     14  C   UNL A   1      33.935  23.173  24.301  1.00  0.00     0.058 A 
ATOM     15  C   UNL A   1      35.076  23.811  24.772  1.00  0.00     0.008 A 
ATOM     16  N   UNL A   1      34.164  21.784  24.303  1.00  0.00    -0.274 N 
ATOM     17  C   UNL A   1      36.016  22.807  25.119  1.00  0.00     0.009 A 
ATOM     18  C   UNL A   1      35.485  21.567  24.739  1.00  0.00     0.057 A 
ATOM     19  C   UNL A   1      37.319  22.883  25.658  1.00  0.00     0.031 A 
ATOM     20  C   UNL A   1      36.301  20.417  24.769  1.00  0.00     0.029 A 
ATOM     21  C   UNL A   1      38.091  21.730  25.747  1.00  0.00     0.041 A 
ATOM     22  C   UNL A   1      37.599  20.518  25.288  1.00  0.00     0.023 A 
ATOM     23  Cl  UNL A   1      39.686  21.827  26.388  1.00  0.00    -0.084 Cl
BRANCH  16  24
ATOM     24  C   UNL A   1      33.214  20.817  23.857  1.00  0.00     0.284 C 
ATOM     25  O   UNL A   1      32.544  21.130  22.873  1.00  0.00    -0.266 OA
BRANCH  24  26
ATOM     26  C   UNL A   1      32.946  19.525  24.483  1.00  0.00     0.167 A 
ATOM     27  C   UNL A   1      32.851  19.200  25.819  1.00  0.00     0.231 A 
ATOM     28  N   UNL A   1      32.581  18.410  23.737  1.00  0.00    -0.211 NA
ATOM     29  O   UNL A   1      32.453  17.899  25.921  1.00  0.00    -0.451 OA
ATOM     30  C   UNL A   1      32.294  17.498  24.632  1.00  0.00     0.308 A 
ENDBRANCH  24  26
ENDBRANCH  16  24
ENDBRANCH   8  10
ENDBRANCH   5   8
ENDBRANCH   3   4
ENDBRANCH   2   3
ENDBRANCH   1   2
BRANCH   1  31
ATOM     31  C   UNL A   1      32.196  30.089  26.082  1.00  0.00     0.002 C 
BRANCH  31  32
ATOM     32  C   UNL A   1      31.806  31.423  26.719  1.00  0.00     0.021 C 
BRANCH  32  33
ATOM     33  C   UNL A   1      32.987  32.235  27.233  1.00  0.00     0.116 C 
BRANCH  33  34
ATOM     34  N   UNL A   1      32.614  33.610  27.529  1.00  0.00    -0.352 N 
ATOM     35  C   UNL A   1      33.151  34.456  28.470  1.00  0.00     0.251 C 
ATOM     36  H   UNL A   1      31.883  33.982  26.984  1.00  0.00     0.163 HD
ATOM     37  O   UNL A   1      32.617  35.520  28.742  1.00  0.00    -0.269 OA
BRANCH  35  38
ATOM     38  C   UNL A   1      34.387  34.042  29.164  1.00  0.00     0.039 A 
ATOM     39  C   UNL A   1      34.294  33.292  30.338  1.00  0.00     0.014 A 
ATOM     40  C   UNL A   1      35.633  34.372  28.625  1.00  0.00     0.014 A 
ATOM     41  C   UNL A   1      35.459  32.820  30.946  1.00  0.00     0.010 A 
ATOM     42  C   UNL A   1      36.784  33.842  29.189  1.00  0.00     0.010 A 
ATOM     43  C   UNL A   1      36.709  33.069  30.360  1.00  0.00    -0.014 A 
BRANCH  43  44
ATOM     44  C   UNL A   1      37.971  32.567  30.954  1.00  0.00     0.031 A 
ATOM     45  C   UNL A   1      38.643  31.368  30.349  1.00  0.00     0.074 A 
ATOM     46  C   UNL A   1      38.446  33.108  32.091  1.00  0.00     0.049 A 
ATOM     47  N   UNL A   1      39.642  30.658  30.807  1.00  0.00    -0.248 NA
ATOM     48  C   UNL A   1      38.088  30.880  29.076  1.00  0.00     0.031 C 
ATOM     49  C   UNL A   1      37.871  34.257  32.791  1.00  0.00     0.029 A 
ATOM     50  N   UNL A   1      39.512  32.738  32.875  1.00  0.00    -0.354 N 
ATOM     51  C   UNL A   1      39.808  29.620  29.900  1.00  0.00     0.074 A 
ATOM     52  C   UNL A   1      38.782  29.768  28.892  1.00  0.00     0.031 C 
ATOM     53  C   UNL A   1      38.592  34.500  33.898  1.00  0.00     0.029 A 
ATOM     54  C   UNL A   1      39.647  33.498  34.011  1.00  0.00     0.049 A 
ATOM     55  H   UNL A   1      40.119  31.998  32.644  1.00  0.00     0.167 HD
ATOM     56  C   UNL A   1      40.738  28.635  29.901  1.00  0.00     0.031 A 
ATOM     57  C   UNL A   1      40.508  33.384  35.039  1.00  0.00     0.031 A 
ATOM     58  C   UNL A   1      41.765  28.501  30.897  1.00  0.00     0.049 A 
ATOM     59  C   UNL A   1      41.533  32.284  35.025  1.00  0.00     0.074 A 
ATOM     60  C   UNL A   1      42.794  27.578  30.958  1.00  0.00     0.029 A 
ATOM     61  N   UNL A   1      41.892  29.317  32.012  1.00  0.00    -0.354 N 
ATOM     62  N   UNL A   1      41.714  31.339  34.135  1.00  0.00    -0.248 NA
ATOM     63  C   UNL A   1      42.476  32.241  36.151  1.00  0.00     0.031 C 
ATOM     64  C   UNL A   1      43.513  27.805  32.135  1.00  0.00     0.029 A 
ATOM     65  C   UNL A   1      42.968  28.906  32.777  1.00  0.00     0.049 A 
ATOM     66  H   UNL A   1      41.302  30.077  32.227  1.00  0.00     0.167 HD
ATOM     67  C   UNL A   1      42.811  30.609  34.575  1.00  0.00     0.074 A 
ATOM     68  C   UNL A   1      43.254  31.221  35.811  1.00  0.00     0.031 C 
ATOM     69  C   UNL A   1      43.401  29.533  33.999  1.00  0.00     0.031 A 
BRANCH  56  70
ATOM     70  C   UNL A   1      40.658  27.615  28.799  1.00  0.00    -0.014 A 
ATOM     71  C   UNL A   1      41.434  27.732  27.634  1.00  0.00     0.009 A 
ATOM     72  C   UNL A   1      39.789  26.522  28.926  1.00  0.00     0.009 A 
ATOM     73  C   UNL A   1      41.299  26.807  26.598  1.00  0.00     0.001 A 
ATOM     74  C   UNL A   1      39.680  25.579  27.902  1.00  0.00     0.001 A 
ATOM     75  C   UNL A   1      40.424  25.730  26.733  1.00  0.00     0.000 A 
ENDBRANCH  56  70
BRANCH  57  76
ATOM     76  C   UNL A   1      40.438  34.354  36.162  1.00  0.00    -0.014 A 
ATOM     77  C   UNL A   1      41.115  35.580  36.086  1.00  0.00     0.009 A 
ATOM     78  C   UNL A   1      39.665  34.074  37.300  1.00  0.00     0.009 A 
ATOM     79  C   UNL A   1      41.030  36.502  37.132  1.00  0.00     0.001 A 
ATOM     80  C   UNL A   1      39.561  35.008  38.333  1.00  0.00     0.001 A 
ATOM     81  C   UNL A   1      40.247  36.220  38.251  1.00  0.00     0.000 A 
ENDBRANCH  57  76
BRANCH  69  82
ATOM     82  C   UNL A   1      44.625  28.971  34.666  1.00  0.00    -0.014 A 
ATOM     83  C   UNL A   1      44.538  27.933  35.605  1.00  0.00     0.009 A 
ATOM     84  C   UNL A   1      45.893  29.438  34.279  1.00  0.00     0.009 A 
ATOM     85  C   UNL A   1      45.699  27.384  36.155  1.00  0.00     0.001 A 
ATOM     86  C   UNL A   1      47.050  28.869  34.812  1.00  0.00     0.001 A 
ATOM     87  C   UNL A   1      46.951  27.846  35.753  1.00  0.00     0.000 A 
ENDBRANCH  69  82
ENDBRANCH  43  44
ENDBRANCH  35  38
ENDBRANCH  33  34
ENDBRANCH  32  33
ENDBRANCH  31  32
ENDBRANCH   1  31
TORSDOF 16
ENDMDL
MODEL 3
REMARK VINA RESULT:     -10.6      4.687      9.014
REMARK SMILES C[C@@H](C(=O)NCCCCCCNC(=O)c1ccc(-c2c3nc(c(-c4ccccc4)c4ccc([nH]4)c(-c4ccccc4)c4nc(c(-c5ccccc5)c5ccc2[nH]5)C=C4)C=C3)cc1)c1ccc2c3cc(Cl)ccc3n(C(=O)c3cocn3)c2c1
REMARK SMILES IDX 8 1 7 2 6 3 5 4 3 5 4 6 2 8 1 9 63 10 64 11 83 12 65 13
REMARK SMILES IDX 82 14 66 15 74 16 67 17 73 18 68 19 72 20 69 21 71 22 70 23
REMARK SMILES IDX 75 24 76 25 77 26 78 27 81 28 79 29 80 30 9 31 10 32 11 33
REMARK SMILES IDX 12 34 13 35 14 37 15 38 16 39 62 40 17 41 61 42 18 43 19 44
REMARK SMILES IDX 20 45 55 46 21 47 60 48 54 49 56 50 22 51 59 52 53 53 52 54
REMARK SMILES IDX 23 56 45 57 30 58 44 59 31 60 34 61 43 62 57 63 32 64 33 65
REMARK SMILES IDX 42 67 58 68 35 69 24 70 25 71 29 72 26 73 28 74 27 75 46 76
REMARK SMILES IDX 47 77 51 78 48 79 50 80 49 81 36 82 37 83 41 84 38 85 40 86
REMARK SMILES IDX 39 87
REMARK H PARENT 5 7 12 36 56 55 34 66
REMARK Flexibility Score: inf
ROOT
ATOM      1  C   UNL A   1      41.235  24.152  28.009  1.00  0.00     0.002 C 
ENDROOT
BRANCH   1   2
ATOM      2  C   UNL A   1      40.406  25.370  27.578  1.00  0.00     0.021 C 
BRANCH   2   3
ATOM      3  C   UNL A   1      39.739  26.110  28.742  1.00  0.00     0.116 C 
BRANCH   3   4
ATOM      4  N   UNL A   1      40.542  27.255  29.109  1.00  0.00    -0.356 N 
ATOM      5  C   UNL A   1      40.127  28.555  29.206  1.00  0.00     0.227 C 
ATOM      6  O   UNL A   1      40.947  29.428  28.923  1.00  0.00    -0.274 OA
ATOM      7  H   UNL A   1      41.491  27.081  29.309  1.00  0.00     0.163 HD
BRANCH   5   8
ATOM      8  C   UNL A   1      38.685  28.845  29.664  1.00  0.00     0.105 C 
ATOM      9  C   UNL A   1      37.982  29.618  28.540  1.00  0.00     0.023 C 
BRANCH   8  10
ATOM     10  C   UNL A   1      38.596  29.552  31.024  1.00  0.00    -0.034 A 
ATOM     11  C   UNL A   1      38.908  28.885  32.213  1.00  0.00     0.005 A 
ATOM     12  C   UNL A   1      38.232  30.911  31.101  1.00  0.00     0.032 A 
ATOM     13  C   UNL A   1      38.803  29.521  33.454  1.00  0.00     0.011 A 
ATOM     14  C   UNL A   1      38.019  31.522  32.355  1.00  0.00     0.058 A 
ATOM     15  C   UNL A   1      38.333  30.846  33.528  1.00  0.00     0.008 A 
ATOM     16  N   UNL A   1      37.502  32.787  32.690  1.00  0.00    -0.274 N 
ATOM     17  C   UNL A   1      38.053  31.717  34.612  1.00  0.00     0.009 A 
ATOM     18  C   UNL A   1      37.453  32.873  34.095  1.00  0.00     0.057 A 
ATOM     19  C   UNL A   1      38.199  31.560  36.008  1.00  0.00     0.031 A 
ATOM     20  C   UNL A   1      36.875  33.814  34.971  1.00  0.00     0.029 A 
ATOM     21  C   UNL A   1      37.685  32.529  36.863  1.00  0.00     0.041 A 
ATOM     22  C   UNL A   1      37.011  33.629  36.354  1.00  0.00     0.023 A 
ATOM     23  Cl  UNL A   1      37.847  32.327  38.564  1.00  0.00    -0.084 Cl
BRANCH  16  24
ATOM     24  C   UNL A   1      37.050  33.744  31.734  1.00  0.00     0.284 C 
ATOM     25  O   UNL A   1      37.909  34.494  31.269  1.00  0.00    -0.266 OA
BRANCH  24  26
ATOM     26  C   UNL A   1      35.669  33.932  31.294  1.00  0.00     0.167 A 
ATOM     27  C   UNL A   1      34.605  34.496  31.962  1.00  0.00     0.231 A 
ATOM     28  N   UNL A   1      35.275  33.673  29.986  1.00  0.00    -0.211 NA
ATOM     29  O   UNL A   1      33.547  34.577  31.104  1.00  0.00    -0.451 OA
ATOM     30  C   UNL A   1      34.031  34.081  29.934  1.00  0.00     0.308 A 
ENDBRANCH  24  26
ENDBRANCH  16  24
ENDBRANCH   8  10
ENDBRANCH   5   8
ENDBRANCH   3   4
ENDBRANCH   2   3
ENDBRANCH   1   2
BRANCH   1  31
ATOM     31  C   UNL A   1      41.169  22.962  27.050  1.00  0.00     0.002 C 
BRANCH  31  32
ATOM     32  C   UNL A   1      42.310  22.899  26.036  1.00  0.00     0.021 C 
BRANCH  32  33
ATOM     33  C   UNL A   1      43.698  23.000  26.654  1.00  0.00     0.116 C 
BRANCH  33  34
ATOM     34  N   UNL A   1      44.711  23.334  25.666  1.00  0.00    -0.352 N 
ATOM     35  C   UNL A   1      45.285  24.558  25.412  1.00  0.00     0.251 C 
ATOM     36  H   UNL A   1      45.027  22.588  25.106  1.00  0.00     0.163 HD
ATOM     37  O   UNL A   1      45.983  24.738  24.427  1.00  0.00    -0.269 OA
BRANCH  35  38
ATOM     38  C   UNL A   1      45.023  25.666  26.353  1.00  0.00     0.039 A 
ATOM     39  C   UNL A   1      43.781  26.303  26.333  1.00  0.00     0.014 A 
ATOM     40  C   UNL A   1      46.003  26.042  27.276  1.00  0.00     0.014 A 
ATOM     41  C   UNL A   1      43.497  27.287  27.281  1.00  0.00     0.010 A 
ATOM     42  C   UNL A   1      45.692  26.968  28.263  1.00  0.00     0.010 A 
ATOM     43  C   UNL A   1      44.440  27.605  28.269  1.00  0.00    -0.014 A 
BRANCH  43  44
ATOM     44  C   UNL A   1      44.176  28.624  29.313  1.00  0.00     0.031 A 
ATOM     45  C   UNL A   1      43.839  28.178  30.707  1.00  0.00     0.074 A 
ATOM     46  C   UNL A   1      44.122  29.929  28.987  1.00  0.00     0.049 A 
ATOM     47  N   UNL A   1      43.398  28.882  31.718  1.00  0.00    -0.248 NA
ATOM     48  C   UNL A   1      43.978  26.739  30.985  1.00  0.00     0.031 C 
ATOM     49  C   UNL A   1      44.403  30.487  27.664  1.00  0.00     0.029 A 
ATOM     50  N   UNL A   1      43.783  31.021  29.747  1.00  0.00    -0.354 N 
ATOM     51  C   UNL A   1      43.173  27.966  32.738  1.00  0.00     0.074 A 
ATOM     52  C   UNL A   1      43.482  26.656  32.210  1.00  0.00     0.031 C 
ATOM     53  C   UNL A   1      44.227  31.818  27.705  1.00  0.00     0.029 A 
ATOM     54  C   UNL A   1      43.777  32.199  29.040  1.00  0.00     0.049 A 
ATOM     55  H   UNL A   1      43.564  30.965  30.705  1.00  0.00     0.167 HD
ATOM     56  C   UNL A   1      42.753  28.196  34.005  1.00  0.00     0.031 A 
ATOM     57  C   UNL A   1      43.425  33.442  29.419  1.00  0.00     0.031 A 
ATOM     58  C   UNL A   1      42.462  29.502  34.530  1.00  0.00     0.049 A 
ATOM     59  C   UNL A   1      42.960  33.680  30.829  1.00  0.00     0.074 A 
ATOM     60  C   UNL A   1      42.091  29.852  35.816  1.00  0.00     0.029 A 
ATOM     61  N   UNL A   1      42.507  30.675  33.791  1.00  0.00    -0.354 N 
ATOM     62  N   UNL A   1      42.800  32.814  31.800  1.00  0.00    -0.248 NA
ATOM     63  C   UNL A   1      42.635  35.065  31.196  1.00  0.00     0.031 C 
ATOM     64  C   UNL A   1      41.864  31.231  35.843  1.00  0.00     0.029 A 
ATOM     65  C   UNL A   1      42.151  31.748  34.589  1.00  0.00     0.049 A 
ATOM     66  H   UNL A   1      42.756  30.735  32.840  1.00  0.00     0.167 HD
ATOM     67  C   UNL A   1      42.389  33.553  32.903  1.00  0.00     0.074 A 
ATOM     68  C   UNL A   1      42.325  34.936  32.480  1.00  0.00     0.031 C 
ATOM     69  C   UNL A   1      42.100  33.120  34.155  1.00  0.00     0.031 A 
BRANCH  56  70
ATOM     70  C   UNL A   1      42.563  26.998  34.893  1.00  0.00    -0.014 A 
ATOM     71  C   UNL A   1      43.612  26.496  35.681  1.00  0.00     0.009 A 
ATOM     72  C   UNL A   1      41.316  26.357  34.938  1.00  0.00     0.009 A 
ATOM     73  C   UNL A   1      43.430  25.345  36.451  1.00  0.00     0.001 A 
ATOM     74  C   UNL A   1      41.127  25.227  35.736  1.00  0.00     0.001 A 
ATOM     75  C   UNL A   1      42.188  24.713  36.480  1.00  0.00     0.000 A 
ENDBRANCH  56  70
BRANCH  57  76
ATOM     76  C   UNL A   1      43.513  34.557  28.441  1.00  0.00    -0.014 A 
ATOM     77  C   UNL A   1      44.746  35.168  28.169  1.00  0.00     0.009 A 
ATOM     78  C   UNL A   1      42.371  34.993  27.749  1.00  0.00     0.009 A 
ATOM     79  C   UNL A   1      44.832  36.201  27.232  1.00  0.00     0.001 A 
ATOM     80  C   UNL A   1      42.465  36.007  26.795  1.00  0.00     0.001 A 
ATOM     81  C   UNL A   1      43.695  36.614  26.540  1.00  0.00     0.000 A 
ENDBRANCH  57  76
BRANCH  69  82
ATOM     82  C   UNL A   1      41.737  34.155  35.181  1.00  0.00    -0.014 A 
ATOM     83  C   UNL A   1      40.418  34.607  35.331  1.00  0.00     0.009 A 
ATOM     84  C   UNL A   1      42.723  34.620  36.067  1.00  0.00     0.009 A 
ATOM     85  C   UNL A   1      40.097  35.518  36.341  1.00  0.00     0.001 A 
ATOM     86  C   UNL A   1      42.394  35.509  37.091  1.00  0.00     0.001 A 
ATOM     87  C   UNL A   1      41.082  35.961  37.223  1.00  0.00     0.000 A 
ENDBRANCH  69  82
ENDBRANCH  43  44
ENDBRANCH  35  38
ENDBRANCH  33  34
ENDBRANCH  32  33
ENDBRANCH  31  32
ENDBRANCH   1  31
TORSDOF 16
ENDMDL
