MODEL 1
REMARK VINA RESULT:      -9.4      0.000      0.000
REMARK SMILES Cc1ccc(S(=O)(=O)n2cc(C(=O)C(=O)N[C@H](Cc3c[nH]c4ccccc34)C(=O)NCC(=O)NCCCCCCNC(=O)c3ccc(-c4c5nc(c(-c6ccccc6)c6ccc([nH]6)c(-c6ccccc6)c6nc(c(-c7ccccc7)c7ccc4[nH]7)C=C6)C=C5)cc3)c3ccccc32)cc1
REMARK SMILES IDX 35 1 34 2 32 3 33 4 31 6 30 7 28 8 29 9 17 11 16 12 14 13
REMARK SMILES IDX 15 14 12 16 13 17 11 18 9 19 10 20 97 21 92 22 96 23 93 24
REMARK SMILES IDX 95 25 94 26 6 27 7 28 8 29 5 30 1 31 2 32 3 33 99 34 4 35
REMARK SMILES IDX 98 36 18 37 19 38 20 39 27 40 21 41 22 42 26 43 23 45 25 46
REMARK SMILES IDX 24 47 36 48 37 49 38 50 39 51 40 52 41 53 42 54 43 56 44 57
REMARK SMILES IDX 45 58 91 59 46 60 90 61 47 62 48 63 49 64 84 65 50 66 89 67
REMARK SMILES IDX 83 68 85 69 51 70 88 71 82 72 81 73 52 75 74 76 59 77 73 78
REMARK SMILES IDX 60 79 63 80 72 81 86 82 61 83 62 84 71 86 87 87 64 88 53 89
REMARK SMILES IDX 54 90 58 91 55 92 57 93 56 94 75 95 76 96 80 97 77 98 79 99
REMARK SMILES IDX 78 100 65 101 66 102 70 103 67 104 69 105 68 106
REMARK H PARENT 34 5 30 10 16 15 21 44 41 55 85 74 63 85
REMARK Flexibility Score: inf
ROOT
ATOM      1  C   UNL A   1      37.922  29.676  28.490  1.00  0.00     0.116 C 
ENDROOT
BRANCH   1   2
ATOM      2  N   UNL A   1      38.039  28.685  29.552  1.00  0.00    -0.355 N 
ATOM      3  C   UNL A   1      38.763  27.527  29.610  1.00  0.00     0.239 C 
ATOM      4  O   UNL A   1      38.900  27.009  30.724  1.00  0.00    -0.273 OA
ATOM      5  H   UNL A   1      37.510  28.882  30.360  1.00  0.00     0.163 HD
BRANCH   3   6
ATOM      6  C   UNL A   1      39.530  26.946  28.407  1.00  0.00     0.216 C 
BRANCH   6   7
ATOM      7  N   UNL A   1      40.588  26.019  28.725  1.00  0.00    -0.345 N 
ATOM      8  C   UNL A   1      41.315  25.134  28.013  1.00  0.00     0.243 C 
ATOM      9  O   UNL A   1      42.266  24.657  28.650  1.00  0.00    -0.273 OA
ATOM     10  H   UNL A   1      40.836  26.037  29.677  1.00  0.00     0.164 HD
BRANCH   8  11
ATOM     11  C   UNL A   1      41.044  24.628  26.558  1.00  0.00     0.176 C 
BRANCH  11  12
ATOM     12  N   UNL A   1      40.537  23.240  26.277  1.00  0.00    -0.337 N 
ATOM     13  C   UNL A   1      39.291  22.652  26.091  1.00  0.00     0.293 C 
ATOM     14  O   UNL A   1      39.208  21.432  25.984  1.00  0.00    -0.265 OA
ATOM     15  H   UNL A   1      41.269  22.585  26.208  1.00  0.00     0.164 HD
BRANCH  13  16
ATOM     16  C   UNL A   1      38.029  23.501  25.989  1.00  0.00     0.252 C 
ATOM     17  O   UNL A   1      38.032  24.507  26.704  1.00  0.00    -0.283 OA
BRANCH  16  18
ATOM     18  C   UNL A   1      36.838  23.231  25.156  1.00  0.00     0.054 A 
ATOM     19  N   UNL A   1      35.246  22.678  23.635  1.00  0.00    -0.240 N 
ATOM     20  C   UNL A   1      36.500  23.322  23.799  1.00  0.00     0.117 A 
ATOM     21  C   UNL A   1      35.071  21.920  24.807  1.00  0.00     0.065 A 
ATOM     22  C   UNL A   1      35.639  22.756  25.755  1.00  0.00     0.012 A 
ATOM     23  C   UNL A   1      34.141  20.932  25.161  1.00  0.00     0.028 A 
ATOM     24  C   UNL A   1      35.023  22.877  27.004  1.00  0.00     0.011 A 
ATOM     25  C   UNL A   1      33.566  21.047  26.435  1.00  0.00     0.002 A 
ATOM     26  C   UNL A   1      33.943  22.059  27.312  1.00  0.00     0.001 A 
BRANCH  19  27
ATOM     27  S   UNL A   1      33.742  23.585  23.259  1.00  0.00     0.268 S 
ATOM     28  O   UNL A   1      32.757  22.564  22.961  1.00  0.00    -0.201 OA
ATOM     29  O   UNL A   1      34.179  24.531  22.239  1.00  0.00    -0.201 OA
BRANCH  27  30
ATOM     30  C   UNL A   1      33.046  24.656  24.470  1.00  0.00     0.088 A 
ATOM     31  C   UNL A   1      31.892  27.762  27.234  1.00  0.00     0.044 C 
ATOM     32  C   UNL A   1      32.245  26.684  26.250  1.00  0.00    -0.051 A 
ATOM     33  C   UNL A   1      33.411  26.840  25.514  1.00  0.00     0.005 A 
ATOM     34  C   UNL A   1      31.475  25.513  26.076  1.00  0.00     0.005 A 
ATOM     35  C   UNL A   1      33.793  25.846  24.630  1.00  0.00     0.022 A 
ATOM     36  C   UNL A   1      31.870  24.487  25.184  1.00  0.00     0.022 A 
ENDBRANCH  27  30
ENDBRANCH  19  27
ENDBRANCH  16  18
ENDBRANCH  13  16
ENDBRANCH  11  12
BRANCH  11  37
ATOM     37  C   UNL A   1      41.912  25.265  25.424  1.00  0.00     0.072 C 
BRANCH  37  38
ATOM     38  C   UNL A   1      42.700  26.511  25.741  1.00  0.00    -0.020 A 
ATOM     39  C   UNL A   1      42.152  27.774  25.834  1.00  0.00     0.087 A 
ATOM     40  C   UNL A   1      44.102  26.664  26.033  1.00  0.00     0.003 A 
ATOM     41  N   UNL A   1      43.158  28.672  26.047  1.00  0.00    -0.361 N 
ATOM     42  C   UNL A   1      44.364  28.032  26.136  1.00  0.00     0.046 A 
ATOM     43  C   UNL A   1      45.194  25.783  26.174  1.00  0.00     0.010 A 
ATOM     44  H   UNL A   1      43.033  29.645  26.127  1.00  0.00     0.166 HD
ATOM     45  C   UNL A   1      45.650  28.564  26.289  1.00  0.00     0.026 A 
ATOM     46  C   UNL A   1      46.487  26.298  26.358  1.00  0.00     0.001 A 
ATOM     47  C   UNL A   1      46.713  27.671  26.392  1.00  0.00     0.002 A 
ENDBRANCH  37  38
ENDBRANCH  11  37
ENDBRANCH   8  11
ENDBRANCH   6   7
ENDBRANCH   3   6
ENDBRANCH   1   2
BRANCH   1  48
ATOM     48  C   UNL A   1      38.643  30.989  28.803  1.00  0.00     0.021 C 
BRANCH  48  49
ATOM     49  C   UNL A   1      37.783  32.227  29.114  1.00  0.00     0.002 C 
BRANCH  49  50
ATOM     50  C   UNL A   1      38.441  33.575  29.467  1.00  0.00     0.002 C 
BRANCH  50  51
ATOM     51  C   UNL A   1      38.303  34.191  30.864  1.00  0.00     0.021 C 
BRANCH  51  52
ATOM     52  C   UNL A   1      38.876  33.431  32.055  1.00  0.00     0.116 C 
BRANCH  52  53
ATOM     53  N   UNL A   1      38.460  33.895  33.373  1.00  0.00    -0.352 N 
ATOM     54  C   UNL A   1      38.570  33.267  34.611  1.00  0.00     0.251 C 
ATOM     55  H   UNL A   1      38.038  34.784  33.390  1.00  0.00     0.163 HD
ATOM     56  O   UNL A   1      38.113  33.795  35.607  1.00  0.00    -0.269 OA
BRANCH  54  57
ATOM     57  C   UNL A   1      39.390  32.029  34.742  1.00  0.00     0.039 A 
ATOM     58  C   UNL A   1      40.761  32.189  34.984  1.00  0.00     0.014 A 
ATOM     59  C   UNL A   1      38.894  30.783  34.383  1.00  0.00     0.014 A 
ATOM     60  C   UNL A   1      41.649  31.204  34.561  1.00  0.00     0.010 A 
ATOM     61  C   UNL A   1      39.767  29.859  33.855  1.00  0.00     0.010 A 
ATOM     62  C   UNL A   1      41.139  30.110  33.870  1.00  0.00    -0.014 A 
BRANCH  62  63
ATOM     63  C   UNL A   1      41.940  29.222  33.045  1.00  0.00     0.031 A 
ATOM     64  C   UNL A   1      42.768  28.183  33.671  1.00  0.00     0.074 A 
ATOM     65  C   UNL A   1      41.829  29.292  31.701  1.00  0.00     0.049 A 
ATOM     66  N   UNL A   1      43.756  27.604  33.080  1.00  0.00    -0.248 NA
ATOM     67  C   UNL A   1      42.578  27.745  35.047  1.00  0.00     0.031 C 
ATOM     68  C   UNL A   1      42.295  28.330  30.706  1.00  0.00     0.029 A 
ATOM     69  N   UNL A   1      41.452  30.406  30.952  1.00  0.00    -0.354 N 
ATOM     70  C   UNL A   1      44.142  26.547  33.864  1.00  0.00     0.074 A 
ATOM     71  C   UNL A   1      43.441  26.726  35.114  1.00  0.00     0.031 C 
ATOM     72  C   UNL A   1      42.429  28.959  29.527  1.00  0.00     0.029 A 
ATOM     73  C   UNL A   1      42.212  30.376  29.766  1.00  0.00     0.049 A 
ATOM     74  H   UNL A   1      40.784  31.084  31.203  1.00  0.00     0.167 HD
ATOM     75  C   UNL A   1      44.921  25.573  33.318  1.00  0.00     0.031 A 
ATOM     76  C   UNL A   1      43.123  31.363  29.510  1.00  0.00     0.031 A 
ATOM     77  C   UNL A   1      45.318  25.895  31.948  1.00  0.00     0.049 A 
ATOM     78  C   UNL A   1      44.562  30.886  29.439  1.00  0.00     0.074 A 
ATOM     79  C   UNL A   1      44.902  25.481  30.693  1.00  0.00     0.029 A 
ATOM     80  N   UNL A   1      46.093  27.021  31.739  1.00  0.00    -0.354 N 
ATOM     81  N   UNL A   1      44.950  29.670  29.708  1.00  0.00    -0.248 NA
ATOM     82  C   UNL A   1      45.691  31.772  29.155  1.00  0.00     0.031 C 
ATOM     83  C   UNL A   1      45.448  26.377  29.728  1.00  0.00     0.029 A 
ATOM     84  C   UNL A   1      46.208  27.316  30.397  1.00  0.00     0.049 A 
ATOM     85  H   UNL A   1      46.511  27.546  32.460  1.00  0.00     0.167 HD
ATOM     86  C   UNL A   1      46.318  29.606  29.686  1.00  0.00     0.074 A 
ATOM     87  C   UNL A   1      46.739  30.949  29.333  1.00  0.00     0.031 C 
ATOM     88  C   UNL A   1      47.002  28.469  30.006  1.00  0.00     0.031 A 
BRANCH  75  89
ATOM     89  C   UNL A   1      45.147  24.226  33.953  1.00  0.00    -0.014 A 
ATOM     90  C   UNL A   1      44.062  23.344  34.104  1.00  0.00     0.009 A 
ATOM     91  C   UNL A   1      46.381  23.775  34.451  1.00  0.00     0.009 A 
ATOM     92  C   UNL A   1      44.183  22.127  34.788  1.00  0.00     0.001 A 
ATOM     93  C   UNL A   1      46.503  22.578  35.169  1.00  0.00     0.001 A 
ATOM     94  C   UNL A   1      45.400  21.756  35.345  1.00  0.00     0.000 A 
ENDBRANCH  75  89
BRANCH  76  95
ATOM     95  C   UNL A   1      42.687  32.690  30.042  1.00  0.00    -0.014 A 
ATOM     96  C   UNL A   1      42.745  32.896  31.436  1.00  0.00     0.009 A 
ATOM     97  C   UNL A   1      42.624  33.811  29.202  1.00  0.00     0.009 A 
ATOM     98  C   UNL A   1      42.889  34.183  31.964  1.00  0.00     0.001 A 
ATOM     99  C   UNL A   1      42.743  35.099  29.738  1.00  0.00     0.001 A 
ATOM    100  C   UNL A   1      42.922  35.281  31.111  1.00  0.00     0.000 A 
ENDBRANCH  76  95
BRANCH  88 101
ATOM    101  C   UNL A   1      48.503  28.351  30.024  1.00  0.00    -0.014 A 
ATOM    102  C   UNL A   1      49.242  27.851  28.945  1.00  0.00     0.009 A 
ATOM    103  C   UNL A   1      49.217  28.635  31.209  1.00  0.00     0.009 A 
ATOM    104  C   UNL A   1      50.634  27.705  29.029  1.00  0.00     0.001 A 
ATOM    105  C   UNL A   1      50.599  28.470  31.304  1.00  0.00     0.001 A 
ATOM    106  C   UNL A   1      51.311  28.016  30.206  1.00  0.00     0.000 A 
ENDBRANCH  88 101
ENDBRANCH  62  63
ENDBRANCH  54  57
ENDBRANCH  52  53
ENDBRANCH  51  52
ENDBRANCH  50  51
ENDBRANCH  49  50
ENDBRANCH  48  49
ENDBRANCH   1  48
TORSDOF 22
ENDMDL
MODEL 2
REMARK VINA RESULT:      -8.8      5.536     13.401
REMARK SMILES Cc1ccc(S(=O)(=O)n2cc(C(=O)C(=O)N[C@H](Cc3c[nH]c4ccccc34)C(=O)NCC(=O)NCCCCCCNC(=O)c3ccc(-c4c5nc(c(-c6ccccc6)c6ccc([nH]6)c(-c6ccccc6)c6nc(c(-c7ccccc7)c7ccc4[nH]7)C=C6)C=C5)cc3)c3ccccc32)cc1
REMARK SMILES IDX 35 1 34 2 32 3 33 4 31 6 30 7 28 8 29 9 17 11 16 12 14 13
REMARK SMILES IDX 15 14 12 16 13 17 11 18 9 19 10 20 97 21 92 22 96 23 93 24
REMARK SMILES IDX 95 25 94 26 6 27 7 28 8 29 5 30 1 31 2 32 3 33 99 34 4 35
REMARK SMILES IDX 98 36 18 37 19 38 20 39 27 40 21 41 22 42 26 43 23 45 25 46
REMARK SMILES IDX 24 47 36 48 37 49 38 50 39 51 40 52 41 53 42 54 43 56 44 57
REMARK SMILES IDX 45 58 91 59 46 60 90 61 47 62 48 63 49 64 84 65 50 66 89 67
REMARK SMILES IDX 83 68 85 69 51 70 88 71 82 72 81 73 52 75 74 76 59 77 73 78
REMARK SMILES IDX 60 79 63 80 72 81 86 82 61 83 62 84 71 86 87 87 64 88 53 89
REMARK SMILES IDX 54 90 58 91 55 92 57 93 56 94 75 95 76 96 80 97 77 98 79 99
REMARK SMILES IDX 78 100 65 101 66 102 70 103 67 104 69 105 68 106
REMARK H PARENT 34 5 30 10 16 15 21 44 41 55 85 74 63 85
REMARK Flexibility Score: inf
ROOT
ATOM      1  C   UNL A   1      44.224  32.215  34.561  1.00  0.00     0.116 C 
ENDROOT
BRANCH   1   2
ATOM      2  N   UNL A   1      43.132  32.973  33.965  1.00  0.00    -0.355 N 
ATOM      3  C   UNL A   1      41.781  32.762  34.000  1.00  0.00     0.239 C 
ATOM      4  O   UNL A   1      41.060  33.700  33.643  1.00  0.00    -0.273 OA
ATOM      5  H   UNL A   1      43.412  33.767  33.453  1.00  0.00     0.163 HD
BRANCH   3   6
ATOM      6  C   UNL A   1      41.137  31.500  34.604  1.00  0.00     0.216 C 
BRANCH   6   7
ATOM      7  N   UNL A   1      40.477  31.678  35.873  1.00  0.00    -0.345 N 
ATOM      8  C   UNL A   1      39.369  32.331  36.280  1.00  0.00     0.243 C 
ATOM      9  O   UNL A   1      39.051  32.074  37.451  1.00  0.00    -0.273 OA
ATOM     10  H   UNL A   1      40.940  31.219  36.611  1.00  0.00     0.164 HD
BRANCH   8  11
ATOM     11  C   UNL A   1      38.529  33.378  35.476  1.00  0.00     0.176 C 
BRANCH  11  12
ATOM     12  N   UNL A   1      38.964  34.810  35.335  1.00  0.00    -0.337 N 
ATOM     13  C   UNL A   1      39.860  35.649  35.985  1.00  0.00     0.293 C 
ATOM     14  O   UNL A   1      39.904  36.839  35.685  1.00  0.00    -0.265 OA
ATOM     15  H   UNL A   1      38.498  35.267  34.598  1.00  0.00     0.164 HD
BRANCH  13  16
ATOM     16  C   UNL A   1      40.813  35.110  37.047  1.00  0.00     0.252 C 
ATOM     17  O   UNL A   1      41.774  34.481  36.597  1.00  0.00    -0.283 OA
BRANCH  16  18
ATOM     18  C   UNL A   1      40.686  35.250  38.513  1.00  0.00     0.054 A 
ATOM     19  N   UNL A   1      40.438  35.101  40.765  1.00  0.00    -0.240 N 
ATOM     20  C   UNL A   1      39.870  34.719  39.522  1.00  0.00     0.117 A 
ATOM     21  C   UNL A   1      41.745  35.518  40.455  1.00  0.00     0.065 A 
ATOM     22  C   UNL A   1      41.548  36.127  39.225  1.00  0.00     0.012 A 
ATOM     23  C   UNL A   1      42.853  35.824  41.258  1.00  0.00     0.028 A 
ATOM     24  C   UNL A   1      42.236  37.311  38.941  1.00  0.00     0.011 A 
ATOM     25  C   UNL A   1      43.555  36.993  40.930  1.00  0.00     0.002 A 
ATOM     26  C   UNL A   1      43.196  37.771  39.833  1.00  0.00     0.001 A 
BRANCH  19  27
ATOM     27  S   UNL A   1      39.653  36.297  41.851  1.00  0.00     0.268 S 
ATOM     28  O   UNL A   1      40.230  36.049  43.157  1.00  0.00    -0.201 OA
ATOM     29  O   UNL A   1      38.233  36.081  41.601  1.00  0.00    -0.201 OA
BRANCH  27  30
ATOM     30  C   UNL A   1      39.821  38.018  41.517  1.00  0.00     0.088 A 
ATOM     31  C   UNL A   1      40.734  42.228  41.273  1.00  0.00     0.044 C 
ATOM     32  C   UNL A   1      40.433  40.758  41.307  1.00  0.00    -0.051 A 
ATOM     33  C   UNL A   1      40.972  40.014  42.347  1.00  0.00     0.005 A 
ATOM     34  C   UNL A   1      39.598  40.117  40.366  1.00  0.00     0.005 A 
ATOM     35  C   UNL A   1      40.680  38.663  42.438  1.00  0.00     0.022 A 
ATOM     36  C   UNL A   1      39.284  38.740  40.464  1.00  0.00     0.022 A 
ENDBRANCH  27  30
ENDBRANCH  19  27
ENDBRANCH  16  18
ENDBRANCH  13  16
ENDBRANCH  11  12
BRANCH  11  37
ATOM     37  C   UNL A   1      36.985  33.138  35.419  1.00  0.00     0.072 C 
BRANCH  37  38
ATOM     38  C   UNL A   1      36.330  33.013  34.068  1.00  0.00    -0.020 A 
ATOM     39  C   UNL A   1      36.453  31.914  33.242  1.00  0.00     0.087 A 
ATOM     40  C   UNL A   1      35.457  33.930  33.380  1.00  0.00     0.003 A 
ATOM     41  N   UNL A   1      35.805  32.173  32.069  1.00  0.00    -0.361 N 
ATOM     42  C   UNL A   1      35.219  33.409  32.106  1.00  0.00     0.046 A 
ATOM     43  C   UNL A   1      34.878  35.178  33.687  1.00  0.00     0.010 A 
ATOM     44  H   UNL A   1      35.765  31.557  31.303  1.00  0.00     0.166 HD
ATOM     45  C   UNL A   1      34.513  34.094  31.110  1.00  0.00     0.026 A 
ATOM     46  C   UNL A   1      34.142  35.866  32.710  1.00  0.00     0.001 A 
ATOM     47  C   UNL A   1      33.981  35.340  31.432  1.00  0.00     0.002 A 
ENDBRANCH  37  38
ENDBRANCH  11  37
ENDBRANCH   8  11
ENDBRANCH   6   7
ENDBRANCH   3   6
ENDBRANCH   1   2
BRANCH   1  48
ATOM     48  C   UNL A   1      44.946  31.304  33.565  1.00  0.00     0.021 C 
BRANCH  48  49
ATOM     49  C   UNL A   1      45.236  31.860  32.161  1.00  0.00     0.002 C 
BRANCH  49  50
ATOM     50  C   UNL A   1      46.193  33.053  31.967  1.00  0.00     0.002 C 
BRANCH  50  51
ATOM     51  C   UNL A   1      46.500  33.614  30.574  1.00  0.00     0.021 C 
BRANCH  51  52
ATOM     52  C   UNL A   1      47.572  32.930  29.733  1.00  0.00     0.116 C 
BRANCH  52  53
ATOM     53  N   UNL A   1      47.946  33.606  28.496  1.00  0.00    -0.352 N 
ATOM     54  C   UNL A   1      47.587  33.315  27.182  1.00  0.00     0.251 C 
ATOM     55  H   UNL A   1      48.540  34.383  28.606  1.00  0.00     0.163 HD
ATOM     56  O   UNL A   1      48.045  33.968  26.265  1.00  0.00    -0.269 OA
BRANCH  54  57
ATOM     57  C   UNL A   1      46.518  32.311  26.912  1.00  0.00     0.039 A 
ATOM     58  C   UNL A   1      45.315  32.784  26.372  1.00  0.00     0.014 A 
ATOM     59  C   UNL A   1      46.590  31.016  27.408  1.00  0.00     0.014 A 
ATOM     60  C   UNL A   1      44.135  32.088  26.621  1.00  0.00     0.010 A 
ATOM     61  C   UNL A   1      45.419  30.385  27.761  1.00  0.00     0.010 A 
ATOM     62  C   UNL A   1      44.191  30.965  27.438  1.00  0.00    -0.014 A 
BRANCH  62  63
ATOM     63  C   UNL A   1      43.037  30.376  28.095  1.00  0.00     0.031 A 
ATOM     64  C   UNL A   1      42.384  29.194  27.516  1.00  0.00     0.074 A 
ATOM     65  C   UNL A   1      42.642  30.858  29.293  1.00  0.00     0.049 A 
ATOM     66  N   UNL A   1      41.184  28.827  27.807  1.00  0.00    -0.248 NA
ATOM     67  C   UNL A   1      43.023  28.352  26.514  1.00  0.00     0.031 C 
ATOM     68  C   UNL A   1      41.722  30.251  30.251  1.00  0.00     0.029 A 
ATOM     69  N   UNL A   1      42.843  32.149  29.781  1.00  0.00    -0.354 N 
ATOM     70  C   UNL A   1      40.994  27.579  27.269  1.00  0.00     0.074 A 
ATOM     71  C   UNL A   1      42.131  27.362  26.404  1.00  0.00     0.031 C 
ATOM     72  C   UNL A   1      41.234  31.213  31.050  1.00  0.00     0.029 A 
ATOM     73  C   UNL A   1      41.696  32.487  30.524  1.00  0.00     0.049 A 
ATOM     74  H   UNL A   1      43.635  32.715  29.632  1.00  0.00     0.167 HD
ATOM     75  C   UNL A   1      39.955  26.821  27.715  1.00  0.00     0.031 A 
ATOM     76  C   UNL A   1      40.884  33.506  30.108  1.00  0.00     0.031 A 
ATOM     77  C   UNL A   1      39.115  27.551  28.664  1.00  0.00     0.049 A 
ATOM     78  C   UNL A   1      39.477  33.073  29.736  1.00  0.00     0.074 A 
ATOM     79  C   UNL A   1      38.974  27.546  30.042  1.00  0.00     0.029 A 
ATOM     80  N   UNL A   1      38.462  28.688  28.219  1.00  0.00    -0.354 N 
ATOM     81  N   UNL A   1      39.072  31.834  29.694  1.00  0.00    -0.248 NA
ATOM     82  C   UNL A   1      38.441  34.005  29.287  1.00  0.00     0.031 C 
ATOM     83  C   UNL A   1      38.220  28.697  30.415  1.00  0.00     0.029 A 
ATOM     84  C   UNL A   1      37.888  29.383  29.263  1.00  0.00     0.049 A 
ATOM     85  H   UNL A   1      38.413  28.964  27.275  1.00  0.00     0.167 HD
ATOM     86  C   UNL A   1      37.800  31.781  29.190  1.00  0.00     0.074 A 
ATOM     87  C   UNL A   1      37.444  33.167  28.951  1.00  0.00     0.031 C 
ATOM     88  C   UNL A   1      37.153  30.601  28.963  1.00  0.00     0.031 A 
BRANCH  75  89
ATOM     89  C   UNL A   1      39.820  25.344  27.453  1.00  0.00    -0.014 A 
ATOM     90  C   UNL A   1      40.815  24.468  27.923  1.00  0.00     0.009 A 
ATOM     91  C   UNL A   1      38.771  24.754  26.731  1.00  0.00     0.009 A 
ATOM     92  C   UNL A   1      40.808  23.102  27.614  1.00  0.00     0.001 A 
ATOM     93  C   UNL A   1      38.774  23.396  26.386  1.00  0.00     0.001 A 
ATOM     94  C   UNL A   1      39.800  22.570  26.821  1.00  0.00     0.000 A 
ENDBRANCH  75  89
BRANCH  76  95
ATOM     95  C   UNL A   1      41.647  34.603  29.439  1.00  0.00    -0.014 A 
ATOM     96  C   UNL A   1      43.049  34.626  29.595  1.00  0.00     0.009 A 
ATOM     97  C   UNL A   1      41.080  35.323  28.378  1.00  0.00     0.009 A 
ATOM     98  C   UNL A   1      43.867  35.224  28.631  1.00  0.00     0.001 A 
ATOM     99  C   UNL A   1      41.904  35.943  27.430  1.00  0.00     0.001 A 
ATOM    100  C   UNL A   1      43.293  35.853  27.531  1.00  0.00     0.000 A 
ENDBRANCH  76  95
BRANCH  88 101
ATOM    101  C   UNL A   1      35.766  30.483  28.387  1.00  0.00    -0.014 A 
ATOM    102  C   UNL A   1      35.308  29.334  27.732  1.00  0.00     0.009 A 
ATOM    103  C   UNL A   1      34.907  31.604  28.386  1.00  0.00     0.009 A 
ATOM    104  C   UNL A   1      34.028  29.290  27.161  1.00  0.00     0.001 A 
ATOM    105  C   UNL A   1      33.642  31.572  27.800  1.00  0.00     0.001 A 
ATOM    106  C   UNL A   1      33.196  30.407  27.197  1.00  0.00     0.000 A 
ENDBRANCH  88 101
ENDBRANCH  62  63
ENDBRANCH  54  57
ENDBRANCH  52  53
ENDBRANCH  51  52
ENDBRANCH  50  51
ENDBRANCH  49  50
ENDBRANCH  48  49
ENDBRANCH   1  48
TORSDOF 22
ENDMDL
MODEL 3
REMARK VINA RESULT:      -8.6      6.840     13.480
REMARK SMILES Cc1ccc(S(=O)(=O)n2cc(C(=O)C(=O)N[C@H](Cc3c[nH]c4ccccc34)C(=O)NCC(=O)NCCCCCCNC(=O)c3ccc(-c4c5nc(c(-c6ccccc6)c6ccc([nH]6)c(-c6ccccc6)c6nc(c(-c7ccccc7)c7ccc4[nH]7)C=C6)C=C5)cc3)c3ccccc32)cc1
REMARK SMILES IDX 35 1 34 2 32 3 33 4 31 6 30 7 28 8 29 9 17 11 16 12 14 13
REMARK SMILES IDX 15 14 12 16 13 17 11 18 9 19 10 20 97 21 92 22 96 23 93 24
REMARK SMILES IDX 95 25 94 26 6 27 7 28 8 29 5 30 1 31 2 32 3 33 99 34 4 35
REMARK SMILES IDX 98 36 18 37 19 38 20 39 27 40 21 41 22 42 26 43 23 45 25 46
REMARK SMILES IDX 24 47 36 48 37 49 38 50 39 51 40 52 41 53 42 54 43 56 44 57
REMARK SMILES IDX 45 58 91 59 46 60 90 61 47 62 48 63 49 64 84 65 50 66 89 67
REMARK SMILES IDX 83 68 85 69 51 70 88 71 82 72 81 73 52 75 74 76 59 77 73 78
REMARK SMILES IDX 60 79 63 80 72 81 86 82 61 83 62 84 71 86 87 87 64 88 53 89
REMARK SMILES IDX 54 90 58 91 55 92 57 93 56 94 75 95 76 96 80 97 77 98 79 99
REMARK SMILES IDX 78 100 65 101 66 102 70 103 67 104 69 105 68 106
REMARK H PARENT 34 5 30 10 16 15 21 44 41 55 85 74 63 85
REMARK Flexibility Score: inf
ROOT
ATOM      1  C   UNL A   1      48.318  35.574  28.449  1.00  0.00     0.116 C 
ENDROOT
BRANCH   1   2
ATOM      2  N   UNL A   1      49.295  36.532  27.947  1.00  0.00    -0.355 N 
ATOM      3  C   UNL A   1      49.244  37.368  26.866  1.00  0.00     0.239 C 
ATOM      4  O   UNL A   1      50.088  38.270  26.818  1.00  0.00    -0.273 OA
ATOM      5  H   UNL A   1      50.127  36.586  28.471  1.00  0.00     0.163 HD
BRANCH   3   6
ATOM      6  C   UNL A   1      48.112  37.334  25.822  1.00  0.00     0.216 C 
BRANCH   6   7
ATOM      7  N   UNL A   1      47.498  38.603  25.521  1.00  0.00    -0.345 N 
ATOM      8  C   UNL A   1      46.336  39.196  25.864  1.00  0.00     0.243 C 
ATOM      9  O   UNL A   1      46.277  40.389  25.528  1.00  0.00    -0.273 OA
ATOM     10  H   UNL A   1      48.051  39.164  24.931  1.00  0.00     0.164 HD
BRANCH   8  11
ATOM     11  C   UNL A   1      45.094  38.538  26.551  1.00  0.00     0.176 C 
BRANCH  11  12
ATOM     12  N   UNL A   1      43.696  39.043  26.326  1.00  0.00    -0.337 N 
ATOM     13  C   UNL A   1      43.028  40.247  26.515  1.00  0.00     0.293 C 
ATOM     14  O   UNL A   1      41.817  40.304  26.325  1.00  0.00    -0.265 OA
ATOM     15  H   UNL A   1      43.108  38.349  25.951  1.00  0.00     0.164 HD
BRANCH  13  16
ATOM     16  C   UNL A   1      43.781  41.508  26.928  1.00  0.00     0.252 C 
ATOM     17  O   UNL A   1      43.870  42.360  26.040  1.00  0.00    -0.283 OA
BRANCH  16  18
ATOM     18  C   UNL A   1      44.407  41.784  28.237  1.00  0.00     0.054 A 
ATOM     19  N   UNL A   1      45.536  42.486  30.078  1.00  0.00    -0.240 N 
ATOM     20  C   UNL A   1      45.675  42.157  28.705  1.00  0.00     0.117 A 
ATOM     21  C   UNL A   1      44.153  42.652  30.274  1.00  0.00     0.065 A 
ATOM     22  C   UNL A   1      43.644  41.676  29.432  1.00  0.00     0.012 A 
ATOM     23  C   UNL A   1      43.407  43.160  31.347  1.00  0.00     0.028 A 
ATOM     24  C   UNL A   1      42.544  40.925  29.858  1.00  0.00     0.011 A 
ATOM     25  C   UNL A   1      42.282  42.415  31.731  1.00  0.00     0.002 A 
ATOM     26  C   UNL A   1      41.907  41.264  31.045  1.00  0.00     0.001 A 
BRANCH  19  27
ATOM     27  S   UNL A   1      46.224  41.464  31.384  1.00  0.00     0.268 S 
ATOM     28  O   UNL A   1      46.600  42.397  32.429  1.00  0.00    -0.201 OA
ATOM     29  O   UNL A   1      47.229  40.673  30.684  1.00  0.00    -0.201 OA
BRANCH  27  30
ATOM     30  C   UNL A   1      45.231  40.213  32.125  1.00  0.00     0.088 A 
ATOM     31  C   UNL A   1      42.705  37.650  34.507  1.00  0.00     0.044 C 
ATOM     32  C   UNL A   1      43.548  38.539  33.638  1.00  0.00    -0.051 A 
ATOM     33  C   UNL A   1      43.962  39.752  34.168  1.00  0.00     0.005 A 
ATOM     34  C   UNL A   1      43.970  38.177  32.340  1.00  0.00     0.005 A 
ATOM     35  C   UNL A   1      44.778  40.579  33.415  1.00  0.00     0.022 A 
ATOM     36  C   UNL A   1      44.817  39.012  31.572  1.00  0.00     0.022 A 
ENDBRANCH  27  30
ENDBRANCH  19  27
ENDBRANCH  16  18
ENDBRANCH  13  16
ENDBRANCH  11  12
BRANCH  11  37
ATOM     37  C   UNL A   1      45.344  37.853  27.935  1.00  0.00     0.072 C 
BRANCH  37  38
ATOM     38  C   UNL A   1      44.566  36.605  28.265  1.00  0.00    -0.020 A 
ATOM     39  C   UNL A   1      43.600  36.528  29.249  1.00  0.00     0.087 A 
ATOM     40  C   UNL A   1      44.618  35.300  27.658  1.00  0.00     0.003 A 
ATOM     41  N   UNL A   1      43.165  35.237  29.334  1.00  0.00    -0.361 N 
ATOM     42  C   UNL A   1      43.793  34.455  28.404  1.00  0.00     0.046 A 
ATOM     43  C   UNL A   1      45.319  34.731  26.576  1.00  0.00     0.010 A 
ATOM     44  H   UNL A   1      42.493  34.914  29.976  1.00  0.00     0.166 HD
ATOM     45  C   UNL A   1      43.695  33.076  28.181  1.00  0.00     0.026 A 
ATOM     46  C   UNL A   1      45.210  33.354  26.319  1.00  0.00     0.001 A 
ATOM     47  C   UNL A   1      44.425  32.536  27.125  1.00  0.00     0.002 A 
ENDBRANCH  37  38
ENDBRANCH  11  37
ENDBRANCH   8  11
ENDBRANCH   6   7
ENDBRANCH   3   6
ENDBRANCH   1   2
BRANCH   1  48
ATOM     48  C   UNL A   1      48.068  35.694  29.954  1.00  0.00     0.021 C 
BRANCH  48  49
ATOM     49  C   UNL A   1      46.872  34.932  30.549  1.00  0.00     0.002 C 
BRANCH  49  50
ATOM     50  C   UNL A   1      46.693  33.422  30.294  1.00  0.00     0.002 C 
BRANCH  50  51
ATOM     51  C   UNL A   1      45.775  32.566  31.173  1.00  0.00     0.021 C 
BRANCH  51  52
ATOM     52  C   UNL A   1      46.344  31.969  32.456  1.00  0.00     0.116 C 
BRANCH  52  53
ATOM     53  N   UNL A   1      46.899  32.916  33.415  1.00  0.00    -0.352 N 
ATOM     54  C   UNL A   1      46.249  33.704  34.363  1.00  0.00     0.251 C 
ATOM     55  H   UNL A   1      47.878  33.015  33.387  1.00  0.00     0.163 HD
ATOM     56  O   UNL A   1      46.884  34.483  35.047  1.00  0.00    -0.269 OA
BRANCH  54  57
ATOM     57  C   UNL A   1      44.805  33.474  34.651  1.00  0.00     0.039 A 
ATOM     58  C   UNL A   1      44.469  32.313  35.361  1.00  0.00     0.014 A 
ATOM     59  C   UNL A   1      43.809  34.216  34.030  1.00  0.00     0.014 A 
ATOM     60  C   UNL A   1      43.213  31.740  35.178  1.00  0.00     0.010 A 
ATOM     61  C   UNL A   1      42.612  33.597  33.749  1.00  0.00     0.010 A 
ATOM     62  C   UNL A   1      42.351  32.324  34.257  1.00  0.00    -0.014 A 
BRANCH  62  63
ATOM     63  C   UNL A   1      41.201  31.650  33.677  1.00  0.00     0.031 A 
ATOM     64  C   UNL A   1      41.213  31.261  32.260  1.00  0.00     0.074 A 
ATOM     65  C   UNL A   1      40.174  31.291  34.476  1.00  0.00     0.049 A 
ATOM     66  N   UNL A   1      40.150  30.999  31.582  1.00  0.00    -0.248 NA
ATOM     67  C   UNL A   1      42.437  31.186  31.473  1.00  0.00     0.031 C 
ATOM     68  C   UNL A   1      39.081  30.369  34.182  1.00  0.00     0.029 A 
ATOM     69  N   UNL A   1      39.801  31.895  35.676  1.00  0.00    -0.354 N 
ATOM     70  C   UNL A   1      40.547  30.457  30.387  1.00  0.00     0.074 A 
ATOM     71  C   UNL A   1      41.974  30.673  30.328  1.00  0.00     0.031 C 
ATOM     72  C   UNL A   1      38.054  30.642  35.002  1.00  0.00     0.029 A 
ATOM     73  C   UNL A   1      38.394  31.851  35.734  1.00  0.00     0.049 A 
ATOM     74  H   UNL A   1      40.404  32.281  36.352  1.00  0.00     0.167 HD
ATOM     75  C   UNL A   1      39.636  29.777  29.636  1.00  0.00     0.031 A 
ATOM     76  C   UNL A   1      37.669  33.010  35.715  1.00  0.00     0.031 A 
ATOM     77  C   UNL A   1      38.296  29.838  30.218  1.00  0.00     0.049 A 
ATOM     78  C   UNL A   1      36.767  33.165  34.503  1.00  0.00     0.074 A 
ATOM     79  C   UNL A   1      37.512  28.959  30.947  1.00  0.00     0.029 A 
ATOM     80  N   UNL A   1      37.691  31.077  30.338  1.00  0.00    -0.354 N 
ATOM     81  N   UNL A   1      36.742  32.343  33.491  1.00  0.00    -0.248 NA
ATOM     82  C   UNL A   1      35.890  34.319  34.295  1.00  0.00     0.031 C 
ATOM     83  C   UNL A   1      36.422  29.692  31.501  1.00  0.00     0.029 A 
ATOM     84  C   UNL A   1      36.537  31.006  31.090  1.00  0.00     0.049 A 
ATOM     85  H   UNL A   1      38.040  31.905  29.936  1.00  0.00     0.167 HD
ATOM     86  C   UNL A   1      35.927  32.842  32.511  1.00  0.00     0.074 A 
ATOM     87  C   UNL A   1      35.413  34.083  33.061  1.00  0.00     0.031 C 
ATOM     88  C   UNL A   1      35.773  32.224  31.303  1.00  0.00     0.031 A 
BRANCH  75  89
ATOM     89  C   UNL A   1      40.002  28.877  28.485  1.00  0.00    -0.014 A 
ATOM     90  C   UNL A   1      39.633  27.521  28.527  1.00  0.00     0.009 A 
ATOM     91  C   UNL A   1      40.729  29.283  27.354  1.00  0.00     0.009 A 
ATOM     92  C   UNL A   1      40.040  26.609  27.545  1.00  0.00     0.001 A 
ATOM     93  C   UNL A   1      41.173  28.371  26.387  1.00  0.00     0.001 A 
ATOM     94  C   UNL A   1      40.835  27.030  26.487  1.00  0.00     0.000 A 
ENDBRANCH  75  89
BRANCH  76  95
ATOM     95  C   UNL A   1      38.374  34.132  36.406  1.00  0.00    -0.014 A 
ATOM     96  C   UNL A   1      38.453  34.097  37.814  1.00  0.00     0.009 A 
ATOM     97  C   UNL A   1      39.270  34.952  35.706  1.00  0.00     0.009 A 
ATOM     98  C   UNL A   1      39.493  34.744  38.489  1.00  0.00     0.001 A 
ATOM     99  C   UNL A   1      40.294  35.619  36.390  1.00  0.00     0.001 A 
ATOM    100  C   UNL A   1      40.433  35.477  37.771  1.00  0.00     0.000 A 
ENDBRANCH  76  95
BRANCH  88 101
ATOM    101  C   UNL A   1      34.912  32.741  30.182  1.00  0.00    -0.014 A 
ATOM    102  C   UNL A   1      34.668  32.015  29.010  1.00  0.00     0.009 A 
ATOM    103  C   UNL A   1      34.413  34.062  30.229  1.00  0.00     0.009 A 
ATOM    104  C   UNL A   1      33.906  32.560  27.967  1.00  0.00     0.001 A 
ATOM    105  C   UNL A   1      33.674  34.616  29.184  1.00  0.00     0.001 A 
ATOM    106  C   UNL A   1      33.409  33.859  28.055  1.00  0.00     0.000 A 
ENDBRANCH  88 101
ENDBRANCH  62  63
ENDBRANCH  54  57
ENDBRANCH  52  53
ENDBRANCH  51  52
ENDBRANCH  50  51
ENDBRANCH  49  50
ENDBRANCH  48  49
ENDBRANCH   1  48
TORSDOF 22
ENDMDL
