MODEL 1
REMARK VINA RESULT:     -10.9      0.000      0.000
REMARK SMILES C[C@H](Oc1ccc(/C=C2\SC(=S)N(N)C2=O)cc1)C(=O)NCCCCCCNC(=O)c1ccc(-c2c3nc(c(-c4ccccc4)c4ccc([nH]4)c(-c4ccccc4)c4nc(c(-c5ccccc5)c5ccc2[nH]5)C=C4)C=C3)cc1
REMARK SMILES IDX 23 1 22 2 21 3 19 4 20 5 2 7 1 8 3 9 4 10 5 11 18 12 6 13
REMARK SMILES IDX 17 14 7 15 8 16 9 17 10 18 15 19 11 20 13 21 16 22 12 23
REMARK SMILES IDX 14 24 24 27 25 28 26 29 27 30 28 31 29 32 30 34 31 35 32 36
REMARK SMILES IDX 78 37 33 38 77 39 34 40 35 41 36 42 71 43 37 44 76 45 70 46
REMARK SMILES IDX 72 47 38 48 75 49 69 50 68 51 39 53 61 54 46 55 60 56 47 57
REMARK SMILES IDX 50 58 59 59 73 60 48 61 49 62 58 64 74 65 51 66 40 67 41 68
REMARK SMILES IDX 45 69 42 70 44 71 43 72 62 73 63 74 67 75 64 76 66 77 65 78
REMARK SMILES IDX 52 79 53 80 57 81 54 82 56 83 55 84
REMARK H PARENT 21 6 14 25 14 26 28 33 72 52 50 63
REMARK Flexibility Score: inf
ROOT
ATOM      1  C   UNL A   1      32.511  23.192  26.846  1.00  0.00     0.021 C 
ENDROOT
BRANCH   1   2
ATOM      2  C   UNL A   1      31.732  21.968  26.384  1.00  0.00     0.116 C 
BRANCH   2   3
ATOM      3  N   UNL A   1      32.608  20.820  26.235  1.00  0.00    -0.353 N 
ATOM      4  C   UNL A   1      32.891  20.104  25.107  1.00  0.00     0.260 C 
ATOM      5  O   UNL A   1      33.626  19.119  25.202  1.00  0.00    -0.271 OA
ATOM      6  H   UNL A   1      33.058  20.518  27.057  1.00  0.00     0.163 HD
BRANCH   4   7
ATOM      7  C   UNL A   1      32.378  20.598  23.751  1.00  0.00     0.258 C 
ATOM      8  C   UNL A   1      32.275  19.365  22.830  1.00  0.00     0.064 C 
BRANCH   7   9
ATOM      9  O   UNL A   1      33.256  21.650  23.312  1.00  0.00    -0.481 OA
BRANCH   9  10
ATOM     10  C   UNL A   1      32.712  22.836  22.917  1.00  0.00     0.120 A 
ATOM     11  C   UNL A   1      33.380  23.783  22.168  1.00  0.00     0.047 A 
ATOM     12  C   UNL A   1      31.410  23.119  23.334  1.00  0.00     0.047 A 
ATOM     13  C   UNL A   1      32.826  25.042  21.965  1.00  0.00     0.012 A 
ATOM     14  C   UNL A   1      30.835  24.382  23.087  1.00  0.00     0.012 A 
ATOM     15  C   UNL A   1      31.560  25.393  22.434  1.00  0.00    -0.024 A 
BRANCH  15  16
ATOM     16  C   UNL A   1      30.992  26.759  22.299  1.00  0.00     0.029 C 
ATOM     17  C   UNL A   1      31.223  27.876  23.017  1.00  0.00     0.082 C 
ATOM     18  S   UNL A   1      32.302  28.116  24.343  1.00  0.00    -0.053 SA
ATOM     19  C   UNL A   1      30.426  29.128  22.820  1.00  0.00     0.280 C 
ATOM     20  C   UNL A   1      31.503  29.557  24.899  1.00  0.00     0.162 C 
ATOM     21  N   UNL A   1      30.601  29.956  23.932  1.00  0.00    -0.226 N 
ATOM     22  O   UNL A   1      29.742  29.367  21.832  1.00  0.00    -0.267 OA
ATOM     23  S   UNL A   1      31.842  30.284  26.360  1.00  0.00    -0.050 S 
BRANCH  21  24
ATOM     24  N   UNL A   1      29.842  31.147  24.062  1.00  0.00    -0.239 NA
ATOM     25  H   UNL A   1      29.026  31.098  23.451  1.00  0.00     0.144 HD
ATOM     26  H   UNL A   1      30.417  31.947  23.799  1.00  0.00     0.144 HD
ENDBRANCH  21  24
ENDBRANCH  15  16
ENDBRANCH   9  10
ENDBRANCH   7   9
ENDBRANCH   4   7
ENDBRANCH   2   3
ENDBRANCH   1   2
BRANCH   1  27
ATOM     27  C   UNL A   1      34.020  22.956  26.946  1.00  0.00     0.002 C 
BRANCH  27  28
ATOM     28  C   UNL A   1      34.841  23.544  25.795  1.00  0.00     0.002 C 
BRANCH  28  29
ATOM     29  C   UNL A   1      36.289  23.893  26.147  1.00  0.00     0.021 C 
BRANCH  29  30
ATOM     30  C   UNL A   1      37.291  23.626  25.031  1.00  0.00     0.116 C 
BRANCH  30  31
ATOM     31  N   UNL A   1      38.324  22.685  25.432  1.00  0.00    -0.352 N 
ATOM     32  C   UNL A   1      39.469  22.919  26.150  1.00  0.00     0.251 C 
ATOM     33  H   UNL A   1      38.183  21.753  25.148  1.00  0.00     0.163 HD
ATOM     34  O   UNL A   1      40.328  22.050  26.259  1.00  0.00    -0.269 OA
BRANCH  32  35
ATOM     35  C   UNL A   1      39.670  24.242  26.776  1.00  0.00     0.039 A 
ATOM     36  C   UNL A   1      39.195  24.458  28.071  1.00  0.00     0.014 A 
ATOM     37  C   UNL A   1      40.343  25.257  26.091  1.00  0.00     0.014 A 
ATOM     38  C   UNL A   1      39.450  25.676  28.705  1.00  0.00     0.010 A 
ATOM     39  C   UNL A   1      40.657  26.441  26.748  1.00  0.00     0.010 A 
ATOM     40  C   UNL A   1      40.212  26.664  28.061  1.00  0.00    -0.014 A 
BRANCH  40  41
ATOM     41  C   UNL A   1      40.554  27.943  28.732  1.00  0.00     0.031 A 
ATOM     42  C   UNL A   1      41.900  28.109  29.385  1.00  0.00     0.074 A 
ATOM     43  C   UNL A   1      39.630  28.919  28.827  1.00  0.00     0.049 A 
ATOM     44  N   UNL A   1      42.346  29.099  30.116  1.00  0.00    -0.248 NA
ATOM     45  C   UNL A   1      42.861  27.007  29.217  1.00  0.00     0.031 C 
ATOM     46  C   UNL A   1      38.279  28.872  28.263  1.00  0.00     0.029 A 
ATOM     47  N   UNL A   1      39.684  30.142  29.451  1.00  0.00    -0.354 N 
ATOM     48  C   UNL A   1      43.622  28.726  30.518  1.00  0.00     0.074 A 
ATOM     49  C   UNL A   1      43.868  27.406  29.982  1.00  0.00     0.031 C 
ATOM     50  C   UNL A   1      37.640  30.018  28.551  1.00  0.00     0.029 A 
ATOM     51  C   UNL A   1      38.516  30.860  29.359  1.00  0.00     0.049 A 
ATOM     52  H   UNL A   1      40.484  30.472  29.920  1.00  0.00     0.167 HD
ATOM     53  C   UNL A   1      44.513  29.424  31.259  1.00  0.00     0.031 A 
ATOM     54  C   UNL A   1      38.183  32.056  29.882  1.00  0.00     0.031 A 
ATOM     55  C   UNL A   1      44.281  30.750  31.766  1.00  0.00     0.049 A 
ATOM     56  C   UNL A   1      39.192  32.802  30.713  1.00  0.00     0.074 A 
ATOM     57  C   UNL A   1      45.154  31.569  32.461  1.00  0.00     0.029 A 
ATOM     58  N   UNL A   1      43.093  31.449  31.632  1.00  0.00    -0.354 N 
ATOM     59  N   UNL A   1      40.421  32.467  31.018  1.00  0.00    -0.248 NA
ATOM     60  C   UNL A   1      38.767  34.098  31.265  1.00  0.00     0.031 C 
ATOM     61  C   UNL A   1      44.476  32.743  32.796  1.00  0.00     0.029 A 
ATOM     62  C   UNL A   1      43.201  32.679  32.257  1.00  0.00     0.049 A 
ATOM     63  H   UNL A   1      42.292  31.121  31.163  1.00  0.00     0.167 HD
ATOM     64  C   UNL A   1      40.929  33.527  31.761  1.00  0.00     0.074 A 
ATOM     65  C   UNL A   1      39.879  34.518  31.851  1.00  0.00     0.031 C 
ATOM     66  C   UNL A   1      42.155  33.665  32.318  1.00  0.00     0.031 A 
BRANCH  53  67
ATOM     67  C   UNL A   1      45.828  28.773  31.578  1.00  0.00    -0.014 A 
ATOM     68  C   UNL A   1      46.922  28.871  30.705  1.00  0.00     0.009 A 
ATOM     69  C   UNL A   1      45.996  28.116  32.808  1.00  0.00     0.009 A 
ATOM     70  C   UNL A   1      48.152  28.305  31.049  1.00  0.00     0.001 A 
ATOM     71  C   UNL A   1      47.233  27.575  33.160  1.00  0.00     0.001 A 
ATOM     72  C   UNL A   1      48.309  27.665  32.278  1.00  0.00     0.000 A 
ENDBRANCH  53  67
BRANCH  54  73
ATOM     73  C   UNL A   1      36.832  32.634  29.651  1.00  0.00    -0.014 A 
ATOM     74  C   UNL A   1      36.575  33.411  28.510  1.00  0.00     0.009 A 
ATOM     75  C   UNL A   1      35.805  32.457  30.592  1.00  0.00     0.009 A 
ATOM     76  C   UNL A   1      35.336  34.033  28.339  1.00  0.00     0.001 A 
ATOM     77  C   UNL A   1      34.557  33.052  30.402  1.00  0.00     0.001 A 
ATOM     78  C   UNL A   1      34.328  33.852  29.284  1.00  0.00     0.000 A 
ENDBRANCH  54  73
BRANCH  66  79
ATOM     79  C   UNL A   1      42.456  34.958  33.022  1.00  0.00    -0.014 A 
ATOM     80  C   UNL A   1      43.193  35.977  32.400  1.00  0.00     0.009 A 
ATOM     81  C   UNL A   1      41.937  35.179  34.308  1.00  0.00     0.009 A 
ATOM     82  C   UNL A   1      43.430  37.181  33.067  1.00  0.00     0.001 A 
ATOM     83  C   UNL A   1      42.149  36.395  34.958  1.00  0.00     0.001 A 
ATOM     84  C   UNL A   1      42.903  37.391  34.340  1.00  0.00     0.000 A 
ENDBRANCH  66  79
ENDBRANCH  40  41
ENDBRANCH  32  35
ENDBRANCH  30  31
ENDBRANCH  29  30
ENDBRANCH  28  29
ENDBRANCH  27  28
ENDBRANCH   1  27
TORSDOF 17
ENDMDL
MODEL 2
REMARK VINA RESULT:     -10.8      5.567     11.457
REMARK SMILES C[C@H](Oc1ccc(/C=C2\SC(=S)N(N)C2=O)cc1)C(=O)NCCCCCCNC(=O)c1ccc(-c2c3nc(c(-c4ccccc4)c4ccc([nH]4)c(-c4ccccc4)c4nc(c(-c5ccccc5)c5ccc2[nH]5)C=C4)C=C3)cc1
REMARK SMILES IDX 23 1 22 2 21 3 19 4 20 5 2 7 1 8 3 9 4 10 5 11 18 12 6 13
REMARK SMILES IDX 17 14 7 15 8 16 9 17 10 18 15 19 11 20 13 21 16 22 12 23
REMARK SMILES IDX 14 24 24 27 25 28 26 29 27 30 28 31 29 32 30 34 31 35 32 36
REMARK SMILES IDX 78 37 33 38 77 39 34 40 35 41 36 42 71 43 37 44 76 45 70 46
REMARK SMILES IDX 72 47 38 48 75 49 69 50 68 51 39 53 61 54 46 55 60 56 47 57
REMARK SMILES IDX 50 58 59 59 73 60 48 61 49 62 58 64 74 65 51 66 40 67 41 68
REMARK SMILES IDX 45 69 42 70 44 71 43 72 62 73 63 74 67 75 64 76 66 77 65 78
REMARK SMILES IDX 52 79 53 80 57 81 54 82 56 83 55 84
REMARK H PARENT 21 6 14 25 14 26 28 33 72 52 50 63
REMARK Flexibility Score: inf
ROOT
ATOM      1  C   UNL A   1      38.979  34.446  30.649  1.00  0.00     0.021 C 
ENDROOT
BRANCH   1   2
ATOM      2  C   UNL A   1      39.329  34.259  32.119  1.00  0.00     0.116 C 
BRANCH   2   3
ATOM      3  N   UNL A   1      38.302  34.826  32.974  1.00  0.00    -0.353 N 
ATOM      4  C   UNL A   1      37.206  34.212  33.514  1.00  0.00     0.260 C 
ATOM      5  O   UNL A   1      36.418  34.889  34.176  1.00  0.00    -0.271 OA
ATOM      6  H   UNL A   1      38.409  35.779  33.195  1.00  0.00     0.163 HD
BRANCH   4   7
ATOM      7  C   UNL A   1      37.045  32.696  33.372  1.00  0.00     0.258 C 
ATOM      8  C   UNL A   1      35.558  32.427  33.065  1.00  0.00     0.064 C 
BRANCH   7   9
ATOM      9  O   UNL A   1      37.569  32.090  34.567  1.00  0.00    -0.481 OA
BRANCH   9  10
ATOM     10  C   UNL A   1      38.542  31.142  34.450  1.00  0.00     0.120 A 
ATOM     11  C   UNL A   1      39.727  31.157  35.156  1.00  0.00     0.047 A 
ATOM     12  C   UNL A   1      38.335  30.117  33.524  1.00  0.00     0.047 A 
ATOM     13  C   UNL A   1      40.745  30.264  34.845  1.00  0.00     0.012 A 
ATOM     14  C   UNL A   1      39.355  29.186  33.244  1.00  0.00     0.012 A 
ATOM     15  C   UNL A   1      40.609  29.274  33.871  1.00  0.00    -0.024 A 
BRANCH  15  16
ATOM     16  C   UNL A   1      41.717  28.369  33.469  1.00  0.00     0.029 C 
ATOM     17  C   UNL A   1      42.298  27.352  34.135  1.00  0.00     0.082 C 
ATOM     18  S   UNL A   1      41.926  26.717  35.697  1.00  0.00    -0.053 SA
ATOM     19  C   UNL A   1      43.517  26.654  33.617  1.00  0.00     0.280 C 
ATOM     20  C   UNL A   1      43.461  25.921  35.880  1.00  0.00     0.162 C 
ATOM     21  N   UNL A   1      44.113  25.947  34.663  1.00  0.00    -0.226 N 
ATOM     22  O   UNL A   1      43.905  26.706  32.456  1.00  0.00    -0.267 OA
ATOM     23  S   UNL A   1      43.976  25.249  37.316  1.00  0.00    -0.050 S 
BRANCH  21  24
ATOM     24  N   UNL A   1      45.366  25.310  34.471  1.00  0.00    -0.239 NA
ATOM     25  H   UNL A   1      45.529  25.174  33.473  1.00  0.00     0.144 HD
ATOM     26  H   UNL A   1      45.365  24.406  34.942  1.00  0.00     0.144 HD
ENDBRANCH  21  24
ENDBRANCH  15  16
ENDBRANCH   9  10
ENDBRANCH   7   9
ENDBRANCH   4   7
ENDBRANCH   2   3
ENDBRANCH   1   2
BRANCH   1  27
ATOM     27  C   UNL A   1      38.033  33.374  30.102  1.00  0.00     0.002 C 
BRANCH  27  28
ATOM     28  C   UNL A   1      37.551  33.614  28.668  1.00  0.00     0.002 C 
BRANCH  28  29
ATOM     29  C   UNL A   1      36.031  33.664  28.499  1.00  0.00     0.021 C 
BRANCH  29  30
ATOM     30  C   UNL A   1      35.258  32.806  29.494  1.00  0.00     0.116 C 
BRANCH  30  31
ATOM     31  N   UNL A   1      34.365  31.868  28.834  1.00  0.00    -0.352 N 
ATOM     32  C   UNL A   1      34.655  30.647  28.281  1.00  0.00     0.251 C 
ATOM     33  H   UNL A   1      33.423  32.149  28.775  1.00  0.00     0.163 HD
ATOM     34  O   UNL A   1      33.822  30.051  27.607  1.00  0.00    -0.269 OA
BRANCH  32  35
ATOM     35  C   UNL A   1      35.996  30.062  28.487  1.00  0.00     0.039 A 
ATOM     36  C   UNL A   1      36.936  30.143  27.458  1.00  0.00     0.014 A 
ATOM     37  C   UNL A   1      36.327  29.454  29.702  1.00  0.00     0.014 A 
ATOM     38  C   UNL A   1      38.232  29.667  27.669  1.00  0.00     0.010 A 
ATOM     39  C   UNL A   1      37.635  29.046  29.934  1.00  0.00     0.010 A 
ATOM     40  C   UNL A   1      38.601  29.147  28.919  1.00  0.00    -0.014 A 
BRANCH  40  41
ATOM     41  C   UNL A   1      39.987  28.692  29.194  1.00  0.00     0.031 A 
ATOM     42  C   UNL A   1      40.962  29.625  29.861  1.00  0.00     0.074 A 
ATOM     43  C   UNL A   1      40.392  27.478  28.772  1.00  0.00     0.049 A 
ATOM     44  N   UNL A   1      42.241  29.460  30.084  1.00  0.00    -0.248 NA
ATOM     45  C   UNL A   1      40.437  30.924  30.313  1.00  0.00     0.031 C 
ATOM     46  C   UNL A   1      39.554  26.490  28.088  1.00  0.00     0.029 A 
ATOM     47  N   UNL A   1      41.623  26.873  28.843  1.00  0.00    -0.354 N 
ATOM     48  C   UNL A   1      42.677  30.642  30.670  1.00  0.00     0.074 A 
ATOM     49  C   UNL A   1      41.537  31.528  30.739  1.00  0.00     0.031 C 
ATOM     50  C   UNL A   1      40.289  25.399  27.818  1.00  0.00     0.029 A 
ATOM     51  C   UNL A   1      41.660  25.627  28.266  1.00  0.00     0.049 A 
ATOM     52  H   UNL A   1      42.406  27.293  29.267  1.00  0.00     0.167 HD
ATOM     53  C   UNL A   1      43.913  30.955  31.123  1.00  0.00     0.031 A 
ATOM     54  C   UNL A   1      42.686  24.770  28.101  1.00  0.00     0.031 A 
ATOM     55  C   UNL A   1      45.039  30.062  31.084  1.00  0.00     0.049 A 
ATOM     56  C   UNL A   1      44.052  25.154  28.603  1.00  0.00     0.074 A 
ATOM     57  C   UNL A   1      46.313  30.262  31.589  1.00  0.00     0.029 A 
ATOM     58  N   UNL A   1      45.027  28.801  30.510  1.00  0.00    -0.354 N 
ATOM     59  N   UNL A   1      44.428  26.244  29.224  1.00  0.00    -0.248 NA
ATOM     60  C   UNL A   1      45.134  24.182  28.385  1.00  0.00     0.031 C 
ATOM     61  C   UNL A   1      47.088  29.145  31.271  1.00  0.00     0.029 A 
ATOM     62  C   UNL A   1      46.280  28.224  30.623  1.00  0.00     0.049 A 
ATOM     63  H   UNL A   1      44.245  28.379  30.086  1.00  0.00     0.167 HD
ATOM     64  C   UNL A   1      45.777  26.072  29.509  1.00  0.00     0.074 A 
ATOM     65  C   UNL A   1      46.151  24.769  29.000  1.00  0.00     0.031 C 
ATOM     66  C   UNL A   1      46.630  26.918  30.134  1.00  0.00     0.031 A 
BRANCH  53  67
ATOM     67  C   UNL A   1      44.126  32.327  31.696  1.00  0.00    -0.014 A 
ATOM     68  C   UNL A   1      43.954  32.580  33.066  1.00  0.00     0.009 A 
ATOM     69  C   UNL A   1      44.582  33.363  30.865  1.00  0.00     0.009 A 
ATOM     70  C   UNL A   1      44.214  33.849  33.587  1.00  0.00     0.001 A 
ATOM     71  C   UNL A   1      44.864  34.623  31.393  1.00  0.00     0.001 A 
ATOM     72  C   UNL A   1      44.675  34.867  32.752  1.00  0.00     0.000 A 
ENDBRANCH  53  67
BRANCH  54  73
ATOM     73  C   UNL A   1      42.479  23.461  27.425  1.00  0.00    -0.014 A 
ATOM     74  C   UNL A   1      42.038  22.344  28.153  1.00  0.00     0.009 A 
ATOM     75  C   UNL A   1      42.769  23.306  26.060  1.00  0.00     0.009 A 
ATOM     76  C   UNL A   1      41.936  21.094  27.541  1.00  0.00     0.001 A 
ATOM     77  C   UNL A   1      42.633  22.061  25.442  1.00  0.00     0.001 A 
ATOM     78  C   UNL A   1      42.231  20.953  26.187  1.00  0.00     0.000 A 
ENDBRANCH  54  73
BRANCH  66  79
ATOM     79  C   UNL A   1      48.036  26.440  30.363  1.00  0.00    -0.014 A 
ATOM     80  C   UNL A   1      49.058  26.698  29.437  1.00  0.00     0.009 A 
ATOM     81  C   UNL A   1      48.351  25.772  31.558  1.00  0.00     0.009 A 
ATOM     82  C   UNL A   1      50.362  26.269  29.692  1.00  0.00     0.001 A 
ATOM     83  C   UNL A   1      49.661  25.373  31.823  1.00  0.00     0.001 A 
ATOM     84  C   UNL A   1      50.663  25.614  30.885  1.00  0.00     0.000 A 
ENDBRANCH  66  79
ENDBRANCH  40  41
ENDBRANCH  32  35
ENDBRANCH  30  31
ENDBRANCH  29  30
ENDBRANCH  28  29
ENDBRANCH  27  28
ENDBRANCH   1  27
TORSDOF 17
ENDMDL
MODEL 3
REMARK VINA RESULT:     -10.7      0.721      5.817
REMARK SMILES C[C@H](Oc1ccc(/C=C2\SC(=S)N(N)C2=O)cc1)C(=O)NCCCCCCNC(=O)c1ccc(-c2c3nc(c(-c4ccccc4)c4ccc([nH]4)c(-c4ccccc4)c4nc(c(-c5ccccc5)c5ccc2[nH]5)C=C4)C=C3)cc1
REMARK SMILES IDX 23 1 22 2 21 3 19 4 20 5 2 7 1 8 3 9 4 10 5 11 18 12 6 13
REMARK SMILES IDX 17 14 7 15 8 16 9 17 10 18 15 19 11 20 13 21 16 22 12 23
REMARK SMILES IDX 14 24 24 27 25 28 26 29 27 30 28 31 29 32 30 34 31 35 32 36
REMARK SMILES IDX 78 37 33 38 77 39 34 40 35 41 36 42 71 43 37 44 76 45 70 46
REMARK SMILES IDX 72 47 38 48 75 49 69 50 68 51 39 53 61 54 46 55 60 56 47 57
REMARK SMILES IDX 50 58 59 59 73 60 48 61 49 62 58 64 74 65 51 66 40 67 41 68
REMARK SMILES IDX 45 69 42 70 44 71 43 72 62 73 63 74 67 75 64 76 66 77 65 78
REMARK SMILES IDX 52 79 53 80 57 81 54 82 56 83 55 84
REMARK H PARENT 21 6 14 25 14 26 28 33 72 52 50 63
REMARK Flexibility Score: inf
ROOT
ATOM      1  C   UNL A   1      32.266  23.551  26.539  1.00  0.00     0.021 C 
ENDROOT
BRANCH   1   2
ATOM      2  C   UNL A   1      31.563  22.224  26.290  1.00  0.00     0.116 C 
BRANCH   2   3
ATOM      3  N   UNL A   1      32.512  21.126  26.286  1.00  0.00    -0.353 N 
ATOM      4  C   UNL A   1      32.877  20.317  25.247  1.00  0.00     0.260 C 
ATOM      5  O   UNL A   1      33.668  19.398  25.464  1.00  0.00    -0.271 OA
ATOM      6  H   UNL A   1      32.951  20.939  27.147  1.00  0.00     0.163 HD
BRANCH   4   7
ATOM      7  C   UNL A   1      32.381  20.636  23.834  1.00  0.00     0.258 C 
ATOM      8  C   UNL A   1      32.279  19.295  23.077  1.00  0.00     0.064 C 
BRANCH   7   9
ATOM      9  O   UNL A   1      33.269  21.619  23.272  1.00  0.00    -0.481 OA
BRANCH   9  10
ATOM     10  C   UNL A   1      32.756  22.821  22.884  1.00  0.00     0.120 A 
ATOM     11  C   UNL A   1      33.499  23.829  22.305  1.00  0.00     0.047 A 
ATOM     12  C   UNL A   1      31.401  23.053  23.128  1.00  0.00     0.047 A 
ATOM     13  C   UNL A   1      32.947  25.090  22.110  1.00  0.00     0.012 A 
ATOM     14  C   UNL A   1      30.835  24.321  22.888  1.00  0.00     0.012 A 
ATOM     15  C   UNL A   1      31.619  25.387  22.415  1.00  0.00    -0.024 A 
BRANCH  15  16
ATOM     16  C   UNL A   1      31.041  26.750  22.293  1.00  0.00     0.029 C 
ATOM     17  C   UNL A   1      31.263  27.862  23.022  1.00  0.00     0.082 C 
ATOM     18  S   UNL A   1      32.340  28.097  24.350  1.00  0.00    -0.053 SA
ATOM     19  C   UNL A   1      30.457  29.110  22.837  1.00  0.00     0.280 C 
ATOM     20  C   UNL A   1      31.530  29.527  24.919  1.00  0.00     0.162 C 
ATOM     21  N   UNL A   1      30.625  29.928  23.956  1.00  0.00    -0.226 N 
ATOM     22  O   UNL A   1      29.772  29.353  21.850  1.00  0.00    -0.267 OA
ATOM     23  S   UNL A   1      31.863  30.242  26.388  1.00  0.00    -0.050 S 
BRANCH  21  24
ATOM     24  N   UNL A   1      29.858  31.112  24.097  1.00  0.00    -0.239 NA
ATOM     25  H   UNL A   1      29.515  31.184  25.055  1.00  0.00     0.144 HD
ATOM     26  H   UNL A   1      29.067  31.084  23.454  1.00  0.00     0.144 HD
ENDBRANCH  21  24
ENDBRANCH  15  16
ENDBRANCH   9  10
ENDBRANCH   7   9
ENDBRANCH   4   7
ENDBRANCH   2   3
ENDBRANCH   1   2
BRANCH   1  27
ATOM     27  C   UNL A   1      33.748  23.404  26.890  1.00  0.00     0.002 C 
BRANCH  27  28
ATOM     28  C   UNL A   1      34.716  23.887  25.806  1.00  0.00     0.002 C 
BRANCH  28  29
ATOM     29  C   UNL A   1      36.191  23.889  26.213  1.00  0.00     0.021 C 
BRANCH  29  30
ATOM     30  C   UNL A   1      37.160  23.599  25.073  1.00  0.00     0.116 C 
BRANCH  30  31
ATOM     31  N   UNL A   1      38.171  22.623  25.445  1.00  0.00    -0.352 N 
ATOM     32  C   UNL A   1      39.345  22.816  26.127  1.00  0.00     0.251 C 
ATOM     33  H   UNL A   1      37.987  21.696  25.169  1.00  0.00     0.163 HD
ATOM     34  O   UNL A   1      40.175  21.917  26.212  1.00  0.00    -0.269 OA
BRANCH  32  35
ATOM     35  C   UNL A   1      39.613  24.133  26.742  1.00  0.00     0.039 A 
ATOM     36  C   UNL A   1      39.229  24.353  28.066  1.00  0.00     0.014 A 
ATOM     37  C   UNL A   1      40.260  25.137  26.016  1.00  0.00     0.014 A 
ATOM     38  C   UNL A   1      39.550  25.563  28.685  1.00  0.00     0.010 A 
ATOM     39  C   UNL A   1      40.640  26.312  26.654  1.00  0.00     0.010 A 
ATOM     40  C   UNL A   1      40.287  26.538  27.994  1.00  0.00    -0.014 A 
BRANCH  40  41
ATOM     41  C   UNL A   1      40.698  27.808  28.645  1.00  0.00     0.031 A 
ATOM     42  C   UNL A   1      39.690  28.908  28.841  1.00  0.00     0.074 A 
ATOM     43  C   UNL A   1      41.988  28.003  28.981  1.00  0.00     0.049 A 
ATOM     44  N   UNL A   1      39.874  30.126  29.282  1.00  0.00    -0.248 NA
ATOM     45  C   UNL A   1      38.297  28.608  28.470  1.00  0.00     0.031 C 
ATOM     46  C   UNL A   1      43.069  27.028  28.816  1.00  0.00     0.029 A 
ATOM     47  N   UNL A   1      42.614  29.102  29.518  1.00  0.00    -0.354 N 
ATOM     48  C   UNL A   1      38.632  30.745  29.210  1.00  0.00     0.074 A 
ATOM     49  C   UNL A   1      37.709  29.782  28.654  1.00  0.00     0.031 C 
ATOM     50  C   UNL A   1      44.219  27.565  29.259  1.00  0.00     0.029 A 
ATOM     51  C   UNL A   1      43.967  28.935  29.694  1.00  0.00     0.049 A 
ATOM     52  H   UNL A   1      42.138  29.930  29.756  1.00  0.00     0.167 HD
ATOM     53  C   UNL A   1      38.289  31.998  29.586  1.00  0.00     0.031 A 
ATOM     54  C   UNL A   1      44.902  29.796  30.139  1.00  0.00     0.031 A 
ATOM     55  C   UNL A   1      39.200  32.946  30.170  1.00  0.00     0.049 A 
ATOM     56  C   UNL A   1      44.490  31.188  30.536  1.00  0.00     0.074 A 
ATOM     57  C   UNL A   1      38.927  34.214  30.654  1.00  0.00     0.029 A 
ATOM     58  N   UNL A   1      40.556  32.729  30.349  1.00  0.00    -0.354 N 
ATOM     59  N   UNL A   1      43.298  31.730  30.534  1.00  0.00    -0.248 NA
ATOM     60  C   UNL A   1      45.558  32.086  31.005  1.00  0.00     0.031 C 
ATOM     61  C   UNL A   1      40.129  34.787  31.076  1.00  0.00     0.029 A 
ATOM     62  C   UNL A   1      41.138  33.852  30.910  1.00  0.00     0.049 A 
ATOM     63  H   UNL A   1      41.034  31.901  30.113  1.00  0.00     0.167 HD
ATOM     64  C   UNL A   1      43.464  33.014  31.040  1.00  0.00     0.074 A 
ATOM     65  C   UNL A   1      44.871  33.166  31.346  1.00  0.00     0.031 C 
ATOM     66  C   UNL A   1      42.535  33.980  31.231  1.00  0.00     0.031 A 
BRANCH  53  67
ATOM     67  C   UNL A   1      36.867  32.433  29.375  1.00  0.00    -0.014 A 
ATOM     68  C   UNL A   1      36.409  32.846  28.114  1.00  0.00     0.009 A 
ATOM     69  C   UNL A   1      35.952  32.353  30.438  1.00  0.00     0.009 A 
ATOM     70  C   UNL A   1      35.069  33.191  27.928  1.00  0.00     0.001 A 
ATOM     71  C   UNL A   1      34.608  32.673  30.242  1.00  0.00     0.001 A 
ATOM     72  C   UNL A   1      34.169  33.097  28.989  1.00  0.00     0.000 A 
ENDBRANCH  53  67
BRANCH  54  73
ATOM     73  C   UNL A   1      46.328  29.384  30.231  1.00  0.00    -0.014 A 
ATOM     74  C   UNL A   1      47.188  29.539  29.132  1.00  0.00     0.009 A 
ATOM     75  C   UNL A   1      46.828  28.786  31.399  1.00  0.00     0.009 A 
ATOM     76  C   UNL A   1      48.501  29.066  29.185  1.00  0.00     0.001 A 
ATOM     77  C   UNL A   1      48.151  28.343  31.461  1.00  0.00     0.001 A 
ATOM     78  C   UNL A   1      48.981  28.470  30.349  1.00  0.00     0.000 A 
ENDBRANCH  54  73
BRANCH  66  79
ATOM     79  C   UNL A   1      42.992  35.267  31.858  1.00  0.00    -0.014 A 
ATOM     80  C   UNL A   1      42.878  35.491  33.239  1.00  0.00     0.009 A 
ATOM     81  C   UNL A   1      43.602  36.245  31.056  1.00  0.00     0.009 A 
ATOM     82  C   UNL A   1      43.340  36.684  33.798  1.00  0.00     0.001 A 
ATOM     83  C   UNL A   1      44.091  37.422  31.623  1.00  0.00     0.001 A 
ATOM     84  C   UNL A   1      43.951  37.644  32.992  1.00  0.00     0.000 A 
ENDBRANCH  66  79
ENDBRANCH  40  41
ENDBRANCH  32  35
ENDBRANCH  30  31
ENDBRANCH  29  30
ENDBRANCH  28  29
ENDBRANCH  27  28
ENDBRANCH   1  27
TORSDOF 17
ENDMDL
