MODEL 1
REMARK VINA RESULT:     -10.8      0.000      0.000
REMARK SMILES CC[C@@](C)(NC(=O)Nc1c(C)cccc1Cl)C(=O)NCCCCCCNC(=O)c1ccc(-c2c3nc(c(-c4ccccc4)c4ccc([nH]4)c(-c4ccccc4)c4nc(c(-c5ccccc5)c5ccc2[nH]5)C=C4)C=C3)cc1
REMARK SMILES IDX 22 1 21 2 20 3 19 4 17 5 18 6 3 8 4 9 2 10 1 11 5 12 6 13
REMARK SMILES IDX 7 15 8 16 9 18 10 19 15 20 11 21 12 22 14 23 16 24 13 25
REMARK SMILES IDX 23 26 24 27 25 28 26 29 27 30 28 32 29 33 30 34 76 35 31 36
REMARK SMILES IDX 75 37 32 38 33 39 34 40 69 41 35 42 74 43 68 44 70 45 36 46
REMARK SMILES IDX 73 47 67 48 66 49 37 51 59 52 44 53 58 54 45 55 48 56 57 57
REMARK SMILES IDX 71 58 46 59 47 60 56 62 72 63 49 64 38 65 39 66 43 67 40 68
REMARK SMILES IDX 42 69 41 70 60 71 61 72 65 73 62 74 64 75 63 76 50 77 51 78
REMARK SMILES IDX 55 79 52 80 54 81 53 82
REMARK H PARENT 19 7 5 14 8 17 26 31 70 50 48 61
REMARK Flexibility Score: inf
ROOT
ATOM      1  C   UNL A   1      35.612  20.880  25.400  1.00  0.00     0.002 C 
ENDROOT
BRANCH   1   2
ATOM      2  C   UNL A   1      34.285  20.741  24.641  1.00  0.00     0.021 C 
BRANCH   2   3
ATOM      3  C   UNL A   1      33.575  21.960  24.027  1.00  0.00     0.116 C 
BRANCH   3   4
ATOM      4  N   UNL A   1      32.258  22.312  24.526  1.00  0.00    -0.354 N 
ATOM      5  C   UNL A   1      31.753  23.406  25.217  1.00  0.00     0.245 C 
ATOM      6  O   UNL A   1      30.610  23.792  24.952  1.00  0.00    -0.272 OA
ATOM      7  H   UNL A   1      31.577  21.629  24.333  1.00  0.00     0.163 HD
BRANCH   5   8
ATOM      8  C   UNL A   1      32.648  24.225  26.160  1.00  0.00     0.117 C 
ATOM      9  C   UNL A   1      33.206  23.135  27.116  1.00  0.00     0.045 C 
BRANCH   8  10
ATOM     10  C   UNL A   1      33.876  25.036  25.649  1.00  0.00     0.035 C 
ATOM     11  C   UNL A   1      35.262  24.434  25.721  1.00  0.00     0.007 C 
ENDBRANCH   8  10
BRANCH   8  12
ATOM     12  N   UNL A   1      31.767  25.199  26.806  1.00  0.00    -0.324 N 
ATOM     13  C   UNL A   1      31.381  26.439  26.406  1.00  0.00     0.320 C 
ATOM     14  H   UNL A   1      31.394  24.908  27.670  1.00  0.00     0.166 HD
ATOM     15  O   UNL A   1      30.834  27.134  27.269  1.00  0.00    -0.248 OA
ATOM     16  N   UNL A   1      31.270  26.830  25.092  1.00  0.00    -0.306 N 
ATOM     17  H   UNL A   1      30.345  26.843  24.756  1.00  0.00     0.171 HD
BRANCH  16  18
ATOM     18  C   UNL A   1      32.254  27.224  24.112  1.00  0.00     0.064 A 
ATOM     19  C   UNL A   1      32.494  26.559  22.871  1.00  0.00    -0.026 A 
ATOM     20  C   UNL A   1      32.720  28.558  24.161  1.00  0.00     0.064 A 
ATOM     21  C   UNL A   1      31.613  25.562  22.158  1.00  0.00     0.046 C 
ATOM     22  C   UNL A   1      33.508  27.020  22.004  1.00  0.00     0.005 A 
ATOM     23  C   UNL A   1      33.561  29.091  23.170  1.00  0.00     0.023 A 
ATOM     24  Cl  UNL A   1      32.111  29.684  25.331  1.00  0.00    -0.082 Cl
ATOM     25  C   UNL A   1      34.022  28.293  22.136  1.00  0.00     0.002 A 
ENDBRANCH  16  18
ENDBRANCH   8  12
ENDBRANCH   5   8
ENDBRANCH   3   4
ENDBRANCH   2   3
ENDBRANCH   1   2
BRANCH   1  26
ATOM     26  C   UNL A   1      36.912  21.055  24.620  1.00  0.00     0.002 C 
BRANCH  26  27
ATOM     27  C   UNL A   1      37.951  19.966  24.782  1.00  0.00     0.021 C 
BRANCH  27  28
ATOM     28  C   UNL A   1      39.057  20.288  25.767  1.00  0.00     0.116 C 
BRANCH  28  29
ATOM     29  N   UNL A   1      40.134  19.312  25.767  1.00  0.00    -0.352 N 
ATOM     30  C   UNL A   1      41.455  19.514  26.092  1.00  0.00     0.251 C 
ATOM     31  H   UNL A   1      39.890  18.396  25.503  1.00  0.00     0.163 HD
ATOM     32  O   UNL A   1      42.289  18.625  25.927  1.00  0.00    -0.269 OA
BRANCH  30  33
ATOM     33  C   UNL A   1      41.875  20.836  26.607  1.00  0.00     0.039 A 
ATOM     34  C   UNL A   1      42.295  21.817  25.706  1.00  0.00     0.014 A 
ATOM     35  C   UNL A   1      41.798  21.123  27.973  1.00  0.00     0.014 A 
ATOM     36  C   UNL A   1      42.580  23.103  26.171  1.00  0.00     0.010 A 
ATOM     37  C   UNL A   1      41.981  22.426  28.417  1.00  0.00     0.010 A 
ATOM     38  C   UNL A   1      42.394  23.426  27.525  1.00  0.00    -0.014 A 
BRANCH  38  39
ATOM     39  C   UNL A   1      42.675  24.790  28.041  1.00  0.00     0.031 A 
ATOM     40  C   UNL A   1      44.079  25.159  28.442  1.00  0.00     0.074 A 
ATOM     41  C   UNL A   1      41.674  25.681  28.189  1.00  0.00     0.049 A 
ATOM     42  N   UNL A   1      44.524  26.271  28.969  1.00  0.00    -0.248 NA
ATOM     43  C   UNL A   1      45.119  24.132  28.249  1.00  0.00     0.031 C 
ATOM     44  C   UNL A   1      40.264  25.438  27.873  1.00  0.00     0.029 A 
ATOM     45  N   UNL A   1      41.691  26.974  28.650  1.00  0.00    -0.354 N 
ATOM     46  C   UNL A   1      45.883  26.074  29.174  1.00  0.00     0.074 A 
ATOM     47  C   UNL A   1      46.181  24.716  28.782  1.00  0.00     0.031 C 
ATOM     48  C   UNL A   1      39.559  26.554  28.122  1.00  0.00     0.029 A 
ATOM     49  C   UNL A   1      40.455  27.575  28.656  1.00  0.00     0.049 A 
ATOM     50  H   UNL A   1      42.511  27.427  28.949  1.00  0.00     0.167 HD
ATOM     51  C   UNL A   1      46.813  26.953  29.616  1.00  0.00     0.031 A 
ATOM     52  C   UNL A   1      40.085  28.808  29.053  1.00  0.00     0.031 A 
ATOM     53  C   UNL A   1      46.524  28.309  29.997  1.00  0.00     0.049 A 
ATOM     54  C   UNL A   1      41.136  29.756  29.570  1.00  0.00     0.074 A 
ATOM     55  C   UNL A   1      47.400  29.285  30.436  1.00  0.00     0.029 A 
ATOM     56  N   UNL A   1      45.262  28.879  29.975  1.00  0.00    -0.354 N 
ATOM     57  N   UNL A   1      42.426  29.568  29.707  1.00  0.00    -0.248 NA
ATOM     58  C   UNL A   1      40.679  31.095  29.969  1.00  0.00     0.031 C 
ATOM     59  C   UNL A   1      46.660  30.436  30.723  1.00  0.00     0.029 A 
ATOM     60  C   UNL A   1      45.335  30.194  30.401  1.00  0.00     0.049 A 
ATOM     61  H   UNL A   1      44.437  28.419  29.698  1.00  0.00     0.167 HD
ATOM     62  C   UNL A   1      42.938  30.775  30.167  1.00  0.00     0.074 A 
ATOM     63  C   UNL A   1      41.823  31.691  30.270  1.00  0.00     0.031 C 
ATOM     64  C   UNL A   1      44.217  31.097  30.478  1.00  0.00     0.031 A 
BRANCH  51  65
ATOM     65  C   UNL A   1      48.236  26.477  29.697  1.00  0.00    -0.014 A 
ATOM     66  C   UNL A   1      49.091  26.564  28.587  1.00  0.00     0.009 A 
ATOM     67  C   UNL A   1      48.746  25.985  30.909  1.00  0.00     0.009 A 
ATOM     68  C   UNL A   1      50.419  26.141  28.679  1.00  0.00     0.001 A 
ATOM     69  C   UNL A   1      50.082  25.592  31.007  1.00  0.00     0.001 A 
ATOM     70  C   UNL A   1      50.915  25.664  29.892  1.00  0.00     0.000 A 
ENDBRANCH  51  65
BRANCH  52  71
ATOM     71  C   UNL A   1      38.661  29.232  28.985  1.00  0.00    -0.014 A 
ATOM     72  C   UNL A   1      37.809  29.071  30.089  1.00  0.00     0.009 A 
ATOM     73  C   UNL A   1      38.130  29.754  27.795  1.00  0.00     0.009 A 
ATOM     74  C   UNL A   1      36.449  29.373  29.988  1.00  0.00     0.001 A 
ATOM     75  C   UNL A   1      36.777  30.092  27.707  1.00  0.00     0.001 A 
ATOM     76  C   UNL A   1      35.934  29.886  28.798  1.00  0.00     0.000 A 
ENDBRANCH  52  71
BRANCH  64  77
ATOM     77  C   UNL A   1      44.491  32.516  30.894  1.00  0.00    -0.014 A 
ATOM     78  C   UNL A   1      44.468  32.906  32.241  1.00  0.00     0.009 A 
ATOM     79  C   UNL A   1      44.816  33.469  29.914  1.00  0.00     0.009 A 
ATOM     80  C   UNL A   1      44.726  34.232  32.594  1.00  0.00     0.001 A 
ATOM     81  C   UNL A   1      45.107  34.785  30.274  1.00  0.00     0.001 A 
ATOM     82  C   UNL A   1      45.050  35.168  31.613  1.00  0.00     0.000 A 
ENDBRANCH  64  77
ENDBRANCH  38  39
ENDBRANCH  30  33
ENDBRANCH  28  29
ENDBRANCH  27  28
ENDBRANCH  26  27
ENDBRANCH   1  26
TORSDOF 16
ENDMDL
MODEL 2
REMARK VINA RESULT:     -10.7      1.156      2.054
REMARK SMILES CC[C@@](C)(NC(=O)Nc1c(C)cccc1Cl)C(=O)NCCCCCCNC(=O)c1ccc(-c2c3nc(c(-c4ccccc4)c4ccc([nH]4)c(-c4ccccc4)c4nc(c(-c5ccccc5)c5ccc2[nH]5)C=C4)C=C3)cc1
REMARK SMILES IDX 22 1 21 2 20 3 19 4 17 5 18 6 3 8 4 9 2 10 1 11 5 12 6 13
REMARK SMILES IDX 7 15 8 16 9 18 10 19 15 20 11 21 12 22 14 23 16 24 13 25
REMARK SMILES IDX 23 26 24 27 25 28 26 29 27 30 28 32 29 33 30 34 76 35 31 36
REMARK SMILES IDX 75 37 32 38 33 39 34 40 69 41 35 42 74 43 68 44 70 45 36 46
REMARK SMILES IDX 73 47 67 48 66 49 37 51 59 52 44 53 58 54 45 55 48 56 57 57
REMARK SMILES IDX 71 58 46 59 47 60 56 62 72 63 49 64 38 65 39 66 43 67 40 68
REMARK SMILES IDX 42 69 41 70 60 71 61 72 65 73 62 74 64 75 63 76 50 77 51 78
REMARK SMILES IDX 55 79 52 80 54 81 53 82
REMARK H PARENT 19 7 5 14 8 17 26 31 70 50 48 61
REMARK Flexibility Score: inf
ROOT
ATOM      1  C   UNL A   1      37.871  21.950  25.136  1.00  0.00     0.002 C 
ENDROOT
BRANCH   1   2
ATOM      2  C   UNL A   1      37.032  22.912  25.989  1.00  0.00     0.021 C 
BRANCH   2   3
ATOM      3  C   UNL A   1      36.243  24.073  25.357  1.00  0.00     0.116 C 
BRANCH   3   4
ATOM      4  N   UNL A   1      35.702  23.891  24.022  1.00  0.00    -0.354 N 
ATOM      5  C   UNL A   1      34.421  23.698  23.523  1.00  0.00     0.245 C 
ATOM      6  O   UNL A   1      34.129  24.215  22.440  1.00  0.00    -0.272 OA
ATOM      7  H   UNL A   1      36.392  23.907  23.321  1.00  0.00     0.163 HD
BRANCH   5   8
ATOM      8  C   UNL A   1      33.339  23.010  24.369  1.00  0.00     0.117 C 
ATOM      9  C   UNL A   1      33.774  21.519  24.314  1.00  0.00     0.045 C 
BRANCH   8  10
ATOM     10  C   UNL A   1      33.115  23.350  25.873  1.00  0.00     0.035 C 
ATOM     11  C   UNL A   1      33.435  22.322  26.936  1.00  0.00     0.007 C 
ENDBRANCH   8  10
BRANCH   8  12
ATOM     12  N   UNL A   1      32.067  23.291  23.703  1.00  0.00    -0.324 N 
ATOM     13  C   UNL A   1      31.334  24.433  23.650  1.00  0.00     0.320 C 
ATOM     14  H   UNL A   1      31.680  22.528  23.214  1.00  0.00     0.166 HD
ATOM     15  O   UNL A   1      30.180  24.310  23.226  1.00  0.00    -0.248 OA
ATOM     16  N   UNL A   1      31.866  25.700  23.724  1.00  0.00    -0.306 N 
ATOM     17  H   UNL A   1      31.942  26.152  22.853  1.00  0.00     0.171 HD
BRANCH  16  18
ATOM     18  C   UNL A   1      32.334  26.491  24.838  1.00  0.00     0.064 A 
ATOM     19  C   UNL A   1      33.383  27.458  24.778  1.00  0.00    -0.026 A 
ATOM     20  C   UNL A   1      31.461  26.641  25.939  1.00  0.00     0.064 A 
ATOM     21  C   UNL A   1      33.988  28.108  23.557  1.00  0.00     0.046 C 
ATOM     22  C   UNL A   1      33.776  28.150  25.944  1.00  0.00     0.005 A 
ATOM     23  C   UNL A   1      31.750  27.506  27.007  1.00  0.00     0.023 A 
ATOM     24  Cl  UNL A   1      29.879  25.929  25.941  1.00  0.00    -0.082 Cl
ATOM     25  C   UNL A   1      32.949  28.197  27.047  1.00  0.00     0.002 A 
ENDBRANCH  16  18
ENDBRANCH   8  12
ENDBRANCH   5   8
ENDBRANCH   3   4
ENDBRANCH   2   3
ENDBRANCH   1   2
BRANCH   1  26
ATOM     26  C   UNL A   1      37.318  20.569  24.795  1.00  0.00     0.002 C 
BRANCH  26  27
ATOM     27  C   UNL A   1      38.270  19.402  24.949  1.00  0.00     0.021 C 
BRANCH  27  28
ATOM     28  C   UNL A   1      39.261  19.540  26.087  1.00  0.00     0.116 C 
BRANCH  28  29
ATOM     29  N   UNL A   1      40.553  18.936  25.806  1.00  0.00    -0.352 N 
ATOM     30  C   UNL A   1      41.795  19.518  25.903  1.00  0.00     0.251 C 
ATOM     31  H   UNL A   1      40.538  17.997  25.511  1.00  0.00     0.163 HD
ATOM     32  O   UNL A   1      42.802  18.928  25.513  1.00  0.00    -0.269 OA
BRANCH  30  33
ATOM     33  C   UNL A   1      41.906  20.889  26.449  1.00  0.00     0.039 A 
ATOM     34  C   UNL A   1      41.859  21.077  27.831  1.00  0.00     0.014 A 
ATOM     35  C   UNL A   1      42.113  21.977  25.597  1.00  0.00     0.014 A 
ATOM     36  C   UNL A   1      42.081  22.351  28.361  1.00  0.00     0.010 A 
ATOM     37  C   UNL A   1      42.435  23.220  26.129  1.00  0.00     0.010 A 
ATOM     38  C   UNL A   1      42.402  23.426  27.516  1.00  0.00    -0.014 A 
BRANCH  38  39
ATOM     39  C   UNL A   1      42.658  24.786  28.056  1.00  0.00     0.031 A 
ATOM     40  C   UNL A   1      44.050  25.165  28.487  1.00  0.00     0.074 A 
ATOM     41  C   UNL A   1      41.644  25.662  28.197  1.00  0.00     0.049 A 
ATOM     42  N   UNL A   1      44.472  26.275  29.037  1.00  0.00    -0.248 NA
ATOM     43  C   UNL A   1      45.105  24.153  28.299  1.00  0.00     0.031 C 
ATOM     44  C   UNL A   1      40.243  25.407  27.852  1.00  0.00     0.029 A 
ATOM     45  N   UNL A   1      41.637  26.949  28.677  1.00  0.00    -0.354 N 
ATOM     46  C   UNL A   1      45.830  26.091  29.265  1.00  0.00     0.074 A 
ATOM     47  C   UNL A   1      46.151  24.742  28.859  1.00  0.00     0.031 C 
ATOM     48  C   UNL A   1      39.520  26.511  28.104  1.00  0.00     0.029 A 
ATOM     49  C   UNL A   1      40.393  27.535  28.668  1.00  0.00     0.049 A 
ATOM     50  H   UNL A   1      42.446  27.408  28.997  1.00  0.00     0.167 HD
ATOM     51  C   UNL A   1      46.741  26.974  29.736  1.00  0.00     0.031 A 
ATOM     52  C   UNL A   1      40.002  28.758  29.076  1.00  0.00     0.031 A 
ATOM     53  C   UNL A   1      46.428  28.321  30.130  1.00  0.00     0.049 A 
ATOM     54  C   UNL A   1      41.032  29.711  29.625  1.00  0.00     0.074 A 
ATOM     55  C   UNL A   1      47.284  29.301  30.598  1.00  0.00     0.029 A 
ATOM     56  N   UNL A   1      45.160  28.877  30.093  1.00  0.00    -0.354 N 
ATOM     57  N   UNL A   1      42.322  29.536  29.783  1.00  0.00    -0.248 NA
ATOM     58  C   UNL A   1      40.552  31.039  30.034  1.00  0.00     0.031 C 
ATOM     59  C   UNL A   1      46.526  30.439  30.888  1.00  0.00     0.029 A 
ATOM     60  C   UNL A   1      45.209  30.187  30.539  1.00  0.00     0.049 A 
ATOM     61  H   UNL A   1      44.346  28.411  29.794  1.00  0.00     0.167 HD
ATOM     62  C   UNL A   1      42.810  30.742  30.270  1.00  0.00     0.074 A 
ATOM     63  C   UNL A   1      41.683  31.644  30.365  1.00  0.00     0.031 C 
ATOM     64  C   UNL A   1      44.080  31.075  30.608  1.00  0.00     0.031 A 
BRANCH  51  65
ATOM     65  C   UNL A   1      48.168  26.514  29.836  1.00  0.00    -0.014 A 
ATOM     66  C   UNL A   1      49.074  26.737  28.787  1.00  0.00     0.009 A 
ATOM     67  C   UNL A   1      48.627  25.897  31.010  1.00  0.00     0.009 A 
ATOM     68  C   UNL A   1      50.404  26.327  28.899  1.00  0.00     0.001 A 
ATOM     69  C   UNL A   1      49.965  25.517  31.132  1.00  0.00     0.001 A 
ATOM     70  C   UNL A   1      50.850  25.725  30.075  1.00  0.00     0.000 A 
ENDBRANCH  51  65
BRANCH  52  71
ATOM     71  C   UNL A   1      38.574  29.166  28.988  1.00  0.00    -0.014 A 
ATOM     72  C   UNL A   1      38.057  29.724  27.808  1.00  0.00     0.009 A 
ATOM     73  C   UNL A   1      37.730  29.047  30.103  1.00  0.00     0.009 A 
ATOM     74  C   UNL A   1      36.744  30.201  27.762  1.00  0.00     0.001 A 
ATOM     75  C   UNL A   1      36.407  29.488  30.044  1.00  0.00     0.001 A 
ATOM     76  C   UNL A   1      35.919  30.080  28.879  1.00  0.00     0.000 A 
ENDBRANCH  52  71
BRANCH  64  77
ATOM     77  C   UNL A   1      44.329  32.491  31.048  1.00  0.00    -0.014 A 
ATOM     78  C   UNL A   1      44.274  32.863  32.400  1.00  0.00     0.009 A 
ATOM     79  C   UNL A   1      44.664  33.460  30.089  1.00  0.00     0.009 A 
ATOM     80  C   UNL A   1      44.509  34.186  32.776  1.00  0.00     0.001 A 
ATOM     81  C   UNL A   1      44.932  34.775  30.472  1.00  0.00     0.001 A 
ATOM     82  C   UNL A   1      44.844  35.139  31.814  1.00  0.00     0.000 A 
ENDBRANCH  64  77
ENDBRANCH  38  39
ENDBRANCH  30  33
ENDBRANCH  28  29
ENDBRANCH  27  28
ENDBRANCH  26  27
ENDBRANCH   1  26
TORSDOF 16
ENDMDL
MODEL 3
REMARK VINA RESULT:     -10.7      4.197      9.472
REMARK SMILES CC[C@@](C)(NC(=O)Nc1c(C)cccc1Cl)C(=O)NCCCCCCNC(=O)c1ccc(-c2c3nc(c(-c4ccccc4)c4ccc([nH]4)c(-c4ccccc4)c4nc(c(-c5ccccc5)c5ccc2[nH]5)C=C4)C=C3)cc1
REMARK SMILES IDX 22 1 21 2 20 3 19 4 17 5 18 6 3 8 4 9 2 10 1 11 5 12 6 13
REMARK SMILES IDX 7 15 8 16 9 18 10 19 15 20 11 21 12 22 14 23 16 24 13 25
REMARK SMILES IDX 23 26 24 27 25 28 26 29 27 30 28 32 29 33 30 34 76 35 31 36
REMARK SMILES IDX 75 37 32 38 33 39 34 40 69 41 35 42 74 43 68 44 70 45 36 46
REMARK SMILES IDX 73 47 67 48 66 49 37 51 59 52 44 53 58 54 45 55 48 56 57 57
REMARK SMILES IDX 71 58 46 59 47 60 56 62 72 63 49 64 38 65 39 66 43 67 40 68
REMARK SMILES IDX 42 69 41 70 60 71 61 72 65 73 62 74 64 75 63 76 50 77 51 78
REMARK SMILES IDX 55 79 52 80 54 81 53 82
REMARK H PARENT 19 7 5 14 8 17 26 31 70 50 48 61
REMARK Flexibility Score: inf
ROOT
ATOM      1  C   UNL A   1      31.926  29.888  25.456  1.00  0.00     0.002 C 
ENDROOT
BRANCH   1   2
ATOM      2  C   UNL A   1      30.824  29.743  24.397  1.00  0.00     0.021 C 
BRANCH   2   3
ATOM      3  C   UNL A   1      31.108  29.126  23.016  1.00  0.00     0.116 C 
BRANCH   3   4
ATOM      4  N   UNL A   1      32.481  28.795  22.680  1.00  0.00    -0.354 N 
ATOM      5  C   UNL A   1      33.157  27.601  22.467  1.00  0.00     0.245 C 
ATOM      6  O   UNL A   1      34.037  27.570  21.600  1.00  0.00    -0.272 OA
ATOM      7  H   UNL A   1      33.056  29.588  22.582  1.00  0.00     0.163 HD
BRANCH   5   8
ATOM      8  C   UNL A   1      32.710  26.306  23.163  1.00  0.00     0.117 C 
ATOM      9  C   UNL A   1      33.608  26.285  24.430  1.00  0.00     0.045 C 
BRANCH   8  10
ATOM     10  C   UNL A   1      31.248  26.085  23.653  1.00  0.00     0.035 C 
ATOM     11  C   UNL A   1      30.920  26.196  25.126  1.00  0.00     0.007 C 
ENDBRANCH   8  10
BRANCH   8  12
ATOM     12  N   UNL A   1      32.981  25.225  22.215  1.00  0.00    -0.324 N 
ATOM     13  C   UNL A   1      33.195  23.900  22.427  1.00  0.00     0.320 C 
ATOM     14  H   UNL A   1      33.013  25.503  21.271  1.00  0.00     0.166 HD
ATOM     15  O   UNL A   1      33.648  23.270  21.465  1.00  0.00    -0.248 OA
ATOM     16  N   UNL A   1      32.666  23.188  23.478  1.00  0.00    -0.306 N 
ATOM     17  H   UNL A   1      31.885  22.640  23.236  1.00  0.00     0.171 HD
BRANCH  16  18
ATOM     18  C   UNL A   1      33.039  23.093  24.870  1.00  0.00     0.064 A 
ATOM     19  C   UNL A   1      32.125  22.995  25.963  1.00  0.00    -0.026 A 
ATOM     20  C   UNL A   1      34.350  22.653  25.161  1.00  0.00     0.064 A 
ATOM     21  C   UNL A   1      30.659  22.636  25.927  1.00  0.00     0.046 C 
ATOM     22  C   UNL A   1      32.608  22.939  27.288  1.00  0.00     0.005 A 
ATOM     23  C   UNL A   1      34.771  22.382  26.474  1.00  0.00     0.023 A 
ATOM     24  Cl  UNL A   1      35.457  22.216  23.900  1.00  0.00    -0.082 Cl
ATOM     25  C   UNL A   1      33.922  22.607  27.544  1.00  0.00     0.002 A 
ENDBRANCH  16  18
ENDBRANCH   8  12
ENDBRANCH   5   8
ENDBRANCH   3   4
ENDBRANCH   2   3
ENDBRANCH   1   2
BRANCH   1  26
ATOM     26  C   UNL A   1      31.630  30.633  26.755  1.00  0.00     0.002 C 
BRANCH  26  27
ATOM     27  C   UNL A   1      31.513  32.139  26.659  1.00  0.00     0.021 C 
BRANCH  27  28
ATOM     28  C   UNL A   1      32.713  32.902  27.184  1.00  0.00     0.116 C 
BRANCH  28  29
ATOM     29  N   UNL A   1      32.391  34.243  27.644  1.00  0.00    -0.352 N 
ATOM     30  C   UNL A   1      32.994  34.955  28.654  1.00  0.00     0.251 C 
ATOM     31  H   UNL A   1      31.652  34.696  27.177  1.00  0.00     0.163 HD
ATOM     32  O   UNL A   1      32.537  36.036  29.024  1.00  0.00    -0.269 OA
BRANCH  30  33
ATOM     33  C   UNL A   1      34.184  34.385  29.324  1.00  0.00     0.039 A 
ATOM     34  C   UNL A   1      34.017  33.655  30.502  1.00  0.00     0.014 A 
ATOM     35  C   UNL A   1      35.453  34.527  28.757  1.00  0.00     0.014 A 
ATOM     36  C   UNL A   1      35.118  33.015  31.077  1.00  0.00     0.010 A 
ATOM     37  C   UNL A   1      36.524  33.806  29.272  1.00  0.00     0.010 A 
ATOM     38  C   UNL A   1      36.374  33.059  30.448  1.00  0.00    -0.014 A 
BRANCH  38  39
ATOM     39  C   UNL A   1      37.556  32.374  31.031  1.00  0.00     0.031 A 
ATOM     40  C   UNL A   1      38.156  32.890  32.313  1.00  0.00     0.074 A 
ATOM     41  C   UNL A   1      38.113  31.323  30.398  1.00  0.00     0.049 A 
ATOM     42  N   UNL A   1      39.220  32.475  32.953  1.00  0.00    -0.248 NA
ATOM     43  C   UNL A   1      37.489  34.042  32.946  1.00  0.00     0.031 C 
ATOM     44  C   UNL A   1      37.651  30.748  29.133  1.00  0.00     0.029 A 
ATOM     45  N   UNL A   1      39.199  30.552  30.734  1.00  0.00    -0.354 N 
ATOM     46  C   UNL A   1      39.349  33.314  34.053  1.00  0.00     0.074 A 
ATOM     47  C   UNL A   1      38.301  34.305  33.958  1.00  0.00     0.031 C 
ATOM     48  C   UNL A   1      38.430  29.700  28.816  1.00  0.00     0.029 A 
ATOM     49  C   UNL A   1      39.470  29.555  29.828  1.00  0.00     0.049 A 
ATOM     50  H   UNL A   1      39.733  30.701  31.547  1.00  0.00     0.167 HD
ATOM     51  C   UNL A   1      40.238  33.251  35.072  1.00  0.00     0.031 A 
ATOM     52  C   UNL A   1      40.452  28.632  29.814  1.00  0.00     0.031 A 
ATOM     53  C   UNL A   1      41.275  32.261  35.175  1.00  0.00     0.049 A 
ATOM     54  C   UNL A   1      41.446  28.603  30.945  1.00  0.00     0.074 A 
ATOM     55  C   UNL A   1      42.210  32.098  36.181  1.00  0.00     0.029 A 
ATOM     56  N   UNL A   1      41.505  31.262  34.243  1.00  0.00    -0.354 N 
ATOM     57  N   UNL A   1      41.520  29.373  32.003  1.00  0.00    -0.248 NA
ATOM     58  C   UNL A   1      42.482  27.561  30.887  1.00  0.00     0.031 C 
ATOM     59  C   UNL A   1      43.038  31.025  35.835  1.00  0.00     0.029 A 
ATOM     60  C   UNL A   1      42.576  30.483  34.647  1.00  0.00     0.049 A 
ATOM     61  H   UNL A   1      40.986  31.127  33.418  1.00  0.00     0.167 HD
ATOM     62  C   UNL A   1      42.581  28.884  32.754  1.00  0.00     0.074 A 
ATOM     63  C   UNL A   1      43.110  27.742  32.040  1.00  0.00     0.031 C 
ATOM     64  C   UNL A   1      43.075  29.338  33.932  1.00  0.00     0.031 A 
BRANCH  51  65
ATOM     65  C   UNL A   1      40.115  34.274  36.165  1.00  0.00    -0.014 A 
ATOM     66  C   UNL A   1      39.326  34.027  37.300  1.00  0.00     0.009 A 
ATOM     67  C   UNL A   1      40.835  35.476  36.088  1.00  0.00     0.009 A 
ATOM     68  C   UNL A   1      39.238  34.974  38.322  1.00  0.00     0.001 A 
ATOM     69  C   UNL A   1      40.770  36.408  37.125  1.00  0.00     0.001 A 
ATOM     70  C   UNL A   1      39.967  36.160  38.238  1.00  0.00     0.000 A 
ENDBRANCH  51  65
BRANCH  52  71
ATOM     71  C   UNL A   1      40.557  27.654  28.697  1.00  0.00    -0.014 A 
ATOM     72  C   UNL A   1      41.333  27.939  27.563  1.00  0.00     0.009 A 
ATOM     73  C   UNL A   1      39.838  26.449  28.737  1.00  0.00     0.009 A 
ATOM     74  C   UNL A   1      41.346  27.065  26.472  1.00  0.00     0.001 A 
ATOM     75  C   UNL A   1      39.883  25.559  27.662  1.00  0.00     0.001 A 
ATOM     76  C   UNL A   1      40.623  25.875  26.524  1.00  0.00     0.000 A 
ENDBRANCH  52  71
BRANCH  64  77
ATOM     77  C   UNL A   1      44.202  28.562  34.555  1.00  0.00    -0.014 A 
ATOM     78  C   UNL A   1      45.544  28.866  34.284  1.00  0.00     0.009 A 
ATOM     79  C   UNL A   1      43.908  27.530  35.461  1.00  0.00     0.009 A 
ATOM     80  C   UNL A   1      46.568  28.125  34.877  1.00  0.00     0.001 A 
ATOM     81  C   UNL A   1      44.933  26.814  36.078  1.00  0.00     0.001 A 
ATOM     82  C   UNL A   1      46.262  27.105  35.777  1.00  0.00     0.000 A 
ENDBRANCH  64  77
ENDBRANCH  38  39
ENDBRANCH  30  33
ENDBRANCH  28  29
ENDBRANCH  27  28
ENDBRANCH  26  27
ENDBRANCH   1  26
TORSDOF 16
ENDMDL
