MODEL 1
REMARK VINA RESULT:     -11.8      0.000      0.000
REMARK SMILES O=C(NCCCCCCNC(=O)[C@@H]1C[N@@H+](C2CCN(C(=O)c3ccccc3)CC2)C[C@H]1C1CC1)c1ccc(-c2c3nc(c(-c4ccccc4)c4ccc([nH]4)c(-c4ccccc4)c4nc(c(-c5ccccc5)c5ccc2[nH]5)C=C4)C=C3)cc1
REMARK SMILES IDX 6 1 5 2 4 3 3 4 1 5 2 6 35 8 36 9 82 10 37 11 81 12 38 13
REMARK SMILES IDX 39 14 40 15 75 16 41 17 80 18 74 19 76 20 42 21 79 22 73 23
REMARK SMILES IDX 72 24 43 26 65 27 50 28 64 29 51 30 54 31 63 32 77 33 52 34
REMARK SMILES IDX 53 35 62 37 78 38 55 39 44 40 45 41 49 42 46 43 48 44 47 45
REMARK SMILES IDX 66 46 67 47 71 48 68 49 70 50 69 51 56 52 57 53 61 54 58 55
REMARK SMILES IDX 60 56 59 57 7 58 8 59 9 60 10 61 11 62 12 64 13 65 14 66
REMARK SMILES IDX 31 67 15 68 30 69 32 71 33 72 34 73 16 74 17 75 29 76 18 77
REMARK SMILES IDX 28 78 19 79 20 80 21 81 22 82 23 83 27 84 24 85 26 86 25 87
REMARK H PARENT 3 7 76 25 54 36 10 63 15 70
REMARK Flexibility Score: inf
ROOT
ATOM      1  C   UNL A   1      31.628  30.439  26.140  1.00  0.00     0.002 C 
ENDROOT
BRANCH   1   2
ATOM      2  C   UNL A   1      31.412  31.896  26.543  1.00  0.00     0.021 C 
BRANCH   2   3
ATOM      3  C   UNL A   1      32.674  32.641  26.948  1.00  0.00     0.116 C 
BRANCH   3   4
ATOM      4  N   UNL A   1      32.391  33.924  27.559  1.00  0.00    -0.352 N 
ATOM      5  O   UNL A   1      32.640  35.579  29.074  1.00  0.00    -0.269 OA
ATOM      6  C   UNL A   1      33.076  34.561  28.564  1.00  0.00     0.251 C 
ATOM      7  H   UNL A   1      31.605  34.401  27.209  1.00  0.00     0.163 HD
BRANCH   6   8
ATOM      8  C   UNL A   1      34.345  33.973  29.037  1.00  0.00     0.039 A 
ATOM      9  C   UNL A   1      35.553  34.283  28.405  1.00  0.00     0.014 A 
ATOM     10  C   UNL A   1      34.312  33.089  30.118  1.00  0.00     0.014 A 
ATOM     11  C   UNL A   1      36.716  33.625  28.784  1.00  0.00     0.010 A 
ATOM     12  C   UNL A   1      35.495  32.494  30.550  1.00  0.00     0.010 A 
ATOM     13  C   UNL A   1      36.701  32.746  29.877  1.00  0.00    -0.014 A 
BRANCH  13  14
ATOM     14  C   UNL A   1      37.971  32.170  30.372  1.00  0.00     0.031 A 
ATOM     15  C   UNL A   1      38.530  30.907  29.791  1.00  0.00     0.074 A 
ATOM     16  C   UNL A   1      38.598  32.789  31.389  1.00  0.00     0.049 A 
ATOM     17  N   UNL A   1      39.596  30.238  30.152  1.00  0.00    -0.248 NA
ATOM     18  C   UNL A   1      37.795  30.307  28.667  1.00  0.00     0.031 C 
ATOM     19  C   UNL A   1      38.135  34.018  32.041  1.00  0.00     0.029 A 
ATOM     20  N   UNL A   1      39.751  32.470  32.059  1.00  0.00    -0.354 N 
ATOM     21  C   UNL A   1      39.646  29.127  29.321  1.00  0.00     0.074 A 
ATOM     22  C   UNL A   1      38.492  29.201  28.449  1.00  0.00     0.031 C 
ATOM     23  C   UNL A   1      39.003  34.357  33.004  1.00  0.00     0.029 A 
ATOM     24  C   UNL A   1      40.042  33.338  33.082  1.00  0.00     0.049 A 
ATOM     25  H   UNL A   1      40.313  31.696  31.830  1.00  0.00     0.167 HD
ATOM     26  C   UNL A   1      40.571  28.137  29.291  1.00  0.00     0.031 A 
ATOM     27  C   UNL A   1      41.016  33.303  34.008  1.00  0.00     0.031 A 
ATOM     28  C   UNL A   1      41.708  28.068  30.173  1.00  0.00     0.049 A 
ATOM     29  C   UNL A   1      42.006  32.178  33.979  1.00  0.00     0.074 A 
ATOM     30  C   UNL A   1      42.728  27.133  30.193  1.00  0.00     0.029 A 
ATOM     31  N   UNL A   1      41.964  28.963  31.201  1.00  0.00    -0.354 N 
ATOM     32  N   UNL A   1      42.072  31.163  33.151  1.00  0.00    -0.248 NA
ATOM     33  C   UNL A   1      43.053  32.193  35.007  1.00  0.00     0.031 C 
ATOM     34  C   UNL A   1      43.568  27.427  31.272  1.00  0.00     0.029 A 
ATOM     35  C   UNL A   1      43.107  28.582  31.886  1.00  0.00     0.049 A 
ATOM     36  H   UNL A   1      41.416  29.752  31.414  1.00  0.00     0.167 HD
ATOM     37  C   UNL A   1      43.179  30.426  33.545  1.00  0.00     0.074 A 
ATOM     38  C   UNL A   1      43.761  31.120  34.677  1.00  0.00     0.031 C 
ATOM     39  C   UNL A   1      43.668  29.279  33.016  1.00  0.00     0.031 A 
BRANCH  26  40
ATOM     40  C   UNL A   1      40.362  27.025  28.300  1.00  0.00    -0.014 A 
ATOM     41  C   UNL A   1      39.612  25.882  28.620  1.00  0.00     0.009 A 
ATOM     42  C   UNL A   1      40.911  27.134  27.011  1.00  0.00     0.009 A 
ATOM     43  C   UNL A   1      39.452  24.855  27.688  1.00  0.00     0.001 A 
ATOM     44  C   UNL A   1      40.724  26.119  26.071  1.00  0.00     0.001 A 
ATOM     45  C   UNL A   1      40.006  24.975  26.413  1.00  0.00     0.000 A 
ENDBRANCH  26  40
BRANCH  27  46
ATOM     46  C   UNL A   1      41.066  34.361  35.048  1.00  0.00    -0.014 A 
ATOM     47  C   UNL A   1      41.780  35.547  34.830  1.00  0.00     0.009 A 
ATOM     48  C   UNL A   1      40.345  34.210  36.244  1.00  0.00     0.009 A 
ATOM     49  C   UNL A   1      41.780  36.557  35.795  1.00  0.00     0.001 A 
ATOM     50  C   UNL A   1      40.322  35.233  37.193  1.00  0.00     0.001 A 
ATOM     51  C   UNL A   1      41.044  36.403  36.970  1.00  0.00     0.000 A 
ENDBRANCH  27  46
BRANCH  39  52
ATOM     52  C   UNL A   1      44.912  28.714  33.640  1.00  0.00    -0.014 A 
ATOM     53  C   UNL A   1      44.844  27.761  34.666  1.00  0.00     0.009 A 
ATOM     54  C   UNL A   1      46.169  29.107  33.155  1.00  0.00     0.009 A 
ATOM     55  C   UNL A   1      46.014  27.230  35.213  1.00  0.00     0.001 A 
ATOM     56  C   UNL A   1      47.336  28.553  33.683  1.00  0.00     0.001 A 
ATOM     57  C   UNL A   1      47.257  27.620  34.716  1.00  0.00     0.000 A 
ENDBRANCH  39  52
ENDBRANCH  13  14
ENDBRANCH   6   8
ENDBRANCH   3   4
ENDBRANCH   2   3
ENDBRANCH   1   2
BRANCH   1  58
ATOM     58  C   UNL A   1      32.117  29.514  27.258  1.00  0.00     0.002 C 
BRANCH  58  59
ATOM     59  C   UNL A   1      33.586  29.084  27.168  1.00  0.00     0.021 C 
BRANCH  59  60
ATOM     60  C   UNL A   1      33.862  28.002  26.136  1.00  0.00     0.116 C 
BRANCH  60  61
ATOM     61  N   UNL A   1      34.284  28.582  24.882  1.00  0.00    -0.356 N 
ATOM     62  C   UNL A   1      33.943  28.297  23.608  1.00  0.00     0.229 C 
ATOM     63  H   UNL A   1      34.936  29.316  24.973  1.00  0.00     0.163 HD
ATOM     64  O   UNL A   1      34.476  28.976  22.724  1.00  0.00    -0.275 OA
BRANCH  62  65
ATOM     65  C   UNL A   1      32.929  27.238  23.246  1.00  0.00     0.142 C 
ATOM     66  C   UNL A   1      33.505  26.187  22.315  1.00  0.00     0.276 C 
ATOM     67  C   UNL A   1      31.613  27.655  22.612  1.00  0.00     0.065 C 
ATOM     68  N   UNL A   1      32.363  25.465  21.767  1.00  0.00    -0.331 N 
ATOM     69  C   UNL A   1      31.233  26.422  21.759  1.00  0.00     0.267 C 
ATOM     70  H   UNL A   1      32.619  25.157  20.829  1.00  0.00     0.348 HD
BRANCH  67  71
ATOM     71  C   UNL A   1      30.488  28.047  23.546  1.00  0.00    -0.001 C 
ATOM     72  C   UNL A   1      29.632  29.287  23.407  1.00  0.00     0.004 C 
ATOM     73  C   UNL A   1      29.044  27.933  23.120  1.00  0.00     0.004 C 
ENDBRANCH  67  71
BRANCH  68  74
ATOM     74  C   UNL A   1      32.026  24.151  22.350  1.00  0.00     0.187 C 
ATOM     75  C   UNL A   1      31.561  24.098  23.808  1.00  0.00     0.086 C 
ATOM     76  C   UNL A   1      33.107  23.077  22.135  1.00  0.00     0.086 C 
ATOM     77  C   UNL A   1      32.681  24.131  24.834  1.00  0.00     0.126 C 
ATOM     78  C   UNL A   1      34.224  23.042  23.173  1.00  0.00     0.126 C 
ATOM     79  N   UNL A   1      33.791  23.234  24.559  1.00  0.00    -0.338 N 
ATOM     80  C   UNL A   1      34.592  22.928  25.666  1.00  0.00     0.253 C 
ATOM     81  O   UNL A   1      34.319  23.248  26.820  1.00  0.00    -0.269 OA
BRANCH  80  82
ATOM     82  C   UNL A   1      35.824  22.151  25.464  1.00  0.00     0.040 A 
ATOM     83  C   UNL A   1      35.693  20.810  25.101  1.00  0.00     0.014 A 
ATOM     84  C   UNL A   1      37.079  22.715  25.703  1.00  0.00     0.014 A 
ATOM     85  C   UNL A   1      36.835  20.030  24.940  1.00  0.00     0.001 A 
ATOM     86  C   UNL A   1      38.219  21.930  25.538  1.00  0.00     0.001 A 
ATOM     87  C   UNL A   1      38.096  20.591  25.154  1.00  0.00     0.000 A 
ENDBRANCH  80  82
ENDBRANCH  68  74
ENDBRANCH  62  65
ENDBRANCH  60  61
ENDBRANCH  59  60
ENDBRANCH  58  59
ENDBRANCH   1  58
TORSDOF 16
ENDMDL
MODEL 2
REMARK VINA RESULT:     -11.6      0.459      5.682
REMARK SMILES O=C(NCCCCCCNC(=O)[C@@H]1C[N@@H+](C2CCN(C(=O)c3ccccc3)CC2)C[C@H]1C1CC1)c1ccc(-c2c3nc(c(-c4ccccc4)c4ccc([nH]4)c(-c4ccccc4)c4nc(c(-c5ccccc5)c5ccc2[nH]5)C=C4)C=C3)cc1
REMARK SMILES IDX 6 1 5 2 4 3 3 4 1 5 2 6 35 8 36 9 82 10 37 11 81 12 38 13
REMARK SMILES IDX 39 14 40 15 75 16 41 17 80 18 74 19 76 20 42 21 79 22 73 23
REMARK SMILES IDX 72 24 43 26 65 27 50 28 64 29 51 30 54 31 63 32 77 33 52 34
REMARK SMILES IDX 53 35 62 37 78 38 55 39 44 40 45 41 49 42 46 43 48 44 47 45
REMARK SMILES IDX 66 46 67 47 71 48 68 49 70 50 69 51 56 52 57 53 61 54 58 55
REMARK SMILES IDX 60 56 59 57 7 58 8 59 9 60 10 61 11 62 12 64 13 65 14 66
REMARK SMILES IDX 31 67 15 68 30 69 32 71 33 72 34 73 16 74 17 75 29 76 18 77
REMARK SMILES IDX 28 78 19 79 20 80 21 81 22 82 23 83 27 84 24 85 26 86 25 87
REMARK H PARENT 3 7 76 25 54 36 10 63 15 70
REMARK Flexibility Score: inf
ROOT
ATOM      1  C   UNL A   1      31.564  30.867  26.119  1.00  0.00     0.002 C 
ENDROOT
BRANCH   1   2
ATOM      2  C   UNL A   1      31.452  32.180  26.891  1.00  0.00     0.021 C 
BRANCH   2   3
ATOM      3  C   UNL A   1      32.780  32.840  27.227  1.00  0.00     0.116 C 
BRANCH   3   4
ATOM      4  N   UNL A   1      32.616  34.171  27.777  1.00  0.00    -0.352 N 
ATOM      5  O   UNL A   1      33.015  35.862  29.218  1.00  0.00    -0.269 OA
ATOM      6  C   UNL A   1      33.355  34.785  28.758  1.00  0.00     0.251 C 
ATOM      7  H   UNL A   1      31.881  34.703  27.399  1.00  0.00     0.163 HD
BRANCH   6   8
ATOM      8  C   UNL A   1      34.560  34.101  29.269  1.00  0.00     0.039 A 
ATOM      9  C   UNL A   1      34.488  33.284  30.401  1.00  0.00     0.014 A 
ATOM     10  C   UNL A   1      35.774  34.300  28.609  1.00  0.00     0.014 A 
ATOM     11  C   UNL A   1      35.652  32.751  30.940  1.00  0.00     0.010 A 
ATOM     12  C   UNL A   1      36.928  33.695  29.104  1.00  0.00     0.010 A 
ATOM     13  C   UNL A   1      36.876  32.930  30.279  1.00  0.00    -0.014 A 
BRANCH  13  14
ATOM     14  C   UNL A   1      38.084  32.230  30.772  1.00  0.00     0.031 A 
ATOM     15  C   UNL A   1      38.935  32.818  31.857  1.00  0.00     0.074 A 
ATOM     16  C   UNL A   1      38.426  31.064  30.193  1.00  0.00     0.049 A 
ATOM     17  N   UNL A   1      40.056  32.365  32.358  1.00  0.00    -0.248 NA
ATOM     18  C   UNL A   1      38.478  34.084  32.450  1.00  0.00     0.031 C 
ATOM     19  C   UNL A   1      37.677  30.406  29.117  1.00  0.00     0.029 A 
ATOM     20  N   UNL A   1      39.489  30.229  30.418  1.00  0.00    -0.354 N 
ATOM     21  C   UNL A   1      40.453  33.299  33.305  1.00  0.00     0.074 A 
ATOM     22  C   UNL A   1      39.463  34.356  33.295  1.00  0.00     0.031 C 
ATOM     23  C   UNL A   1      38.295  29.263  28.789  1.00  0.00     0.029 A 
ATOM     24  C   UNL A   1      39.513  29.142  29.580  1.00  0.00     0.049 A 
ATOM     25  H   UNL A   1      40.167  30.392  31.113  1.00  0.00     0.167 HD
ATOM     26  C   UNL A   1      41.546  33.276  34.106  1.00  0.00     0.031 A 
ATOM     27  C   UNL A   1      40.431  28.171  29.434  1.00  0.00     0.031 A 
ATOM     28  C   UNL A   1      42.531  32.225  34.097  1.00  0.00     0.049 A 
ATOM     29  C   UNL A   1      41.650  28.186  30.305  1.00  0.00     0.074 A 
ATOM     30  C   UNL A   1      43.648  32.084  34.901  1.00  0.00     0.029 A 
ATOM     31  N   UNL A   1      42.524  31.144  33.227  1.00  0.00    -0.354 N 
ATOM     32  N   UNL A   1      41.984  29.048  31.236  1.00  0.00    -0.248 NA
ATOM     33  C   UNL A   1      42.615  27.097  30.110  1.00  0.00     0.031 C 
ATOM     34  C   UNL A   1      44.350  30.950  34.477  1.00  0.00     0.029 A 
ATOM     35  C   UNL A   1      43.637  30.350  33.451  1.00  0.00     0.049 A 
ATOM     36  H   UNL A   1      41.831  30.967  32.551  1.00  0.00     0.167 HD
ATOM     37  C   UNL A   1      43.190  28.598  31.751  1.00  0.00     0.074 A 
ATOM     38  C   UNL A   1      43.520  27.378  31.040  1.00  0.00     0.031 C 
ATOM     39  C   UNL A   1      43.954  29.144  32.727  1.00  0.00     0.031 A 
BRANCH  26  40
ATOM     40  C   UNL A   1      41.753  34.447  35.028  1.00  0.00    -0.014 A 
ATOM     41  C   UNL A   1      41.248  34.452  36.338  1.00  0.00     0.009 A 
ATOM     42  C   UNL A   1      42.488  35.558  34.581  1.00  0.00     0.009 A 
ATOM     43  C   UNL A   1      41.437  35.561  37.165  1.00  0.00     0.001 A 
ATOM     44  C   UNL A   1      42.700  36.654  35.421  1.00  0.00     0.001 A 
ATOM     45  C   UNL A   1      42.164  36.660  36.707  1.00  0.00     0.000 A 
ENDBRANCH  26  40
BRANCH  27  46
ATOM     46  C   UNL A   1      40.225  27.130  28.395  1.00  0.00    -0.014 A 
ATOM     47  C   UNL A   1      40.812  27.256  27.129  1.00  0.00     0.009 A 
ATOM     48  C   UNL A   1      39.486  25.973  28.692  1.00  0.00     0.009 A 
ATOM     49  C   UNL A   1      40.653  26.247  26.176  1.00  0.00     0.001 A 
ATOM     50  C   UNL A   1      39.354  24.954  27.748  1.00  0.00     0.001 A 
ATOM     51  C   UNL A   1      39.933  25.094  26.489  1.00  0.00     0.000 A 
ENDBRANCH  27  46
BRANCH  39  52
ATOM     52  C   UNL A   1      45.212  28.414  33.102  1.00  0.00    -0.014 A 
ATOM     53  C   UNL A   1      46.439  28.717  32.493  1.00  0.00     0.009 A 
ATOM     54  C   UNL A   1      45.173  27.444  34.115  1.00  0.00     0.009 A 
ATOM     55  C   UNL A   1      47.600  28.043  32.877  1.00  0.00     0.001 A 
ATOM     56  C   UNL A   1      46.340  26.793  34.516  1.00  0.00     0.001 A 
ATOM     57  C   UNL A   1      47.551  27.088  33.892  1.00  0.00     0.000 A 
ENDBRANCH  39  52
ENDBRANCH  13  14
ENDBRANCH   6   8
ENDBRANCH   3   4
ENDBRANCH   2   3
ENDBRANCH   1   2
BRANCH   1  58
ATOM     58  C   UNL A   1      31.849  29.626  26.971  1.00  0.00     0.002 C 
BRANCH  58  59
ATOM     59  C   UNL A   1      33.329  29.264  27.143  1.00  0.00     0.021 C 
BRANCH  59  60
ATOM     60  C   UNL A   1      33.818  28.164  26.216  1.00  0.00     0.116 C 
BRANCH  60  61
ATOM     61  N   UNL A   1      34.262  28.711  24.955  1.00  0.00    -0.356 N 
ATOM     62  C   UNL A   1      33.941  28.396  23.683  1.00  0.00     0.229 C 
ATOM     63  H   UNL A   1      34.916  29.444  25.039  1.00  0.00     0.163 HD
ATOM     64  O   UNL A   1      34.491  29.051  22.792  1.00  0.00    -0.275 OA
BRANCH  62  65
ATOM     65  C   UNL A   1      32.929  27.332  23.330  1.00  0.00     0.142 C 
ATOM     66  C   UNL A   1      33.524  26.241  22.459  1.00  0.00     0.276 C 
ATOM     67  C   UNL A   1      31.638  27.734  22.639  1.00  0.00     0.065 C 
ATOM     68  N   UNL A   1      32.393  25.508  21.905  1.00  0.00    -0.331 N 
ATOM     69  C   UNL A   1      31.272  26.472  21.823  1.00  0.00     0.267 C 
ATOM     70  H   UNL A   1      32.675  25.161  20.987  1.00  0.00     0.348 HD
BRANCH  67  71
ATOM     71  C   UNL A   1      30.487  28.172  23.522  1.00  0.00    -0.001 C 
ATOM     72  C   UNL A   1      29.748  29.487  23.402  1.00  0.00     0.004 C 
ATOM     73  C   UNL A   1      29.071  28.205  22.999  1.00  0.00     0.004 C 
ENDBRANCH  67  71
BRANCH  68  74
ATOM     74  C   UNL A   1      32.026  24.220  22.527  1.00  0.00     0.187 C 
ATOM     75  C   UNL A   1      31.634  24.211  24.007  1.00  0.00     0.086 C 
ATOM     76  C   UNL A   1      33.043  23.092  22.277  1.00  0.00     0.086 C 
ATOM     77  C   UNL A   1      32.805  24.207  24.975  1.00  0.00     0.126 C 
ATOM     78  C   UNL A   1      34.210  23.021  23.258  1.00  0.00     0.126 C 
ATOM     79  N   UNL A   1      33.857  23.255  24.660  1.00  0.00    -0.338 N 
ATOM     80  C   UNL A   1      34.699  22.928  25.730  1.00  0.00     0.253 C 
ATOM     81  O   UNL A   1      34.501  23.279  26.891  1.00  0.00    -0.269 OA
BRANCH  80  82
ATOM     82  C   UNL A   1      35.881  22.091  25.480  1.00  0.00     0.040 A 
ATOM     83  C   UNL A   1      35.670  20.750  25.158  1.00  0.00     0.014 A 
ATOM     84  C   UNL A   1      37.171  22.602  25.636  1.00  0.00     0.014 A 
ATOM     85  C   UNL A   1      36.765  19.915  24.954  1.00  0.00     0.001 A 
ATOM     86  C   UNL A   1      38.265  21.761  25.428  1.00  0.00     0.001 A 
ATOM     87  C   UNL A   1      38.060  20.422  25.084  1.00  0.00     0.000 A 
ENDBRANCH  80  82
ENDBRANCH  68  74
ENDBRANCH  62  65
ENDBRANCH  60  61
ENDBRANCH  59  60
ENDBRANCH  58  59
ENDBRANCH   1  58
TORSDOF 16
ENDMDL
MODEL 3
REMARK VINA RESULT:     -11.1      2.075      2.910
REMARK SMILES O=C(NCCCCCCNC(=O)[C@@H]1C[N@@H+](C2CCN(C(=O)c3ccccc3)CC2)C[C@H]1C1CC1)c1ccc(-c2c3nc(c(-c4ccccc4)c4ccc([nH]4)c(-c4ccccc4)c4nc(c(-c5ccccc5)c5ccc2[nH]5)C=C4)C=C3)cc1
REMARK SMILES IDX 6 1 5 2 4 3 3 4 1 5 2 6 35 8 36 9 82 10 37 11 81 12 38 13
REMARK SMILES IDX 39 14 40 15 75 16 41 17 80 18 74 19 76 20 42 21 79 22 73 23
REMARK SMILES IDX 72 24 43 26 65 27 50 28 64 29 51 30 54 31 63 32 77 33 52 34
REMARK SMILES IDX 53 35 62 37 78 38 55 39 44 40 45 41 49 42 46 43 48 44 47 45
REMARK SMILES IDX 66 46 67 47 71 48 68 49 70 50 69 51 56 52 57 53 61 54 58 55
REMARK SMILES IDX 60 56 59 57 7 58 8 59 9 60 10 61 11 62 12 64 13 65 14 66
REMARK SMILES IDX 31 67 15 68 30 69 32 71 33 72 34 73 16 74 17 75 29 76 18 77
REMARK SMILES IDX 28 78 19 79 20 80 21 81 22 82 23 83 27 84 24 85 26 86 25 87
REMARK H PARENT 3 7 76 25 54 36 10 63 15 70
REMARK Flexibility Score: inf
ROOT
ATOM      1  C   UNL A   1      30.887  31.758  25.487  1.00  0.00     0.002 C 
ENDROOT
BRANCH   1   2
ATOM      2  C   UNL A   1      31.438  31.928  26.901  1.00  0.00     0.021 C 
BRANCH   2   3
ATOM      3  C   UNL A   1      32.676  32.805  27.003  1.00  0.00     0.116 C 
BRANCH   3   4
ATOM      4  N   UNL A   1      32.383  34.121  27.538  1.00  0.00    -0.352 N 
ATOM      5  O   UNL A   1      32.573  35.837  28.990  1.00  0.00    -0.269 OA
ATOM      6  C   UNL A   1      33.018  34.789  28.555  1.00  0.00     0.251 C 
ATOM      7  H   UNL A   1      31.632  34.597  27.117  1.00  0.00     0.163 HD
BRANCH   6   8
ATOM      8  C   UNL A   1      34.240  34.197  29.135  1.00  0.00     0.039 A 
ATOM      9  C   UNL A   1      35.501  34.533  28.632  1.00  0.00     0.014 A 
ATOM     10  C   UNL A   1      34.111  33.287  30.186  1.00  0.00     0.014 A 
ATOM     11  C   UNL A   1      36.628  33.873  29.105  1.00  0.00     0.010 A 
ATOM     12  C   UNL A   1      35.252  32.688  30.716  1.00  0.00     0.010 A 
ATOM     13  C   UNL A   1      36.515  32.967  30.170  1.00  0.00    -0.014 A 
BRANCH  13  14
ATOM     14  C   UNL A   1      37.737  32.387  30.772  1.00  0.00     0.031 A 
ATOM     15  C   UNL A   1      38.418  31.202  30.158  1.00  0.00     0.074 A 
ATOM     16  C   UNL A   1      38.204  32.928  31.912  1.00  0.00     0.049 A 
ATOM     17  N   UNL A   1      39.458  30.536  30.593  1.00  0.00    -0.248 NA
ATOM     18  C   UNL A   1      37.856  30.687  28.901  1.00  0.00     0.031 C 
ATOM     19  C   UNL A   1      37.610  34.076  32.605  1.00  0.00     0.029 A 
ATOM     20  N   UNL A   1      39.275  32.585  32.695  1.00  0.00    -0.354 N 
ATOM     21  C   UNL A   1      39.660  29.510  29.680  1.00  0.00     0.074 A 
ATOM     22  C   UNL A   1      38.623  29.628  28.677  1.00  0.00     0.031 C 
ATOM     23  C   UNL A   1      38.334  34.351  33.698  1.00  0.00     0.029 A 
ATOM     24  C   UNL A   1      39.398  33.362  33.819  1.00  0.00     0.049 A 
ATOM     25  H   UNL A   1      39.895  31.853  32.472  1.00  0.00     0.167 HD
ATOM     26  C   UNL A   1      40.623  28.556  29.683  1.00  0.00     0.031 A 
ATOM     27  C   UNL A   1      40.249  33.271  34.856  1.00  0.00     0.031 A 
ATOM     28  C   UNL A   1      41.642  28.441  30.694  1.00  0.00     0.049 A 
ATOM     29  C   UNL A   1      41.282  32.186  34.856  1.00  0.00     0.074 A 
ATOM     30  C   UNL A   1      42.691  27.541  30.763  1.00  0.00     0.029 A 
ATOM     31  N   UNL A   1      41.728  29.244  31.822  1.00  0.00    -0.354 N 
ATOM     32  N   UNL A   1      41.495  31.255  33.956  1.00  0.00    -0.248 NA
ATOM     33  C   UNL A   1      42.190  32.138  36.007  1.00  0.00     0.031 C 
ATOM     34  C   UNL A   1      43.375  27.760  31.964  1.00  0.00     0.029 A 
ATOM     35  C   UNL A   1      42.792  28.838  32.612  1.00  0.00     0.049 A 
ATOM     36  H   UNL A   1      41.124  29.993  32.031  1.00  0.00     0.167 HD
ATOM     37  C   UNL A   1      42.574  30.520  34.424  1.00  0.00     0.074 A 
ATOM     38  C   UNL A   1      42.980  31.124  35.678  1.00  0.00     0.031 C 
ATOM     39  C   UNL A   1      43.176  29.443  33.863  1.00  0.00     0.031 A 
BRANCH  26  40
ATOM     40  C   UNL A   1      40.589  27.535  28.578  1.00  0.00    -0.014 A 
ATOM     41  C   UNL A   1      39.875  26.333  28.708  1.00  0.00     0.009 A 
ATOM     42  C   UNL A   1      41.267  27.794  27.376  1.00  0.00     0.009 A 
ATOM     43  C   UNL A   1      39.879  25.393  27.674  1.00  0.00     0.001 A 
ATOM     44  C   UNL A   1      41.244  26.866  26.333  1.00  0.00     0.001 A 
ATOM     45  C   UNL A   1      40.560  25.661  26.488  1.00  0.00     0.000 A 
ENDBRANCH  26  40
BRANCH  27  46
ATOM     46  C   UNL A   1      40.122  34.229  35.984  1.00  0.00    -0.014 A 
ATOM     47  C   UNL A   1      40.765  35.473  35.943  1.00  0.00     0.009 A 
ATOM     48  C   UNL A   1      39.303  33.922  37.082  1.00  0.00     0.009 A 
ATOM     49  C   UNL A   1      40.600  36.387  36.986  1.00  0.00     0.001 A 
ATOM     50  C   UNL A   1      39.115  34.848  38.108  1.00  0.00     0.001 A 
ATOM     51  C   UNL A   1      39.768  36.077  38.062  1.00  0.00     0.000 A 
ENDBRANCH  27  46
BRANCH  39  52
ATOM     52  C   UNL A   1      44.355  28.862  34.589  1.00  0.00    -0.014 A 
ATOM     53  C   UNL A   1      45.653  29.348  34.376  1.00  0.00     0.009 A 
ATOM     54  C   UNL A   1      44.152  27.847  35.537  1.00  0.00     0.009 A 
ATOM     55  C   UNL A   1      46.731  28.810  35.083  1.00  0.00     0.001 A 
ATOM     56  C   UNL A   1      45.227  27.332  36.262  1.00  0.00     0.001 A 
ATOM     57  C   UNL A   1      46.516  27.809  36.029  1.00  0.00     0.000 A 
ENDBRANCH  39  52
ENDBRANCH  13  14
ENDBRANCH   6   8
ENDBRANCH   3   4
ENDBRANCH   2   3
ENDBRANCH   1   2
BRANCH   1  58
ATOM     58  C   UNL A   1      30.680  30.311  25.032  1.00  0.00     0.002 C 
BRANCH  58  59
ATOM     59  C   UNL A   1      30.234  30.130  23.576  1.00  0.00     0.021 C 
BRANCH  59  60
ATOM     60  C   UNL A   1      30.469  28.737  23.015  1.00  0.00     0.116 C 
BRANCH  60  61
ATOM     61  N   UNL A   1      29.401  27.842  23.394  1.00  0.00    -0.356 N 
ATOM     62  C   UNL A   1      29.422  26.618  23.964  1.00  0.00     0.229 C 
ATOM     63  H   UNL A   1      28.497  28.184  23.201  1.00  0.00     0.163 HD
ATOM     64  O   UNL A   1      28.328  26.084  24.175  1.00  0.00    -0.275 OA
BRANCH  62  65
ATOM     65  C   UNL A   1      30.698  25.928  24.380  1.00  0.00     0.142 C 
ATOM     66  C   UNL A   1      30.568  24.416  24.349  1.00  0.00     0.276 C 
ATOM     67  C   UNL A   1      31.311  26.248  25.732  1.00  0.00     0.065 C 
ATOM     68  N   UNL A   1      31.703  23.898  25.102  1.00  0.00    -0.331 N 
ATOM     69  C   UNL A   1      32.050  24.939  26.097  1.00  0.00     0.267 C 
ATOM     70  H   UNL A   1      31.406  23.026  25.540  1.00  0.00     0.348 HD
BRANCH  67  71
ATOM     71  C   UNL A   1      32.238  27.443  25.806  1.00  0.00    -0.001 C 
ATOM     72  C   UNL A   1      32.690  28.117  27.084  1.00  0.00     0.004 C 
ATOM     73  C   UNL A   1      33.663  27.297  26.281  1.00  0.00     0.004 C 
ENDBRANCH  67  71
BRANCH  68  74
ATOM     74  C   UNL A   1      32.864  23.387  24.348  1.00  0.00     0.187 C 
ATOM     75  C   UNL A   1      32.661  22.974  22.887  1.00  0.00     0.086 C 
ATOM     76  C   UNL A   1      33.639  22.272  25.074  1.00  0.00     0.086 C 
ATOM     77  C   UNL A   1      32.075  21.586  22.694  1.00  0.00     0.126 C 
ATOM     78  C   UNL A   1      33.115  20.855  24.865  1.00  0.00     0.126 C 
ATOM     79  N   UNL A   1      32.692  20.543  23.498  1.00  0.00    -0.338 N 
ATOM     80  C   UNL A   1      32.485  19.239  23.034  1.00  0.00     0.253 C 
ATOM     81  O   UNL A   1      31.961  18.968  21.956  1.00  0.00    -0.269 OA
BRANCH  80  82
ATOM     82  C   UNL A   1      32.940  18.107  23.855  1.00  0.00     0.040 A 
ATOM     83  C   UNL A   1      33.983  17.324  23.360  1.00  0.00     0.014 A 
ATOM     84  C   UNL A   1      32.298  17.782  25.052  1.00  0.00     0.014 A 
ATOM     85  C   UNL A   1      34.415  16.220  24.089  1.00  0.00     0.001 A 
ATOM     86  C   UNL A   1      32.737  16.676  25.779  1.00  0.00     0.001 A 
ATOM     87  C   UNL A   1      33.796  15.899  25.299  1.00  0.00     0.000 A 
ENDBRANCH  80  82
ENDBRANCH  68  74
ENDBRANCH  62  65
ENDBRANCH  60  61
ENDBRANCH  59  60
ENDBRANCH  58  59
ENDBRANCH   1  58
TORSDOF 16
ENDMDL
