MODEL 1
REMARK VINA RESULT:     -12.8      0.000      0.000
REMARK SMILES Cc1c(NC(=O)[C@@H]2CC=CC[C@@H]2C(=O)NCCCCCCNC(=O)c2ccc(-c3c4nc(c(-c5ccccc5)c5ccc([nH]5)c(-c5ccccc5)c5nc(c(-c6ccccc6)c6ccc3[nH]6)C=C5)C=C4)cc2)cccc1C(=O)N1CCOCC1
REMARK SMILES IDX 18 1 17 2 16 3 15 4 13 5 14 6 12 8 7 9 8 10 9 11 11 12 10 13
REMARK SMILES IDX 5 14 4 15 6 17 3 18 1 19 2 20 76 21 73 22 75 23 74 24 77 25
REMARK SMILES IDX 78 26 79 27 80 28 84 29 81 30 83 31 82 32 19 33 20 34 21 35
REMARK SMILES IDX 22 36 23 37 24 39 25 40 26 41 72 42 27 43 71 44 28 45 29 46
REMARK SMILES IDX 30 47 65 48 31 49 70 50 64 51 66 52 32 53 69 54 63 55 62 56
REMARK SMILES IDX 33 58 55 59 40 60 54 61 41 62 44 63 53 64 67 65 42 66 43 67
REMARK SMILES IDX 52 69 68 70 45 71 34 72 35 73 39 74 36 75 38 76 37 77 56 78
REMARK SMILES IDX 57 79 61 80 58 81 60 82 59 83 46 84 47 85 51 86 48 87 50 88
REMARK SMILES IDX 49 89
REMARK H PARENT 15 7 4 16 22 38 66 57 44 68
REMARK Flexibility Score: inf
ROOT
ATOM      1  C   UNL A   1      32.738  27.256  27.018  1.00  0.00     0.002 C 
ENDROOT
BRANCH   1   2
ATOM      2  C   UNL A   1      31.282  27.074  26.577  1.00  0.00     0.021 C 
BRANCH   2   3
ATOM      3  C   UNL A   1      30.804  25.624  26.483  1.00  0.00     0.116 C 
BRANCH   3   4
ATOM      4  N   UNL A   1      31.854  24.682  26.805  1.00  0.00    -0.356 N 
ATOM      5  C   UNL A   1      32.950  24.186  26.190  1.00  0.00     0.224 C 
ATOM      6  O   UNL A   1      33.625  23.448  26.928  1.00  0.00    -0.275 OA
ATOM      7  H   UNL A   1      31.740  24.304  27.707  1.00  0.00     0.163 HD
BRANCH   5   8
ATOM      8  C   UNL A   1      33.478  24.483  24.767  1.00  0.00     0.095 C 
ATOM      9  C   UNL A   1      33.152  23.591  23.545  1.00  0.00     0.095 C 
ATOM     10  C   UNL A   1      33.660  22.161  23.796  1.00  0.00     0.041 C 
ATOM     11  C   UNL A   1      35.099  22.162  24.238  1.00  0.00    -0.030 C 
ATOM     12  C   UNL A   1      35.028  24.592  24.845  1.00  0.00     0.041 C 
ATOM     13  C   UNL A   1      35.721  23.264  24.685  1.00  0.00    -0.030 C 
BRANCH   9  14
ATOM     14  C   UNL A   1      31.715  23.810  23.088  1.00  0.00     0.228 C 
ATOM     15  N   UNL A   1      31.228  24.970  22.588  1.00  0.00    -0.326 N 
ATOM     16  H   UNL A   1      30.361  24.837  22.143  1.00  0.00     0.169 HD
ATOM     17  O   UNL A   1      30.895  22.883  23.121  1.00  0.00    -0.274 OA
BRANCH  15  18
ATOM     18  C   UNL A   1      31.635  26.314  22.535  1.00  0.00     0.044 A 
ATOM     19  C   UNL A   1      29.391  26.863  23.553  1.00  0.00     0.047 C 
ATOM     20  C   UNL A   1      30.785  27.278  23.150  1.00  0.00    -0.015 A 
ATOM     21  C   UNL A   1      31.235  28.609  23.293  1.00  0.00     0.045 A 
ATOM     22  C   UNL A   1      32.850  26.715  21.981  1.00  0.00     0.026 A 
ATOM     23  C   UNL A   1      32.454  28.985  22.703  1.00  0.00     0.014 A 
ATOM     24  C   UNL A   1      33.243  28.051  22.035  1.00  0.00     0.003 A 
BRANCH  21  25
ATOM     25  C   UNL A   1      30.414  29.731  23.843  1.00  0.00     0.254 C 
ATOM     26  O   UNL A   1      30.710  30.127  24.972  1.00  0.00    -0.269 OA
ATOM     27  N   UNL A   1      29.411  30.344  23.100  1.00  0.00    -0.334 N 
ATOM     28  C   UNL A   1      28.567  29.734  22.066  1.00  0.00     0.148 C 
ATOM     29  C   UNL A   1      28.946  31.662  23.537  1.00  0.00     0.148 C 
ATOM     30  C   UNL A   1      28.262  30.727  20.925  1.00  0.00     0.181 C 
ATOM     31  C   UNL A   1      28.756  32.571  22.323  1.00  0.00     0.181 C 
ATOM     32  O   UNL A   1      27.803  31.997  21.416  1.00  0.00    -0.378 OA
ENDBRANCH  21  25
ENDBRANCH  15  18
ENDBRANCH   9  14
ENDBRANCH   5   8
ENDBRANCH   3   4
ENDBRANCH   2   3
ENDBRANCH   1   2
BRANCH   1  33
ATOM     33  C   UNL A   1      33.692  27.884  25.989  1.00  0.00     0.002 C 
BRANCH  33  34
ATOM     34  C   UNL A   1      33.871  29.402  26.066  1.00  0.00     0.021 C 
BRANCH  34  35
ATOM     35  C   UNL A   1      33.462  30.008  27.398  1.00  0.00     0.116 C 
BRANCH  35  36
ATOM     36  N   UNL A   1      34.164  31.234  27.742  1.00  0.00    -0.352 N 
ATOM     37  C   UNL A   1      35.431  31.430  28.271  1.00  0.00     0.251 C 
ATOM     38  H   UNL A   1      33.656  32.060  27.571  1.00  0.00     0.163 HD
ATOM     39  O   UNL A   1      35.790  32.551  28.569  1.00  0.00    -0.269 OA
BRANCH  37  40
ATOM     40  C   UNL A   1      36.398  30.300  28.344  1.00  0.00     0.039 A 
ATOM     41  C   UNL A   1      36.453  29.558  29.537  1.00  0.00     0.014 A 
ATOM     42  C   UNL A   1      37.350  30.081  27.358  1.00  0.00     0.014 A 
ATOM     43  C   UNL A   1      37.585  28.799  29.830  1.00  0.00     0.010 A 
ATOM     44  C   UNL A   1      38.518  29.435  27.690  1.00  0.00     0.010 A 
ATOM     45  C   UNL A   1      38.655  28.836  28.946  1.00  0.00    -0.014 A 
BRANCH  45  46
ATOM     46  C   UNL A   1      39.992  28.338  29.223  1.00  0.00     0.031 A 
ATOM     47  C   UNL A   1      40.425  27.044  28.665  1.00  0.00     0.074 A 
ATOM     48  C   UNL A   1      40.897  29.174  29.776  1.00  0.00     0.049 A 
ATOM     49  N   UNL A   1      41.516  26.447  28.999  1.00  0.00    -0.248 NA
ATOM     50  C   UNL A   1      39.624  26.283  27.711  1.00  0.00     0.031 C 
ATOM     51  C   UNL A   1      42.352  29.093  29.693  1.00  0.00     0.029 A 
ATOM     52  N   UNL A   1      40.661  30.177  30.712  1.00  0.00    -0.354 N 
ATOM     53  C   UNL A   1      41.715  25.421  28.108  1.00  0.00     0.074 A 
ATOM     54  C   UNL A   1      40.464  25.291  27.401  1.00  0.00     0.031 C 
ATOM     55  C   UNL A   1      42.887  29.832  30.678  1.00  0.00     0.029 A 
ATOM     56  C   UNL A   1      41.796  30.244  31.544  1.00  0.00     0.049 A 
ATOM     57  H   UNL A   1      39.853  30.735  30.780  1.00  0.00     0.167 HD
ATOM     58  C   UNL A   1      42.962  24.888  27.989  1.00  0.00     0.031 A 
ATOM     59  C   UNL A   1      41.704  29.927  32.872  1.00  0.00     0.031 A 
ATOM     60  C   UNL A   1      43.892  25.450  28.970  1.00  0.00     0.049 A 
ATOM     61  C   UNL A   1      42.545  28.740  33.308  1.00  0.00     0.074 A 
ATOM     62  C   UNL A   1      44.943  26.351  28.913  1.00  0.00     0.029 A 
ATOM     63  N   UNL A   1      43.612  25.276  30.314  1.00  0.00    -0.354 N 
ATOM     64  N   UNL A   1      43.208  27.968  32.491  1.00  0.00    -0.248 NA
ATOM     65  C   UNL A   1      42.618  28.265  34.691  1.00  0.00     0.031 C 
ATOM     66  C   UNL A   1      45.309  26.688  30.248  1.00  0.00     0.029 A 
ATOM     67  C   UNL A   1      44.490  25.981  31.107  1.00  0.00     0.049 A 
ATOM     68  H   UNL A   1      42.877  24.718  30.660  1.00  0.00     0.167 HD
ATOM     69  C   UNL A   1      43.715  26.898  33.179  1.00  0.00     0.074 A 
ATOM     70  C   UNL A   1      43.331  27.133  34.558  1.00  0.00     0.031 C 
ATOM     71  C   UNL A   1      44.358  25.873  32.549  1.00  0.00     0.031 A 
BRANCH  58  72
ATOM     72  C   UNL A   1      43.420  23.994  26.862  1.00  0.00    -0.014 A 
ATOM     73  C   UNL A   1      44.045  24.571  25.741  1.00  0.00     0.009 A 
ATOM     74  C   UNL A   1      43.238  22.603  26.808  1.00  0.00     0.009 A 
ATOM     75  C   UNL A   1      44.396  23.820  24.611  1.00  0.00     0.001 A 
ATOM     76  C   UNL A   1      43.570  21.845  25.676  1.00  0.00     0.001 A 
ATOM     77  C   UNL A   1      44.140  22.457  24.571  1.00  0.00     0.000 A 
ENDBRANCH  58  72
BRANCH  59  78
ATOM     78  C   UNL A   1      40.369  30.259  33.447  1.00  0.00    -0.014 A 
ATOM     79  C   UNL A   1      40.130  31.584  33.863  1.00  0.00     0.009 A 
ATOM     80  C   UNL A   1      39.271  29.422  33.200  1.00  0.00     0.009 A 
ATOM     81  C   UNL A   1      38.829  32.092  33.904  1.00  0.00     0.001 A 
ATOM     82  C   UNL A   1      37.969  29.933  33.256  1.00  0.00     0.001 A 
ATOM     83  C   UNL A   1      37.752  31.275  33.568  1.00  0.00     0.000 A 
ENDBRANCH  59  78
BRANCH  71  84
ATOM     84  C   UNL A   1      44.880  24.637  33.228  1.00  0.00    -0.014 A 
ATOM     85  C   UNL A   1      44.078  23.528  33.522  1.00  0.00     0.009 A 
ATOM     86  C   UNL A   1      46.207  24.613  33.714  1.00  0.00     0.009 A 
ATOM     87  C   UNL A   1      44.595  22.430  34.224  1.00  0.00     0.001 A 
ATOM     88  C   UNL A   1      46.719  23.531  34.432  1.00  0.00     0.001 A 
ATOM     89  C   UNL A   1      45.912  22.432  34.680  1.00  0.00     0.000 A 
ENDBRANCH  71  84
ENDBRANCH  45  46
ENDBRANCH  37  40
ENDBRANCH  35  36
ENDBRANCH  34  35
ENDBRANCH  33  34
ENDBRANCH   1  33
TORSDOF 16
ENDMDL
MODEL 2
REMARK VINA RESULT:     -12.1      3.450      9.073
REMARK SMILES Cc1c(NC(=O)[C@@H]2CC=CC[C@@H]2C(=O)NCCCCCCNC(=O)c2ccc(-c3c4nc(c(-c5ccccc5)c5ccc([nH]5)c(-c5ccccc5)c5nc(c(-c6ccccc6)c6ccc3[nH]6)C=C5)C=C4)cc2)cccc1C(=O)N1CCOCC1
REMARK SMILES IDX 18 1 17 2 16 3 15 4 13 5 14 6 12 8 7 9 8 10 9 11 11 12 10 13
REMARK SMILES IDX 5 14 4 15 6 17 3 18 1 19 2 20 76 21 73 22 75 23 74 24 77 25
REMARK SMILES IDX 78 26 79 27 80 28 84 29 81 30 83 31 82 32 19 33 20 34 21 35
REMARK SMILES IDX 22 36 23 37 24 39 25 40 26 41 72 42 27 43 71 44 28 45 29 46
REMARK SMILES IDX 30 47 65 48 31 49 70 50 64 51 66 52 32 53 69 54 63 55 62 56
REMARK SMILES IDX 33 58 55 59 40 60 54 61 41 62 44 63 53 64 67 65 42 66 43 67
REMARK SMILES IDX 52 69 68 70 45 71 34 72 35 73 39 74 36 75 38 76 37 77 56 78
REMARK SMILES IDX 57 79 61 80 58 81 60 82 59 83 46 84 47 85 51 86 48 87 50 88
REMARK SMILES IDX 49 89
REMARK H PARENT 15 7 4 16 22 38 66 57 44 68
REMARK Flexibility Score: inf
ROOT
ATOM      1  C   UNL A   1      37.524  23.582  25.211  1.00  0.00     0.002 C 
ENDROOT
BRANCH   1   2
ATOM      2  C   UNL A   1      36.004  23.768  25.226  1.00  0.00     0.021 C 
BRANCH   2   3
ATOM      3  C   UNL A   1      35.323  23.692  23.858  1.00  0.00     0.116 C 
BRANCH   3   4
ATOM      4  N   UNL A   1      34.760  24.963  23.457  1.00  0.00    -0.356 N 
ATOM      5  C   UNL A   1      33.817  25.810  23.925  1.00  0.00     0.224 C 
ATOM      6  O   UNL A   1      33.748  26.865  23.272  1.00  0.00    -0.275 OA
ATOM      7  H   UNL A   1      35.171  25.299  22.629  1.00  0.00     0.163 HD
BRANCH   5   8
ATOM      8  C   UNL A   1      32.912  25.659  25.171  1.00  0.00     0.095 C 
ATOM      9  C   UNL A   1      31.386  25.912  25.139  1.00  0.00     0.095 C 
ATOM     10  C   UNL A   1      31.110  27.361  24.703  1.00  0.00     0.041 C 
ATOM     11  C   UNL A   1      31.918  28.339  25.514  1.00  0.00    -0.030 C 
ATOM     12  C   UNL A   1      33.496  26.558  26.298  1.00  0.00     0.041 C 
ATOM     13  C   UNL A   1      32.976  27.971  26.253  1.00  0.00    -0.030 C 
BRANCH   9  14
ATOM     14  C   UNL A   1      30.665  24.766  24.441  1.00  0.00     0.228 C 
ATOM     15  N   UNL A   1      30.799  23.457  24.758  1.00  0.00    -0.326 N 
ATOM     16  H   UNL A   1      30.085  22.912  24.354  1.00  0.00     0.169 HD
ATOM     17  O   UNL A   1      29.857  24.992  23.529  1.00  0.00    -0.274 OA
BRANCH  15  18
ATOM     18  C   UNL A   1      31.686  22.671  25.512  1.00  0.00     0.044 A 
ATOM     19  C   UNL A   1      32.145  21.422  23.367  1.00  0.00     0.047 C 
ATOM     20  C   UNL A   1      32.488  21.730  24.804  1.00  0.00    -0.015 A 
ATOM     21  C   UNL A   1      33.525  21.053  25.483  1.00  0.00     0.045 A 
ATOM     22  C   UNL A   1      31.857  22.831  26.887  1.00  0.00     0.026 A 
ATOM     23  C   UNL A   1      33.655  21.221  26.872  1.00  0.00     0.014 A 
ATOM     24  C   UNL A   1      32.815  22.085  27.571  1.00  0.00     0.003 A 
BRANCH  21  25
ATOM     25  C   UNL A   1      34.383  19.987  24.881  1.00  0.00     0.254 C 
ATOM     26  O   UNL A   1      35.537  20.307  24.591  1.00  0.00    -0.269 OA
ATOM     27  N   UNL A   1      33.930  18.683  24.715  1.00  0.00    -0.334 N 
ATOM     28  C   UNL A   1      32.552  18.241  24.466  1.00  0.00     0.148 C 
ATOM     29  C   UNL A   1      34.930  17.634  24.509  1.00  0.00     0.148 C 
ATOM     30  C   UNL A   1      32.248  16.906  25.174  1.00  0.00     0.181 C 
ATOM     31  C   UNL A   1      34.553  16.395  25.323  1.00  0.00     0.181 C 
ATOM     32  O   UNL A   1      33.260  15.915  24.929  1.00  0.00    -0.378 OA
ENDBRANCH  21  25
ENDBRANCH  15  18
ENDBRANCH   9  14
ENDBRANCH   5   8
ENDBRANCH   3   4
ENDBRANCH   2   3
ENDBRANCH   1   2
BRANCH   1  33
ATOM     33  C   UNL A   1      38.056  22.245  25.750  1.00  0.00     0.002 C 
BRANCH  33  34
ATOM     34  C   UNL A   1      39.550  22.188  26.077  1.00  0.00     0.021 C 
BRANCH  34  35
ATOM     35  C   UNL A   1      39.977  20.927  26.811  1.00  0.00     0.116 C 
BRANCH  35  36
ATOM     36  N   UNL A   1      41.015  20.163  26.138  1.00  0.00    -0.352 N 
ATOM     37  C   UNL A   1      42.343  20.474  25.883  1.00  0.00     0.251 C 
ATOM     38  H   UNL A   1      40.728  19.280  25.810  1.00  0.00     0.163 HD
ATOM     39  O   UNL A   1      43.019  19.716  25.217  1.00  0.00    -0.269 OA
BRANCH  37  40
ATOM     40  C   UNL A   1      42.977  21.654  26.535  1.00  0.00     0.039 A 
ATOM     41  C   UNL A   1      42.909  21.745  27.936  1.00  0.00     0.014 A 
ATOM     42  C   UNL A   1      43.457  22.729  25.801  1.00  0.00     0.014 A 
ATOM     43  C   UNL A   1      43.083  22.980  28.560  1.00  0.00     0.010 A 
ATOM     44  C   UNL A   1      43.510  23.970  26.393  1.00  0.00     0.010 A 
ATOM     45  C   UNL A   1      43.275  24.103  27.765  1.00  0.00    -0.014 A 
BRANCH  45  46
ATOM     46  C   UNL A   1      43.198  25.480  28.223  1.00  0.00     0.031 A 
ATOM     47  C   UNL A   1      41.963  26.258  28.013  1.00  0.00     0.074 A 
ATOM     48  C   UNL A   1      44.160  25.947  29.049  1.00  0.00     0.049 A 
ATOM     49  N   UNL A   1      41.868  27.524  28.223  1.00  0.00    -0.248 NA
ATOM     50  C   UNL A   1      40.735  25.669  27.488  1.00  0.00     0.031 C 
ATOM     51  C   UNL A   1      44.060  27.050  29.999  1.00  0.00     0.029 A 
ATOM     52  N   UNL A   1      45.513  25.622  29.040  1.00  0.00    -0.354 N 
ATOM     53  C   UNL A   1      40.535  27.852  28.173  1.00  0.00     0.074 A 
ATOM     54  C   UNL A   1      39.886  26.694  27.606  1.00  0.00     0.031 C 
ATOM     55  C   UNL A   1      45.296  27.463  30.320  1.00  0.00     0.029 A 
ATOM     56  C   UNL A   1      46.220  26.775  29.434  1.00  0.00     0.049 A 
ATOM     57  H   UNL A   1      45.903  24.749  28.803  1.00  0.00     0.167 HD
ATOM     58  C   UNL A   1      40.124  29.020  28.738  1.00  0.00     0.031 A 
ATOM     59  C   UNL A   1      47.065  27.405  28.562  1.00  0.00     0.031 A 
ATOM     60  C   UNL A   1      41.252  29.821  29.217  1.00  0.00     0.049 A 
ATOM     61  C   UNL A   1      46.681  28.832  28.214  1.00  0.00     0.074 A 
ATOM     62  C   UNL A   1      41.776  30.118  30.465  1.00  0.00     0.029 A 
ATOM     63  N   UNL A   1      42.196  30.240  28.297  1.00  0.00    -0.354 N 
ATOM     64  N   UNL A   1      45.569  29.406  28.584  1.00  0.00    -0.248 NA
ATOM     65  C   UNL A   1      47.473  29.690  27.332  1.00  0.00     0.031 C 
ATOM     66  C   UNL A   1      43.037  30.753  30.275  1.00  0.00     0.029 A 
ATOM     67  C   UNL A   1      43.265  30.851  28.915  1.00  0.00     0.049 A 
ATOM     68  H   UNL A   1      42.115  30.118  27.323  1.00  0.00     0.167 HD
ATOM     69  C   UNL A   1      45.451  30.622  27.965  1.00  0.00     0.074 A 
ATOM     70  C   UNL A   1      46.676  30.764  27.200  1.00  0.00     0.031 C 
ATOM     71  C   UNL A   1      44.330  31.388  28.085  1.00  0.00     0.031 A 
BRANCH  58  72
ATOM     72  C   UNL A   1      38.690  29.378  29.047  1.00  0.00    -0.014 A 
ATOM     73  C   UNL A   1      37.893  29.944  28.034  1.00  0.00     0.009 A 
ATOM     74  C   UNL A   1      38.071  29.232  30.298  1.00  0.00     0.009 A 
ATOM     75  C   UNL A   1      36.592  30.402  28.276  1.00  0.00     0.001 A 
ATOM     76  C   UNL A   1      36.776  29.703  30.555  1.00  0.00     0.001 A 
ATOM     77  C   UNL A   1      36.038  30.299  29.544  1.00  0.00     0.000 A 
ENDBRANCH  58  72
BRANCH  59  78
ATOM     78  C   UNL A   1      47.708  26.458  27.606  1.00  0.00    -0.014 A 
ATOM     79  C   UNL A   1      47.162  26.337  26.313  1.00  0.00     0.009 A 
ATOM     80  C   UNL A   1      49.027  26.029  27.824  1.00  0.00     0.009 A 
ATOM     81  C   UNL A   1      47.957  25.920  25.242  1.00  0.00     0.001 A 
ATOM     82  C   UNL A   1      49.814  25.600  26.749  1.00  0.00     0.001 A 
ATOM     83  C   UNL A   1      49.292  25.583  25.456  1.00  0.00     0.000 A 
ENDBRANCH  59  78
BRANCH  71  84
ATOM     84  C   UNL A   1      44.102  32.699  27.383  1.00  0.00    -0.014 A 
ATOM     85  C   UNL A   1      43.718  33.868  28.049  1.00  0.00     0.009 A 
ATOM     86  C   UNL A   1      44.151  32.753  25.972  1.00  0.00     0.009 A 
ATOM     87  C   UNL A   1      43.444  35.045  27.339  1.00  0.00     0.001 A 
ATOM     88  C   UNL A   1      43.858  33.917  25.260  1.00  0.00     0.001 A 
ATOM     89  C   UNL A   1      43.513  35.070  25.947  1.00  0.00     0.000 A 
ENDBRANCH  71  84
ENDBRANCH  45  46
ENDBRANCH  37  40
ENDBRANCH  35  36
ENDBRANCH  34  35
ENDBRANCH  33  34
ENDBRANCH   1  33
TORSDOF 16
ENDMDL
MODEL 3
REMARK VINA RESULT:     -11.6      2.466      5.575
REMARK SMILES Cc1c(NC(=O)[C@@H]2CC=CC[C@@H]2C(=O)NCCCCCCNC(=O)c2ccc(-c3c4nc(c(-c5ccccc5)c5ccc([nH]5)c(-c5ccccc5)c5nc(c(-c6ccccc6)c6ccc3[nH]6)C=C5)C=C4)cc2)cccc1C(=O)N1CCOCC1
REMARK SMILES IDX 18 1 17 2 16 3 15 4 13 5 14 6 12 8 7 9 8 10 9 11 11 12 10 13
REMARK SMILES IDX 5 14 4 15 6 17 3 18 1 19 2 20 76 21 73 22 75 23 74 24 77 25
REMARK SMILES IDX 78 26 79 27 80 28 84 29 81 30 83 31 82 32 19 33 20 34 21 35
REMARK SMILES IDX 22 36 23 37 24 39 25 40 26 41 72 42 27 43 71 44 28 45 29 46
REMARK SMILES IDX 30 47 65 48 31 49 70 50 64 51 66 52 32 53 69 54 63 55 62 56
REMARK SMILES IDX 33 58 55 59 40 60 54 61 41 62 44 63 53 64 67 65 42 66 43 67
REMARK SMILES IDX 52 69 68 70 45 71 34 72 35 73 39 74 36 75 38 76 37 77 56 78
REMARK SMILES IDX 57 79 61 80 58 81 60 82 59 83 46 84 47 85 51 86 48 87 50 88
REMARK SMILES IDX 49 89
REMARK H PARENT 15 7 4 16 22 38 66 57 44 68
REMARK Flexibility Score: inf
ROOT
ATOM      1  C   UNL A   1      33.263  30.538  27.034  1.00  0.00     0.002 C 
ENDROOT
BRANCH   1   2
ATOM      2  C   UNL A   1      33.530  29.052  27.296  1.00  0.00     0.021 C 
BRANCH   2   3
ATOM      3  C   UNL A   1      34.539  28.394  26.352  1.00  0.00     0.116 C 
BRANCH   3   4
ATOM      4  N   UNL A   1      34.292  28.733  24.968  1.00  0.00    -0.356 N 
ATOM      5  C   UNL A   1      33.521  28.262  23.964  1.00  0.00     0.224 C 
ATOM      6  O   UNL A   1      33.574  28.967  22.942  1.00  0.00    -0.275 OA
ATOM      7  H   UNL A   1      34.825  29.510  24.683  1.00  0.00     0.163 HD
BRANCH   5   8
ATOM      8  C   UNL A   1      32.562  27.048  23.968  1.00  0.00     0.095 C 
ATOM      9  C   UNL A   1      31.852  26.531  22.694  1.00  0.00     0.095 C 
ATOM     10  C   UNL A   1      30.973  27.646  22.102  1.00  0.00     0.041 C 
ATOM     11  C   UNL A   1      30.076  28.249  23.150  1.00  0.00    -0.030 C 
ATOM     12  C   UNL A   1      31.453  27.318  25.025  1.00  0.00     0.041 C 
ATOM     13  C   UNL A   1      30.279  28.078  24.465  1.00  0.00    -0.030 C 
BRANCH   9  14
ATOM     14  C   UNL A   1      32.833  25.789  21.795  1.00  0.00     0.228 C 
ATOM     15  N   UNL A   1      33.136  24.474  21.897  1.00  0.00    -0.326 N 
ATOM     16  H   UNL A   1      33.600  24.147  21.093  1.00  0.00     0.169 HD
ATOM     17  O   UNL A   1      33.400  26.375  20.862  1.00  0.00    -0.274 OA
BRANCH  15  18
ATOM     18  C   UNL A   1      32.963  23.453  22.846  1.00  0.00     0.044 A 
ATOM     19  C   UNL A   1      35.458  23.107  22.689  1.00  0.00     0.047 C 
ATOM     20  C   UNL A   1      34.139  22.844  23.371  1.00  0.00    -0.015 A 
ATOM     21  C   UNL A   1      34.029  21.951  24.461  1.00  0.00     0.045 A 
ATOM     22  C   UNL A   1      31.711  23.078  23.333  1.00  0.00     0.026 A 
ATOM     23  C   UNL A   1      32.752  21.577  24.912  1.00  0.00     0.014 A 
ATOM     24  C   UNL A   1      31.604  22.120  24.339  1.00  0.00     0.003 A 
BRANCH  21  25
ATOM     25  C   UNL A   1      35.169  21.185  25.051  1.00  0.00     0.254 C 
ATOM     26  O   UNL A   1      35.138  19.961  24.917  1.00  0.00    -0.269 OA
ATOM     27  N   UNL A   1      36.244  21.819  25.665  1.00  0.00    -0.334 N 
ATOM     28  C   UNL A   1      36.233  23.094  26.392  1.00  0.00     0.148 C 
ATOM     29  C   UNL A   1      37.478  21.051  25.845  1.00  0.00     0.148 C 
ATOM     30  C   UNL A   1      37.533  23.890  26.161  1.00  0.00     0.181 C 
ATOM     31  C   UNL A   1      38.685  21.928  25.511  1.00  0.00     0.181 C 
ATOM     32  O   UNL A   1      38.708  23.086  26.359  1.00  0.00    -0.378 OA
ENDBRANCH  21  25
ENDBRANCH  15  18
ENDBRANCH   9  14
ENDBRANCH   5   8
ENDBRANCH   3   4
ENDBRANCH   2   3
ENDBRANCH   1   2
BRANCH   1  33
ATOM     33  C   UNL A   1      31.806  30.931  26.742  1.00  0.00     0.002 C 
BRANCH  33  34
ATOM     34  C   UNL A   1      31.411  32.372  27.071  1.00  0.00     0.021 C 
BRANCH  34  35
ATOM     35  C   UNL A   1      32.485  33.399  26.746  1.00  0.00     0.116 C 
BRANCH  35  36
ATOM     36  N   UNL A   1      32.780  34.322  27.830  1.00  0.00    -0.352 N 
ATOM     37  C   UNL A   1      33.723  34.251  28.845  1.00  0.00     0.251 C 
ATOM     38  H   UNL A   1      32.219  35.131  27.845  1.00  0.00     0.163 HD
ATOM     39  O   UNL A   1      33.738  35.102  29.710  1.00  0.00    -0.269 OA
BRANCH  37  40
ATOM     40  C   UNL A   1      34.797  33.220  28.801  1.00  0.00     0.039 A 
ATOM     41  C   UNL A   1      34.722  32.154  29.714  1.00  0.00     0.014 A 
ATOM     42  C   UNL A   1      35.938  33.378  28.027  1.00  0.00     0.014 A 
ATOM     43  C   UNL A   1      35.867  31.419  30.018  1.00  0.00     0.010 A 
ATOM     44  C   UNL A   1      37.096  32.742  28.407  1.00  0.00     0.010 A 
ATOM     45  C   UNL A   1      37.071  31.797  29.438  1.00  0.00    -0.014 A 
BRANCH  45  46
ATOM     46  C   UNL A   1      38.385  31.329  29.846  1.00  0.00     0.031 A 
ATOM     47  C   UNL A   1      38.969  30.132  29.213  1.00  0.00     0.074 A 
ATOM     48  C   UNL A   1      39.152  32.131  30.615  1.00  0.00     0.049 A 
ATOM     49  N   UNL A   1      40.038  29.549  29.631  1.00  0.00    -0.248 NA
ATOM     50  C   UNL A   1      38.355  29.458  28.073  1.00  0.00     0.031 C 
ATOM     51  C   UNL A   1      40.607  32.126  30.734  1.00  0.00     0.029 A 
ATOM     52  N   UNL A   1      38.729  33.002  31.615  1.00  0.00    -0.354 N 
ATOM     53  C   UNL A   1      40.420  28.648  28.667  1.00  0.00     0.074 A 
ATOM     54  C   UNL A   1      39.289  28.549  27.777  1.00  0.00     0.031 C 
ATOM     55  C   UNL A   1      40.955  32.763  31.863  1.00  0.00     0.029 A 
ATOM     56  C   UNL A   1      39.731  33.018  32.604  1.00  0.00     0.049 A 
ATOM     57  H   UNL A   1      37.886  33.511  31.629  1.00  0.00     0.167 HD
ATOM     58  C   UNL A   1      41.702  28.190  28.669  1.00  0.00     0.031 A 
ATOM     59  C   UNL A   1      39.477  32.539  33.861  1.00  0.00     0.031 A 
ATOM     60  C   UNL A   1      42.452  28.669  29.832  1.00  0.00     0.049 A 
ATOM     61  C   UNL A   1      40.320  31.346  34.275  1.00  0.00     0.074 A 
ATOM     62  C   UNL A   1      43.443  29.616  30.029  1.00  0.00     0.029 A 
ATOM     63  N   UNL A   1      42.000  28.321  31.092  1.00  0.00    -0.354 N 
ATOM     64  N   UNL A   1      41.136  30.710  33.480  1.00  0.00    -0.248 NA
ATOM     65  C   UNL A   1      40.231  30.711  35.591  1.00  0.00     0.031 C 
ATOM     66  C   UNL A   1      43.601  29.806  31.432  1.00  0.00     0.029 A 
ATOM     67  C   UNL A   1      42.715  28.964  32.079  1.00  0.00     0.049 A 
ATOM     68  H   UNL A   1      41.260  27.694  31.263  1.00  0.00     0.167 HD
ATOM     69  C   UNL A   1      41.608  29.587  34.108  1.00  0.00     0.074 A 
ATOM     70  C   UNL A   1      41.024  29.637  35.435  1.00  0.00     0.031 C 
ATOM     71  C   UNL A   1      42.393  28.676  33.465  1.00  0.00     0.031 A 
BRANCH  58  72
ATOM     72  C   UNL A   1      42.364  27.460  27.525  1.00  0.00    -0.014 A 
ATOM     73  C   UNL A   1      43.313  26.459  27.810  1.00  0.00     0.009 A 
ATOM     74  C   UNL A   1      42.145  27.721  26.163  1.00  0.00     0.009 A 
ATOM     75  C   UNL A   1      44.047  25.818  26.803  1.00  0.00     0.001 A 
ATOM     76  C   UNL A   1      42.887  27.098  25.150  1.00  0.00     0.001 A 
ATOM     77  C   UNL A   1      43.847  26.151  25.471  1.00  0.00     0.000 A 
ENDBRANCH  58  72
BRANCH  59  78
ATOM     78  C   UNL A   1      38.057  32.739  34.271  1.00  0.00    -0.014 A 
ATOM     79  C   UNL A   1      37.691  33.979  34.832  1.00  0.00     0.009 A 
ATOM     80  C   UNL A   1      37.052  31.914  33.745  1.00  0.00     0.009 A 
ATOM     81  C   UNL A   1      36.373  34.434  34.751  1.00  0.00     0.001 A 
ATOM     82  C   UNL A   1      35.731  32.370  33.678  1.00  0.00     0.001 A 
ATOM     83  C   UNL A   1      35.400  33.643  34.144  1.00  0.00     0.000 A 
ENDBRANCH  59  78
BRANCH  71  84
ATOM     84  C   UNL A   1      42.890  27.391  34.067  1.00  0.00    -0.014 A 
ATOM     85  C   UNL A   1      44.213  26.951  33.948  1.00  0.00     0.009 A 
ATOM     86  C   UNL A   1      41.975  26.506  34.682  1.00  0.00     0.009 A 
ATOM     87  C   UNL A   1      44.609  25.708  34.463  1.00  0.00     0.001 A 
ATOM     88  C   UNL A   1      42.360  25.259  35.175  1.00  0.00     0.001 A 
ATOM     89  C   UNL A   1      43.684  24.863  35.074  1.00  0.00     0.000 A 
ENDBRANCH  71  84
ENDBRANCH  45  46
ENDBRANCH  37  40
ENDBRANCH  35  36
ENDBRANCH  34  35
ENDBRANCH  33  34
ENDBRANCH   1  33
TORSDOF 16
ENDMDL
