MODEL 1
REMARK VINA RESULT:     -10.9      0.000      0.000
REMARK SMILES O=C(Cn1ncc2ccccc2c1=O)N[C@@H]1C[NH2+][C@H](C(=O)NCCCCCCNC(=O)c2ccc(-c3c4nc(c(-c5ccccc5)c5ccc([nH]5)c(-c5ccccc5)c5nc(c(-c6ccccc6)c6ccc3[nH]6)C=C5)C=C4)cc2)C1
REMARK SMILES IDX 25 1 24 2 23 3 22 4 20 5 21 6 19 8 16 9 17 10 80 11 18 12
REMARK SMILES IDX 15 15 1 16 2 17 3 19 4 20 5 21 13 22 6 23 12 24 14 25 7 26
REMARK SMILES IDX 11 27 8 28 10 29 9 30 26 31 27 32 28 33 29 34 30 35 31 37
REMARK SMILES IDX 32 38 33 39 79 40 34 41 78 42 35 43 36 44 37 45 72 46 38 47
REMARK SMILES IDX 77 48 71 49 73 50 39 51 76 52 70 53 69 54 40 56 62 57 47 58
REMARK SMILES IDX 61 59 48 60 51 61 60 62 74 63 49 64 50 65 59 67 75 68 52 69
REMARK SMILES IDX 41 70 42 71 46 72 43 73 45 74 44 75 63 76 64 77 68 78 65 79
REMARK SMILES IDX 67 80 66 81 53 82 54 83 58 84 55 85 57 86 56 87
REMARK H PARENT 22 7 18 13 18 14 15 18 29 36 73 55 51 66
REMARK Flexibility Score: inf
ROOT
ATOM      1  C   UNL A   1      35.394  34.188  28.849  1.00  0.00     0.002 C 
ENDROOT
BRANCH   1   2
ATOM      2  C   UNL A   1      34.842  32.799  29.185  1.00  0.00     0.021 C 
BRANCH   2   3
ATOM      3  C   UNL A   1      34.101  32.110  28.041  1.00  0.00     0.116 C 
BRANCH   3   4
ATOM      4  N   UNL A   1      34.440  30.703  27.946  1.00  0.00    -0.351 N 
ATOM      5  C   UNL A   1      33.927  29.664  27.241  1.00  0.00     0.278 C 
ATOM      6  O   UNL A   1      34.488  28.573  27.421  1.00  0.00    -0.268 OA
ATOM      7  H   UNL A   1      35.203  30.448  28.514  1.00  0.00     0.163 HD
BRANCH   5   8
ATOM      8  C   UNL A   1      32.719  29.731  26.284  1.00  0.00     0.274 C 
ATOM      9  C   UNL A   1      31.823  28.079  24.759  1.00  0.00     0.143 C 
ATOM     10  C   UNL A   1      33.011  28.806  24.153  1.00  0.00     0.286 C 
ATOM     11  C   UNL A   1      31.995  28.371  26.243  1.00  0.00     0.106 C 
ATOM     12  N   UNL A   1      33.023  30.082  24.874  1.00  0.00    -0.334 N 
ATOM     13  H   UNL A   1      32.312  30.712  24.500  1.00  0.00     0.347 HD
ATOM     14  H   UNL A   1      33.917  30.565  24.785  1.00  0.00     0.347 HD
BRANCH   9  15
ATOM     15  N   UNL A   1      31.779  26.678  24.418  1.00  0.00    -0.346 N 
ATOM     16  O   UNL A   1      30.743  26.973  22.406  1.00  0.00    -0.273 OA
ATOM     17  C   UNL A   1      31.326  26.233  23.198  1.00  0.00     0.242 C 
ATOM     18  H   UNL A   1      32.082  26.018  25.083  1.00  0.00     0.164 HD
BRANCH  17  19
ATOM     19  C   UNL A   1      31.413  24.720  22.981  1.00  0.00     0.248 C 
BRANCH  19  20
ATOM     20  N   UNL A   1      32.427  23.942  23.702  1.00  0.00    -0.220 N 
ATOM     21  N   UNL A   1      32.107  23.368  24.917  1.00  0.00    -0.177 NA
ATOM     22  C   UNL A   1      33.689  23.839  23.103  1.00  0.00     0.275 A 
ATOM     23  C   UNL A   1      33.034  22.733  25.563  1.00  0.00     0.142 A 
ATOM     24  C   UNL A   1      34.721  23.100  23.850  1.00  0.00     0.050 A 
ATOM     25  O   UNL A   1      33.971  24.325  22.011  1.00  0.00    -0.267 OA
ATOM     26  C   UNL A   1      34.398  22.555  25.082  1.00  0.00     0.007 A 
ATOM     27  C   UNL A   1      36.015  22.942  23.341  1.00  0.00     0.014 A 
ATOM     28  C   UNL A   1      35.341  21.847  25.829  1.00  0.00     0.010 A 
ATOM     29  C   UNL A   1      36.966  22.232  24.077  1.00  0.00     0.001 A 
ATOM     30  C   UNL A   1      36.630  21.686  25.318  1.00  0.00     0.001 A 
ENDBRANCH  19  20
ENDBRANCH  17  19
ENDBRANCH   9  15
ENDBRANCH   5   8
ENDBRANCH   3   4
ENDBRANCH   2   3
ENDBRANCH   1   2
BRANCH   1  31
ATOM     31  C   UNL A   1      34.413  35.145  28.161  1.00  0.00     0.002 C 
BRANCH  31  32
ATOM     32  C   UNL A   1      33.672  36.114  29.085  1.00  0.00     0.021 C 
BRANCH  32  33
ATOM     33  C   UNL A   1      32.629  35.473  29.990  1.00  0.00     0.116 C 
BRANCH  33  34
ATOM     34  N   UNL A   1      32.397  36.223  31.213  1.00  0.00    -0.352 N 
ATOM     35  C   UNL A   1      33.026  36.113  32.431  1.00  0.00     0.251 C 
ATOM     36  H   UNL A   1      31.689  36.905  31.164  1.00  0.00     0.163 HD
ATOM     37  O   UNL A   1      32.613  36.739  33.402  1.00  0.00    -0.269 OA
BRANCH  35  38
ATOM     38  C   UNL A   1      34.184  35.200  32.578  1.00  0.00     0.039 A 
ATOM     39  C   UNL A   1      34.008  33.893  33.029  1.00  0.00     0.014 A 
ATOM     40  C   UNL A   1      35.466  35.675  32.288  1.00  0.00     0.014 A 
ATOM     41  C   UNL A   1      35.119  33.124  33.360  1.00  0.00     0.010 A 
ATOM     42  C   UNL A   1      36.580  34.865  32.533  1.00  0.00     0.010 A 
ATOM     43  C   UNL A   1      36.419  33.602  33.123  1.00  0.00    -0.014 A 
BRANCH  43  44
ATOM     44  C   UNL A   1      37.581  32.760  33.511  1.00  0.00     0.031 A 
ATOM     45  C   UNL A   1      38.140  31.729  32.567  1.00  0.00     0.074 A 
ATOM     46  C   UNL A   1      38.186  32.984  34.695  1.00  0.00     0.049 A 
ATOM     47  N   UNL A   1      39.203  30.975  32.711  1.00  0.00    -0.248 NA
ATOM     48  C   UNL A   1      37.424  31.512  31.301  1.00  0.00     0.031 C 
ATOM     49  C   UNL A   1      37.744  33.961  35.692  1.00  0.00     0.029 A 
ATOM     50  N   UNL A   1      39.320  32.438  35.242  1.00  0.00    -0.354 N 
ATOM     51  C   UNL A   1      39.273  30.192  31.565  1.00  0.00     0.074 A 
ATOM     52  C   UNL A   1      38.128  30.533  30.750  1.00  0.00     0.031 C 
ATOM     53  C   UNL A   1      38.634  33.998  36.693  1.00  0.00     0.029 A 
ATOM     54  C   UNL A   1      39.673  33.003  36.444  1.00  0.00     0.049 A 
ATOM     55  H   UNL A   1      39.831  31.714  34.816  1.00  0.00     0.167 HD
ATOM     56  C   UNL A   1      40.215  29.284  31.216  1.00  0.00     0.031 A 
ATOM     57  C   UNL A   1      40.714  32.755  37.262  1.00  0.00     0.031 A 
ATOM     58  C   UNL A   1      41.356  28.947  32.026  1.00  0.00     0.049 A 
ATOM     59  C   UNL A   1      41.727  31.720  36.867  1.00  0.00     0.074 A 
ATOM     60  C   UNL A   1      42.366  28.039  31.750  1.00  0.00     0.029 A 
ATOM     61  N   UNL A   1      41.642  29.500  33.264  1.00  0.00    -0.354 N 
ATOM     62  N   UNL A   1      41.784  31.001  35.773  1.00  0.00    -0.248 NA
ATOM     63  C   UNL A   1      42.821  31.465  37.815  1.00  0.00     0.031 C 
ATOM     64  C   UNL A   1      43.230  28.003  32.847  1.00  0.00     0.029 A 
ATOM     65  C   UNL A   1      42.802  28.939  33.773  1.00  0.00     0.049 A 
ATOM     66  H   UNL A   1      41.101  30.189  33.715  1.00  0.00     0.167 HD
ATOM     67  C   UNL A   1      42.925  30.218  35.892  1.00  0.00     0.074 A 
ATOM     68  C   UNL A   1      43.543  30.568  37.155  1.00  0.00     0.031 C 
ATOM     69  C   UNL A   1      43.410  29.292  35.031  1.00  0.00     0.031 A 
BRANCH  56  70
ATOM     70  C   UNL A   1      40.060  28.576  29.897  1.00  0.00    -0.014 A 
ATOM     71  C   UNL A   1      39.457  27.309  29.850  1.00  0.00     0.009 A 
ATOM     72  C   UNL A   1      40.590  29.118  28.715  1.00  0.00     0.009 A 
ATOM     73  C   UNL A   1      39.401  26.593  28.651  1.00  0.00     0.001 A 
ATOM     74  C   UNL A   1      40.505  28.413  27.512  1.00  0.00     0.001 A 
ATOM     75  C   UNL A   1      39.920  27.148  27.483  1.00  0.00     0.000 A 
ENDBRANCH  56  70
BRANCH  57  76
ATOM     76  C   UNL A   1      40.846  33.531  38.524  1.00  0.00    -0.014 A 
ATOM     77  C   UNL A   1      41.596  34.720  38.552  1.00  0.00     0.009 A 
ATOM     78  C   UNL A   1      40.282  33.059  39.718  1.00  0.00     0.009 A 
ATOM     79  C   UNL A   1      41.807  35.399  39.753  1.00  0.00     0.001 A 
ATOM     80  C   UNL A   1      40.466  33.760  40.913  1.00  0.00     0.001 A 
ATOM     81  C   UNL A   1      41.238  34.920  40.932  1.00  0.00     0.000 A 
ENDBRANCH  57  76
BRANCH  69  82
ATOM     82  C   UNL A   1      44.686  28.588  35.402  1.00  0.00    -0.014 A 
ATOM     83  C   UNL A   1      45.917  29.105  34.968  1.00  0.00     0.009 A 
ATOM     84  C   UNL A   1      44.667  27.363  36.087  1.00  0.00     0.009 A 
ATOM     85  C   UNL A   1      47.103  28.406  35.200  1.00  0.00     0.001 A 
ATOM     86  C   UNL A   1      45.858  26.680  36.345  1.00  0.00     0.001 A 
ATOM     87  C   UNL A   1      47.073  27.197  35.893  1.00  0.00     0.000 A 
ENDBRANCH  69  82
ENDBRANCH  43  44
ENDBRANCH  35  38
ENDBRANCH  33  34
ENDBRANCH  32  33
ENDBRANCH  31  32
ENDBRANCH   1  31
TORSDOF 16
ENDMDL
MODEL 2
REMARK VINA RESULT:     -10.9      6.219     11.783
REMARK SMILES O=C(Cn1ncc2ccccc2c1=O)N[C@@H]1C[NH2+][C@H](C(=O)NCCCCCCNC(=O)c2ccc(-c3c4nc(c(-c5ccccc5)c5ccc([nH]5)c(-c5ccccc5)c5nc(c(-c6ccccc6)c6ccc3[nH]6)C=C5)C=C4)cc2)C1
REMARK SMILES IDX 25 1 24 2 23 3 22 4 20 5 21 6 19 8 16 9 17 10 80 11 18 12
REMARK SMILES IDX 15 15 1 16 2 17 3 19 4 20 5 21 13 22 6 23 12 24 14 25 7 26
REMARK SMILES IDX 11 27 8 28 10 29 9 30 26 31 27 32 28 33 29 34 30 35 31 37
REMARK SMILES IDX 32 38 33 39 79 40 34 41 78 42 35 43 36 44 37 45 72 46 38 47
REMARK SMILES IDX 77 48 71 49 73 50 39 51 76 52 70 53 69 54 40 56 62 57 47 58
REMARK SMILES IDX 61 59 48 60 51 61 60 62 74 63 49 64 50 65 59 67 75 68 52 69
REMARK SMILES IDX 41 70 42 71 46 72 43 73 45 74 44 75 63 76 64 77 68 78 65 79
REMARK SMILES IDX 67 80 66 81 53 82 54 83 58 84 55 85 57 86 56 87
REMARK H PARENT 22 7 18 13 18 14 15 18 29 36 73 55 51 66
REMARK Flexibility Score: inf
ROOT
ATOM      1  C   UNL A   1      40.335  22.195  27.100  1.00  0.00     0.002 C 
ENDROOT
BRANCH   1   2
ATOM      2  C   UNL A   1      39.187  22.974  26.451  1.00  0.00     0.021 C 
BRANCH   2   3
ATOM      3  C   UNL A   1      38.200  22.119  25.658  1.00  0.00     0.116 C 
BRANCH   3   4
ATOM      4  N   UNL A   1      36.929  21.984  26.342  1.00  0.00    -0.351 N 
ATOM      5  C   UNL A   1      35.660  21.760  25.919  1.00  0.00     0.278 C 
ATOM      6  O   UNL A   1      34.804  21.708  26.814  1.00  0.00    -0.268 OA
ATOM      7  H   UNL A   1      37.003  22.075  27.320  1.00  0.00     0.163 HD
BRANCH   5   8
ATOM      8  C   UNL A   1      35.213  21.598  24.451  1.00  0.00     0.274 C 
ATOM      9  C   UNL A   1      33.591  22.841  23.152  1.00  0.00     0.143 C 
ATOM     10  C   UNL A   1      32.919  21.795  24.023  1.00  0.00     0.286 C 
ATOM     11  C   UNL A   1      34.954  22.979  23.817  1.00  0.00     0.106 C 
ATOM     12  N   UNL A   1      33.979  20.803  24.230  1.00  0.00    -0.334 N 
ATOM     13  H   UNL A   1      34.078  20.207  23.408  1.00  0.00     0.347 HD
ATOM     14  H   UNL A   1      33.777  20.185  25.016  1.00  0.00     0.347 HD
BRANCH   9  15
ATOM     15  N   UNL A   1      32.839  24.067  23.052  1.00  0.00    -0.346 N 
ATOM     16  O   UNL A   1      33.319  24.443  20.853  1.00  0.00    -0.273 OA
ATOM     17  C   UNL A   1      32.674  24.733  21.860  1.00  0.00     0.242 C 
ATOM     18  H   UNL A   1      32.431  24.442  23.866  1.00  0.00     0.164 HD
BRANCH  17  19
ATOM     19  C   UNL A   1      31.788  25.981  21.925  1.00  0.00     0.248 C 
BRANCH  19  20
ATOM     20  N   UNL A   1      32.051  27.003  22.944  1.00  0.00    -0.220 N 
ATOM     21  N   UNL A   1      32.790  28.121  22.610  1.00  0.00    -0.177 NA
ATOM     22  C   UNL A   1      31.534  26.767  24.223  1.00  0.00     0.275 A 
ATOM     23  C   UNL A   1      33.058  28.984  23.540  1.00  0.00     0.142 A 
ATOM     24  C   UNL A   1      31.839  27.769  25.259  1.00  0.00     0.050 A 
ATOM     25  O   UNL A   1      30.854  25.788  24.519  1.00  0.00    -0.267 OA
ATOM     26  C   UNL A   1      32.607  28.872  24.921  1.00  0.00     0.007 A 
ATOM     27  C   UNL A   1      31.372  27.627  26.570  1.00  0.00     0.014 A 
ATOM     28  C   UNL A   1      32.925  29.848  25.866  1.00  0.00     0.010 A 
ATOM     29  C   UNL A   1      31.680  28.600  27.524  1.00  0.00     0.001 A 
ATOM     30  C   UNL A   1      32.454  29.708  27.173  1.00  0.00     0.001 A 
ENDBRANCH  19  20
ENDBRANCH  17  19
ENDBRANCH   9  15
ENDBRANCH   5   8
ENDBRANCH   3   4
ENDBRANCH   2   3
ENDBRANCH   1   2
BRANCH   1  31
ATOM     31  C   UNL A   1      41.382  21.625  26.135  1.00  0.00     0.002 C 
BRANCH  31  32
ATOM     32  C   UNL A   1      41.397  20.102  25.996  1.00  0.00     0.021 C 
BRANCH  32  33
ATOM     33  C   UNL A   1      42.687  19.425  26.438  1.00  0.00     0.116 C 
BRANCH  33  34
ATOM     34  N   UNL A   1      43.464  18.896  25.330  1.00  0.00    -0.352 N 
ATOM     35  C   UNL A   1      44.366  19.540  24.516  1.00  0.00     0.251 C 
ATOM     36  H   UNL A   1      43.323  17.942  25.133  1.00  0.00     0.163 HD
ATOM     37  O   UNL A   1      44.837  18.968  23.538  1.00  0.00    -0.269 OA
BRANCH  35  38
ATOM     38  C   UNL A   1      44.739  20.944  24.802  1.00  0.00     0.039 A 
ATOM     39  C   UNL A   1      45.416  21.279  25.974  1.00  0.00     0.014 A 
ATOM     40  C   UNL A   1      44.376  21.943  23.893  1.00  0.00     0.014 A 
ATOM     41  C   UNL A   1      45.570  22.616  26.323  1.00  0.00     0.010 A 
ATOM     42  C   UNL A   1      44.616  23.286  24.204  1.00  0.00     0.010 A 
ATOM     43  C   UNL A   1      45.165  23.637  25.446  1.00  0.00    -0.014 A 
BRANCH  43  44
ATOM     44  C   UNL A   1      45.326  25.055  25.864  1.00  0.00     0.031 A 
ATOM     45  C   UNL A   1      44.180  25.818  26.472  1.00  0.00     0.074 A 
ATOM     46  C   UNL A   1      46.540  25.632  25.767  1.00  0.00     0.049 A 
ATOM     47  N   UNL A   1      44.175  27.029  26.974  1.00  0.00    -0.248 NA
ATOM     48  C   UNL A   1      42.873  25.145  26.530  1.00  0.00     0.031 C 
ATOM     49  C   UNL A   1      47.731  24.993  25.203  1.00  0.00     0.029 A 
ATOM     50  N   UNL A   1      46.985  26.865  26.174  1.00  0.00    -0.354 N 
ATOM     51  C   UNL A   1      42.871  27.263  27.392  1.00  0.00     0.074 A 
ATOM     52  C   UNL A   1      42.102  26.086  27.055  1.00  0.00     0.031 C 
ATOM     53  C   UNL A   1      48.783  25.807  25.365  1.00  0.00     0.029 A 
ATOM     54  C   UNL A   1      48.333  27.051  25.983  1.00  0.00     0.049 A 
ATOM     55  H   UNL A   1      46.396  27.550  26.565  1.00  0.00     0.167 HD
ATOM     56  C   UNL A   1      42.364  28.353  28.017  1.00  0.00     0.031 A 
ATOM     57  C   UNL A   1      49.126  28.101  26.268  1.00  0.00     0.031 A 
ATOM     58  C   UNL A   1      43.131  29.524  28.355  1.00  0.00     0.049 A 
ATOM     59  C   UNL A   1      48.533  29.311  26.930  1.00  0.00     0.074 A 
ATOM     60  C   UNL A   1      42.700  30.675  28.992  1.00  0.00     0.029 A 
ATOM     61  N   UNL A   1      44.480  29.693  28.088  1.00  0.00    -0.354 N 
ATOM     62  N   UNL A   1      47.301  29.507  27.332  1.00  0.00    -0.248 NA
ATOM     63  C   UNL A   1      49.438  30.441  27.185  1.00  0.00     0.031 C 
ATOM     64  C   UNL A   1      43.776  31.564  29.060  1.00  0.00     0.029 A 
ATOM     65  C   UNL A   1      44.893  30.938  28.531  1.00  0.00     0.049 A 
ATOM     66  H   UNL A   1      45.058  29.028  27.650  1.00  0.00     0.167 HD
ATOM     67  C   UNL A   1      47.283  30.774  27.898  1.00  0.00     0.074 A 
ATOM     68  C   UNL A   1      48.634  31.292  27.810  1.00  0.00     0.031 C 
ATOM     69  C   UNL A   1      46.238  31.446  28.438  1.00  0.00     0.031 A 
BRANCH  56  70
ATOM     70  C   UNL A   1      40.903  28.344  28.379  1.00  0.00    -0.014 A 
ATOM     71  C   UNL A   1      39.971  28.976  27.540  1.00  0.00     0.009 A 
ATOM     72  C   UNL A   1      40.458  27.794  29.592  1.00  0.00     0.009 A 
ATOM     73  C   UNL A   1      38.628  29.069  27.913  1.00  0.00     0.001 A 
ATOM     74  C   UNL A   1      39.109  27.862  29.948  1.00  0.00     0.001 A 
ATOM     75  C   UNL A   1      38.198  28.508  29.114  1.00  0.00     0.000 A 
ENDBRANCH  56  70
BRANCH  57  76
ATOM     76  C   UNL A   1      50.575  28.025  25.942  1.00  0.00    -0.014 A 
ATOM     77  C   UNL A   1      51.038  28.405  24.670  1.00  0.00     0.009 A 
ATOM     78  C   UNL A   1      51.493  27.513  26.870  1.00  0.00     0.009 A 
ATOM     79  C   UNL A   1      52.381  28.243  24.324  1.00  0.00     0.001 A 
ATOM     80  C   UNL A   1      52.843  27.384  26.532  1.00  0.00     0.001 A 
ATOM     81  C   UNL A   1      53.283  27.735  25.258  1.00  0.00     0.000 A 
ENDBRANCH  57  76
BRANCH  69  82
ATOM     82  C   UNL A   1      46.499  32.817  28.999  1.00  0.00    -0.014 A 
ATOM     83  C   UNL A   1      46.818  32.963  30.359  1.00  0.00     0.009 A 
ATOM     84  C   UNL A   1      46.328  33.967  28.215  1.00  0.00     0.009 A 
ATOM     85  C   UNL A   1      46.948  34.232  30.926  1.00  0.00     0.001 A 
ATOM     86  C   UNL A   1      46.488  35.236  28.777  1.00  0.00     0.001 A 
ATOM     87  C   UNL A   1      46.788  35.367  30.133  1.00  0.00     0.000 A 
ENDBRANCH  69  82
ENDBRANCH  43  44
ENDBRANCH  35  38
ENDBRANCH  33  34
ENDBRANCH  32  33
ENDBRANCH  31  32
ENDBRANCH   1  31
TORSDOF 16
ENDMDL
MODEL 3
REMARK VINA RESULT:     -10.8      2.420      6.517
REMARK SMILES O=C(Cn1ncc2ccccc2c1=O)N[C@@H]1C[NH2+][C@H](C(=O)NCCCCCCNC(=O)c2ccc(-c3c4nc(c(-c5ccccc5)c5ccc([nH]5)c(-c5ccccc5)c5nc(c(-c6ccccc6)c6ccc3[nH]6)C=C5)C=C4)cc2)C1
REMARK SMILES IDX 25 1 24 2 23 3 22 4 20 5 21 6 19 8 16 9 17 10 80 11 18 12
REMARK SMILES IDX 15 15 1 16 2 17 3 19 4 20 5 21 13 22 6 23 12 24 14 25 7 26
REMARK SMILES IDX 11 27 8 28 10 29 9 30 26 31 27 32 28 33 29 34 30 35 31 37
REMARK SMILES IDX 32 38 33 39 79 40 34 41 78 42 35 43 36 44 37 45 72 46 38 47
REMARK SMILES IDX 77 48 71 49 73 50 39 51 76 52 70 53 69 54 40 56 62 57 47 58
REMARK SMILES IDX 61 59 48 60 51 61 60 62 74 63 49 64 50 65 59 67 75 68 52 69
REMARK SMILES IDX 41 70 42 71 46 72 43 73 45 74 44 75 63 76 64 77 68 78 65 79
REMARK SMILES IDX 67 80 66 81 53 82 54 83 58 84 55 85 57 86 56 87
REMARK H PARENT 22 7 18 13 18 14 15 18 29 36 73 55 51 66
REMARK Flexibility Score: inf
ROOT
ATOM      1  C   UNL A   1      34.172  29.106  27.065  1.00  0.00     0.002 C 
ENDROOT
BRANCH   1   2
ATOM      2  C   UNL A   1      32.802  28.858  26.427  1.00  0.00     0.021 C 
BRANCH   2   3
ATOM      3  C   UNL A   1      32.701  29.247  24.954  1.00  0.00     0.116 C 
BRANCH   3   4
ATOM      4  N   UNL A   1      31.492  29.997  24.674  1.00  0.00    -0.351 N 
ATOM      5  C   UNL A   1      30.410  29.765  23.889  1.00  0.00     0.278 C 
ATOM      6  O   UNL A   1      29.549  30.657  23.896  1.00  0.00    -0.268 OA
ATOM      7  H   UNL A   1      31.447  30.855  25.155  1.00  0.00     0.163 HD
BRANCH   5   8
ATOM      8  C   UNL A   1      30.193  28.528  22.993  1.00  0.00     0.274 C 
ATOM      9  C   UNL A   1      30.897  26.230  23.281  1.00  0.00     0.143 C 
ATOM     10  C   UNL A   1      32.020  27.088  22.725  1.00  0.00     0.286 C 
ATOM     11  C   UNL A   1      29.955  27.276  23.860  1.00  0.00     0.106 C 
ATOM     12  N   UNL A   1      31.305  28.188  22.070  1.00  0.00    -0.334 N 
ATOM     13  H   UNL A   1      30.941  27.891  21.164  1.00  0.00     0.347 HD
ATOM     14  H   UNL A   1      31.912  28.988  21.893  1.00  0.00     0.347 HD
BRANCH   9  15
ATOM     15  N   UNL A   1      31.353  25.237  24.223  1.00  0.00    -0.346 N 
ATOM     16  O   UNL A   1      30.401  23.462  23.149  1.00  0.00    -0.273 OA
ATOM     17  C   UNL A   1      31.152  23.891  24.025  1.00  0.00     0.242 C 
ATOM     18  H   UNL A   1      31.822  25.534  25.035  1.00  0.00     0.164 HD
BRANCH  17  19
ATOM     19  C   UNL A   1      31.762  22.976  25.091  1.00  0.00     0.248 C 
BRANCH  19  20
ATOM     20  N   UNL A   1      33.220  22.919  25.248  1.00  0.00    -0.220 N 
ATOM     21  N   UNL A   1      33.909  24.059  25.618  1.00  0.00    -0.177 NA
ATOM     22  C   UNL A   1      33.836  21.688  24.996  1.00  0.00     0.275 A 
ATOM     23  C   UNL A   1      35.201  24.000  25.697  1.00  0.00     0.142 A 
ATOM     24  C   UNL A   1      35.304  21.643  25.106  1.00  0.00     0.050 A 
ATOM     25  O   UNL A   1      33.226  20.666  24.692  1.00  0.00    -0.267 OA
ATOM     26  C   UNL A   1      35.987  22.799  25.448  1.00  0.00     0.007 A 
ATOM     27  C   UNL A   1      36.017  20.462  24.871  1.00  0.00     0.014 A 
ATOM     28  C   UNL A   1      37.378  22.809  25.564  1.00  0.00     0.010 A 
ATOM     29  C   UNL A   1      37.408  20.458  24.989  1.00  0.00     0.001 A 
ATOM     30  C   UNL A   1      38.088  21.628  25.334  1.00  0.00     0.001 A 
ENDBRANCH  19  20
ENDBRANCH  17  19
ENDBRANCH   9  15
ENDBRANCH   5   8
ENDBRANCH   3   4
ENDBRANCH   2   3
ENDBRANCH   1   2
BRANCH   1  31
ATOM     31  C   UNL A   1      34.398  30.516  27.627  1.00  0.00     0.002 C 
BRANCH  31  32
ATOM     32  C   UNL A   1      33.148  31.387  27.757  1.00  0.00     0.021 C 
BRANCH  32  33
ATOM     33  C   UNL A   1      33.199  32.708  27.002  1.00  0.00     0.116 C 
BRANCH  33  34
ATOM     34  N   UNL A   1      32.681  33.826  27.772  1.00  0.00    -0.352 N 
ATOM     35  C   UNL A   1      33.211  34.431  28.888  1.00  0.00     0.251 C 
ATOM     36  H   UNL A   1      31.831  34.205  27.450  1.00  0.00     0.163 HD
ATOM     37  O   UNL A   1      32.571  35.285  29.493  1.00  0.00    -0.269 OA
BRANCH  35  38
ATOM     38  C   UNL A   1      34.544  34.017  29.383  1.00  0.00     0.039 A 
ATOM     39  C   UNL A   1      35.705  34.412  28.720  1.00  0.00     0.014 A 
ATOM     40  C   UNL A   1      34.626  33.196  30.511  1.00  0.00     0.014 A 
ATOM     41  C   UNL A   1      36.925  33.846  29.073  1.00  0.00     0.010 A 
ATOM     42  C   UNL A   1      35.868  32.701  30.922  1.00  0.00     0.010 A 
ATOM     43  C   UNL A   1      37.022  32.977  30.174  1.00  0.00    -0.014 A 
BRANCH  43  44
ATOM     44  C   UNL A   1      38.340  32.374  30.505  1.00  0.00     0.031 A 
ATOM     45  C   UNL A   1      39.214  32.964  31.579  1.00  0.00     0.074 A 
ATOM     46  C   UNL A   1      38.714  31.237  29.886  1.00  0.00     0.049 A 
ATOM     47  N   UNL A   1      40.348  32.512  32.056  1.00  0.00    -0.248 NA
ATOM     48  C   UNL A   1      38.765  34.219  32.203  1.00  0.00     0.031 C 
ATOM     49  C   UNL A   1      37.949  30.563  28.834  1.00  0.00     0.029 A 
ATOM     50  N   UNL A   1      39.805  30.426  30.076  1.00  0.00    -0.354 N 
ATOM     51  C   UNL A   1      40.749  33.428  33.020  1.00  0.00     0.074 A 
ATOM     52  C   UNL A   1      39.760  34.482  33.039  1.00  0.00     0.031 C 
ATOM     53  C   UNL A   1      38.554  29.408  28.524  1.00  0.00     0.029 A 
ATOM     54  C   UNL A   1      39.783  29.290  29.304  1.00  0.00     0.049 A 
ATOM     55  H   UNL A   1      40.532  30.638  30.705  1.00  0.00     0.167 HD
ATOM     56  C   UNL A   1      41.835  33.386  33.828  1.00  0.00     0.031 A 
ATOM     57  C   UNL A   1      40.649  28.262  29.226  1.00  0.00     0.031 A 
ATOM     58  C   UNL A   1      42.819  32.335  33.812  1.00  0.00     0.049 A 
ATOM     59  C   UNL A   1      41.863  28.255  30.110  1.00  0.00     0.074 A 
ATOM     60  C   UNL A   1      43.952  32.208  34.599  1.00  0.00     0.029 A 
ATOM     61  N   UNL A   1      42.789  31.234  32.971  1.00  0.00    -0.354 N 
ATOM     62  N   UNL A   1      42.217  29.124  31.025  1.00  0.00    -0.248 NA
ATOM     63  C   UNL A   1      42.793  27.128  29.955  1.00  0.00     0.031 C 
ATOM     64  C   UNL A   1      44.636  31.059  34.195  1.00  0.00     0.029 A 
ATOM     65  C   UNL A   1      43.893  30.432  33.208  1.00  0.00     0.049 A 
ATOM     66  H   UNL A   1      42.087  31.048  32.306  1.00  0.00     0.167 HD
ATOM     67  C   UNL A   1      43.402  28.642  31.566  1.00  0.00     0.074 A 
ATOM     68  C   UNL A   1      43.694  27.393  30.892  1.00  0.00     0.031 C 
ATOM     69  C   UNL A   1      44.177  29.191  32.532  1.00  0.00     0.031 A 
BRANCH  56  70
ATOM     70  C   UNL A   1      42.032  34.513  34.807  1.00  0.00    -0.014 A 
ATOM     71  C   UNL A   1      42.789  35.636  34.438  1.00  0.00     0.009 A 
ATOM     72  C   UNL A   1      41.549  34.424  36.123  1.00  0.00     0.009 A 
ATOM     73  C   UNL A   1      43.069  36.640  35.367  1.00  0.00     0.001 A 
ATOM     74  C   UNL A   1      41.805  35.445  37.041  1.00  0.00     0.001 A 
ATOM     75  C   UNL A   1      42.573  36.546  36.666  1.00  0.00     0.000 A 
ENDBRANCH  56  70
BRANCH  57  76
ATOM     76  C   UNL A   1      40.369  27.147  28.282  1.00  0.00    -0.014 A 
ATOM     77  C   UNL A   1      39.644  26.020  28.708  1.00  0.00     0.009 A 
ATOM     78  C   UNL A   1      40.876  27.170  26.975  1.00  0.00     0.009 A 
ATOM     79  C   UNL A   1      39.463  24.928  27.858  1.00  0.00     0.001 A 
ATOM     80  C   UNL A   1      40.664  26.089  26.115  1.00  0.00     0.001 A 
ATOM     81  C   UNL A   1      39.970  24.965  26.560  1.00  0.00     0.000 A 
ENDBRANCH  57  76
BRANCH  69  82
ATOM     82  C   UNL A   1      45.417  28.448  32.945  1.00  0.00    -0.014 A 
ATOM     83  C   UNL A   1      46.630  28.696  32.281  1.00  0.00     0.009 A 
ATOM     84  C   UNL A   1      45.368  27.433  33.912  1.00  0.00     0.009 A 
ATOM     85  C   UNL A   1      47.765  27.935  32.568  1.00  0.00     0.001 A 
ATOM     86  C   UNL A   1      46.512  26.694  34.220  1.00  0.00     0.001 A 
ATOM     87  C   UNL A   1      47.706  26.938  33.540  1.00  0.00     0.000 A 
ENDBRANCH  69  82
ENDBRANCH  43  44
ENDBRANCH  35  38
ENDBRANCH  33  34
ENDBRANCH  32  33
ENDBRANCH  31  32
ENDBRANCH   1  31
TORSDOF 16
ENDMDL
