MODEL 1
REMARK VINA RESULT:     -11.1      0.000      0.000
REMARK SMILES O=C(C[C@@H](C(=O)N(c1ccccc1)c1ccccc1)[NH+]1CCOCC1)NCCCCCCNC(=O)c1ccc(-c2c3nc(c(-c4ccccc4)c4ccc([nH]4)c(-c4ccccc4)c4nc(c(-c5ccccc5)c5ccc2[nH]5)C=C4)C=C3)cc1
REMARK SMILES IDX 29 1 28 2 27 3 26 4 1 5 2 6 3 8 4 9 5 10 6 11 7 12 8 13 9 14
REMARK SMILES IDX 13 15 10 16 12 17 11 18 14 19 15 20 19 21 16 22 18 23 17 24
REMARK SMILES IDX 20 25 21 26 25 27 22 29 24 30 23 31 30 32 31 33 32 34 33 35
REMARK SMILES IDX 34 36 35 38 36 39 37 40 83 41 38 42 82 43 39 44 40 45 41 46
REMARK SMILES IDX 76 47 42 48 81 49 75 50 77 51 43 52 80 53 74 54 73 55 44 57
REMARK SMILES IDX 66 58 51 59 65 60 52 61 55 62 64 63 78 64 53 65 54 66 63 68
REMARK SMILES IDX 79 69 56 70 45 71 46 72 50 73 47 74 49 75 48 76 67 77 68 78
REMARK SMILES IDX 72 79 69 80 71 81 70 82 57 83 58 84 62 85 59 86 61 87 60 88
REMARK H PARENT 26 7 20 28 33 37 77 56 55 67
REMARK Flexibility Score: inf
ROOT
ATOM      1  C   UNL A   1      33.415  30.293  26.919  1.00  0.00     0.002 C 
ENDROOT
BRANCH   1   2
ATOM      2  C   UNL A   1      32.087  29.584  26.636  1.00  0.00     0.021 C 
BRANCH   2   3
ATOM      3  C   UNL A   1      31.668  28.538  27.672  1.00  0.00     0.116 C 
BRANCH   3   4
ATOM      4  N   UNL A   1      31.167  27.313  27.075  1.00  0.00    -0.356 N 
ATOM      5  O   UNL A   1      33.218  26.539  26.384  1.00  0.00    -0.275 OA
ATOM      6  C   UNL A   1      32.003  26.395  26.486  1.00  0.00     0.226 C 
ATOM      7  H   UNL A   1      30.199  27.134  27.093  1.00  0.00     0.163 HD
BRANCH   6   8
ATOM      8  C   UNL A   1      31.309  25.173  25.936  1.00  0.00     0.175 C 
BRANCH   8   9
ATOM      9  C   UNL A   1      31.762  24.761  24.528  1.00  0.00     0.284 C 
BRANCH   9  10
ATOM     10  C   UNL A   1      31.875  23.208  24.461  1.00  0.00     0.290 C 
ATOM     11  O   UNL A   1      30.802  22.573  24.522  1.00  0.00    -0.267 OA
ATOM     12  N   UNL A   1      33.091  22.491  24.428  1.00  0.00    -0.276 N 
BRANCH  12  13
ATOM     13  C   UNL A   1      34.483  22.910  24.597  1.00  0.00     0.049 A 
ATOM     14  C   UNL A   1      35.483  22.479  23.689  1.00  0.00     0.027 A 
ATOM     15  C   UNL A   1      34.970  23.688  25.652  1.00  0.00     0.027 A 
ATOM     16  C   UNL A   1      36.858  22.666  23.914  1.00  0.00     0.002 A 
ATOM     17  C   UNL A   1      36.346  23.867  25.899  1.00  0.00     0.002 A 
ATOM     18  C   UNL A   1      37.293  23.331  25.046  1.00  0.00     0.000 A 
ENDBRANCH  12  13
BRANCH  12  19
ATOM     19  C   UNL A   1      32.890  21.064  24.454  1.00  0.00     0.049 A 
ATOM     20  C   UNL A   1      32.546  20.404  23.270  1.00  0.00     0.027 A 
ATOM     21  C   UNL A   1      33.135  20.310  25.604  1.00  0.00     0.027 A 
ATOM     22  C   UNL A   1      32.318  19.030  23.249  1.00  0.00     0.002 A 
ATOM     23  C   UNL A   1      32.957  18.921  25.571  1.00  0.00     0.002 A 
ATOM     24  C   UNL A   1      32.522  18.287  24.405  1.00  0.00     0.000 A 
ENDBRANCH  12  19
ENDBRANCH   9  10
BRANCH   9  25
ATOM     25  N   UNL A   1      30.837  25.186  23.425  1.00  0.00    -0.320 N 
ATOM     26  C   UNL A   1      31.491  25.675  22.204  1.00  0.00     0.291 C 
ATOM     27  C   UNL A   1      29.703  26.061  23.778  1.00  0.00     0.291 C 
ATOM     28  H   UNL A   1      30.422  24.276  23.221  1.00  0.00     0.348 HD
ATOM     29  C   UNL A   1      31.805  27.174  22.233  1.00  0.00     0.221 C 
ATOM     30  C   UNL A   1      29.979  27.576  23.680  1.00  0.00     0.221 C 
ATOM     31  O   UNL A   1      30.615  27.940  22.450  1.00  0.00    -0.370 OA
ENDBRANCH   9  25
ENDBRANCH   8   9
ENDBRANCH   6   8
ENDBRANCH   3   4
ENDBRANCH   2   3
ENDBRANCH   1   2
BRANCH   1  32
ATOM     32  C   UNL A   1      33.282  31.705  27.486  1.00  0.00     0.002 C 
BRANCH  32  33
ATOM     33  C   UNL A   1      34.541  32.345  28.038  1.00  0.00     0.021 C 
BRANCH  33  34
ATOM     34  C   UNL A   1      35.524  31.362  28.648  1.00  0.00     0.116 C 
BRANCH  34  35
ATOM     35  N   UNL A   1      35.431  31.235  30.101  1.00  0.00    -0.352 N 
ATOM     36  C   UNL A   1      36.265  30.564  30.966  1.00  0.00     0.251 C 
ATOM     37  H   UNL A   1      34.666  31.692  30.518  1.00  0.00     0.163 HD
ATOM     38  O   UNL A   1      36.000  30.496  32.163  1.00  0.00    -0.269 OA
BRANCH  36  39
ATOM     39  C   UNL A   1      37.456  29.882  30.423  1.00  0.00     0.039 A 
ATOM     40  C   UNL A   1      37.917  30.221  29.151  1.00  0.00     0.014 A 
ATOM     41  C   UNL A   1      38.171  28.983  31.215  1.00  0.00     0.014 A 
ATOM     42  C   UNL A   1      39.152  29.735  28.718  1.00  0.00     0.010 A 
ATOM     43  C   UNL A   1      39.453  28.614  30.843  1.00  0.00     0.010 A 
ATOM     44  C   UNL A   1      39.956  28.976  29.586  1.00  0.00    -0.014 A 
BRANCH  44  45
ATOM     45  C   UNL A   1      41.323  28.551  29.201  1.00  0.00     0.031 A 
ATOM     46  C   UNL A   1      41.560  27.163  28.671  1.00  0.00     0.074 A 
ATOM     47  C   UNL A   1      42.361  29.386  29.402  1.00  0.00     0.049 A 
ATOM     48  N   UNL A   1      42.684  26.601  28.301  1.00  0.00    -0.248 NA
ATOM     49  C   UNL A   1      40.391  26.271  28.585  1.00  0.00     0.031 C 
ATOM     50  C   UNL A   1      42.277  30.728  29.987  1.00  0.00     0.029 A 
ATOM     51  N   UNL A   1      43.696  29.232  29.126  1.00  0.00    -0.354 N 
ATOM     52  C   UNL A   1      42.358  25.290  27.974  1.00  0.00     0.074 A 
ATOM     53  C   UNL A   1      40.951  25.119  28.253  1.00  0.00     0.031 C 
ATOM     54  C   UNL A   1      43.493  31.296  29.964  1.00  0.00     0.029 A 
ATOM     55  C   UNL A   1      44.447  30.349  29.400  1.00  0.00     0.049 A 
ATOM     56  H   UNL A   1      44.079  28.400  28.764  1.00  0.00     0.167 HD
ATOM     57  C   UNL A   1      43.149  24.323  27.455  1.00  0.00     0.031 A 
ATOM     58  C   UNL A   1      45.756  30.589  29.201  1.00  0.00     0.031 A 
ATOM     59  C   UNL A   1      44.539  24.508  27.141  1.00  0.00     0.049 A 
ATOM     60  C   UNL A   1      46.607  29.514  28.585  1.00  0.00     0.074 A 
ATOM     61  C   UNL A   1      45.410  23.626  26.527  1.00  0.00     0.029 A 
ATOM     62  N   UNL A   1      45.259  25.660  27.418  1.00  0.00    -0.354 N 
ATOM     63  N   UNL A   1      46.264  28.313  28.189  1.00  0.00    -0.248 NA
ATOM     64  C   UNL A   1      48.024  29.839  28.376  1.00  0.00     0.031 C 
ATOM     65  C   UNL A   1      46.672  24.229  26.475  1.00  0.00     0.029 A 
ATOM     66  C   UNL A   1      46.572  25.504  27.010  1.00  0.00     0.049 A 
ATOM     67  H   UNL A   1      44.890  26.469  27.842  1.00  0.00     0.167 HD
ATOM     68  C   UNL A   1      47.416  27.744  27.664  1.00  0.00     0.074 A 
ATOM     69  C   UNL A   1      48.461  28.744  27.770  1.00  0.00     0.031 C 
ATOM     70  C   UNL A   1      47.597  26.507  27.140  1.00  0.00     0.031 A 
BRANCH  57  71
ATOM     71  C   UNL A   1      42.517  22.981  27.200  1.00  0.00    -0.014 A 
ATOM     72  C   UNL A   1      42.423  22.013  28.214  1.00  0.00     0.009 A 
ATOM     73  C   UNL A   1      42.010  22.681  25.927  1.00  0.00     0.009 A 
ATOM     74  C   UNL A   1      41.882  20.754  27.943  1.00  0.00     0.001 A 
ATOM     75  C   UNL A   1      41.439  21.433  25.668  1.00  0.00     0.001 A 
ATOM     76  C   UNL A   1      41.388  20.467  26.672  1.00  0.00     0.000 A 
ENDBRANCH  57  71
BRANCH  58  77
ATOM     77  C   UNL A   1      46.331  31.919  29.530  1.00  0.00    -0.014 A 
ATOM     78  C   UNL A   1      46.332  32.942  28.568  1.00  0.00     0.009 A 
ATOM     79  C   UNL A   1      46.874  32.178  30.797  1.00  0.00     0.009 A 
ATOM     80  C   UNL A   1      46.890  34.189  28.860  1.00  0.00     0.001 A 
ATOM     81  C   UNL A   1      47.407  33.434  31.095  1.00  0.00     0.001 A 
ATOM     82  C   UNL A   1      47.422  34.435  30.124  1.00  0.00     0.000 A 
ENDBRANCH  58  77
BRANCH  70  83
ATOM     83  C   UNL A   1      48.972  26.182  26.629  1.00  0.00    -0.014 A 
ATOM     84  C   UNL A   1      49.887  25.462  27.412  1.00  0.00     0.009 A 
ATOM     85  C   UNL A   1      49.348  26.589  25.339  1.00  0.00     0.009 A 
ATOM     86  C   UNL A   1      51.168  25.193  26.930  1.00  0.00     0.001 A 
ATOM     87  C   UNL A   1      50.620  26.292  24.848  1.00  0.00     0.001 A 
ATOM     88  C   UNL A   1      51.532  25.605  25.648  1.00  0.00     0.000 A 
ENDBRANCH  70  83
ENDBRANCH  44  45
ENDBRANCH  36  39
ENDBRANCH  34  35
ENDBRANCH  33  34
ENDBRANCH  32  33
ENDBRANCH   1  32
TORSDOF 18
ENDMDL
MODEL 2
REMARK VINA RESULT:     -10.4      4.292      9.577
REMARK SMILES O=C(C[C@@H](C(=O)N(c1ccccc1)c1ccccc1)[NH+]1CCOCC1)NCCCCCCNC(=O)c1ccc(-c2c3nc(c(-c4ccccc4)c4ccc([nH]4)c(-c4ccccc4)c4nc(c(-c5ccccc5)c5ccc2[nH]5)C=C4)C=C3)cc1
REMARK SMILES IDX 29 1 28 2 27 3 26 4 1 5 2 6 3 8 4 9 5 10 6 11 7 12 8 13 9 14
REMARK SMILES IDX 13 15 10 16 12 17 11 18 14 19 15 20 19 21 16 22 18 23 17 24
REMARK SMILES IDX 20 25 21 26 25 27 22 29 24 30 23 31 30 32 31 33 32 34 33 35
REMARK SMILES IDX 34 36 35 38 36 39 37 40 83 41 38 42 82 43 39 44 40 45 41 46
REMARK SMILES IDX 76 47 42 48 81 49 75 50 77 51 43 52 80 53 74 54 73 55 44 57
REMARK SMILES IDX 66 58 51 59 65 60 52 61 55 62 64 63 78 64 53 65 54 66 63 68
REMARK SMILES IDX 79 69 56 70 45 71 46 72 50 73 47 74 49 75 48 76 67 77 68 78
REMARK SMILES IDX 72 79 69 80 71 81 70 82 57 83 58 84 62 85 59 86 61 87 60 88
REMARK H PARENT 26 7 20 28 33 37 77 56 55 67
REMARK Flexibility Score: inf
ROOT
ATOM      1  C   UNL A   1      40.759  24.053  27.667  1.00  0.00     0.002 C 
ENDROOT
BRANCH   1   2
ATOM      2  C   UNL A   1      39.403  24.545  27.152  1.00  0.00     0.021 C 
BRANCH   2   3
ATOM      3  C   UNL A   1      38.663  23.579  26.223  1.00  0.00     0.116 C 
BRANCH   3   4
ATOM      4  N   UNL A   1      37.278  23.371  26.604  1.00  0.00    -0.356 N 
ATOM      5  O   UNL A   1      37.010  21.410  25.435  1.00  0.00    -0.275 OA
ATOM      6  C   UNL A   1      36.563  22.275  26.182  1.00  0.00     0.226 C 
ATOM      7  H   UNL A   1      36.837  24.033  27.184  1.00  0.00     0.163 HD
BRANCH   6   8
ATOM      8  C   UNL A   1      35.145  22.214  26.693  1.00  0.00     0.175 C 
BRANCH   8   9
ATOM      9  C   UNL A   1      34.070  22.474  25.628  1.00  0.00     0.284 C 
BRANCH   9  10
ATOM     10  C   UNL A   1      34.087  23.984  25.243  1.00  0.00     0.290 C 
ATOM     11  O   UNL A   1      35.189  24.451  24.890  1.00  0.00    -0.267 OA
ATOM     12  N   UNL A   1      32.981  24.854  25.352  1.00  0.00    -0.276 N 
BRANCH  12  13
ATOM     13  C   UNL A   1      31.656  24.688  25.954  1.00  0.00     0.049 A 
ATOM     14  C   UNL A   1      31.297  23.472  26.588  1.00  0.00     0.027 A 
ATOM     15  C   UNL A   1      30.628  25.636  25.918  1.00  0.00     0.027 A 
ATOM     16  C   UNL A   1      29.984  23.173  26.991  1.00  0.00     0.002 A 
ATOM     17  C   UNL A   1      29.304  25.343  26.301  1.00  0.00     0.002 A 
ATOM     18  C   UNL A   1      28.974  24.101  26.811  1.00  0.00     0.000 A 
ENDBRANCH  12  13
BRANCH  12  19
ATOM     19  C   UNL A   1      33.312  26.214  25.005  1.00  0.00     0.049 A 
ATOM     20  C   UNL A   1      33.175  26.628  23.677  1.00  0.00     0.027 A 
ATOM     21  C   UNL A   1      33.662  27.154  25.976  1.00  0.00     0.027 A 
ATOM     22  C   UNL A   1      33.506  27.924  23.286  1.00  0.00     0.002 A 
ATOM     23  C   UNL A   1      33.944  28.472  25.593  1.00  0.00     0.002 A 
ATOM     24  C   UNL A   1      33.894  28.848  24.248  1.00  0.00     0.000 A 
ENDBRANCH  12  19
ENDBRANCH   9  10
BRANCH   9  25
ATOM     25  N   UNL A   1      34.245  21.691  24.360  1.00  0.00    -0.320 N 
ATOM     26  C   UNL A   1      33.629  22.279  23.163  1.00  0.00     0.291 C 
ATOM     27  C   UNL A   1      33.979  20.240  24.406  1.00  0.00     0.291 C 
ATOM     28  H   UNL A   1      35.258  21.777  24.272  1.00  0.00     0.348 HD
ATOM     29  C   UNL A   1      32.165  21.875  22.963  1.00  0.00     0.221 C 
ATOM     30  C   UNL A   1      32.531  19.821  24.075  1.00  0.00     0.221 C 
ATOM     31  O   UNL A   1      32.034  20.451  22.889  1.00  0.00    -0.370 OA
ENDBRANCH   9  25
ENDBRANCH   8   9
ENDBRANCH   6   8
ENDBRANCH   3   4
ENDBRANCH   2   3
ENDBRANCH   1   2
BRANCH   1  32
ATOM     32  C   UNL A   1      40.956  22.540  27.612  1.00  0.00     0.002 C 
BRANCH  32  33
ATOM     33  C   UNL A   1      41.966  22.014  26.610  1.00  0.00     0.021 C 
BRANCH  33  34
ATOM     34  C   UNL A   1      42.729  23.097  25.868  1.00  0.00     0.116 C 
BRANCH  34  35
ATOM     35  N   UNL A   1      44.165  22.854  25.750  1.00  0.00    -0.352 N 
ATOM     36  C   UNL A   1      45.196  23.388  26.488  1.00  0.00     0.251 C 
ATOM     37  H   UNL A   1      44.431  22.221  25.045  1.00  0.00     0.163 HD
ATOM     38  O   UNL A   1      46.364  23.130  26.209  1.00  0.00    -0.269 OA
BRANCH  36  39
ATOM     39  C   UNL A   1      44.879  24.320  27.588  1.00  0.00     0.039 A 
ATOM     40  C   UNL A   1      44.923  25.694  27.352  1.00  0.00     0.014 A 
ATOM     41  C   UNL A   1      44.442  23.829  28.818  1.00  0.00     0.014 A 
ATOM     42  C   UNL A   1      44.426  26.570  28.319  1.00  0.00     0.010 A 
ATOM     43  C   UNL A   1      43.826  24.686  29.716  1.00  0.00     0.010 A 
ATOM     44  C   UNL A   1      43.820  26.068  29.483  1.00  0.00    -0.014 A 
BRANCH  44  45
ATOM     45  C   UNL A   1      43.173  26.967  30.468  1.00  0.00     0.031 A 
ATOM     46  C   UNL A   1      43.798  27.176  31.822  1.00  0.00     0.074 A 
ATOM     47  C   UNL A   1      41.987  27.534  30.175  1.00  0.00     0.049 A 
ATOM     48  N   UNL A   1      43.374  27.906  32.823  1.00  0.00    -0.248 NA
ATOM     49  C   UNL A   1      45.038  26.434  32.108  1.00  0.00     0.031 C 
ATOM     50  C   UNL A   1      41.235  27.345  28.931  1.00  0.00     0.029 A 
ATOM     51  N   UNL A   1      41.206  28.395  30.903  1.00  0.00    -0.354 N 
ATOM     52  C   UNL A   1      44.274  27.682  33.858  1.00  0.00     0.074 A 
ATOM     53  C   UNL A   1      45.224  26.700  33.391  1.00  0.00     0.031 C 
ATOM     54  C   UNL A   1      40.138  28.119  28.956  1.00  0.00     0.029 A 
ATOM     55  C   UNL A   1      40.089  28.827  30.230  1.00  0.00     0.049 A 
ATOM     56  H   UNL A   1      41.425  28.678  31.821  1.00  0.00     0.167 HD
ATOM     57  C   UNL A   1      44.327  28.266  35.078  1.00  0.00     0.031 A 
ATOM     58  C   UNL A   1      39.141  29.710  30.592  1.00  0.00     0.031 A 
ATOM     59  C   UNL A   1      43.404  29.272  35.526  1.00  0.00     0.049 A 
ATOM     60  C   UNL A   1      39.243  30.378  31.935  1.00  0.00     0.074 A 
ATOM     61  C   UNL A   1      43.421  29.996  36.704  1.00  0.00     0.029 A 
ATOM     62  N   UNL A   1      42.297  29.695  34.807  1.00  0.00    -0.354 N 
ATOM     63  N   UNL A   1      40.156  30.230  32.864  1.00  0.00    -0.248 NA
ATOM     64  C   UNL A   1      38.190  31.346  32.268  1.00  0.00     0.031 C 
ATOM     65  C   UNL A   1      42.294  30.826  36.718  1.00  0.00     0.029 A 
ATOM     66  C   UNL A   1      41.606  30.654  35.528  1.00  0.00     0.049 A 
ATOM     67  H   UNL A   1      42.040  29.363  33.916  1.00  0.00     0.167 HD
ATOM     68  C   UNL A   1      39.800  31.102  33.885  1.00  0.00     0.074 A 
ATOM     69  C   UNL A   1      38.602  31.790  33.447  1.00  0.00     0.031 C 
ATOM     70  C   UNL A   1      40.408  31.315  35.078  1.00  0.00     0.031 A 
BRANCH  57  71
ATOM     71  C   UNL A   1      45.426  27.821  36.005  1.00  0.00    -0.014 A 
ATOM     72  C   UNL A   1      46.682  28.452  36.006  1.00  0.00     0.009 A 
ATOM     73  C   UNL A   1      45.203  26.754  36.888  1.00  0.00     0.009 A 
ATOM     74  C   UNL A   1      47.706  27.990  36.835  1.00  0.00     0.001 A 
ATOM     75  C   UNL A   1      46.219  26.315  37.740  1.00  0.00     0.001 A 
ATOM     76  C   UNL A   1      47.472  26.924  37.703  1.00  0.00     0.000 A 
ENDBRANCH  57  71
BRANCH  58  77
ATOM     77  C   UNL A   1      38.048  30.063  29.649  1.00  0.00    -0.014 A 
ATOM     78  C   UNL A   1      38.101  31.266  28.928  1.00  0.00     0.009 A 
ATOM     79  C   UNL A   1      36.953  29.206  29.460  1.00  0.00     0.009 A 
ATOM     80  C   UNL A   1      37.068  31.617  28.056  1.00  0.00     0.001 A 
ATOM     81  C   UNL A   1      35.935  29.546  28.567  1.00  0.00     0.001 A 
ATOM     82  C   UNL A   1      35.988  30.754  27.873  1.00  0.00     0.000 A 
ENDBRANCH  58  77
BRANCH  70  83
ATOM     83  C   UNL A   1      39.791  32.347  35.977  1.00  0.00    -0.014 A 
ATOM     84  C   UNL A   1      40.224  33.682  35.957  1.00  0.00     0.009 A 
ATOM     85  C   UNL A   1      38.750  31.979  36.844  1.00  0.00     0.009 A 
ATOM     86  C   UNL A   1      39.656  34.619  36.821  1.00  0.00     0.001 A 
ATOM     87  C   UNL A   1      38.163  32.926  37.684  1.00  0.00     0.001 A 
ATOM     88  C   UNL A   1      38.624  34.242  37.680  1.00  0.00     0.000 A 
ENDBRANCH  70  83
ENDBRANCH  44  45
ENDBRANCH  36  39
ENDBRANCH  34  35
ENDBRANCH  33  34
ENDBRANCH  32  33
ENDBRANCH   1  32
TORSDOF 18
ENDMDL
MODEL 3
REMARK VINA RESULT:     -10.0      5.821     12.196
REMARK SMILES O=C(C[C@@H](C(=O)N(c1ccccc1)c1ccccc1)[NH+]1CCOCC1)NCCCCCCNC(=O)c1ccc(-c2c3nc(c(-c4ccccc4)c4ccc([nH]4)c(-c4ccccc4)c4nc(c(-c5ccccc5)c5ccc2[nH]5)C=C4)C=C3)cc1
REMARK SMILES IDX 29 1 28 2 27 3 26 4 1 5 2 6 3 8 4 9 5 10 6 11 7 12 8 13 9 14
REMARK SMILES IDX 13 15 10 16 12 17 11 18 14 19 15 20 19 21 16 22 18 23 17 24
REMARK SMILES IDX 20 25 21 26 25 27 22 29 24 30 23 31 30 32 31 33 32 34 33 35
REMARK SMILES IDX 34 36 35 38 36 39 37 40 83 41 38 42 82 43 39 44 40 45 41 46
REMARK SMILES IDX 76 47 42 48 81 49 75 50 77 51 43 52 80 53 74 54 73 55 44 57
REMARK SMILES IDX 66 58 51 59 65 60 52 61 55 62 64 63 78 64 53 65 54 66 63 68
REMARK SMILES IDX 79 69 56 70 45 71 46 72 50 73 47 74 49 75 48 76 67 77 68 78
REMARK SMILES IDX 72 79 69 80 71 81 70 82 57 83 58 84 62 85 59 86 61 87 60 88
REMARK H PARENT 26 7 20 28 33 37 77 56 55 67
REMARK Flexibility Score: inf
ROOT
ATOM      1  C   UNL A   1      48.096  26.208  24.643  1.00  0.00     0.002 C 
ENDROOT
BRANCH   1   2
ATOM      2  C   UNL A   1      46.876  27.041  25.046  1.00  0.00     0.021 C 
BRANCH   2   3
ATOM      3  C   UNL A   1      45.544  26.287  25.072  1.00  0.00     0.116 C 
BRANCH   3   4
ATOM      4  N   UNL A   1      45.602  25.055  25.837  1.00  0.00    -0.356 N 
ATOM      5  O   UNL A   1      45.076  23.669  24.080  1.00  0.00    -0.275 OA
ATOM      6  C   UNL A   1      45.374  23.828  25.260  1.00  0.00     0.226 C 
ATOM      7  H   UNL A   1      45.811  25.098  26.798  1.00  0.00     0.163 HD
BRANCH   6   8
ATOM      8  C   UNL A   1      45.495  22.656  26.204  1.00  0.00     0.175 C 
BRANCH   8   9
ATOM      9  C   UNL A   1      44.189  21.882  26.432  1.00  0.00     0.284 C 
BRANCH   9  10
ATOM     10  C   UNL A   1      43.024  22.896  26.644  1.00  0.00     0.290 C 
ATOM     11  O   UNL A   1      42.246  23.052  25.680  1.00  0.00    -0.267 OA
ATOM     12  N   UNL A   1      42.853  23.695  27.795  1.00  0.00    -0.276 N 
BRANCH  12  13
ATOM     13  C   UNL A   1      43.705  23.933  28.962  1.00  0.00     0.049 A 
ATOM     14  C   UNL A   1      43.503  23.209  30.164  1.00  0.00     0.027 A 
ATOM     15  C   UNL A   1      44.717  24.895  29.040  1.00  0.00     0.027 A 
ATOM     16  C   UNL A   1      44.138  23.537  31.375  1.00  0.00     0.002 A 
ATOM     17  C   UNL A   1      45.347  25.246  30.250  1.00  0.00     0.002 A 
ATOM     18  C   UNL A   1      45.037  24.587  31.425  1.00  0.00     0.000 A 
ENDBRANCH  12  13
BRANCH  12  19
ATOM     19  C   UNL A   1      41.737  24.600  27.677  1.00  0.00     0.049 A 
ATOM     20  C   UNL A   1      40.439  24.104  27.837  1.00  0.00     0.027 A 
ATOM     21  C   UNL A   1      41.922  25.975  27.515  1.00  0.00     0.027 A 
ATOM     22  C   UNL A   1      39.327  24.933  27.708  1.00  0.00     0.002 A 
ATOM     23  C   UNL A   1      40.806  26.818  27.437  1.00  0.00     0.002 A 
ATOM     24  C   UNL A   1      39.512  26.295  27.505  1.00  0.00     0.000 A 
ENDBRANCH  12  19
ENDBRANCH   9  10
BRANCH   9  25
ATOM     25  N   UNL A   1      43.792  20.980  25.301  1.00  0.00    -0.320 N 
ATOM     26  C   UNL A   1      42.761  19.983  25.620  1.00  0.00     0.291 C 
ATOM     27  C   UNL A   1      44.869  20.360  24.506  1.00  0.00     0.291 C 
ATOM     28  H   UNL A   1      43.376  21.684  24.690  1.00  0.00     0.348 HD
ATOM     29  C   UNL A   1      43.324  18.676  26.187  1.00  0.00     0.221 C 
ATOM     30  C   UNL A   1      45.347  18.980  25.001  1.00  0.00     0.221 C 
ATOM     31  O   UNL A   1      44.261  18.088  25.277  1.00  0.00    -0.370 OA
ENDBRANCH   9  25
ENDBRANCH   8   9
ENDBRANCH   6   8
ENDBRANCH   3   4
ENDBRANCH   2   3
ENDBRANCH   1   2
BRANCH   1  32
ATOM     32  C   UNL A   1      49.308  26.356  25.559  1.00  0.00     0.002 C 
BRANCH  32  33
ATOM     33  C   UNL A   1      49.389  25.420  26.749  1.00  0.00     0.021 C 
BRANCH  33  34
ATOM     34  C   UNL A   1      49.953  26.057  28.006  1.00  0.00     0.116 C 
BRANCH  34  35
ATOM     35  N   UNL A   1      50.666  27.312  27.782  1.00  0.00    -0.352 N 
ATOM     36  C   UNL A   1      50.294  28.592  28.126  1.00  0.00     0.251 C 
ATOM     37  H   UNL A   1      51.531  27.232  27.319  1.00  0.00     0.163 HD
ATOM     38  O   UNL A   1      50.981  29.553  27.796  1.00  0.00    -0.269 OA
BRANCH  36  39
ATOM     39  C   UNL A   1      49.025  28.794  28.854  1.00  0.00     0.039 A 
ATOM     40  C   UNL A   1      49.047  29.416  30.103  1.00  0.00     0.014 A 
ATOM     41  C   UNL A   1      47.811  28.461  28.253  1.00  0.00     0.014 A 
ATOM     42  C   UNL A   1      47.843  29.796  30.699  1.00  0.00     0.010 A 
ATOM     43  C   UNL A   1      46.630  28.959  28.778  1.00  0.00     0.010 A 
ATOM     44  C   UNL A   1      46.629  29.623  30.012  1.00  0.00    -0.014 A 
BRANCH  44  45
ATOM     45  C   UNL A   1      45.349  30.128  30.563  1.00  0.00     0.031 A 
ATOM     46  C   UNL A   1      44.737  31.389  30.015  1.00  0.00     0.074 A 
ATOM     47  C   UNL A   1      44.778  29.496  31.607  1.00  0.00     0.049 A 
ATOM     48  N   UNL A   1      43.636  31.999  30.378  1.00  0.00    -0.248 NA
ATOM     49  C   UNL A   1      45.478  32.084  28.949  1.00  0.00     0.031 C 
ATOM     50  C   UNL A   1      45.314  28.312  32.285  1.00  0.00     0.029 A 
ATOM     51  N   UNL A   1      43.610  29.758  32.277  1.00  0.00    -0.354 N 
ATOM     52  C   UNL A   1      43.577  33.156  29.611  1.00  0.00     0.074 A 
ATOM     53  C   UNL A   1      44.781  33.200  28.815  1.00  0.00     0.031 C 
ATOM     54  C   UNL A   1      44.445  27.913  33.228  1.00  0.00     0.029 A 
ATOM     55  C   UNL A   1      43.314  28.832  33.248  1.00  0.00     0.049 A 
ATOM     56  H   UNL A   1      43.038  30.536  32.081  1.00  0.00     0.167 HD
ATOM     57  C   UNL A   1      42.594  34.083  29.547  1.00  0.00     0.031 A 
ATOM     58  C   UNL A   1      42.240  28.726  34.051  1.00  0.00     0.031 A 
ATOM     59  C   UNL A   1      41.378  34.015  30.311  1.00  0.00     0.049 A 
ATOM     60  C   UNL A   1      41.140  29.744  33.935  1.00  0.00     0.074 A 
ATOM     61  C   UNL A   1      40.276  34.849  30.257  1.00  0.00     0.029 A 
ATOM     62  N   UNL A   1      41.109  33.052  31.271  1.00  0.00    -0.354 N 
ATOM     63  N   UNL A   1      41.052  30.778  33.134  1.00  0.00    -0.248 NA
ATOM     64  C   UNL A   1      39.984  29.566  34.824  1.00  0.00     0.031 C 
ATOM     65  C   UNL A   1      39.357  34.416  31.219  1.00  0.00     0.029 A 
ATOM     66  C   UNL A   1      39.866  33.284  31.835  1.00  0.00     0.049 A 
ATOM     67  H   UNL A   1      41.711  32.312  31.515  1.00  0.00     0.167 HD
ATOM     68  C   UNL A   1      39.824  31.364  33.407  1.00  0.00     0.074 A 
ATOM     69  C   UNL A   1      39.193  30.554  34.430  1.00  0.00     0.031 C 
ATOM     70  C   UNL A   1      39.265  32.473  32.862  1.00  0.00     0.031 A 
BRANCH  57  71
ATOM     71  C   UNL A   1      42.805  35.246  28.616  1.00  0.00    -0.014 A 
ATOM     72  C   UNL A   1      43.411  36.435  29.056  1.00  0.00     0.009 A 
ATOM     73  C   UNL A   1      42.390  35.152  27.279  1.00  0.00     0.009 A 
ATOM     74  C   UNL A   1      43.548  37.522  28.192  1.00  0.00     0.001 A 
ATOM     75  C   UNL A   1      42.559  36.229  26.407  1.00  0.00     0.001 A 
ATOM     76  C   UNL A   1      43.125  37.417  26.867  1.00  0.00     0.000 A 
ENDBRANCH  57  71
BRANCH  58  77
ATOM     77  C   UNL A   1      42.120  27.582  34.992  1.00  0.00    -0.014 A 
ATOM     78  C   UNL A   1      41.568  26.367  34.557  1.00  0.00     0.009 A 
ATOM     79  C   UNL A   1      42.556  27.692  36.321  1.00  0.00     0.009 A 
ATOM     80  C   UNL A   1      41.431  25.293  35.440  1.00  0.00     0.001 A 
ATOM     81  C   UNL A   1      42.443  26.608  37.195  1.00  0.00     0.001 A 
ATOM     82  C   UNL A   1      41.873  25.413  36.756  1.00  0.00     0.000 A 
ENDBRANCH  58  77
BRANCH  70  83
ATOM     83  C   UNL A   1      37.899  32.855  33.355  1.00  0.00    -0.014 A 
ATOM     84  C   UNL A   1      36.739  32.405  32.704  1.00  0.00     0.009 A 
ATOM     85  C   UNL A   1      37.773  33.662  34.496  1.00  0.00     0.009 A 
ATOM     86  C   UNL A   1      35.480  32.794  33.162  1.00  0.00     0.001 A 
ATOM     87  C   UNL A   1      36.511  34.023  34.969  1.00  0.00     0.001 A 
ATOM     88  C   UNL A   1      35.366  33.599  34.296  1.00  0.00     0.000 A 
ENDBRANCH  70  83
ENDBRANCH  44  45
ENDBRANCH  36  39
ENDBRANCH  34  35
ENDBRANCH  33  34
ENDBRANCH  32  33
ENDBRANCH   1  32
TORSDOF 18
ENDMDL
