MODEL 1
REMARK VINA RESULT:     -11.9      0.000      0.000
REMARK SMILES O=C(NCCCCCCNC(=O)[C@@H](Cc1ccccc1)N1C(=O)/C(=C/c2ccncc2)SC1=S)c1ccc(-c2c3nc(c(-c4ccccc4)c4ccc([nH]4)c(-c4ccccc4)c4nc(c(-c5ccccc5)c5ccc2[nH]5)C=C4)C=C3)cc1
REMARK SMILES IDX 6 1 5 2 4 3 3 4 1 5 2 6 35 8 36 9 82 10 37 11 81 12 38 13
REMARK SMILES IDX 39 14 40 15 75 16 41 17 80 18 74 19 76 20 42 21 79 22 73 23
REMARK SMILES IDX 72 24 43 26 65 27 50 28 64 29 51 30 54 31 63 32 77 33 52 34
REMARK SMILES IDX 53 35 62 37 78 38 55 39 44 40 45 41 49 42 46 43 48 44 47 45
REMARK SMILES IDX 66 46 67 47 71 48 68 49 70 50 69 51 56 52 57 53 61 54 58 55
REMARK SMILES IDX 60 56 59 57 7 58 8 59 9 60 10 61 11 62 12 64 13 65 14 66
REMARK SMILES IDX 15 67 16 68 20 69 17 70 19 71 18 72 21 73 22 74 33 75 23 76
REMARK SMILES IDX 24 77 32 78 34 79 25 80 26 81 27 82 31 83 28 84 30 85 29 86
REMARK H PARENT 3 7 76 25 54 36 10 63
REMARK Flexibility Score: inf
ROOT
ATOM      1  C   UNL A   1      36.044  20.690  25.054  1.00  0.00     0.002 C 
ENDROOT
BRANCH   1   2
ATOM      2  C   UNL A   1      37.449  20.255  24.633  1.00  0.00     0.021 C 
BRANCH   2   3
ATOM      3  C   UNL A   1      38.561  20.644  25.602  1.00  0.00     0.116 C 
BRANCH   3   4
ATOM      4  N   UNL A   1      39.581  19.609  25.695  1.00  0.00    -0.352 N 
ATOM      5  O   UNL A   1      41.675  18.777  25.737  1.00  0.00    -0.269 OA
ATOM      6  C   UNL A   1      40.921  19.720  25.963  1.00  0.00     0.251 C 
ATOM      7  H   UNL A   1      39.260  18.691  25.541  1.00  0.00     0.163 HD
BRANCH   6   8
ATOM      8  C   UNL A   1      41.464  20.968  26.542  1.00  0.00     0.039 A 
ATOM      9  C   UNL A   1      41.976  21.967  25.710  1.00  0.00     0.014 A 
ATOM     10  C   UNL A   1      41.378  21.182  27.920  1.00  0.00     0.014 A 
ATOM     11  C   UNL A   1      42.482  23.139  26.259  1.00  0.00     0.010 A 
ATOM     12  C   UNL A   1      41.810  22.396  28.465  1.00  0.00     0.010 A 
ATOM     13  C   UNL A   1      42.362  23.384  27.636  1.00  0.00    -0.014 A 
BRANCH  13  14
ATOM     14  C   UNL A   1      42.668  24.740  28.155  1.00  0.00     0.031 A 
ATOM     15  C   UNL A   1      41.597  25.770  28.351  1.00  0.00     0.074 A 
ATOM     16  C   UNL A   1      43.954  25.028  28.442  1.00  0.00     0.049 A 
ATOM     17  N   UNL A   1      41.714  26.997  28.792  1.00  0.00    -0.248 NA
ATOM     18  C   UNL A   1      40.219  25.384  28.008  1.00  0.00     0.031 C 
ATOM     19  C   UNL A   1      45.083  24.104  28.272  1.00  0.00     0.029 A 
ATOM     20  N   UNL A   1      44.532  26.164  28.944  1.00  0.00    -0.354 N 
ATOM     21  C   UNL A   1      40.435  27.537  28.764  1.00  0.00     0.074 A 
ATOM     22  C   UNL A   1      39.555  26.509  28.250  1.00  0.00     0.031 C 
ATOM     23  C   UNL A   1      46.207  24.699  28.694  1.00  0.00     0.029 A 
ATOM     24  C   UNL A   1      45.896  26.065  29.094  1.00  0.00     0.049 A 
ATOM     25  H   UNL A   1      44.022  26.974  29.174  1.00  0.00     0.167 HD
ATOM     26  C   UNL A   1      40.039  28.778  29.132  1.00  0.00     0.031 A 
ATOM     27  C   UNL A   1      46.804  26.981  29.475  1.00  0.00     0.031 A 
ATOM     28  C   UNL A   1      40.925  29.795  29.642  1.00  0.00     0.049 A 
ATOM     29  C   UNL A   1      46.332  28.361  29.828  1.00  0.00     0.074 A 
ATOM     30  C   UNL A   1      40.606  31.062  30.097  1.00  0.00     0.029 A 
ATOM     31  N   UNL A   1      42.301  29.667  29.747  1.00  0.00    -0.354 N 
ATOM     32  N   UNL A   1      45.108  28.828  29.870  1.00  0.00    -0.248 NA
ATOM     33  C   UNL A   1      47.367  29.340  30.182  1.00  0.00     0.031 C 
ATOM     34  C   UNL A   1      41.794  31.728  30.409  1.00  0.00     0.029 A 
ATOM     35  C   UNL A   1      42.849  30.851  30.213  1.00  0.00     0.049 A 
ATOM     36  H   UNL A   1      42.813  28.856  29.524  1.00  0.00     0.167 HD
ATOM     37  C   UNL A   1      45.225  30.153  30.264  1.00  0.00     0.074 A 
ATOM     38  C   UNL A   1      46.635  30.403  30.486  1.00  0.00     0.031 C 
ATOM     39  C   UNL A   1      44.254  31.084  30.420  1.00  0.00     0.031 A 
BRANCH  26  40
ATOM     40  C   UNL A   1      38.587  29.140  28.975  1.00  0.00    -0.014 A 
ATOM     41  C   UNL A   1      37.690  29.047  30.049  1.00  0.00     0.009 A 
ATOM     42  C   UNL A   1      38.139  29.683  27.760  1.00  0.00     0.009 A 
ATOM     43  C   UNL A   1      36.370  29.481  29.904  1.00  0.00     0.001 A 
ATOM     44  C   UNL A   1      36.827  30.137  27.626  1.00  0.00     0.001 A 
ATOM     45  C   UNL A   1      35.941  30.034  28.697  1.00  0.00     0.000 A 
ENDBRANCH  26  40
BRANCH  27  46
ATOM     46  C   UNL A   1      48.252  26.643  29.484  1.00  0.00    -0.014 A 
ATOM     47  C   UNL A   1      49.048  26.852  28.347  1.00  0.00     0.009 A 
ATOM     48  C   UNL A   1      48.840  26.078  30.627  1.00  0.00     0.009 A 
ATOM     49  C   UNL A   1      50.390  26.465  28.344  1.00  0.00     0.001 A 
ATOM     50  C   UNL A   1      50.190  25.728  30.635  1.00  0.00     0.001 A 
ATOM     51  C   UNL A   1      50.961  25.907  29.489  1.00  0.00     0.000 A 
ENDBRANCH  27  46
BRANCH  39  52
ATOM     52  C   UNL A   1      44.688  32.452  30.864  1.00  0.00    -0.014 A 
ATOM     53  C   UNL A   1      44.916  33.478  29.933  1.00  0.00     0.009 A 
ATOM     54  C   UNL A   1      44.843  32.726  32.231  1.00  0.00     0.009 A 
ATOM     55  C   UNL A   1      45.325  34.741  30.362  1.00  0.00     0.001 A 
ATOM     56  C   UNL A   1      45.219  34.000  32.659  1.00  0.00     0.001 A 
ATOM     57  C   UNL A   1      45.470  35.003  31.723  1.00  0.00     0.000 A 
ENDBRANCH  39  52
ENDBRANCH  13  14
ENDBRANCH   6   8
ENDBRANCH   3   4
ENDBRANCH   2   3
ENDBRANCH   1   2
BRANCH   1  58
ATOM     58  C   UNL A   1      35.668  22.139  24.722  1.00  0.00     0.002 C 
BRANCH  58  59
ATOM     59  C   UNL A   1      35.200  22.995  25.906  1.00  0.00     0.021 C 
BRANCH  59  60
ATOM     60  C   UNL A   1      34.848  24.449  25.557  1.00  0.00     0.116 C 
BRANCH  60  61
ATOM     61  N   UNL A   1      33.606  24.865  26.181  1.00  0.00    -0.354 N 
ATOM     62  C   UNL A   1      32.387  25.271  25.754  1.00  0.00     0.243 C 
ATOM     63  H   UNL A   1      33.664  24.849  27.164  1.00  0.00     0.163 HD
ATOM     64  O   UNL A   1      31.643  25.691  26.656  1.00  0.00    -0.273 OA
BRANCH  62  65
ATOM     65  C   UNL A   1      31.899  25.408  24.280  1.00  0.00     0.185 C 
BRANCH  65  66
ATOM     66  C   UNL A   1      31.035  24.150  23.966  1.00  0.00     0.071 C 
BRANCH  66  67
ATOM     67  C   UNL A   1      31.559  22.725  24.024  1.00  0.00    -0.045 A 
ATOM     68  C   UNL A   1      31.685  21.950  25.181  1.00  0.00     0.004 A 
ATOM     69  C   UNL A   1      31.902  22.121  22.801  1.00  0.00     0.004 A 
ATOM     70  C   UNL A   1      32.178  20.642  25.135  1.00  0.00     0.000 A 
ATOM     71  C   UNL A   1      32.385  20.811  22.749  1.00  0.00     0.000 A 
ATOM     72  C   UNL A   1      32.537  20.075  23.920  1.00  0.00     0.000 A 
ENDBRANCH  66  67
ENDBRANCH  65  66
BRANCH  65  73
ATOM     73  N   UNL A   1      31.429  26.723  23.788  1.00  0.00    -0.280 N 
ATOM     74  C   UNL A   1      30.081  27.037  23.913  1.00  0.00     0.266 C 
ATOM     75  C   UNL A   1      32.207  27.864  23.663  1.00  0.00     0.149 C 
ATOM     76  O   UNL A   1      29.213  26.342  24.429  1.00  0.00    -0.268 OA
ATOM     77  C   UNL A   1      29.804  28.402  23.386  1.00  0.00     0.081 C 
ATOM     78  S   UNL A   1      31.271  29.109  22.849  1.00  0.00    -0.054 SA
ATOM     79  S   UNL A   1      33.744  28.204  24.213  1.00  0.00    -0.052 S 
ATOM     80  C   UNL A   1      28.591  28.973  23.369  1.00  0.00     0.029 C 
BRANCH  80  81
ATOM     81  C   UNL A   1      28.330  30.261  22.715  1.00  0.00    -0.021 A 
ATOM     82  C   UNL A   1      28.077  30.275  21.341  1.00  0.00     0.028 A 
ATOM     83  C   UNL A   1      28.413  31.469  23.402  1.00  0.00     0.028 A 
ATOM     84  C   UNL A   1      27.928  31.497  20.711  1.00  0.00     0.111 A 
ATOM     85  C   UNL A   1      28.246  32.641  22.681  1.00  0.00     0.111 A 
ATOM     86  N   UNL A   1      28.006  32.681  21.352  1.00  0.00    -0.265 NA
ENDBRANCH  80  81
ENDBRANCH  65  73
ENDBRANCH  62  65
ENDBRANCH  60  61
ENDBRANCH  59  60
ENDBRANCH  58  59
ENDBRANCH   1  58
TORSDOF 17
ENDMDL
MODEL 2
REMARK VINA RESULT:     -11.8      0.287      5.677
REMARK SMILES O=C(NCCCCCCNC(=O)[C@@H](Cc1ccccc1)N1C(=O)/C(=C/c2ccncc2)SC1=S)c1ccc(-c2c3nc(c(-c4ccccc4)c4ccc([nH]4)c(-c4ccccc4)c4nc(c(-c5ccccc5)c5ccc2[nH]5)C=C4)C=C3)cc1
REMARK SMILES IDX 6 1 5 2 4 3 3 4 1 5 2 6 35 8 36 9 82 10 37 11 81 12 38 13
REMARK SMILES IDX 39 14 40 15 75 16 41 17 80 18 74 19 76 20 42 21 79 22 73 23
REMARK SMILES IDX 72 24 43 26 65 27 50 28 64 29 51 30 54 31 63 32 77 33 52 34
REMARK SMILES IDX 53 35 62 37 78 38 55 39 44 40 45 41 49 42 46 43 48 44 47 45
REMARK SMILES IDX 66 46 67 47 71 48 68 49 70 50 69 51 56 52 57 53 61 54 58 55
REMARK SMILES IDX 60 56 59 57 7 58 8 59 9 60 10 61 11 62 12 64 13 65 14 66
REMARK SMILES IDX 15 67 16 68 20 69 17 70 19 71 18 72 21 73 22 74 33 75 23 76
REMARK SMILES IDX 24 77 32 78 34 79 25 80 26 81 27 82 31 83 28 84 30 85 29 86
REMARK H PARENT 3 7 76 25 54 36 10 63
REMARK Flexibility Score: inf
ROOT
ATOM      1  C   UNL A   1      36.086  20.829  25.107  1.00  0.00     0.002 C 
ENDROOT
BRANCH   1   2
ATOM      2  C   UNL A   1      37.486  20.372  24.692  1.00  0.00     0.021 C 
BRANCH   2   3
ATOM      3  C   UNL A   1      38.601  20.750  25.661  1.00  0.00     0.116 C 
BRANCH   3   4
ATOM      4  N   UNL A   1      39.603  19.699  25.766  1.00  0.00    -0.352 N 
ATOM      5  O   UNL A   1      41.682  18.831  25.817  1.00  0.00    -0.269 OA
ATOM      6  C   UNL A   1      40.945  19.790  26.033  1.00  0.00     0.251 C 
ATOM      7  H   UNL A   1      39.266  18.785  25.623  1.00  0.00     0.163 HD
BRANCH   6   8
ATOM      8  C   UNL A   1      41.510  21.035  26.595  1.00  0.00     0.039 A 
ATOM      9  C   UNL A   1      42.050  22.009  25.752  1.00  0.00     0.014 A 
ATOM     10  C   UNL A   1      41.417  21.273  27.970  1.00  0.00     0.014 A 
ATOM     11  C   UNL A   1      42.577  23.179  26.287  1.00  0.00     0.010 A 
ATOM     12  C   UNL A   1      41.870  22.486  28.499  1.00  0.00     0.010 A 
ATOM     13  C   UNL A   1      42.450  23.448  27.659  1.00  0.00    -0.014 A 
BRANCH  13  14
ATOM     14  C   UNL A   1      42.781  24.805  28.158  1.00  0.00     0.031 A 
ATOM     15  C   UNL A   1      44.178  25.183  28.552  1.00  0.00     0.074 A 
ATOM     16  C   UNL A   1      41.778  25.702  28.257  1.00  0.00     0.049 A 
ATOM     17  N   UNL A   1      44.617  26.329  29.008  1.00  0.00    -0.248 NA
ATOM     18  C   UNL A   1      45.217  24.149  28.424  1.00  0.00     0.031 C 
ATOM     19  C   UNL A   1      40.374  25.436  27.918  1.00  0.00     0.029 A 
ATOM     20  N   UNL A   1      41.777  27.012  28.658  1.00  0.00    -0.354 N 
ATOM     21  C   UNL A   1      45.975  26.152  29.239  1.00  0.00     0.074 A 
ATOM     22  C   UNL A   1      46.289  24.784  28.885  1.00  0.00     0.031 C 
ATOM     23  C   UNL A   1      39.659  26.556  28.092  1.00  0.00     0.029 A 
ATOM     24  C   UNL A   1      40.531  27.594  28.623  1.00  0.00     0.049 A 
ATOM     25  H   UNL A   1      42.588  27.490  28.944  1.00  0.00     0.167 HD
ATOM     26  C   UNL A   1      46.871  27.053  29.706  1.00  0.00     0.031 A 
ATOM     27  C   UNL A   1      40.125  28.817  29.010  1.00  0.00     0.031 A 
ATOM     28  C   UNL A   1      46.548  28.413  30.056  1.00  0.00     0.049 A 
ATOM     29  C   UNL A   1      41.139  29.771  29.569  1.00  0.00     0.074 A 
ATOM     30  C   UNL A   1      47.401  29.417  30.482  1.00  0.00     0.029 A 
ATOM     31  N   UNL A   1      45.272  28.954  30.039  1.00  0.00    -0.354 N 
ATOM     32  N   UNL A   1      42.433  29.611  29.707  1.00  0.00    -0.248 NA
ATOM     33  C   UNL A   1      40.637  31.071  30.031  1.00  0.00     0.031 C 
ATOM     34  C   UNL A   1      46.633  30.542  30.792  1.00  0.00     0.029 A 
ATOM     35  C   UNL A   1      45.309  30.262  30.495  1.00  0.00     0.049 A 
ATOM     36  H   UNL A   1      44.460  28.480  29.747  1.00  0.00     0.167 HD
ATOM     37  C   UNL A   1      42.901  30.794  30.260  1.00  0.00     0.074 A 
ATOM     38  C   UNL A   1      41.759  31.674  30.398  1.00  0.00     0.031 C 
ATOM     39  C   UNL A   1      44.162  31.120  30.631  1.00  0.00     0.031 A 
BRANCH  26  40
ATOM     40  C   UNL A   1      48.294  26.607  29.903  1.00  0.00    -0.014 A 
ATOM     41  C   UNL A   1      48.704  25.966  31.081  1.00  0.00     0.009 A 
ATOM     42  C   UNL A   1      49.211  26.735  28.846  1.00  0.00     0.009 A 
ATOM     43  C   UNL A   1      50.007  25.474  31.200  1.00  0.00     0.001 A 
ATOM     44  C   UNL A   1      50.503  26.222  28.959  1.00  0.00     0.001 A 
ATOM     45  C   UNL A   1      50.902  25.594  30.137  1.00  0.00     0.000 A 
ENDBRANCH  26  40
BRANCH  27  46
ATOM     46  C   UNL A   1      38.686  29.186  28.941  1.00  0.00    -0.014 A 
ATOM     47  C   UNL A   1      37.844  29.017  30.050  1.00  0.00     0.009 A 
ATOM     48  C   UNL A   1      38.140  29.683  27.746  1.00  0.00     0.009 A 
ATOM     49  C   UNL A   1      36.480  29.300  29.951  1.00  0.00     0.001 A 
ATOM     50  C   UNL A   1      36.785  30.003  27.661  1.00  0.00     0.001 A 
ATOM     51  C   UNL A   1      35.953  29.797  28.758  1.00  0.00     0.000 A 
ENDBRANCH  27  46
BRANCH  39  52
ATOM     52  C   UNL A   1      44.368  32.492  31.209  1.00  0.00    -0.014 A 
ATOM     53  C   UNL A   1      44.261  32.721  32.590  1.00  0.00     0.009 A 
ATOM     54  C   UNL A   1      44.700  33.561  30.365  1.00  0.00     0.009 A 
ATOM     55  C   UNL A   1      44.449  34.002  33.109  1.00  0.00     0.001 A 
ATOM     56  C   UNL A   1      44.920  34.835  30.890  1.00  0.00     0.001 A 
ATOM     57  C   UNL A   1      44.784  35.056  32.260  1.00  0.00     0.000 A 
ENDBRANCH  39  52
ENDBRANCH  13  14
ENDBRANCH   6   8
ENDBRANCH   3   4
ENDBRANCH   2   3
ENDBRANCH   1   2
BRANCH   1  58
ATOM     58  C   UNL A   1      35.729  22.280  24.763  1.00  0.00     0.002 C 
BRANCH  58  59
ATOM     59  C   UNL A   1      35.228  23.139  25.931  1.00  0.00     0.021 C 
BRANCH  59  60
ATOM     60  C   UNL A   1      34.837  24.578  25.557  1.00  0.00     0.116 C 
BRANCH  60  61
ATOM     61  N   UNL A   1      33.586  24.972  26.178  1.00  0.00    -0.354 N 
ATOM     62  C   UNL A   1      32.359  25.350  25.747  1.00  0.00     0.243 C 
ATOM     63  H   UNL A   1      33.643  24.962  27.160  1.00  0.00     0.163 HD
ATOM     64  O   UNL A   1      31.605  25.760  26.645  1.00  0.00    -0.273 OA
BRANCH  62  65
ATOM     65  C   UNL A   1      31.871  25.469  24.271  1.00  0.00     0.185 C 
BRANCH  65  66
ATOM     66  C   UNL A   1      31.015  24.201  23.969  1.00  0.00     0.071 C 
BRANCH  66  67
ATOM     67  C   UNL A   1      31.546  22.781  24.051  1.00  0.00    -0.045 A 
ATOM     68  C   UNL A   1      31.653  22.017  25.217  1.00  0.00     0.004 A 
ATOM     69  C   UNL A   1      31.919  22.167  22.842  1.00  0.00     0.004 A 
ATOM     70  C   UNL A   1      32.155  20.711  25.194  1.00  0.00     0.000 A 
ATOM     71  C   UNL A   1      32.411  20.859  22.812  1.00  0.00     0.000 A 
ATOM     72  C   UNL A   1      32.542  20.135  23.992  1.00  0.00     0.000 A 
ENDBRANCH  66  67
ENDBRANCH  65  66
BRANCH  65  73
ATOM     73  N   UNL A   1      31.392  26.776  23.765  1.00  0.00    -0.280 N 
ATOM     74  C   UNL A   1      30.042  27.081  23.885  1.00  0.00     0.266 C 
ATOM     75  C   UNL A   1      32.162  27.920  23.630  1.00  0.00     0.149 C 
ATOM     76  O   UNL A   1      29.178  26.385  24.406  1.00  0.00    -0.268 OA
ATOM     77  C   UNL A   1      29.756  28.439  23.344  1.00  0.00     0.081 C 
ATOM     78  S   UNL A   1      31.219  29.150  22.803  1.00  0.00    -0.054 SA
ATOM     79  S   UNL A   1      33.696  28.277  24.180  1.00  0.00    -0.052 S 
ATOM     80  C   UNL A   1      28.539  29.001  23.320  1.00  0.00     0.029 C 
BRANCH  80  81
ATOM     81  C   UNL A   1      28.270  30.280  22.652  1.00  0.00    -0.021 A 
ATOM     82  C   UNL A   1      28.103  30.290  21.265  1.00  0.00     0.028 A 
ATOM     83  C   UNL A   1      28.262  31.487  23.346  1.00  0.00     0.028 A 
ATOM     84  C   UNL A   1      27.947  31.508  20.629  1.00  0.00     0.111 A 
ATOM     85  C   UNL A   1      28.095  32.655  22.617  1.00  0.00     0.111 A 
ATOM     86  N   UNL A   1      27.939  32.692  21.275  1.00  0.00    -0.265 NA
ENDBRANCH  80  81
ENDBRANCH  65  73
ENDBRANCH  62  65
ENDBRANCH  60  61
ENDBRANCH  59  60
ENDBRANCH  58  59
ENDBRANCH   1  58
TORSDOF 17
ENDMDL
MODEL 3
REMARK VINA RESULT:     -11.7      4.150      9.545
REMARK SMILES O=C(NCCCCCCNC(=O)[C@@H](Cc1ccccc1)N1C(=O)/C(=C/c2ccncc2)SC1=S)c1ccc(-c2c3nc(c(-c4ccccc4)c4ccc([nH]4)c(-c4ccccc4)c4nc(c(-c5ccccc5)c5ccc2[nH]5)C=C4)C=C3)cc1
REMARK SMILES IDX 6 1 5 2 4 3 3 4 1 5 2 6 35 8 36 9 82 10 37 11 81 12 38 13
REMARK SMILES IDX 39 14 40 15 75 16 41 17 80 18 74 19 76 20 42 21 79 22 73 23
REMARK SMILES IDX 72 24 43 26 65 27 50 28 64 29 51 30 54 31 63 32 77 33 52 34
REMARK SMILES IDX 53 35 62 37 78 38 55 39 44 40 45 41 49 42 46 43 48 44 47 45
REMARK SMILES IDX 66 46 67 47 71 48 68 49 70 50 69 51 56 52 57 53 61 54 58 55
REMARK SMILES IDX 60 56 59 57 7 58 8 59 9 60 10 61 11 62 12 64 13 65 14 66
REMARK SMILES IDX 15 67 16 68 20 69 17 70 19 71 18 72 21 73 22 74 33 75 23 76
REMARK SMILES IDX 24 77 32 78 34 79 25 80 26 81 27 82 31 83 28 84 30 85 29 86
REMARK H PARENT 3 7 76 25 54 36 10 63
REMARK Flexibility Score: inf
ROOT
ATOM      1  C   UNL A   1      31.515  30.742  26.286  1.00  0.00     0.002 C 
ENDROOT
BRANCH   1   2
ATOM      2  C   UNL A   1      31.376  32.210  26.695  1.00  0.00     0.021 C 
BRANCH   2   3
ATOM      3  C   UNL A   1      32.642  32.843  27.263  1.00  0.00     0.116 C 
BRANCH   3   4
ATOM      4  N   UNL A   1      32.443  34.248  27.591  1.00  0.00    -0.352 N 
ATOM      5  O   UNL A   1      32.517  36.094  28.881  1.00  0.00    -0.269 OA
ATOM      6  C   UNL A   1      33.002  35.004  28.588  1.00  0.00     0.251 C 
ATOM      7  H   UNL A   1      31.810  34.726  27.008  1.00  0.00     0.163 HD
BRANCH   6   8
ATOM      8  C   UNL A   1      34.200  34.520  29.307  1.00  0.00     0.039 A 
ATOM      9  C   UNL A   1      34.076  33.919  30.562  1.00  0.00     0.014 A 
ATOM     10  C   UNL A   1      35.450  34.584  28.683  1.00  0.00     0.014 A 
ATOM     11  C   UNL A   1      35.206  33.463  31.231  1.00  0.00     0.010 A 
ATOM     12  C   UNL A   1      36.575  34.050  29.319  1.00  0.00     0.010 A 
ATOM     13  C   UNL A   1      36.458  33.482  30.597  1.00  0.00    -0.014 A 
BRANCH  13  14
ATOM     14  C   UNL A   1      37.591  32.757  31.222  1.00  0.00     0.031 A 
ATOM     15  C   UNL A   1      38.186  33.197  32.527  1.00  0.00     0.074 A 
ATOM     16  C   UNL A   1      38.083  31.680  30.575  1.00  0.00     0.049 A 
ATOM     17  N   UNL A   1      39.180  32.664  33.192  1.00  0.00    -0.248 NA
ATOM     18  C   UNL A   1      37.601  34.384  33.168  1.00  0.00     0.031 C 
ATOM     19  C   UNL A   1      37.591  31.173  29.289  1.00  0.00     0.029 A 
ATOM     20  N   UNL A   1      39.092  30.814  30.906  1.00  0.00    -0.354 N 
ATOM     21  C   UNL A   1      39.353  33.458  34.319  1.00  0.00     0.074 A 
ATOM     22  C   UNL A   1      38.370  34.517  34.243  1.00  0.00     0.031 C 
ATOM     23  C   UNL A   1      38.275  30.069  28.959  1.00  0.00     0.029 A 
ATOM     24  C   UNL A   1      39.299  29.831  29.967  1.00  0.00     0.049 A 
ATOM     25  H   UNL A   1      39.619  30.889  31.734  1.00  0.00     0.167 HD
ATOM     26  C   UNL A   1      40.254  33.310  35.319  1.00  0.00     0.031 A 
ATOM     27  C   UNL A   1      40.233  28.864  29.902  1.00  0.00     0.031 A 
ATOM     28  C   UNL A   1      41.229  32.251  35.383  1.00  0.00     0.049 A 
ATOM     29  C   UNL A   1      41.245  28.764  31.005  1.00  0.00     0.074 A 
ATOM     30  C   UNL A   1      42.144  31.986  36.388  1.00  0.00     0.029 A 
ATOM     31  N   UNL A   1      41.429  31.296  34.399  1.00  0.00    -0.354 N 
ATOM     32  N   UNL A   1      41.343  29.476  32.101  1.00  0.00    -0.248 NA
ATOM     33  C   UNL A   1      42.277  27.730  30.859  1.00  0.00     0.031 C 
ATOM     34  C   UNL A   1      42.946  30.916  35.979  1.00  0.00     0.029 A 
ATOM     35  C   UNL A   1      42.486  30.472  34.750  1.00  0.00     0.049 A 
ATOM     36  H   UNL A   1      40.899  31.216  33.573  1.00  0.00     0.167 HD
ATOM     37  C   UNL A   1      42.441  28.969  32.781  1.00  0.00     0.074 A 
ATOM     38  C   UNL A   1      42.952  27.867  31.993  1.00  0.00     0.031 C 
ATOM     39  C   UNL A   1      42.984  29.385  33.950  1.00  0.00     0.031 A 
BRANCH  26  40
ATOM     40  C   UNL A   1      40.264  34.330  36.425  1.00  0.00    -0.014 A 
ATOM     41  C   UNL A   1      40.938  35.552  36.288  1.00  0.00     0.009 A 
ATOM     42  C   UNL A   1      39.495  34.104  37.579  1.00  0.00     0.009 A 
ATOM     43  C   UNL A   1      40.851  36.522  37.290  1.00  0.00     0.001 A 
ATOM     44  C   UNL A   1      39.391  35.083  38.567  1.00  0.00     0.001 A 
ATOM     45  C   UNL A   1      40.071  36.291  38.424  1.00  0.00     0.000 A 
ENDBRANCH  26  40
BRANCH  27  46
ATOM     46  C   UNL A   1      40.293  27.957  28.725  1.00  0.00    -0.014 A 
ATOM     47  C   UNL A   1      39.647  26.712  28.740  1.00  0.00     0.009 A 
ATOM     48  C   UNL A   1      41.029  28.324  27.587  1.00  0.00     0.009 A 
ATOM     49  C   UNL A   1      39.770  25.840  27.657  1.00  0.00     0.001 A 
ATOM     50  C   UNL A   1      41.118  27.467  26.490  1.00  0.00     0.001 A 
ATOM     51  C   UNL A   1      40.502  26.219  26.531  1.00  0.00     0.000 A 
ENDBRANCH  27  46
BRANCH  39  52
ATOM     52  C   UNL A   1      44.186  28.632  34.447  1.00  0.00    -0.014 A 
ATOM     53  C   UNL A   1      45.487  29.047  34.120  1.00  0.00     0.009 A 
ATOM     54  C   UNL A   1      44.015  27.513  35.274  1.00  0.00     0.009 A 
ATOM     55  C   UNL A   1      46.592  28.332  34.585  1.00  0.00     0.001 A 
ATOM     56  C   UNL A   1      45.123  26.820  35.765  1.00  0.00     0.001 A 
ATOM     57  C   UNL A   1      46.410  27.224  35.411  1.00  0.00     0.000 A 
ENDBRANCH  39  52
ENDBRANCH  13  14
ENDBRANCH   6   8
ENDBRANCH   3   4
ENDBRANCH   2   3
ENDBRANCH   1   2
BRANCH   1  58
ATOM     58  C   UNL A   1      32.374  29.871  27.211  1.00  0.00     0.002 C 
BRANCH  58  59
ATOM     59  C   UNL A   1      32.727  28.478  26.676  1.00  0.00     0.021 C 
BRANCH  59  60
ATOM     60  C   UNL A   1      33.990  28.420  25.802  1.00  0.00     0.116 C 
BRANCH  60  61
ATOM     61  N   UNL A   1      33.727  28.874  24.449  1.00  0.00    -0.354 N 
ATOM     62  C   UNL A   1      32.913  28.498  23.434  1.00  0.00     0.243 C 
ATOM     63  H   UNL A   1      34.280  29.651  24.207  1.00  0.00     0.163 HD
ATOM     64  O   UNL A   1      33.128  29.087  22.362  1.00  0.00    -0.273 OA
BRANCH  62  65
ATOM     65  C   UNL A   1      31.879  27.332  23.434  1.00  0.00     0.185 C 
BRANCH  65  66
ATOM     66  C   UNL A   1      30.708  27.759  22.497  1.00  0.00     0.071 C 
BRANCH  66  67
ATOM     67  C   UNL A   1      29.672  28.808  22.859  1.00  0.00    -0.045 A 
ATOM     68  C   UNL A   1      29.942  30.137  23.198  1.00  0.00     0.004 A 
ATOM     69  C   UNL A   1      28.322  28.419  22.803  1.00  0.00     0.004 A 
ATOM     70  C   UNL A   1      28.918  31.034  23.517  1.00  0.00     0.000 A 
ATOM     71  C   UNL A   1      27.294  29.314  23.110  1.00  0.00     0.000 A 
ATOM     72  C   UNL A   1      27.593  30.620  23.481  1.00  0.00     0.000 A 
ENDBRANCH  66  67
ENDBRANCH  65  66
BRANCH  65  73
ATOM     73  N   UNL A   1      32.359  25.933  23.364  1.00  0.00    -0.280 N 
ATOM     74  C   UNL A   1      31.983  25.050  24.369  1.00  0.00     0.266 C 
ATOM     75  C   UNL A   1      32.724  25.261  22.208  1.00  0.00     0.149 C 
ATOM     76  O   UNL A   1      31.250  25.295  25.321  1.00  0.00    -0.268 OA
ATOM     77  C   UNL A   1      32.541  23.693  24.117  1.00  0.00     0.081 C 
ATOM     78  S   UNL A   1      33.417  23.706  22.644  1.00  0.00    -0.054 SA
ATOM     79  S   UNL A   1      32.527  25.663  20.602  1.00  0.00    -0.052 S 
ATOM     80  C   UNL A   1      32.349  22.637  24.922  1.00  0.00     0.029 C 
BRANCH  80  81
ATOM     81  C   UNL A   1      33.028  21.352  24.718  1.00  0.00    -0.021 A 
ATOM     82  C   UNL A   1      32.278  20.262  24.268  1.00  0.00     0.028 A 
ATOM     83  C   UNL A   1      34.370  21.167  25.039  1.00  0.00     0.028 A 
ATOM     84  C   UNL A   1      32.900  19.030  24.170  1.00  0.00     0.111 A 
ATOM     85  C   UNL A   1      34.902  19.893  24.903  1.00  0.00     0.111 A 
ATOM     86  N   UNL A   1      34.196  18.822  24.477  1.00  0.00    -0.265 NA
ENDBRANCH  80  81
ENDBRANCH  65  73
ENDBRANCH  62  65
ENDBRANCH  60  61
ENDBRANCH  59  60
ENDBRANCH  58  59
ENDBRANCH   1  58
TORSDOF 17
ENDMDL
