MODEL 1
REMARK VINA RESULT:     -11.7      0.000      0.000
REMARK SMILES Cc1cc(Cl)cc2c1O[C@H](C(F)(F)F)C(C(=O)NCCCCCCNC(=O)c1ccc(-c3c4nc(c(-c5ccccc5)c5ccc([nH]5)c(-c5ccccc5)c5nc(c(-c6ccccc6)c6ccc3[nH]6)C=C5)C=C4)cc1)=C2
REMARK SMILES IDX 22 1 21 2 20 3 19 4 18 5 16 6 17 7 15 9 1 10 2 11 3 12 8 13
REMARK SMILES IDX 4 14 7 15 9 16 5 17 6 18 76 19 10 20 11 21 12 22 13 23 14 24
REMARK SMILES IDX 23 25 24 26 25 27 26 28 27 30 28 31 29 32 75 33 30 34 74 35
REMARK SMILES IDX 31 36 32 37 33 38 68 39 34 40 73 41 67 42 69 43 35 44 72 45
REMARK SMILES IDX 66 46 65 47 36 49 58 50 43 51 57 52 44 53 47 54 56 55 70 56
REMARK SMILES IDX 45 57 46 58 55 60 71 61 48 62 37 63 38 64 42 65 39 66 41 67
REMARK SMILES IDX 40 68 59 69 60 70 64 71 61 72 63 73 62 74 49 75 50 76 54 77
REMARK SMILES IDX 51 78 53 79 52 80
REMARK H PARENT 18 8 25 29 69 48 47 59
REMARK Flexibility Score: inf
ROOT
ATOM      1  C   UNL A   1      31.276  27.394  26.352  1.00  0.00     0.002 C 
ENDROOT
BRANCH   1   2
ATOM      2  C   UNL A   1      31.432  28.183  25.045  1.00  0.00     0.002 C 
BRANCH   2   3
ATOM      3  C   UNL A   1      30.539  27.709  23.897  1.00  0.00     0.021 C 
BRANCH   3   4
ATOM      4  C   UNL A   1      30.787  26.258  23.498  1.00  0.00     0.116 C 
BRANCH   4   5
ATOM      5  N   UNL A   1      31.663  26.157  22.344  1.00  0.00    -0.352 N 
ATOM      6  C   UNL A   1      32.693  25.374  21.947  1.00  0.00     0.251 C 
ATOM      7  O   UNL A   1      33.144  25.621  20.824  1.00  0.00    -0.270 OA
ATOM      8  H   UNL A   1      31.450  26.841  21.669  1.00  0.00     0.163 HD
BRANCH   6   9
ATOM      9  C   UNL A   1      33.297  24.274  22.758  1.00  0.00     0.067 C 
ATOM     10  C   UNL A   1      36.406  21.137  25.396  1.00  0.00     0.048 C 
ATOM     11  C   UNL A   1      35.055  21.008  24.748  1.00  0.00    -0.007 A 
ATOM     12  C   UNL A   1      34.335  19.815  24.863  1.00  0.00     0.027 A 
ATOM     13  C   UNL A   1      34.465  22.086  24.073  1.00  0.00     0.131 A 
ATOM     14  C   UNL A   1      33.071  19.699  24.283  1.00  0.00     0.042 A 
ATOM     15  C   UNL A   1      33.205  21.970  23.477  1.00  0.00     0.019 A 
ATOM     16  O   UNL A   1      35.204  23.228  23.991  1.00  0.00    -0.475 OA
ATOM     17  Cl  UNL A   1      32.206  18.218  24.423  1.00  0.00    -0.084 Cl
ATOM     18  C   UNL A   1      32.506  20.766  23.585  1.00  0.00     0.032 A 
ATOM     19  C   UNL A   1      32.663  23.088  22.714  1.00  0.00     0.025 C 
ATOM     20  C   UNL A   1      34.521  24.444  23.608  1.00  0.00     0.314 C 
BRANCH  20  21
ATOM     21  C   UNL A   1      34.262  25.290  24.867  1.00  0.00     0.429 C 
ATOM     22  F   UNL A   1      33.102  24.910  25.462  1.00  0.00    -0.167 F 
ATOM     23  F   UNL A   1      35.229  25.149  25.805  1.00  0.00    -0.167 F 
ATOM     24  F   UNL A   1      34.165  26.610  24.596  1.00  0.00    -0.167 F 
ENDBRANCH  20  21
ENDBRANCH   6   9
ENDBRANCH   4   5
ENDBRANCH   3   4
ENDBRANCH   2   3
ENDBRANCH   1   2
BRANCH   1  25
ATOM     25  C   UNL A   1      31.994  27.994  27.565  1.00  0.00     0.021 C 
BRANCH  25  26
ATOM     26  C   UNL A   1      33.359  28.592  27.252  1.00  0.00     0.116 C 
BRANCH  26  27
ATOM     27  N   UNL A   1      33.367  30.035  27.433  1.00  0.00    -0.352 N 
ATOM     28  C   UNL A   1      34.323  30.829  28.009  1.00  0.00     0.251 C 
ATOM     29  H   UNL A   1      32.573  30.508  27.094  1.00  0.00     0.163 HD
ATOM     30  O   UNL A   1      34.076  32.001  28.284  1.00  0.00    -0.269 OA
BRANCH  28  31
ATOM     31  C   UNL A   1      35.652  30.264  28.308  1.00  0.00     0.039 A 
ATOM     32  C   UNL A   1      36.632  30.278  27.313  1.00  0.00     0.014 A 
ATOM     33  C   UNL A   1      35.926  29.720  29.567  1.00  0.00     0.014 A 
ATOM     34  C   UNL A   1      37.907  29.793  27.600  1.00  0.00     0.010 A 
ATOM     35  C   UNL A   1      37.216  29.303  29.871  1.00  0.00     0.010 A 
ATOM     36  C   UNL A   1      38.216  29.329  28.889  1.00  0.00    -0.014 A 
BRANCH  36  37
ATOM     37  C   UNL A   1      39.583  28.867  29.230  1.00  0.00     0.031 A 
ATOM     38  C   UNL A   1      40.511  29.765  29.999  1.00  0.00     0.074 A 
ATOM     39  C   UNL A   1      39.999  27.659  28.807  1.00  0.00     0.049 A 
ATOM     40  N   UNL A   1      41.755  29.557  30.347  1.00  0.00    -0.248 NA
ATOM     41  C   UNL A   1      39.979  31.073  30.418  1.00  0.00     0.031 C 
ATOM     42  C   UNL A   1      39.194  26.707  28.036  1.00  0.00     0.029 A 
ATOM     43  N   UNL A   1      41.204  27.022  28.965  1.00  0.00    -0.354 N 
ATOM     44  C   UNL A   1      42.153  30.704  31.021  1.00  0.00     0.074 A 
ATOM     45  C   UNL A   1      41.041  31.626  30.986  1.00  0.00     0.031 C 
ATOM     46  C   UNL A   1      39.916  25.595  27.821  1.00  0.00     0.029 A 
ATOM     47  C   UNL A   1      41.246  25.772  28.394  1.00  0.00     0.049 A 
ATOM     48  H   UNL A   1      41.966  27.423  29.443  1.00  0.00     0.167 HD
ATOM     49  C   UNL A   1      43.333  30.956  31.633  1.00  0.00     0.031 A 
ATOM     50  C   UNL A   1      42.245  24.872  28.337  1.00  0.00     0.031 A 
ATOM     51  C   UNL A   1      44.437  30.034  31.667  1.00  0.00     0.049 A 
ATOM     52  C   UNL A   1      43.561  25.197  28.986  1.00  0.00     0.074 A 
ATOM     53  C   UNL A   1      45.666  30.188  32.287  1.00  0.00     0.029 A 
ATOM     54  N   UNL A   1      44.445  28.788  31.061  1.00  0.00    -0.354 N 
ATOM     55  N   UNL A   1      43.909  26.271  29.653  1.00  0.00    -0.248 NA
ATOM     56  C   UNL A   1      44.618  24.180  28.889  1.00  0.00     0.031 C 
ATOM     57  C   UNL A   1      46.438  29.058  32.007  1.00  0.00     0.029 A 
ATOM     58  C   UNL A   1      45.666  28.171  31.274  1.00  0.00     0.049 A 
ATOM     59  H   UNL A   1      43.696  28.400  30.554  1.00  0.00     0.167 HD
ATOM     60  C   UNL A   1      45.210  26.045  30.082  1.00  0.00     0.074 A 
ATOM     61  C   UNL A   1      45.584  24.727  29.611  1.00  0.00     0.031 C 
ATOM     62  C   UNL A   1      46.021  26.856  30.805  1.00  0.00     0.031 A 
BRANCH  49  63
ATOM     63  C   UNL A   1      43.496  32.280  32.327  1.00  0.00    -0.014 A 
ATOM     64  C   UNL A   1      43.965  33.406  31.633  1.00  0.00     0.009 A 
ATOM     65  C   UNL A   1      43.102  32.423  33.667  1.00  0.00     0.009 A 
ATOM     66  C   UNL A   1      44.050  34.646  32.271  1.00  0.00     0.001 A 
ATOM     67  C   UNL A   1      43.160  33.669  34.293  1.00  0.00     0.001 A 
ATOM     68  C   UNL A   1      43.638  34.778  33.597  1.00  0.00     0.000 A 
ENDBRANCH  49  63
BRANCH  50  69
ATOM     69  C   UNL A   1      42.030  23.566  27.658  1.00  0.00    -0.014 A 
ATOM     70  C   UNL A   1      42.423  23.387  26.322  1.00  0.00     0.009 A 
ATOM     71  C   UNL A   1      41.442  22.490  28.341  1.00  0.00     0.009 A 
ATOM     72  C   UNL A   1      42.213  22.164  25.680  1.00  0.00     0.001 A 
ATOM     73  C   UNL A   1      41.263  21.259  27.707  1.00  0.00     0.001 A 
ATOM     74  C   UNL A   1      41.639  21.100  26.374  1.00  0.00     0.000 A 
ENDBRANCH  50  69
BRANCH  62  75
ATOM     75  C   UNL A   1      47.381  26.333  31.173  1.00  0.00    -0.014 A 
ATOM     76  C   UNL A   1      47.625  25.737  32.419  1.00  0.00     0.009 A 
ATOM     77  C   UNL A   1      48.418  26.375  30.226  1.00  0.00     0.009 A 
ATOM     78  C   UNL A   1      48.886  25.218  32.719  1.00  0.00     0.001 A 
ATOM     79  C   UNL A   1      49.666  25.828  30.515  1.00  0.00     0.001 A 
ATOM     80  C   UNL A   1      49.903  25.256  31.765  1.00  0.00     0.000 A 
ENDBRANCH  62  75
ENDBRANCH  36  37
ENDBRANCH  28  31
ENDBRANCH  26  27
ENDBRANCH  25  26
ENDBRANCH   1  25
TORSDOF 14
ENDMDL
MODEL 2
REMARK VINA RESULT:     -11.6      2.756      7.793
REMARK SMILES Cc1cc(Cl)cc2c1O[C@H](C(F)(F)F)C(C(=O)NCCCCCCNC(=O)c1ccc(-c3c4nc(c(-c5ccccc5)c5ccc([nH]5)c(-c5ccccc5)c5nc(c(-c6ccccc6)c6ccc3[nH]6)C=C5)C=C4)cc1)=C2
REMARK SMILES IDX 22 1 21 2 20 3 19 4 18 5 16 6 17 7 15 9 1 10 2 11 3 12 8 13
REMARK SMILES IDX 4 14 7 15 9 16 5 17 6 18 76 19 10 20 11 21 12 22 13 23 14 24
REMARK SMILES IDX 23 25 24 26 25 27 26 28 27 30 28 31 29 32 75 33 30 34 74 35
REMARK SMILES IDX 31 36 32 37 33 38 68 39 34 40 73 41 67 42 69 43 35 44 72 45
REMARK SMILES IDX 66 46 65 47 36 49 58 50 43 51 57 52 44 53 47 54 56 55 70 56
REMARK SMILES IDX 45 57 46 58 55 60 71 61 48 62 37 63 38 64 42 65 39 66 41 67
REMARK SMILES IDX 40 68 59 69 60 70 64 71 61 72 63 73 62 74 49 75 50 76 54 77
REMARK SMILES IDX 51 78 53 79 52 80
REMARK H PARENT 18 8 25 29 69 48 47 59
REMARK Flexibility Score: inf
ROOT
ATOM      1  C   UNL A   1      35.075  22.782  23.594  1.00  0.00     0.002 C 
ENDROOT
BRANCH   1   2
ATOM      2  C   UNL A   1      34.657  21.674  24.571  1.00  0.00     0.002 C 
BRANCH   2   3
ATOM      3  C   UNL A   1      33.194  21.239  24.462  1.00  0.00     0.021 C 
BRANCH   3   4
ATOM      4  C   UNL A   1      32.223  22.409  24.346  1.00  0.00     0.116 C 
BRANCH   4   5
ATOM      5  N   UNL A   1      31.469  22.610  25.570  1.00  0.00    -0.352 N 
ATOM      6  C   UNL A   1      30.955  23.656  26.258  1.00  0.00     0.251 C 
ATOM      7  O   UNL A   1      30.323  23.361  27.277  1.00  0.00    -0.270 OA
ATOM      8  H   UNL A   1      31.280  21.755  26.021  1.00  0.00     0.163 HD
BRANCH   6   9
ATOM      9  C   UNL A   1      31.107  25.092  25.875  1.00  0.00     0.067 C 
ATOM     10  C   UNL A   1      32.171  30.120  25.653  1.00  0.00     0.048 C 
ATOM     11  C   UNL A   1      31.226  29.194  24.939  1.00  0.00    -0.007 A 
ATOM     12  C   UNL A   1      30.424  29.678  23.900  1.00  0.00     0.027 A 
ATOM     13  C   UNL A   1      31.170  27.828  25.250  1.00  0.00     0.131 A 
ATOM     14  C   UNL A   1      29.563  28.817  23.219  1.00  0.00     0.042 A 
ATOM     15  C   UNL A   1      30.298  26.964  24.581  1.00  0.00     0.019 A 
ATOM     16  O   UNL A   1      31.973  27.405  26.266  1.00  0.00    -0.475 OA
ATOM     17  Cl  UNL A   1      28.573  29.433  21.953  1.00  0.00    -0.084 Cl
ATOM     18  C   UNL A   1      29.489  27.466  23.558  1.00  0.00     0.032 A 
ATOM     19  C   UNL A   1      30.211  25.568  24.991  1.00  0.00     0.025 C 
ATOM     20  C   UNL A   1      32.195  25.982  26.398  1.00  0.00     0.314 C 
BRANCH  20  21
ATOM     21  C   UNL A   1      33.579  25.636  25.820  1.00  0.00     0.429 C 
ATOM     22  F   UNL A   1      33.497  25.443  24.479  1.00  0.00    -0.167 F 
ATOM     23  F   UNL A   1      34.488  26.623  26.005  1.00  0.00    -0.167 F 
ATOM     24  F   UNL A   1      34.102  24.513  26.361  1.00  0.00    -0.167 F 
ENDBRANCH  20  21
ENDBRANCH   6   9
ENDBRANCH   4   5
ENDBRANCH   3   4
ENDBRANCH   2   3
ENDBRANCH   1   2
BRANCH   1  25
ATOM     25  C   UNL A   1      36.555  23.171  23.646  1.00  0.00     0.021 C 
BRANCH  25  26
ATOM     26  C   UNL A   1      37.072  23.487  25.044  1.00  0.00     0.116 C 
BRANCH  26  27
ATOM     27  N   UNL A   1      38.064  22.518  25.480  1.00  0.00    -0.352 N 
ATOM     28  C   UNL A   1      39.248  22.729  26.136  1.00  0.00     0.251 C 
ATOM     29  H   UNL A   1      37.856  21.578  25.276  1.00  0.00     0.163 HD
ATOM     30  O   UNL A   1      40.076  21.826  26.232  1.00  0.00    -0.269 OA
BRANCH  28  31
ATOM     31  C   UNL A   1      39.530  24.054  26.718  1.00  0.00     0.039 A 
ATOM     32  C   UNL A   1      39.126  24.316  28.029  1.00  0.00     0.014 A 
ATOM     33  C   UNL A   1      40.189  25.034  25.969  1.00  0.00     0.014 A 
ATOM     34  C   UNL A   1      39.431  25.548  28.607  1.00  0.00     0.010 A 
ATOM     35  C   UNL A   1      40.553  26.233  26.570  1.00  0.00     0.010 A 
ATOM     36  C   UNL A   1      40.172  26.503  27.893  1.00  0.00    -0.014 A 
BRANCH  36  37
ATOM     37  C   UNL A   1      40.559  27.793  28.512  1.00  0.00     0.031 A 
ATOM     38  C   UNL A   1      41.963  27.999  29.005  1.00  0.00     0.074 A 
ATOM     39  C   UNL A   1      39.632  28.757  28.668  1.00  0.00     0.049 A 
ATOM     40  N   UNL A   1      42.475  29.036  29.617  1.00  0.00    -0.248 NA
ATOM     41  C   UNL A   1      42.912  26.892  28.801  1.00  0.00     0.031 C 
ATOM     42  C   UNL A   1      38.233  28.664  28.246  1.00  0.00     0.029 A 
ATOM     43  N   UNL A   1      39.729  30.008  29.225  1.00  0.00    -0.354 N 
ATOM     44  C   UNL A   1      43.800  28.706  29.872  1.00  0.00     0.074 A 
ATOM     45  C   UNL A   1      44.000  27.355  29.400  1.00  0.00     0.031 C 
ATOM     46  C   UNL A   1      37.612  29.822  28.527  1.00  0.00     0.029 A 
ATOM     47  C   UNL A   1      38.553  30.719  29.189  1.00  0.00     0.049 A 
ATOM     48  H   UNL A   1      40.562  30.362  29.613  1.00  0.00     0.167 HD
ATOM     49  C   UNL A   1      44.768  29.471  30.428  1.00  0.00     0.031 A 
ATOM     50  C   UNL A   1      38.265  31.953  29.644  1.00  0.00     0.031 A 
ATOM     51  C   UNL A   1      44.565  30.816  30.894  1.00  0.00     0.049 A 
ATOM     52  C   UNL A   1      39.348  32.763  30.299  1.00  0.00     0.074 A 
ATOM     53  C   UNL A   1      45.492  31.682  31.448  1.00  0.00     0.029 A 
ATOM     54  N   UNL A   1      43.355  31.491  30.857  1.00  0.00    -0.354 N 
ATOM     55  N   UNL A   1      40.606  32.450  30.498  1.00  0.00    -0.248 NA
ATOM     56  C   UNL A   1      38.977  34.101  30.780  1.00  0.00     0.031 C 
ATOM     57  C   UNL A   1      44.830  32.861  31.799  1.00  0.00     0.029 A 
ATOM     58  C   UNL A   1      43.508  32.756  31.398  1.00  0.00     0.049 A 
ATOM     59  H   UNL A   1      42.513  31.126  30.500  1.00  0.00     0.167 HD
ATOM     60  C   UNL A   1      41.183  33.564  31.094  1.00  0.00     0.074 A 
ATOM     61  C   UNL A   1      40.141  34.562  31.213  1.00  0.00     0.031 C 
ATOM     62  C   UNL A   1      42.463  33.743  31.503  1.00  0.00     0.031 A 
BRANCH  49  63
ATOM     63  C   UNL A   1      46.143  28.877  30.560  1.00  0.00    -0.014 A 
ATOM     64  C   UNL A   1      47.110  29.064  29.561  1.00  0.00     0.009 A 
ATOM     65  C   UNL A   1      46.500  28.190  31.731  1.00  0.00     0.009 A 
ATOM     66  C   UNL A   1      48.404  28.563  29.725  1.00  0.00     0.001 A 
ATOM     67  C   UNL A   1      47.802  27.716  31.905  1.00  0.00     0.001 A 
ATOM     68  C   UNL A   1      48.750  27.899  30.901  1.00  0.00     0.000 A 
ENDBRANCH  49  63
BRANCH  50  69
ATOM     69  C   UNL A   1      36.895  32.507  29.470  1.00  0.00    -0.014 A 
ATOM     70  C   UNL A   1      35.935  32.355  30.483  1.00  0.00     0.009 A 
ATOM     71  C   UNL A   1      36.543  33.199  28.302  1.00  0.00     0.009 A 
ATOM     72  C   UNL A   1      34.645  32.866  30.318  1.00  0.00     0.001 A 
ATOM     73  C   UNL A   1      35.263  33.736  28.153  1.00  0.00     0.001 A 
ATOM     74  C   UNL A   1      34.312  33.562  29.158  1.00  0.00     0.000 A 
ENDBRANCH  50  69
BRANCH  62  75
ATOM     75  C   UNL A   1      42.829  35.081  32.081  1.00  0.00    -0.014 A 
ATOM     76  C   UNL A   1      42.654  35.364  33.444  1.00  0.00     0.009 A 
ATOM     77  C   UNL A   1      43.425  36.050  31.257  1.00  0.00     0.009 A 
ATOM     78  C   UNL A   1      43.045  36.600  33.963  1.00  0.00     0.001 A 
ATOM     79  C   UNL A   1      43.844  37.270  31.784  1.00  0.00     0.001 A 
ATOM     80  C   UNL A   1      43.646  37.548  33.136  1.00  0.00     0.000 A 
ENDBRANCH  62  75
ENDBRANCH  36  37
ENDBRANCH  28  31
ENDBRANCH  26  27
ENDBRANCH  25  26
ENDBRANCH   1  25
TORSDOF 14
ENDMDL
MODEL 3
REMARK VINA RESULT:     -11.5      2.899      7.749
REMARK SMILES Cc1cc(Cl)cc2c1O[C@H](C(F)(F)F)C(C(=O)NCCCCCCNC(=O)c1ccc(-c3c4nc(c(-c5ccccc5)c5ccc([nH]5)c(-c5ccccc5)c5nc(c(-c6ccccc6)c6ccc3[nH]6)C=C5)C=C4)cc1)=C2
REMARK SMILES IDX 22 1 21 2 20 3 19 4 18 5 16 6 17 7 15 9 1 10 2 11 3 12 8 13
REMARK SMILES IDX 4 14 7 15 9 16 5 17 6 18 76 19 10 20 11 21 12 22 13 23 14 24
REMARK SMILES IDX 23 25 24 26 25 27 26 28 27 30 28 31 29 32 75 33 30 34 74 35
REMARK SMILES IDX 31 36 32 37 33 38 68 39 34 40 73 41 67 42 69 43 35 44 72 45
REMARK SMILES IDX 66 46 65 47 36 49 58 50 43 51 57 52 44 53 47 54 56 55 70 56
REMARK SMILES IDX 45 57 46 58 55 60 71 61 48 62 37 63 38 64 42 65 39 66 41 67
REMARK SMILES IDX 40 68 59 69 60 70 64 71 61 72 63 73 62 74 49 75 50 76 54 77
REMARK SMILES IDX 51 78 53 79 52 80
REMARK H PARENT 18 8 25 29 69 48 47 59
REMARK Flexibility Score: inf
ROOT
ATOM      1  C   UNL A   1      35.566  22.265  26.520  1.00  0.00     0.002 C 
ENDROOT
BRANCH   1   2
ATOM      2  C   UNL A   1      34.531  21.232  26.052  1.00  0.00     0.002 C 
BRANCH   2   3
ATOM      3  C   UNL A   1      33.926  21.507  24.673  1.00  0.00     0.021 C 
BRANCH   3   4
ATOM      4  C   UNL A   1      32.404  21.431  24.655  1.00  0.00     0.116 C 
BRANCH   4   5
ATOM      5  N   UNL A   1      31.818  22.026  25.844  1.00  0.00    -0.352 N 
ATOM      6  C   UNL A   1      31.632  23.271  26.340  1.00  0.00     0.251 C 
ATOM      7  O   UNL A   1      31.027  23.327  27.416  1.00  0.00    -0.270 OA
ATOM      8  H   UNL A   1      31.461  21.339  26.451  1.00  0.00     0.163 HD
BRANCH   6   9
ATOM      9  C   UNL A   1      32.101  24.532  25.692  1.00  0.00     0.067 C 
ATOM     10  C   UNL A   1      33.961  28.128  22.518  1.00  0.00     0.048 C 
ATOM     11  C   UNL A   1      33.733  28.024  24.001  1.00  0.00    -0.007 A 
ATOM     12  C   UNL A   1      33.996  29.121  24.827  1.00  0.00     0.027 A 
ATOM     13  C   UNL A   1      33.200  26.862  24.576  1.00  0.00     0.131 A 
ATOM     14  C   UNL A   1      33.763  29.036  26.201  1.00  0.00     0.042 A 
ATOM     15  C   UNL A   1      32.980  26.767  25.953  1.00  0.00     0.019 A 
ATOM     16  O   UNL A   1      32.957  25.822  23.728  1.00  0.00    -0.475 OA
ATOM     17  Cl  UNL A   1      34.107  30.392  27.205  1.00  0.00    -0.084 Cl
ATOM     18  C   UNL A   1      33.265  27.865  26.769  1.00  0.00     0.032 A 
ATOM     19  C   UNL A   1      32.502  25.512  26.522  1.00  0.00     0.025 C 
ATOM     20  C   UNL A   1      32.115  24.749  24.207  1.00  0.00     0.314 C 
BRANCH  20  21
ATOM     21  C   UNL A   1      30.705  24.917  23.614  1.00  0.00     0.429 C 
ATOM     22  F   UNL A   1      29.879  25.504  24.517  1.00  0.00    -0.167 F 
ATOM     23  F   UNL A   1      30.687  25.708  22.515  1.00  0.00    -0.167 F 
ATOM     24  F   UNL A   1      30.146  23.738  23.260  1.00  0.00    -0.167 F 
ENDBRANCH  20  21
ENDBRANCH   6   9
ENDBRANCH   4   5
ENDBRANCH   3   4
ENDBRANCH   2   3
ENDBRANCH   1   2
BRANCH   1  25
ATOM     25  C   UNL A   1      35.677  23.518  25.645  1.00  0.00     0.021 C 
BRANCH  25  26
ATOM     26  C   UNL A   1      37.011  23.663  24.924  1.00  0.00     0.116 C 
BRANCH  26  27
ATOM     27  N   UNL A   1      37.974  22.672  25.374  1.00  0.00    -0.352 N 
ATOM     28  C   UNL A   1      39.127  22.850  26.091  1.00  0.00     0.251 C 
ATOM     29  H   UNL A   1      37.769  21.741  25.128  1.00  0.00     0.163 HD
ATOM     30  O   UNL A   1      39.943  21.936  26.196  1.00  0.00    -0.269 OA
BRANCH  28  31
ATOM     31  C   UNL A   1      39.391  24.152  26.731  1.00  0.00     0.039 A 
ATOM     32  C   UNL A   1      38.929  24.372  28.030  1.00  0.00     0.014 A 
ATOM     33  C   UNL A   1      40.089  25.152  26.046  1.00  0.00     0.014 A 
ATOM     34  C   UNL A   1      39.216  25.581  28.664  1.00  0.00     0.010 A 
ATOM     35  C   UNL A   1      40.433  26.326  26.704  1.00  0.00     0.010 A 
ATOM     36  C   UNL A   1      39.994  26.554  28.016  1.00  0.00    -0.014 A 
BRANCH  36  37
ATOM     37  C   UNL A   1      40.361  27.819  28.696  1.00  0.00     0.031 A 
ATOM     38  C   UNL A   1      41.726  27.978  29.305  1.00  0.00     0.074 A 
ATOM     39  C   UNL A   1      39.449  28.804  28.802  1.00  0.00     0.049 A 
ATOM     40  N   UNL A   1      42.212  28.988  29.981  1.00  0.00    -0.248 NA
ATOM     41  C   UNL A   1      42.662  26.852  29.150  1.00  0.00     0.031 C 
ATOM     42  C   UNL A   1      38.086  28.757  28.267  1.00  0.00     0.029 A 
ATOM     43  N   UNL A   1      39.530  30.038  29.396  1.00  0.00    -0.354 N 
ATOM     44  C   UNL A   1      43.504  28.618  30.332  1.00  0.00     0.074 A 
ATOM     45  C   UNL A   1      43.709  27.272  29.845  1.00  0.00     0.031 C 
ATOM     46  C   UNL A   1      37.472  29.924  28.526  1.00  0.00     0.029 A 
ATOM     47  C   UNL A   1      38.378  30.780  29.284  1.00  0.00     0.049 A 
ATOM     48  H   UNL A   1      40.337  30.362  29.858  1.00  0.00     0.167 HD
ATOM     49  C   UNL A   1      44.442  29.344  30.982  1.00  0.00     0.031 A 
ATOM     50  C   UNL A   1      38.085  32.010  29.744  1.00  0.00     0.031 A 
ATOM     51  C   UNL A   1      44.235  30.683  31.464  1.00  0.00     0.049 A 
ATOM     52  C   UNL A   1      39.131  32.777  30.503  1.00  0.00     0.074 A 
ATOM     53  C   UNL A   1      45.135  31.512  32.111  1.00  0.00     0.029 A 
ATOM     54  N   UNL A   1      43.049  31.390  31.347  1.00  0.00    -0.354 N 
ATOM     55  N   UNL A   1      40.361  32.428  30.794  1.00  0.00    -0.248 NA
ATOM     56  C   UNL A   1      38.755  34.113  30.986  1.00  0.00     0.031 C 
ATOM     57  C   UNL A   1      44.476  32.699  32.437  1.00  0.00     0.029 A 
ATOM     58  C   UNL A   1      43.188  32.638  31.930  1.00  0.00     0.049 A 
ATOM     59  H   UNL A   1      42.229  31.055  30.915  1.00  0.00     0.167 HD
ATOM     60  C   UNL A   1      40.915  33.512  31.462  1.00  0.00     0.074 A 
ATOM     61  C   UNL A   1      39.891  34.534  31.522  1.00  0.00     0.031 C 
ATOM     62  C   UNL A   1      42.162  33.648  31.976  1.00  0.00     0.031 A 
BRANCH  49  63
ATOM     63  C   UNL A   1      45.787  28.712  31.209  1.00  0.00    -0.014 A 
ATOM     64  C   UNL A   1      46.829  28.876  30.282  1.00  0.00     0.009 A 
ATOM     65  C   UNL A   1      46.042  28.012  32.399  1.00  0.00     0.009 A 
ATOM     66  C   UNL A   1      48.093  28.338  30.535  1.00  0.00     0.001 A 
ATOM     67  C   UNL A   1      47.314  27.502  32.663  1.00  0.00     0.001 A 
ATOM     68  C   UNL A   1      48.336  27.661  31.729  1.00  0.00     0.000 A 
ENDBRANCH  49  63
BRANCH  50  69
ATOM     69  C   UNL A   1      36.747  32.603  29.476  1.00  0.00    -0.014 A 
ATOM     70  C   UNL A   1      35.736  32.543  30.448  1.00  0.00     0.009 A 
ATOM     71  C   UNL A   1      36.475  33.242  28.256  1.00  0.00     0.009 A 
ATOM     72  C   UNL A   1      34.476  33.091  30.195  1.00  0.00     0.001 A 
ATOM     73  C   UNL A   1      35.226  33.817  28.018  1.00  0.00     0.001 A 
ATOM     74  C   UNL A   1      34.224  33.733  28.984  1.00  0.00     0.000 A 
ENDBRANCH  50  69
BRANCH  62  75
ATOM     75  C   UNL A   1      42.512  34.964  32.614  1.00  0.00    -0.014 A 
ATOM     76  C   UNL A   1      42.139  35.261  33.933  1.00  0.00     0.009 A 
ATOM     77  C   UNL A   1      43.291  35.891  31.902  1.00  0.00     0.009 A 
ATOM     78  C   UNL A   1      42.516  36.472  34.517  1.00  0.00     0.001 A 
ATOM     79  C   UNL A   1      43.694  37.085  32.498  1.00  0.00     0.001 A 
ATOM     80  C   UNL A   1      43.299  37.379  33.803  1.00  0.00     0.000 A 
ENDBRANCH  62  75
ENDBRANCH  36  37
ENDBRANCH  28  31
ENDBRANCH  26  27
ENDBRANCH  25  26
ENDBRANCH   1  25
TORSDOF 14
ENDMDL
