MODEL 1
REMARK VINA RESULT:     -10.4      0.000      0.000
REMARK SMILES O=C(CC[NH+]1CC[NH+](Cc2ccccc2C2CC2)CC1)NCCCCCCNC(=O)c1ccc(-c2c3nc(c(-c4ccccc4)c4ccc([nH]4)c(-c4ccccc4)c4nc(c(-c5ccccc5)c5ccc2[nH]5)C=C4)C=C3)cc1
REMARK SMILES IDX 23 1 22 2 21 3 1 4 2 5 3 7 4 8 5 9 6 10 20 11 7 13 19 14
REMARK SMILES IDX 8 15 9 17 10 18 11 19 15 20 12 21 14 22 13 23 16 24 17 25
REMARK SMILES IDX 18 26 24 27 25 28 26 29 27 30 28 31 29 32 30 34 31 35 32 36
REMARK SMILES IDX 78 37 33 38 77 39 34 40 35 41 36 42 71 43 37 44 76 45 70 46
REMARK SMILES IDX 72 47 38 48 75 49 69 50 68 51 39 53 61 54 46 55 60 56 47 57
REMARK SMILES IDX 50 58 59 59 73 60 48 61 49 62 58 64 74 65 51 66 40 67 41 68
REMARK SMILES IDX 45 69 42 70 44 71 43 72 62 73 63 74 67 75 64 76 66 77 65 78
REMARK SMILES IDX 52 79 53 80 57 81 54 82 56 83 55 84
REMARK H PARENT 21 6 5 12 8 16 28 33 72 52 50 63
REMARK Flexibility Score: inf
ROOT
ATOM      1  C   UNL A   1      38.818  21.837  25.925  1.00  0.00     0.021 C 
ENDROOT
BRANCH   1   2
ATOM      2  C   UNL A   1      37.619  22.729  25.582  1.00  0.00     0.116 C 
BRANCH   2   3
ATOM      3  N   UNL A   1      36.406  22.436  26.333  1.00  0.00    -0.356 N 
ATOM      4  O   UNL A   1      35.560  20.980  24.791  1.00  0.00    -0.275 OA
ATOM      5  C   UNL A   1      35.480  21.516  25.896  1.00  0.00     0.225 C 
ATOM      6  H   UNL A   1      36.243  22.912  27.180  1.00  0.00     0.163 HD
BRANCH   5   7
ATOM      7  C   UNL A   1      34.266  21.245  26.782  1.00  0.00     0.161 C 
BRANCH   7   8
ATOM      8  C   UNL A   1      32.872  21.206  26.135  1.00  0.00     0.272 C 
BRANCH   8   9
ATOM      9  N   UNL A   1      31.937  22.230  26.594  1.00  0.00    -0.325 N 
ATOM     10  C   UNL A   1      32.569  23.439  27.125  1.00  0.00     0.324 C 
ATOM     11  C   UNL A   1      30.881  22.573  25.613  1.00  0.00     0.324 C 
ATOM     12  H   UNL A   1      31.478  21.775  27.382  1.00  0.00     0.348 HD
ATOM     13  C   UNL A   1      32.874  24.572  26.143  1.00  0.00     0.324 C 
ATOM     14  C   UNL A   1      31.064  23.856  24.744  1.00  0.00     0.324 C 
ATOM     15  N   UNL A   1      31.709  25.009  25.381  1.00  0.00    -0.322 N 
ATOM     16  H   UNL A   1      32.023  25.596  24.609  1.00  0.00     0.348 HD
BRANCH  15  17
ATOM     17  C   UNL A   1      30.848  25.983  26.071  1.00  0.00     0.299 C 
BRANCH  17  18
ATOM     18  C   UNL A   1      31.202  27.461  26.039  1.00  0.00     0.010 A 
ATOM     19  C   UNL A   1      31.792  27.978  27.222  1.00  0.00     0.010 A 
ATOM     20  C   UNL A   1      30.988  28.329  24.935  1.00  0.00    -0.036 A 
ATOM     21  C   UNL A   1      32.263  29.284  27.303  1.00  0.00     0.001 A 
ATOM     22  C   UNL A   1      31.465  29.654  25.073  1.00  0.00     0.004 A 
ATOM     23  C   UNL A   1      32.118  30.122  26.214  1.00  0.00     0.000 A 
BRANCH  20  24
ATOM     24  C   UNL A   1      30.441  27.968  23.556  1.00  0.00     0.020 C 
ATOM     25  C   UNL A   1      30.433  28.841  22.338  1.00  0.00     0.009 C 
ATOM     26  C   UNL A   1      31.391  27.693  22.418  1.00  0.00     0.009 C 
ENDBRANCH  20  24
ENDBRANCH  17  18
ENDBRANCH  15  17
ENDBRANCH   8   9
ENDBRANCH   7   8
ENDBRANCH   5   7
ENDBRANCH   2   3
ENDBRANCH   1   2
BRANCH   1  27
ATOM     27  C   UNL A   1      39.950  22.517  26.705  1.00  0.00     0.002 C 
BRANCH  27  28
ATOM     28  C   UNL A   1      41.137  21.626  27.090  1.00  0.00     0.002 C 
BRANCH  28  29
ATOM     29  C   UNL A   1      41.439  20.466  26.146  1.00  0.00     0.021 C 
BRANCH  29  30
ATOM     30  C   UNL A   1      42.635  19.600  26.539  1.00  0.00     0.116 C 
BRANCH  30  31
ATOM     31  N   UNL A   1      43.343  19.018  25.402  1.00  0.00    -0.352 N 
ATOM     32  C   UNL A   1      44.251  19.595  24.543  1.00  0.00     0.251 C 
ATOM     33  H   UNL A   1      43.142  18.071  25.223  1.00  0.00     0.163 HD
ATOM     34  O   UNL A   1      44.678  18.975  23.574  1.00  0.00    -0.269 OA
BRANCH  32  35
ATOM     35  C   UNL A   1      44.675  20.990  24.771  1.00  0.00     0.039 A 
ATOM     36  C   UNL A   1      44.203  21.995  23.922  1.00  0.00     0.014 A 
ATOM     37  C   UNL A   1      45.476  21.309  25.869  1.00  0.00     0.014 A 
ATOM     38  C   UNL A   1      44.437  23.334  24.245  1.00  0.00     0.010 A 
ATOM     39  C   UNL A   1      45.631  22.639  26.236  1.00  0.00     0.010 A 
ATOM     40  C   UNL A   1      45.100  23.665  25.438  1.00  0.00    -0.014 A 
BRANCH  40  41
ATOM     41  C   UNL A   1      45.220  25.071  25.897  1.00  0.00     0.031 A 
ATOM     42  C   UNL A   1      46.558  25.755  25.888  1.00  0.00     0.074 A 
ATOM     43  C   UNL A   1      44.149  25.693  26.428  1.00  0.00     0.049 A 
ATOM     44  N   UNL A   1      46.887  26.932  26.353  1.00  0.00    -0.248 NA
ATOM     45  C   UNL A   1      47.682  24.998  25.313  1.00  0.00     0.031 C 
ATOM     46  C   UNL A   1      42.808  25.117  26.557  1.00  0.00     0.029 A 
ATOM     47  N   UNL A   1      44.024  26.945  26.977  1.00  0.00    -0.354 N 
ATOM     48  C   UNL A   1      48.256  27.046  26.150  1.00  0.00     0.074 A 
ATOM     49  C   UNL A   1      48.705  25.797  25.572  1.00  0.00     0.031 C 
ATOM     50  C   UNL A   1      41.993  26.019  27.127  1.00  0.00     0.029 A 
ATOM     51  C   UNL A   1      42.760  27.219  27.442  1.00  0.00     0.049 A 
ATOM     52  H   UNL A   1      44.769  27.585  27.033  1.00  0.00     0.167 HD
ATOM     53  C   UNL A   1      49.067  28.101  26.402  1.00  0.00     0.031 A 
ATOM     54  C   UNL A   1      42.274  28.310  28.063  1.00  0.00     0.031 A 
ATOM     55  C   UNL A   1      48.618  29.347  26.962  1.00  0.00     0.049 A 
ATOM     56  C   UNL A   1      43.188  29.474  28.323  1.00  0.00     0.074 A 
ATOM     57  C   UNL A   1      49.345  30.502  27.190  1.00  0.00     0.029 A 
ATOM     58  N   UNL A   1      47.322  29.597  27.387  1.00  0.00    -0.354 N 
ATOM     59  N   UNL A   1      44.464  29.597  28.051  1.00  0.00    -0.248 NA
ATOM     60  C   UNL A   1      42.591  30.652  28.967  1.00  0.00     0.031 C 
ATOM     61  C   UNL A   1      48.498  31.437  27.795  1.00  0.00     0.029 A 
ATOM     62  C   UNL A   1      47.233  30.881  27.898  1.00  0.00     0.049 A 
ATOM     63  H   UNL A   1      46.576  28.957  27.334  1.00  0.00     0.167 HD
ATOM     64  C   UNL A   1      44.820  30.870  28.473  1.00  0.00     0.074 A 
ATOM     65  C   UNL A   1      43.621  31.488  29.002  1.00  0.00     0.031 C 
ATOM     66  C   UNL A   1      46.032  31.475  28.427  1.00  0.00     0.031 A 
BRANCH  53  67
ATOM     67  C   UNL A   1      50.525  27.939  26.073  1.00  0.00    -0.014 A 
ATOM     68  C   UNL A   1      51.433  27.443  27.023  1.00  0.00     0.009 A 
ATOM     69  C   UNL A   1      50.997  28.283  24.797  1.00  0.00     0.009 A 
ATOM     70  C   UNL A   1      52.791  27.340  26.717  1.00  0.00     0.001 A 
ATOM     71  C   UNL A   1      52.352  28.149  24.484  1.00  0.00     0.001 A 
ATOM     72  C   UNL A   1      53.248  27.690  25.448  1.00  0.00     0.000 A 
ENDBRANCH  53  67
BRANCH  54  73
ATOM     73  C   UNL A   1      40.845  28.356  28.470  1.00  0.00    -0.014 A 
ATOM     74  C   UNL A   1      40.440  27.815  29.700  1.00  0.00     0.009 A 
ATOM     75  C   UNL A   1      39.883  28.950  27.639  1.00  0.00     0.009 A 
ATOM     76  C   UNL A   1      39.096  27.851  30.081  1.00  0.00     0.001 A 
ATOM     77  C   UNL A   1      38.545  29.007  28.034  1.00  0.00     0.001 A 
ATOM     78  C   UNL A   1      38.151  28.452  29.250  1.00  0.00     0.000 A 
ENDBRANCH  54  73
BRANCH  66  79
ATOM     79  C   UNL A   1      46.117  32.882  28.945  1.00  0.00    -0.014 A 
ATOM     80  C   UNL A   1      45.977  33.981  28.084  1.00  0.00     0.009 A 
ATOM     81  C   UNL A   1      46.291  33.109  30.319  1.00  0.00     0.009 A 
ATOM     82  C   UNL A   1      46.037  35.282  28.588  1.00  0.00     0.001 A 
ATOM     83  C   UNL A   1      46.323  34.409  30.824  1.00  0.00     0.001 A 
ATOM     84  C   UNL A   1      46.203  35.494  29.957  1.00  0.00     0.000 A 
ENDBRANCH  66  79
ENDBRANCH  40  41
ENDBRANCH  32  35
ENDBRANCH  30  31
ENDBRANCH  29  30
ENDBRANCH  28  29
ENDBRANCH  27  28
ENDBRANCH   1  27
TORSDOF 18
ENDMDL
MODEL 2
REMARK VINA RESULT:     -10.0      1.683      6.304
REMARK SMILES O=C(CC[NH+]1CC[NH+](Cc2ccccc2C2CC2)CC1)NCCCCCCNC(=O)c1ccc(-c2c3nc(c(-c4ccccc4)c4ccc([nH]4)c(-c4ccccc4)c4nc(c(-c5ccccc5)c5ccc2[nH]5)C=C4)C=C3)cc1
REMARK SMILES IDX 23 1 22 2 21 3 1 4 2 5 3 7 4 8 5 9 6 10 20 11 7 13 19 14
REMARK SMILES IDX 8 15 9 17 10 18 11 19 15 20 12 21 14 22 13 23 16 24 17 25
REMARK SMILES IDX 18 26 24 27 25 28 26 29 27 30 28 31 29 32 30 34 31 35 32 36
REMARK SMILES IDX 78 37 33 38 77 39 34 40 35 41 36 42 71 43 37 44 76 45 70 46
REMARK SMILES IDX 72 47 38 48 75 49 69 50 68 51 39 53 61 54 46 55 60 56 47 57
REMARK SMILES IDX 50 58 59 59 73 60 48 61 49 62 58 64 74 65 51 66 40 67 41 68
REMARK SMILES IDX 45 69 42 70 44 71 43 72 62 73 63 74 67 75 64 76 66 77 65 78
REMARK SMILES IDX 52 79 53 80 57 81 54 82 56 83 55 84
REMARK H PARENT 21 6 5 12 8 16 28 33 72 52 50 63
REMARK Flexibility Score: inf
ROOT
ATOM      1  C   UNL A   1      36.184  23.345  26.071  1.00  0.00     0.021 C 
ENDROOT
BRANCH   1   2
ATOM      2  C   UNL A   1      35.608  21.925  26.128  1.00  0.00     0.116 C 
BRANCH   2   3
ATOM      3  N   UNL A   1      34.377  21.736  25.374  1.00  0.00    -0.356 N 
ATOM      4  O   UNL A   1      33.004  21.863  27.195  1.00  0.00    -0.275 OA
ATOM      5  C   UNL A   1      33.139  21.783  25.973  1.00  0.00     0.225 C 
ATOM      6  H   UNL A   1      34.432  21.569  24.405  1.00  0.00     0.163 HD
BRANCH   5   7
ATOM      7  C   UNL A   1      31.906  21.621  25.087  1.00  0.00     0.161 C 
BRANCH   7   8
ATOM      8  C   UNL A   1      32.103  21.357  23.585  1.00  0.00     0.272 C 
BRANCH   8   9
ATOM      9  N   UNL A   1      31.997  22.530  22.722  1.00  0.00    -0.325 N 
ATOM     10  C   UNL A   1      31.283  23.662  23.315  1.00  0.00     0.324 C 
ATOM     11  C   UNL A   1      33.282  22.968  22.130  1.00  0.00     0.324 C 
ATOM     12  H   UNL A   1      31.414  22.191  21.956  1.00  0.00     0.348 HD
ATOM     13  C   UNL A   1      32.101  24.682  24.109  1.00  0.00     0.324 C 
ATOM     14  C   UNL A   1      34.037  24.161  22.795  1.00  0.00     0.324 C 
ATOM     15  N   UNL A   1      33.219  25.241  23.356  1.00  0.00    -0.322 N 
ATOM     16  H   UNL A   1      33.837  25.733  24.001  1.00  0.00     0.348 HD
BRANCH  15  17
ATOM     17  C   UNL A   1      32.870  26.367  22.474  1.00  0.00     0.299 C 
BRANCH  17  18
ATOM     18  C   UNL A   1      32.005  27.500  23.001  1.00  0.00     0.010 A 
ATOM     19  C   UNL A   1      30.739  27.649  22.377  1.00  0.00     0.010 A 
ATOM     20  C   UNL A   1      32.371  28.391  24.046  1.00  0.00    -0.036 A 
ATOM     21  C   UNL A   1      29.799  28.573  22.822  1.00  0.00     0.001 A 
ATOM     22  C   UNL A   1      31.390  29.327  24.449  1.00  0.00     0.004 A 
ATOM     23  C   UNL A   1      30.119  29.404  23.878  1.00  0.00     0.000 A 
BRANCH  20  24
ATOM     24  C   UNL A   1      33.641  28.363  24.892  1.00  0.00     0.020 C 
ATOM     25  C   UNL A   1      33.823  28.961  26.255  1.00  0.00     0.009 C 
ATOM     26  C   UNL A   1      33.716  27.475  26.109  1.00  0.00     0.009 C 
ENDBRANCH  20  24
ENDBRANCH  17  18
ENDBRANCH  15  17
ENDBRANCH   8   9
ENDBRANCH   7   8
ENDBRANCH   5   7
ENDBRANCH   2   3
ENDBRANCH   1   2
BRANCH   1  27
ATOM     27  C   UNL A   1      37.594  23.469  25.480  1.00  0.00     0.002 C 
BRANCH  27  28
ATOM     28  C   UNL A   1      38.756  23.371  26.474  1.00  0.00     0.002 C 
BRANCH  28  29
ATOM     29  C   UNL A   1      39.295  21.968  26.741  1.00  0.00     0.021 C 
BRANCH  29  30
ATOM     30  C   UNL A   1      39.168  20.988  25.576  1.00  0.00     0.116 C 
BRANCH  30  31
ATOM     31  N   UNL A   1      39.925  19.753  25.757  1.00  0.00    -0.352 N 
ATOM     32  C   UNL A   1      41.245  19.575  26.104  1.00  0.00     0.251 C 
ATOM     33  H   UNL A   1      39.416  18.923  25.609  1.00  0.00     0.163 HD
ATOM     34  O   UNL A   1      41.744  18.453  26.118  1.00  0.00    -0.269 OA
BRANCH  32  35
ATOM     35  C   UNL A   1      42.075  20.754  26.419  1.00  0.00     0.039 A 
ATOM     36  C   UNL A   1      42.560  21.545  25.374  1.00  0.00     0.014 A 
ATOM     37  C   UNL A   1      42.304  21.115  27.748  1.00  0.00     0.014 A 
ATOM     38  C   UNL A   1      43.175  22.765  25.666  1.00  0.00     0.010 A 
ATOM     39  C   UNL A   1      42.834  22.366  28.032  1.00  0.00     0.010 A 
ATOM     40  C   UNL A   1      43.260  23.212  26.995  1.00  0.00    -0.014 A 
BRANCH  40  41
ATOM     41  C   UNL A   1      43.753  24.571  27.329  1.00  0.00     0.031 A 
ATOM     42  C   UNL A   1      42.783  25.646  27.732  1.00  0.00     0.074 A 
ATOM     43  C   UNL A   1      45.057  24.868  27.160  1.00  0.00     0.049 A 
ATOM     44  N   UNL A   1      43.002  26.916  27.951  1.00  0.00    -0.248 NA
ATOM     45  C   UNL A   1      41.373  25.244  27.871  1.00  0.00     0.031 C 
ATOM     46  C   UNL A   1      46.091  23.933  26.710  1.00  0.00     0.029 A 
ATOM     47  N   UNL A   1      45.733  26.051  27.331  1.00  0.00    -0.354 N 
ATOM     48  C   UNL A   1      41.759  27.469  28.227  1.00  0.00     0.074 A 
ATOM     49  C   UNL A   1      40.784  26.409  28.094  1.00  0.00     0.031 C 
ATOM     50  C   UNL A   1      47.271  24.572  26.660  1.00  0.00     0.029 A 
ATOM     51  C   UNL A   1      47.072  25.968  27.033  1.00  0.00     0.049 A 
ATOM     52  H   UNL A   1      45.299  26.880  27.637  1.00  0.00     0.167 HD
ATOM     53  C   UNL A   1      41.455  28.741  28.581  1.00  0.00     0.031 A 
ATOM     54  C   UNL A   1      48.031  26.912  27.048  1.00  0.00     0.031 A 
ATOM     55  C   UNL A   1      42.426  29.791  28.728  1.00  0.00     0.049 A 
ATOM     56  C   UNL A   1      47.674  28.314  27.453  1.00  0.00     0.074 A 
ATOM     57  C   UNL A   1      42.230  31.094  29.151  1.00  0.00     0.029 A 
ATOM     58  N   UNL A   1      43.778  29.657  28.451  1.00  0.00    -0.354 N 
ATOM     59  N   UNL A   1      46.506  28.803  27.790  1.00  0.00    -0.248 NA
ATOM     60  C   UNL A   1      48.771  29.292  27.489  1.00  0.00     0.031 C 
ATOM     61  C   UNL A   1      43.458  31.761  29.087  1.00  0.00     0.029 A 
ATOM     62  C   UNL A   1      44.426  30.860  28.671  1.00  0.00     0.049 A 
ATOM     63  H   UNL A   1      44.213  28.829  28.143  1.00  0.00     0.167 HD
ATOM     64  C   UNL A   1      46.727  30.138  28.096  1.00  0.00     0.074 A 
ATOM     65  C   UNL A   1      48.146  30.378  27.922  1.00  0.00     0.031 C 
ATOM     66  C   UNL A   1      45.837  31.082  28.486  1.00  0.00     0.031 A 
BRANCH  53  67
ATOM     67  C   UNL A   1      40.006  29.056  28.826  1.00  0.00    -0.014 A 
ATOM     68  C   UNL A   1      39.148  29.402  27.768  1.00  0.00     0.009 A 
ATOM     69  C   UNL A   1      39.488  29.003  30.129  1.00  0.00     0.009 A 
ATOM     70  C   UNL A   1      37.815  29.735  28.017  1.00  0.00     0.001 A 
ATOM     71  C   UNL A   1      38.146  29.306  30.371  1.00  0.00     0.001 A 
ATOM     72  C   UNL A   1      37.315  29.684  29.317  1.00  0.00     0.000 A 
ENDBRANCH  53  67
BRANCH  54  73
ATOM     73  C   UNL A   1      49.426  26.556  26.676  1.00  0.00    -0.014 A 
ATOM     74  C   UNL A   1      49.864  26.691  25.349  1.00  0.00     0.009 A 
ATOM     75  C   UNL A   1      50.328  26.094  27.646  1.00  0.00     0.009 A 
ATOM     76  C   UNL A   1      51.172  26.350  24.998  1.00  0.00     0.001 A 
ATOM     77  C   UNL A   1      51.643  25.778  27.296  1.00  0.00     0.001 A 
ATOM     78  C   UNL A   1      52.062  25.899  25.972  1.00  0.00     0.000 A 
ENDBRANCH  54  73
BRANCH  66  79
ATOM     79  C   UNL A   1      46.372  32.456  28.769  1.00  0.00    -0.014 A 
ATOM     80  C   UNL A   1      46.750  32.834  30.066  1.00  0.00     0.009 A 
ATOM     81  C   UNL A   1      46.548  33.366  27.715  1.00  0.00     0.009 A 
ATOM     82  C   UNL A   1      47.267  34.109  30.306  1.00  0.00     0.001 A 
ATOM     83  C   UNL A   1      47.091  34.629  27.953  1.00  0.00     0.001 A 
ATOM     84  C   UNL A   1      47.442  35.002  29.249  1.00  0.00     0.000 A 
ENDBRANCH  66  79
ENDBRANCH  40  41
ENDBRANCH  32  35
ENDBRANCH  30  31
ENDBRANCH  29  30
ENDBRANCH  28  29
ENDBRANCH  27  28
ENDBRANCH   1  27
TORSDOF 18
ENDMDL
MODEL 3
REMARK VINA RESULT:      -9.8      1.623      2.258
REMARK SMILES O=C(CC[NH+]1CC[NH+](Cc2ccccc2C2CC2)CC1)NCCCCCCNC(=O)c1ccc(-c2c3nc(c(-c4ccccc4)c4ccc([nH]4)c(-c4ccccc4)c4nc(c(-c5ccccc5)c5ccc2[nH]5)C=C4)C=C3)cc1
REMARK SMILES IDX 23 1 22 2 21 3 1 4 2 5 3 7 4 8 5 9 6 10 20 11 7 13 19 14
REMARK SMILES IDX 8 15 9 17 10 18 11 19 15 20 12 21 14 22 13 23 16 24 17 25
REMARK SMILES IDX 18 26 24 27 25 28 26 29 27 30 28 31 29 32 30 34 31 35 32 36
REMARK SMILES IDX 78 37 33 38 77 39 34 40 35 41 36 42 71 43 37 44 76 45 70 46
REMARK SMILES IDX 72 47 38 48 75 49 69 50 68 51 39 53 61 54 46 55 60 56 47 57
REMARK SMILES IDX 50 58 59 59 73 60 48 61 49 62 58 64 74 65 51 66 40 67 41 68
REMARK SMILES IDX 45 69 42 70 44 71 43 72 62 73 63 74 67 75 64 76 66 77 65 78
REMARK SMILES IDX 52 79 53 80 57 81 54 82 56 83 55 84
REMARK H PARENT 21 6 5 12 8 16 28 33 72 52 50 63
REMARK Flexibility Score: inf
ROOT
ATOM      1  C   UNL A   1      36.597  22.753  25.810  1.00  0.00     0.021 C 
ENDROOT
BRANCH   1   2
ATOM      2  C   UNL A   1      36.446  22.377  24.331  1.00  0.00     0.116 C 
BRANCH   2   3
ATOM      3  N   UNL A   1      35.069  22.265  23.868  1.00  0.00    -0.356 N 
ATOM      4  O   UNL A   1      34.643  20.313  24.975  1.00  0.00    -0.275 OA
ATOM      5  C   UNL A   1      34.238  21.250  24.287  1.00  0.00     0.225 C 
ATOM      6  H   UNL A   1      34.723  22.935  23.236  1.00  0.00     0.163 HD
BRANCH   5   7
ATOM      7  C   UNL A   1      32.797  21.249  23.782  1.00  0.00     0.161 C 
BRANCH   7   8
ATOM      8  C   UNL A   1      32.379  22.292  22.732  1.00  0.00     0.272 C 
BRANCH   8   9
ATOM      9  N   UNL A   1      31.532  23.375  23.225  1.00  0.00    -0.325 N 
ATOM     10  C   UNL A   1      31.034  23.187  24.589  1.00  0.00     0.324 C 
ATOM     11  C   UNL A   1      32.113  24.727  23.055  1.00  0.00     0.324 C 
ATOM     12  H   UNL A   1      30.720  23.318  22.612  1.00  0.00     0.348 HD
ATOM     13  C   UNL A   1      31.889  23.726  25.739  1.00  0.00     0.324 C 
ATOM     14  C   UNL A   1      32.804  25.397  24.284  1.00  0.00     0.324 C 
ATOM     15  N   UNL A   1      32.218  25.140  25.604  1.00  0.00    -0.322 N 
ATOM     16  H   UNL A   1      32.955  25.372  26.270  1.00  0.00     0.348 HD
BRANCH  15  17
ATOM     17  C   UNL A   1      31.179  26.066  26.085  1.00  0.00     0.299 C 
BRANCH  17  18
ATOM     18  C   UNL A   1      31.424  27.566  26.041  1.00  0.00     0.010 A 
ATOM     19  C   UNL A   1      32.062  28.118  27.182  1.00  0.00     0.010 A 
ATOM     20  C   UNL A   1      31.065  28.421  24.965  1.00  0.00    -0.036 A 
ATOM     21  C   UNL A   1      32.443  29.455  27.240  1.00  0.00     0.001 A 
ATOM     22  C   UNL A   1      31.456  29.776  25.079  1.00  0.00     0.004 A 
ATOM     23  C   UNL A   1      32.157  30.285  26.173  1.00  0.00     0.000 A 
BRANCH  20  24
ATOM     24  C   UNL A   1      30.444  28.026  23.627  1.00  0.00     0.020 C 
ATOM     25  C   UNL A   1      29.135  27.325  23.419  1.00  0.00     0.009 C 
ATOM     26  C   UNL A   1      29.250  28.782  23.099  1.00  0.00     0.009 C 
ENDBRANCH  20  24
ENDBRANCH  17  18
ENDBRANCH  15  17
ENDBRANCH   8   9
ENDBRANCH   7   8
ENDBRANCH   5   7
ENDBRANCH   2   3
ENDBRANCH   1   2
BRANCH   1  27
ATOM     27  C   UNL A   1      37.793  23.652  26.148  1.00  0.00     0.002 C 
BRANCH  27  28
ATOM     28  C   UNL A   1      39.168  22.975  26.159  1.00  0.00     0.002 C 
BRANCH  28  29
ATOM     29  C   UNL A   1      39.186  21.500  26.550  1.00  0.00     0.021 C 
BRANCH  29  30
ATOM     30  C   UNL A   1      39.524  20.530  25.419  1.00  0.00     0.116 C 
BRANCH  30  31
ATOM     31  N   UNL A   1      40.357  19.405  25.834  1.00  0.00    -0.352 N 
ATOM     32  C   UNL A   1      41.623  19.401  26.375  1.00  0.00     0.251 C 
ATOM     33  H   UNL A   1      39.953  18.515  25.709  1.00  0.00     0.163 HD
ATOM     34  O   UNL A   1      42.215  18.345  26.577  1.00  0.00    -0.269 OA
BRANCH  32  35
ATOM     35  C   UNL A   1      42.286  20.686  26.671  1.00  0.00     0.039 A 
ATOM     36  C   UNL A   1      42.734  21.482  25.612  1.00  0.00     0.014 A 
ATOM     37  C   UNL A   1      42.393  21.134  27.988  1.00  0.00     0.014 A 
ATOM     38  C   UNL A   1      43.181  22.780  25.871  1.00  0.00     0.010 A 
ATOM     39  C   UNL A   1      42.752  22.452  28.233  1.00  0.00     0.010 A 
ATOM     40  C   UNL A   1      43.134  23.295  27.177  1.00  0.00    -0.014 A 
BRANCH  40  41
ATOM     41  C   UNL A   1      43.440  24.718  27.464  1.00  0.00     0.031 A 
ATOM     42  C   UNL A   1      44.865  25.195  27.469  1.00  0.00     0.074 A 
ATOM     43  C   UNL A   1      42.448  25.553  27.832  1.00  0.00     0.049 A 
ATOM     44  N   UNL A   1      45.343  26.365  27.806  1.00  0.00    -0.248 NA
ATOM     45  C   UNL A   1      45.891  24.215  27.078  1.00  0.00     0.031 C 
ATOM     46  C   UNL A   1      41.030  25.197  27.932  1.00  0.00     0.029 A 
ATOM     47  N   UNL A   1      42.485  26.872  28.209  1.00  0.00    -0.354 N 
ATOM     48  C   UNL A   1      46.723  26.253  27.693  1.00  0.00     0.074 A 
ATOM     49  C   UNL A   1      47.008  24.887  27.311  1.00  0.00     0.031 C 
ATOM     50  C   UNL A   1      40.332  26.275  28.322  1.00  0.00     0.029 A 
ATOM     51  C   UNL A   1      41.253  27.385  28.541  1.00  0.00     0.049 A 
ATOM     52  H   UNL A   1      43.314  27.401  28.239  1.00  0.00     0.167 HD
ATOM     53  C   UNL A   1      47.668  27.206  27.870  1.00  0.00     0.031 A 
ATOM     54  C   UNL A   1      40.905  28.608  28.982  1.00  0.00     0.031 A 
ATOM     55  C   UNL A   1      47.384  28.567  28.236  1.00  0.00     0.049 A 
ATOM     56  C   UNL A   1      41.970  29.653  29.162  1.00  0.00     0.074 A 
ATOM     57  C   UNL A   1      48.264  29.626  28.370  1.00  0.00     0.029 A 
ATOM     58  N   UNL A   1      46.120  29.055  28.528  1.00  0.00    -0.354 N 
ATOM     59  N   UNL A   1      43.262  29.554  28.973  1.00  0.00    -0.248 NA
ATOM     60  C   UNL A   1      41.524  30.981  29.608  1.00  0.00     0.031 C 
ATOM     61  C   UNL A   1      47.537  30.746  28.789  1.00  0.00     0.029 A 
ATOM     62  C   UNL A   1      46.198  30.395  28.866  1.00  0.00     0.049 A 
ATOM     63  H   UNL A   1      45.289  28.528  28.500  1.00  0.00     0.167 HD
ATOM     64  C   UNL A   1      43.784  30.808  29.257  1.00  0.00     0.074 A 
ATOM     65  C   UNL A   1      42.665  31.657  29.614  1.00  0.00     0.031 C 
ATOM     66  C   UNL A   1      45.075  31.221  29.226  1.00  0.00     0.031 A 
BRANCH  53  67
ATOM     67  C   UNL A   1      49.101  26.794  27.674  1.00  0.00    -0.014 A 
ATOM     68  C   UNL A   1      49.702  26.836  26.405  1.00  0.00     0.009 A 
ATOM     69  C   UNL A   1      49.862  26.362  28.771  1.00  0.00     0.009 A 
ATOM     70  C   UNL A   1      51.019  26.409  26.231  1.00  0.00     0.001 A 
ATOM     71  C   UNL A   1      51.190  25.965  28.599  1.00  0.00     0.001 A 
ATOM     72  C   UNL A   1      51.762  25.977  27.327  1.00  0.00     0.000 A 
ENDBRANCH  53  67
BRANCH  54  73
ATOM     73  C   UNL A   1      39.480  28.912  29.273  1.00  0.00    -0.014 A 
ATOM     74  C   UNL A   1      38.949  28.673  30.551  1.00  0.00     0.009 A 
ATOM     75  C   UNL A   1      38.647  29.453  28.282  1.00  0.00     0.009 A 
ATOM     76  C   UNL A   1      37.607  28.952  30.823  1.00  0.00     0.001 A 
ATOM     77  C   UNL A   1      37.313  29.755  28.565  1.00  0.00     0.001 A 
ATOM     78  C   UNL A   1      36.792  29.497  29.832  1.00  0.00     0.000 A 
ENDBRANCH  54  73
BRANCH  66  79
ATOM     79  C   UNL A   1      45.343  32.658  29.569  1.00  0.00    -0.014 A 
ATOM     80  C   UNL A   1      45.314  33.657  28.583  1.00  0.00     0.009 A 
ATOM     81  C   UNL A   1      45.580  33.023  30.904  1.00  0.00     0.009 A 
ATOM     82  C   UNL A   1      45.545  34.991  28.925  1.00  0.00     0.001 A 
ATOM     83  C   UNL A   1      45.783  34.361  31.246  1.00  0.00     0.001 A 
ATOM     84  C   UNL A   1      45.773  35.341  30.257  1.00  0.00     0.000 A 
ENDBRANCH  66  79
ENDBRANCH  40  41
ENDBRANCH  32  35
ENDBRANCH  30  31
ENDBRANCH  29  30
ENDBRANCH  28  29
ENDBRANCH  27  28
ENDBRANCH   1  27
TORSDOF 18
ENDMDL
