MODEL 1
REMARK VINA RESULT:     -11.8      0.000      0.000
REMARK SMILES Cc1cc(C)c(S(=O)(=O)Nc2ccc(N3CC[NH+](C)CC3)c(C(=O)NCCCCCCNC(=O)c3ccc(-c4c5nc(c(-c6ccccc6)c6ccc([nH]6)c(-c6ccccc6)c6nc(c(-c7ccccc7)c7ccc4[nH]7)C=C6)C=C5)cc3)c2)c(C)c1
REMARK SMILES IDX 28 1 27 2 26 3 25 4 23 5 24 6 22 8 11 9 12 10 83 11 13 12
REMARK SMILES IDX 14 13 10 14 7 16 8 17 9 18 6 19 1 20 2 21 3 22 86 23 4 24
REMARK SMILES IDX 84 25 5 26 85 27 15 28 16 29 21 30 17 31 20 32 18 33 19 34
REMARK SMILES IDX 29 36 30 37 31 38 32 39 33 40 34 42 35 43 36 44 82 45 37 46
REMARK SMILES IDX 81 47 38 48 39 49 40 50 75 51 41 52 80 53 74 54 76 55 42 56
REMARK SMILES IDX 79 57 73 58 72 59 43 61 65 62 50 63 64 64 51 65 54 66 63 67
REMARK SMILES IDX 77 68 52 69 53 70 62 72 78 73 55 74 44 75 45 76 49 77 46 78
REMARK SMILES IDX 48 79 47 80 66 81 67 82 71 83 68 84 70 85 69 86 56 87 57 88
REMARK SMILES IDX 61 89 58 90 60 91 59 92
REMARK H PARENT 25 7 10 15 18 35 32 41 76 60 54 71
REMARK Flexibility Score: inf
ROOT
ATOM      1  C   UNL A   1      38.668  22.331  25.993  1.00  0.00     0.002 C 
ENDROOT
BRANCH   1   2
ATOM      2  C   UNL A   1      37.786  23.527  26.375  1.00  0.00     0.021 C 
BRANCH   2   3
ATOM      3  C   UNL A   1      36.375  23.431  25.792  1.00  0.00     0.116 C 
BRANCH   3   4
ATOM      4  N   UNL A   1      35.536  22.670  26.691  1.00  0.00    -0.352 N 
ATOM      5  C   UNL A   1      34.187  22.418  26.726  1.00  0.00     0.253 C 
ATOM      6  O   UNL A   1      33.756  22.086  27.830  1.00  0.00    -0.269 OA
ATOM      7  H   UNL A   1      36.033  22.248  27.428  1.00  0.00     0.163 HD
BRANCH   5   8
ATOM      8  C   UNL A   1      33.287  22.513  25.526  1.00  0.00     0.065 A 
ATOM      9  C   UNL A   1      32.333  23.861  23.745  1.00  0.00     0.050 A 
ATOM     10  C   UNL A   1      31.727  22.735  23.201  1.00  0.00     0.029 A 
ATOM     11  C   UNL A   1      32.943  23.769  24.992  1.00  0.00     0.042 A 
ATOM     12  C   UNL A   1      31.977  21.487  23.759  1.00  0.00     0.029 A 
ATOM     13  C   UNL A   1      32.853  21.337  24.850  1.00  0.00     0.050 A 
BRANCH   9  14
ATOM     14  N   UNL A   1      32.385  25.007  22.909  1.00  0.00    -0.280 N 
ATOM     15  H   UNL A   1      33.015  24.970  22.153  1.00  0.00     0.180 HD
BRANCH  14  16
ATOM     16  S   UNL A   1      31.495  26.412  23.069  1.00  0.00     0.262 S 
ATOM     17  O   UNL A   1      30.140  25.999  23.397  1.00  0.00    -0.201 OA
ATOM     18  O   UNL A   1      31.772  27.164  21.867  1.00  0.00    -0.201 OA
BRANCH  16  19
ATOM     19  C   UNL A   1      32.047  27.449  24.441  1.00  0.00     0.093 A 
ATOM     20  C   UNL A   1      32.724  30.798  27.108  1.00  0.00     0.044 C 
ATOM     21  C   UNL A   1      32.531  29.616  26.206  1.00  0.00    -0.051 A 
ATOM     22  C   UNL A   1      33.246  29.505  25.018  1.00  0.00     0.008 A 
ATOM     23  C   UNL A   1      31.699  28.558  26.575  1.00  0.00     0.008 A 
ATOM     24  C   UNL A   1      33.023  28.436  24.128  1.00  0.00    -0.030 A 
ATOM     25  C   UNL A   1      31.486  27.441  25.733  1.00  0.00    -0.030 A 
ATOM     26  C   UNL A   1      33.950  28.373  22.938  1.00  0.00     0.046 C 
ATOM     27  C   UNL A   1      30.719  26.316  26.358  1.00  0.00     0.046 C 
ENDBRANCH  16  19
ENDBRANCH  14  16
ENDBRANCH   9  14
BRANCH  13  28
ATOM     28  N   UNL A   1      33.362  20.072  25.094  1.00  0.00    -0.360 N 
ATOM     29  C   UNL A   1      34.760  19.728  24.808  1.00  0.00     0.178 C 
ATOM     30  C   UNL A   1      32.740  19.214  26.110  1.00  0.00     0.178 C 
ATOM     31  C   UNL A   1      34.824  18.246  24.362  1.00  0.00     0.283 C 
ATOM     32  C   UNL A   1      32.860  17.733  25.690  1.00  0.00     0.283 C 
ATOM     33  N   UNL A   1      34.249  17.322  25.378  1.00  0.00    -0.334 N 
ATOM     34  C   UNL A   1      34.263  15.946  24.883  1.00  0.00     0.332 C 
ATOM     35  H   UNL A   1      34.815  17.367  26.225  1.00  0.00     0.347 HD
ENDBRANCH  13  28
ENDBRANCH   5   8
ENDBRANCH   3   4
ENDBRANCH   2   3
ENDBRANCH   1   2
BRANCH   1  36
ATOM     36  C   UNL A   1      38.010  21.344  25.022  1.00  0.00     0.002 C 
BRANCH  36  37
ATOM     37  C   UNL A   1      38.569  19.920  25.079  1.00  0.00     0.021 C 
BRANCH  37  38
ATOM     38  C   UNL A   1      39.487  19.650  26.268  1.00  0.00     0.116 C 
BRANCH  38  39
ATOM     39  N   UNL A   1      40.760  19.083  25.852  1.00  0.00    -0.352 N 
ATOM     40  C   UNL A   1      41.988  19.685  25.770  1.00  0.00     0.251 C 
ATOM     41  H   UNL A   1      40.736  18.133  25.593  1.00  0.00     0.163 HD
ATOM     42  O   UNL A   1      42.927  19.115  25.225  1.00  0.00    -0.269 OA
BRANCH  40  43
ATOM     43  C   UNL A   1      42.174  21.040  26.327  1.00  0.00     0.039 A 
ATOM     44  C   UNL A   1      42.090  21.216  27.710  1.00  0.00     0.014 A 
ATOM     45  C   UNL A   1      42.412  22.132  25.486  1.00  0.00     0.014 A 
ATOM     46  C   UNL A   1      42.291  22.483  28.258  1.00  0.00     0.010 A 
ATOM     47  C   UNL A   1      42.664  23.385  26.038  1.00  0.00     0.010 A 
ATOM     48  C   UNL A   1      42.598  23.571  27.426  1.00  0.00    -0.014 A 
BRANCH  48  49
ATOM     49  C   UNL A   1      42.846  24.917  27.992  1.00  0.00     0.031 A 
ATOM     50  C   UNL A   1      44.219  25.294  28.469  1.00  0.00     0.074 A 
ATOM     51  C   UNL A   1      41.820  25.774  28.143  1.00  0.00     0.049 A 
ATOM     52  N   UNL A   1      44.619  26.402  29.039  1.00  0.00    -0.248 NA
ATOM     53  C   UNL A   1      45.275  24.283  28.304  1.00  0.00     0.031 C 
ATOM     54  C   UNL A   1      40.430  25.506  27.767  1.00  0.00     0.029 A 
ATOM     55  N   UNL A   1      41.788  27.040  28.667  1.00  0.00    -0.354 N 
ATOM     56  C   UNL A   1      45.964  26.212  29.324  1.00  0.00     0.074 A 
ATOM     57  C   UNL A   1      46.304  24.872  28.895  1.00  0.00     0.031 C 
ATOM     58  C   UNL A   1      39.683  26.582  28.064  1.00  0.00     0.029 A 
ATOM     59  C   UNL A   1      40.535  27.600  28.670  1.00  0.00     0.049 A 
ATOM     60  H   UNL A   1      42.586  27.503  29.009  1.00  0.00     0.167 HD
ATOM     61  C   UNL A   1      46.843  27.079  29.882  1.00  0.00     0.031 A 
ATOM     62  C   UNL A   1      40.117  28.799  29.115  1.00  0.00     0.031 A 
ATOM     63  C   UNL A   1      46.511  28.415  30.293  1.00  0.00     0.049 A 
ATOM     64  C   UNL A   1      41.111  29.756  29.705  1.00  0.00     0.074 A 
ATOM     65  C   UNL A   1      47.347  29.396  30.800  1.00  0.00     0.029 A 
ATOM     66  N   UNL A   1      45.236  28.958  30.250  1.00  0.00    -0.354 N 
ATOM     67  N   UNL A   1      42.398  29.591  29.898  1.00  0.00    -0.248 NA
ATOM     68  C   UNL A   1      40.599  31.067  30.126  1.00  0.00     0.031 C 
ATOM     69  C   UNL A   1      46.570  30.522  31.096  1.00  0.00     0.029 A 
ATOM     70  C   UNL A   1      45.258  30.254  30.739  1.00  0.00     0.049 A 
ATOM     71  H   UNL A   1      44.435  28.492  29.921  1.00  0.00     0.167 HD
ATOM     72  C   UNL A   1      42.852  30.781  30.450  1.00  0.00     0.074 A 
ATOM     73  C   UNL A   1      41.706  31.663  30.546  1.00  0.00     0.031 C 
ATOM     74  C   UNL A   1      44.107  31.113  30.838  1.00  0.00     0.031 A 
BRANCH  61  75
ATOM     75  C   UNL A   1      48.247  26.589  30.086  1.00  0.00    -0.014 A 
ATOM     76  C   UNL A   1      48.612  25.895  31.252  1.00  0.00     0.009 A 
ATOM     77  C   UNL A   1      49.218  26.824  29.101  1.00  0.00     0.009 A 
ATOM     78  C   UNL A   1      49.932  25.485  31.445  1.00  0.00     0.001 A 
ATOM     79  C   UNL A   1      50.532  26.389  29.286  1.00  0.00     0.001 A 
ATOM     80  C   UNL A   1      50.890  25.730  30.462  1.00  0.00     0.000 A 
ENDBRANCH  61  75
BRANCH  62  81
ATOM     81  C   UNL A   1      38.685  29.164  28.994  1.00  0.00    -0.014 A 
ATOM     82  C   UNL A   1      37.827  29.043  30.096  1.00  0.00     0.009 A 
ATOM     83  C   UNL A   1      38.179  29.669  27.786  1.00  0.00     0.009 A 
ATOM     84  C   UNL A   1      36.484  29.410  29.989  1.00  0.00     0.001 A 
ATOM     85  C   UNL A   1      36.840  30.052  27.688  1.00  0.00     0.001 A 
ATOM     86  C   UNL A   1      35.993  29.918  28.787  1.00  0.00     0.000 A 
ENDBRANCH  62  81
BRANCH  74  87
ATOM     87  C   UNL A   1      44.306  32.493  31.391  1.00  0.00    -0.014 A 
ATOM     88  C   UNL A   1      44.594  33.575  30.547  1.00  0.00     0.009 A 
ATOM     89  C   UNL A   1      44.166  32.719  32.769  1.00  0.00     0.009 A 
ATOM     90  C   UNL A   1      44.765  34.855  31.077  1.00  0.00     0.001 A 
ATOM     91  C   UNL A   1      44.317  34.003  33.293  1.00  0.00     0.001 A 
ATOM     92  C   UNL A   1      44.622  35.069  32.449  1.00  0.00     0.000 A 
ENDBRANCH  74  87
ENDBRANCH  48  49
ENDBRANCH  40  43
ENDBRANCH  38  39
ENDBRANCH  37  38
ENDBRANCH  36  37
ENDBRANCH   1  36
TORSDOF 17
ENDMDL
MODEL 2
REMARK VINA RESULT:     -11.4      3.200      9.162
REMARK SMILES Cc1cc(C)c(S(=O)(=O)Nc2ccc(N3CC[NH+](C)CC3)c(C(=O)NCCCCCCNC(=O)c3ccc(-c4c5nc(c(-c6ccccc6)c6ccc([nH]6)c(-c6ccccc6)c6nc(c(-c7ccccc7)c7ccc4[nH]7)C=C6)C=C5)cc3)c2)c(C)c1
REMARK SMILES IDX 28 1 27 2 26 3 25 4 23 5 24 6 22 8 11 9 12 10 83 11 13 12
REMARK SMILES IDX 14 13 10 14 7 16 8 17 9 18 6 19 1 20 2 21 3 22 86 23 4 24
REMARK SMILES IDX 84 25 5 26 85 27 15 28 16 29 21 30 17 31 20 32 18 33 19 34
REMARK SMILES IDX 29 36 30 37 31 38 32 39 33 40 34 42 35 43 36 44 82 45 37 46
REMARK SMILES IDX 81 47 38 48 39 49 40 50 75 51 41 52 80 53 74 54 76 55 42 56
REMARK SMILES IDX 79 57 73 58 72 59 43 61 65 62 50 63 64 64 51 65 54 66 63 67
REMARK SMILES IDX 77 68 52 69 53 70 62 72 78 73 55 74 44 75 45 76 49 77 46 78
REMARK SMILES IDX 48 79 47 80 66 81 67 82 71 83 68 84 70 85 69 86 56 87 57 88
REMARK SMILES IDX 61 89 58 90 60 91 59 92
REMARK H PARENT 25 7 10 15 18 35 32 41 76 60 54 71
REMARK Flexibility Score: inf
ROOT
ATOM      1  C   UNL A   1      33.745  29.564  26.539  1.00  0.00     0.002 C 
ENDROOT
BRANCH   1   2
ATOM      2  C   UNL A   1      33.133  28.345  27.241  1.00  0.00     0.021 C 
BRANCH   2   3
ATOM      3  C   UNL A   1      31.615  28.460  27.408  1.00  0.00     0.116 C 
BRANCH   3   4
ATOM      4  N   UNL A   1      31.001  27.194  27.076  1.00  0.00    -0.352 N 
ATOM      5  C   UNL A   1      30.920  26.468  25.913  1.00  0.00     0.253 C 
ATOM      6  O   UNL A   1      29.995  25.656  25.879  1.00  0.00    -0.269 OA
ATOM      7  H   UNL A   1      30.550  26.764  27.838  1.00  0.00     0.163 HD
BRANCH   5   8
ATOM      8  C   UNL A   1      31.878  26.618  24.765  1.00  0.00     0.065 A 
ATOM      9  C   UNL A   1      33.623  25.658  23.375  1.00  0.00     0.050 A 
ATOM     10  C   UNL A   1      33.601  26.778  22.553  1.00  0.00     0.029 A 
ATOM     11  C   UNL A   1      32.903  25.674  24.566  1.00  0.00     0.042 A 
ATOM     12  C   UNL A   1      32.655  27.771  22.776  1.00  0.00     0.029 A 
ATOM     13  C   UNL A   1      31.702  27.654  23.804  1.00  0.00     0.050 A 
BRANCH   9  14
ATOM     14  N   UNL A   1      34.297  24.519  22.862  1.00  0.00    -0.280 N 
ATOM     15  H   UNL A   1      34.168  24.328  21.904  1.00  0.00     0.180 HD
BRANCH  14  16
ATOM     16  S   UNL A   1      35.284  23.468  23.705  1.00  0.00     0.262 S 
ATOM     17  O   UNL A   1      35.465  24.050  25.025  1.00  0.00    -0.201 OA
ATOM     18  O   UNL A   1      36.413  23.239  22.832  1.00  0.00    -0.201 OA
BRANCH  16  19
ATOM     19  C   UNL A   1      34.530  21.848  23.974  1.00  0.00     0.093 A 
ATOM     20  C   UNL A   1      32.631  18.396  25.781  1.00  0.00     0.044 C 
ATOM     21  C   UNL A   1      33.303  19.561  25.117  1.00  0.00    -0.051 A 
ATOM     22  C   UNL A   1      34.664  19.789  25.293  1.00  0.00     0.008 A 
ATOM     23  C   UNL A   1      32.604  20.389  24.238  1.00  0.00     0.008 A 
ATOM     24  C   UNL A   1      35.293  20.918  24.733  1.00  0.00    -0.030 A 
ATOM     25  C   UNL A   1      33.212  21.504  23.614  1.00  0.00    -0.030 A 
ATOM     26  C   UNL A   1      36.792  20.980  24.900  1.00  0.00     0.046 C 
ATOM     27  C   UNL A   1      32.378  22.172  22.562  1.00  0.00     0.046 C 
ENDBRANCH  16  19
ENDBRANCH  14  16
ENDBRANCH   9  14
BRANCH  13  28
ATOM     28  N   UNL A   1      30.571  28.450  23.723  1.00  0.00    -0.360 N 
ATOM     29  C   UNL A   1      29.246  27.891  23.427  1.00  0.00     0.178 C 
ATOM     30  C   UNL A   1      30.523  29.733  24.436  1.00  0.00     0.178 C 
ATOM     31  C   UNL A   1      28.444  28.927  22.601  1.00  0.00     0.283 C 
ATOM     32  C   UNL A   1      29.672  30.745  23.639  1.00  0.00     0.283 C 
ATOM     33  N   UNL A   1      28.322  30.238  23.299  1.00  0.00    -0.334 N 
ATOM     34  C   UNL A   1      27.624  31.204  22.452  1.00  0.00     0.332 C 
ATOM     35  H   UNL A   1      27.782  30.108  24.155  1.00  0.00     0.347 HD
ENDBRANCH  13  28
ENDBRANCH   5   8
ENDBRANCH   3   4
ENDBRANCH   2   3
ENDBRANCH   1   2
BRANCH   1  36
ATOM     36  C   UNL A   1      33.986  30.768  27.458  1.00  0.00     0.002 C 
BRANCH  36  37
ATOM     37  C   UNL A   1      32.786  31.705  27.614  1.00  0.00     0.021 C 
BRANCH  37  38
ATOM     38  C   UNL A   1      32.993  33.098  27.025  1.00  0.00     0.116 C 
BRANCH  38  39
ATOM     39  N   UNL A   1      32.617  34.145  27.963  1.00  0.00    -0.352 N 
ATOM     40  C   UNL A   1      33.210  34.495  29.147  1.00  0.00     0.251 C 
ATOM     41  H   UNL A   1      31.826  34.675  27.712  1.00  0.00     0.163 HD
ATOM     42  O   UNL A   1      32.661  35.282  29.911  1.00  0.00    -0.269 OA
BRANCH  40  43
ATOM     43  C   UNL A   1      34.514  33.905  29.513  1.00  0.00     0.039 A 
ATOM     44  C   UNL A   1      34.577  33.035  30.603  1.00  0.00     0.014 A 
ATOM     45  C   UNL A   1      35.670  34.224  28.792  1.00  0.00     0.014 A 
ATOM     46  C   UNL A   1      35.794  32.446  30.946  1.00  0.00     0.010 A 
ATOM     47  C   UNL A   1      36.871  33.595  29.103  1.00  0.00     0.010 A 
ATOM     48  C   UNL A   1      36.944  32.707  30.186  1.00  0.00    -0.014 A 
BRANCH  48  49
ATOM     49  C   UNL A   1      38.238  32.066  30.515  1.00  0.00     0.031 A 
ATOM     50  C   UNL A   1      39.216  32.761  31.418  1.00  0.00     0.074 A 
ATOM     51  C   UNL A   1      38.562  30.892  29.944  1.00  0.00     0.049 A 
ATOM     52  N   UNL A   1      40.416  32.384  31.780  1.00  0.00    -0.248 NA
ATOM     53  C   UNL A   1      38.798  34.060  31.967  1.00  0.00     0.031 C 
ATOM     54  C   UNL A   1      37.720  30.143  29.009  1.00  0.00     0.029 A 
ATOM     55  N   UNL A   1      39.697  30.131  30.057  1.00  0.00    -0.354 N 
ATOM     56  C   UNL A   1      40.907  33.410  32.576  1.00  0.00     0.074 A 
ATOM     57  C   UNL A   1      39.889  34.438  32.619  1.00  0.00     0.031 C 
ATOM     58  C   UNL A   1      38.364  29.024  28.642  1.00  0.00     0.029 A 
ATOM     59  C   UNL A   1      39.669  28.990  29.296  1.00  0.00     0.049 A 
ATOM     60  H   UNL A   1      40.458  30.379  30.629  1.00  0.00     0.167 HD
ATOM     61  C   UNL A   1      42.093  33.485  33.225  1.00  0.00     0.031 A 
ATOM     62  C   UNL A   1      40.593  28.024  29.137  1.00  0.00     0.031 A 
ATOM     63  C   UNL A   1      43.098  32.458  33.197  1.00  0.00     0.049 A 
ATOM     64  C   UNL A   1      41.890  28.113  29.887  1.00  0.00     0.074 A 
ATOM     65  C   UNL A   1      44.300  32.407  33.882  1.00  0.00     0.029 A 
ATOM     66  N   UNL A   1      43.018  31.300  32.440  1.00  0.00    -0.354 N 
ATOM     67  N   UNL A   1      42.309  29.054  30.699  1.00  0.00    -0.248 NA
ATOM     68  C   UNL A   1      42.835  27.002  29.709  1.00  0.00     0.031 C 
ATOM     69  C   UNL A   1      44.965  31.234  33.509  1.00  0.00     0.029 A 
ATOM     70  C   UNL A   1      44.159  30.537  32.623  1.00  0.00     0.049 A 
ATOM     71  H   UNL A   1      42.263  31.058  31.858  1.00  0.00     0.167 HD
ATOM     72  C   UNL A   1      43.560  28.643  31.139  1.00  0.00     0.074 A 
ATOM     73  C   UNL A   1      43.823  27.361  30.516  1.00  0.00     0.031 C 
ATOM     74  C   UNL A   1      44.410  29.270  31.987  1.00  0.00     0.031 A 
BRANCH  61  75
ATOM     75  C   UNL A   1      42.362  34.737  34.009  1.00  0.00    -0.014 A 
ATOM     76  C   UNL A   1      42.044  34.822  35.375  1.00  0.00     0.009 A 
ATOM     77  C   UNL A   1      42.942  35.846  33.375  1.00  0.00     0.009 A 
ATOM     78  C   UNL A   1      42.262  36.008  36.078  1.00  0.00     0.001 A 
ATOM     79  C   UNL A   1      43.182  37.022  34.088  1.00  0.00     0.001 A 
ATOM     80  C   UNL A   1      42.832  37.105  35.435  1.00  0.00     0.000 A 
ENDBRANCH  61  75
BRANCH  62  81
ATOM     81  C   UNL A   1      40.304  26.877  28.244  1.00  0.00    -0.014 A 
ATOM     82  C   UNL A   1      39.524  25.804  28.699  1.00  0.00     0.009 A 
ATOM     83  C   UNL A   1      40.777  26.866  26.923  1.00  0.00     0.009 A 
ATOM     84  C   UNL A   1      39.231  24.734  27.849  1.00  0.00     0.001 A 
ATOM     85  C   UNL A   1      40.467  25.804  26.071  1.00  0.00     0.001 A 
ATOM     86  C   UNL A   1      39.699  24.738  26.536  1.00  0.00     0.000 A 
ENDBRANCH  62  81
BRANCH  74  87
ATOM     87  C   UNL A   1      45.701  28.571  32.298  1.00  0.00    -0.014 A 
ATOM     88  C   UNL A   1      46.839  28.771  31.503  1.00  0.00     0.009 A 
ATOM     89  C   UNL A   1      45.788  27.735  33.421  1.00  0.00     0.009 A 
ATOM     90  C   UNL A   1      48.036  28.123  31.814  1.00  0.00     0.001 A 
ATOM     91  C   UNL A   1      46.991  27.105  33.741  1.00  0.00     0.001 A 
ATOM     92  C   UNL A   1      48.112  27.294  32.934  1.00  0.00     0.000 A 
ENDBRANCH  74  87
ENDBRANCH  48  49
ENDBRANCH  40  43
ENDBRANCH  38  39
ENDBRANCH  37  38
ENDBRANCH  36  37
ENDBRANCH   1  36
TORSDOF 17
ENDMDL
MODEL 3
REMARK VINA RESULT:     -11.4      4.665     10.169
REMARK SMILES Cc1cc(C)c(S(=O)(=O)Nc2ccc(N3CC[NH+](C)CC3)c(C(=O)NCCCCCCNC(=O)c3ccc(-c4c5nc(c(-c6ccccc6)c6ccc([nH]6)c(-c6ccccc6)c6nc(c(-c7ccccc7)c7ccc4[nH]7)C=C6)C=C5)cc3)c2)c(C)c1
REMARK SMILES IDX 28 1 27 2 26 3 25 4 23 5 24 6 22 8 11 9 12 10 83 11 13 12
REMARK SMILES IDX 14 13 10 14 7 16 8 17 9 18 6 19 1 20 2 21 3 22 86 23 4 24
REMARK SMILES IDX 84 25 5 26 85 27 15 28 16 29 21 30 17 31 20 32 18 33 19 34
REMARK SMILES IDX 29 36 30 37 31 38 32 39 33 40 34 42 35 43 36 44 82 45 37 46
REMARK SMILES IDX 81 47 38 48 39 49 40 50 75 51 41 52 80 53 74 54 76 55 42 56
REMARK SMILES IDX 79 57 73 58 72 59 43 61 65 62 50 63 64 64 51 65 54 66 63 67
REMARK SMILES IDX 77 68 52 69 53 70 62 72 78 73 55 74 44 75 45 76 49 77 46 78
REMARK SMILES IDX 48 79 47 80 66 81 67 82 71 83 68 84 70 85 69 86 56 87 57 88
REMARK SMILES IDX 61 89 58 90 60 91 59 92
REMARK H PARENT 25 7 10 15 18 35 32 41 76 60 54 71
REMARK Flexibility Score: inf
ROOT
ATOM      1  C   UNL A   1      33.534  31.759  27.422  1.00  0.00     0.002 C 
ENDROOT
BRANCH   1   2
ATOM      2  C   UNL A   1      34.361  30.472  27.529  1.00  0.00     0.021 C 
BRANCH   2   3
ATOM      3  C   UNL A   1      33.701  29.284  26.824  1.00  0.00     0.116 C 
BRANCH   3   4
ATOM      4  N   UNL A   1      33.711  29.510  25.396  1.00  0.00    -0.352 N 
ATOM      5  C   UNL A   1      33.233  28.789  24.330  1.00  0.00     0.253 C 
ATOM      6  O   UNL A   1      33.760  29.058  23.251  1.00  0.00    -0.269 OA
ATOM      7  H   UNL A   1      34.150  30.351  25.135  1.00  0.00     0.163 HD
BRANCH   5   8
ATOM      8  C   UNL A   1      32.141  27.761  24.438  1.00  0.00     0.065 A 
ATOM      9  C   UNL A   1      31.273  25.754  25.494  1.00  0.00     0.050 A 
ATOM     10  C   UNL A   1      30.085  25.880  24.786  1.00  0.00     0.029 A 
ATOM     11  C   UNL A   1      32.347  26.580  25.174  1.00  0.00     0.042 A 
ATOM     12  C   UNL A   1      29.885  26.995  23.979  1.00  0.00     0.029 A 
ATOM     13  C   UNL A   1      30.853  28.011  23.885  1.00  0.00     0.050 A 
BRANCH   9  14
ATOM     14  N   UNL A   1      31.253  24.855  26.592  1.00  0.00    -0.280 N 
ATOM     15  H   UNL A   1      31.049  25.242  27.474  1.00  0.00     0.180 HD
BRANCH  14  16
ATOM     16  S   UNL A   1      31.538  23.209  26.550  1.00  0.00     0.262 S 
ATOM     17  O   UNL A   1      30.406  22.617  25.854  1.00  0.00    -0.201 OA
ATOM     18  O   UNL A   1      31.839  22.851  27.918  1.00  0.00    -0.201 OA
BRANCH  16  19
ATOM     19  C   UNL A   1      33.001  22.766  25.588  1.00  0.00     0.093 A 
ATOM     20  C   UNL A   1      36.578  22.941  23.146  1.00  0.00     0.044 C 
ATOM     21  C   UNL A   1      35.335  22.831  23.978  1.00  0.00    -0.051 A 
ATOM     22  C   UNL A   1      34.079  22.982  23.400  1.00  0.00     0.008 A 
ATOM     23  C   UNL A   1      35.402  22.488  25.329  1.00  0.00     0.008 A 
ATOM     24  C   UNL A   1      32.907  22.952  24.181  1.00  0.00    -0.030 A 
ATOM     25  C   UNL A   1      34.244  22.396  26.137  1.00  0.00    -0.030 A 
ATOM     26  C   UNL A   1      31.609  23.008  23.412  1.00  0.00     0.046 C 
ATOM     27  C   UNL A   1      34.475  21.837  27.509  1.00  0.00     0.046 C 
ENDBRANCH  16  19
ENDBRANCH  14  16
ENDBRANCH   9  14
BRANCH  13  28
ATOM     28  N   UNL A   1      30.442  29.244  23.406  1.00  0.00    -0.360 N 
ATOM     29  C   UNL A   1      30.368  30.428  24.271  1.00  0.00     0.178 C 
ATOM     30  C   UNL A   1      30.588  29.564  21.980  1.00  0.00     0.178 C 
ATOM     31  C   UNL A   1      29.184  31.311  23.801  1.00  0.00     0.283 C 
ATOM     32  C   UNL A   1      29.440  30.493  21.531  1.00  0.00     0.283 C 
ATOM     33  N   UNL A   1      29.304  31.707  22.370  1.00  0.00    -0.334 N 
ATOM     34  C   UNL A   1      28.131  32.473  21.953  1.00  0.00     0.332 C 
ATOM     35  H   UNL A   1      30.131  32.293  22.257  1.00  0.00     0.347 HD
ENDBRANCH  13  28
ENDBRANCH   5   8
ENDBRANCH   3   4
ENDBRANCH   2   3
ENDBRANCH   1   2
BRANCH   1  36
ATOM     36  C   UNL A   1      33.942  32.858  28.410  1.00  0.00     0.002 C 
BRANCH  36  37
ATOM     37  C   UNL A   1      33.051  34.103  28.387  1.00  0.00     0.021 C 
BRANCH  37  38
ATOM     38  C   UNL A   1      33.594  35.281  29.191  1.00  0.00     0.116 C 
BRANCH  38  39
ATOM     39  N   UNL A   1      32.746  35.597  30.330  1.00  0.00    -0.352 N 
ATOM     40  C   UNL A   1      32.898  35.242  31.644  1.00  0.00     0.251 C 
ATOM     41  H   UNL A   1      31.951  36.143  30.127  1.00  0.00     0.163 HD
ATOM     42  O   UNL A   1      31.994  35.436  32.451  1.00  0.00    -0.269 OA
BRANCH  40  43
ATOM     43  C   UNL A   1      34.154  34.604  32.086  1.00  0.00     0.039 A 
ATOM     44  C   UNL A   1      34.121  33.272  32.504  1.00  0.00     0.014 A 
ATOM     45  C   UNL A   1      35.353  35.325  32.105  1.00  0.00     0.014 A 
ATOM     46  C   UNL A   1      35.303  32.643  32.898  1.00  0.00     0.010 A 
ATOM     47  C   UNL A   1      36.538  34.682  32.449  1.00  0.00     0.010 A 
ATOM     48  C   UNL A   1      36.521  33.339  32.855  1.00  0.00    -0.014 A 
BRANCH  48  49
ATOM     49  C   UNL A   1      37.790  32.679  33.240  1.00  0.00     0.031 A 
ATOM     50  C   UNL A   1      38.411  31.654  32.336  1.00  0.00     0.074 A 
ATOM     51  C   UNL A   1      38.345  32.952  34.435  1.00  0.00     0.049 A 
ATOM     52  N   UNL A   1      39.487  30.934  32.523  1.00  0.00    -0.248 NA
ATOM     53  C   UNL A   1      37.717  31.387  31.067  1.00  0.00     0.031 C 
ATOM     54  C   UNL A   1      37.810  33.890  35.424  1.00  0.00     0.029 A 
ATOM     55  N   UNL A   1      39.477  32.451  35.025  1.00  0.00    -0.354 N 
ATOM     56  C   UNL A   1      39.586  30.110  31.410  1.00  0.00     0.074 A 
ATOM     57  C   UNL A   1      38.444  30.396  30.568  1.00  0.00     0.031 C 
ATOM     58  C   UNL A   1      38.620  33.905  36.494  1.00  0.00     0.029 A 
ATOM     59  C   UNL A   1      39.714  32.963  36.276  1.00  0.00     0.049 A 
ATOM     60  H   UNL A   1      40.062  31.789  34.593  1.00  0.00     0.167 HD
ATOM     61  C   UNL A   1      40.547  29.205  31.107  1.00  0.00     0.031 A 
ATOM     62  C   UNL A   1      40.700  32.700  37.153  1.00  0.00     0.031 A 
ATOM     63  C   UNL A   1      41.690  28.932  31.934  1.00  0.00     0.049 A 
ATOM     64  C   UNL A   1      41.770  31.714  36.787  1.00  0.00     0.074 A 
ATOM     65  C   UNL A   1      42.758  28.088  31.679  1.00  0.00     0.029 A 
ATOM     66  N   UNL A   1      41.913  29.495  33.181  1.00  0.00    -0.354 N 
ATOM     67  N   UNL A   1      41.891  30.998  35.695  1.00  0.00    -0.248 NA
ATOM     68  C   UNL A   1      42.845  31.509  37.767  1.00  0.00     0.031 C 
ATOM     69  C   UNL A   1      43.609  28.115  32.790  1.00  0.00     0.029 A 
ATOM     70  C   UNL A   1      43.090  29.003  33.718  1.00  0.00     0.049 A 
ATOM     71  H   UNL A   1      41.321  30.148  33.619  1.00  0.00     0.167 HD
ATOM     72  C   UNL A   1      43.062  30.269  35.850  1.00  0.00     0.074 A 
ATOM     73  C   UNL A   1      43.621  30.640  37.135  1.00  0.00     0.031 C 
ATOM     74  C   UNL A   1      43.625  29.374  35.002  1.00  0.00     0.031 A 
BRANCH  61  75
ATOM     75  C   UNL A   1      40.383  28.439  29.826  1.00  0.00    -0.014 A 
ATOM     76  C   UNL A   1      39.660  27.236  29.787  1.00  0.00     0.009 A 
ATOM     77  C   UNL A   1      40.959  28.927  28.644  1.00  0.00     0.009 A 
ATOM     78  C   UNL A   1      39.553  26.515  28.596  1.00  0.00     0.001 A 
ATOM     79  C   UNL A   1      40.829  28.216  27.449  1.00  0.00     0.001 A 
ATOM     80  C   UNL A   1      40.136  27.006  27.429  1.00  0.00     0.000 A 
ENDBRANCH  61  75
BRANCH  62  81
ATOM     81  C   UNL A   1      40.725  33.406  38.456  1.00  0.00    -0.014 A 
ATOM     82  C   UNL A   1      41.418  34.618  38.591  1.00  0.00     0.009 A 
ATOM     83  C   UNL A   1      40.029  32.891  39.560  1.00  0.00     0.009 A 
ATOM     84  C   UNL A   1      41.422  35.296  39.812  1.00  0.00     0.001 A 
ATOM     85  C   UNL A   1      40.020  33.581  40.773  1.00  0.00     0.001 A 
ATOM     86  C   UNL A   1      40.720  34.780  40.900  1.00  0.00     0.000 A 
ENDBRANCH  62  81
BRANCH  74  87
ATOM     87  C   UNL A   1      44.917  28.746  35.433  1.00  0.00    -0.014 A 
ATOM     88  C   UNL A   1      44.929  27.537  36.145  1.00  0.00     0.009 A 
ATOM     89  C   UNL A   1      46.136  29.350  35.089  1.00  0.00     0.009 A 
ATOM     90  C   UNL A   1      46.141  26.959  36.528  1.00  0.00     0.001 A 
ATOM     91  C   UNL A   1      47.345  28.759  35.455  1.00  0.00     0.001 A 
ATOM     92  C   UNL A   1      47.347  27.568  36.180  1.00  0.00     0.000 A 
ENDBRANCH  74  87
ENDBRANCH  48  49
ENDBRANCH  40  43
ENDBRANCH  38  39
ENDBRANCH  37  38
ENDBRANCH  36  37
ENDBRANCH   1  36
TORSDOF 17
ENDMDL
