MODEL 1
REMARK VINA RESULT:     -10.8      0.000      0.000
REMARK SMILES Cc1ccc(F)c(NC(=O)NC(=O)CCCCC(=O)NCCCCCCNC(=O)c2ccc(-c3c4nc(c(-c5ccccc5)c5ccc([nH]5)c(-c5ccccc5)c5nc(c(-c6ccccc6)c6ccc3[nH]6)C=C5)C=C4)cc2)c1
REMARK SMILES IDX 22 1 21 2 20 3 18 4 19 5 17 7 16 8 15 9 14 10 12 11 8 12
REMARK SMILES IDX 9 13 10 15 11 16 13 18 7 19 1 20 2 21 3 22 78 23 4 24 5 25
REMARK SMILES IDX 6 26 23 27 24 28 25 29 26 30 27 31 28 32 29 34 30 35 31 36
REMARK SMILES IDX 77 37 32 38 76 39 33 40 34 41 35 42 70 43 36 44 75 45 69 46
REMARK SMILES IDX 71 47 37 48 74 49 68 50 67 51 38 53 60 54 45 55 59 56 46 57
REMARK SMILES IDX 49 58 58 59 72 60 47 61 48 62 57 64 73 65 50 66 39 67 40 68
REMARK SMILES IDX 44 69 41 70 43 71 42 72 61 73 62 74 66 75 63 76 65 77 64 78
REMARK SMILES IDX 51 79 52 80 56 81 53 82 55 83 54 84
REMARK H PARENT 20 6 8 14 11 17 27 33 71 52 49 63
REMARK Flexibility Score: inf
ROOT
ATOM      1  C   UNL A   1      35.385  31.914  28.003  1.00  0.00     0.021 C 
ENDROOT
BRANCH   1   2
ATOM      2  C   UNL A   1      34.957  30.460  27.908  1.00  0.00     0.116 C 
BRANCH   2   3
ATOM      3  N   UNL A   1      34.555  30.081  26.576  1.00  0.00    -0.356 N 
ATOM      4  C   UNL A   1      33.320  29.730  26.124  1.00  0.00     0.219 C 
ATOM      5  O   UNL A   1      33.162  29.583  24.911  1.00  0.00    -0.275 OA
ATOM      6  H   UNL A   1      35.273  30.075  25.901  1.00  0.00     0.163 HD
BRANCH   4   7
ATOM      7  C   UNL A   1      32.156  29.601  27.088  1.00  0.00     0.100 C 
BRANCH   7   8
ATOM      8  C   UNL A   1      31.769  28.199  27.555  1.00  0.00     0.010 C 
BRANCH   8   9
ATOM      9  C   UNL A   1      31.118  27.248  26.540  1.00  0.00     0.010 C 
BRANCH   9  10
ATOM     10  C   UNL A   1      31.871  25.963  26.184  1.00  0.00     0.100 C 
BRANCH  10  11
ATOM     11  C   UNL A   1      31.068  24.688  26.200  1.00  0.00     0.227 C 
ATOM     12  N   UNL A   1      30.855  25.249  22.949  1.00  0.00    -0.305 N 
ATOM     13  C   UNL A   1      30.814  24.165  23.748  1.00  0.00     0.325 C 
ATOM     14  H   UNL A   1      31.293  25.055  22.088  1.00  0.00     0.171 HD
ATOM     15  O   UNL A   1      31.119  23.082  23.240  1.00  0.00    -0.248 OA
ATOM     16  N   UNL A   1      30.469  24.188  25.062  1.00  0.00    -0.278 N 
ATOM     17  H   UNL A   1      29.604  23.753  25.239  1.00  0.00     0.174 HD
ATOM     18  O   UNL A   1      30.934  24.057  27.254  1.00  0.00    -0.275 OA
BRANCH  12  19
ATOM     19  C   UNL A   1      30.432  26.588  23.032  1.00  0.00     0.079 A 
ATOM     20  C   UNL A   1      27.006  28.206  23.555  1.00  0.00     0.044 C 
ATOM     21  C   UNL A   1      28.488  28.053  23.348  1.00  0.00    -0.049 A 
ATOM     22  C   UNL A   1      29.282  29.155  23.015  1.00  0.00     0.006 A 
ATOM     23  C   UNL A   1      29.077  26.778  23.362  1.00  0.00     0.032 A 
ATOM     24  C   UNL A   1      30.642  28.986  22.742  1.00  0.00     0.042 A 
ATOM     25  C   UNL A   1      31.212  27.712  22.768  1.00  0.00     0.146 A 
ATOM     26  F   UNL A   1      32.519  27.607  22.501  1.00  0.00    -0.205 F 
ENDBRANCH  12  19
ENDBRANCH  10  11
ENDBRANCH   9  10
ENDBRANCH   8   9
ENDBRANCH   7   8
ENDBRANCH   4   7
ENDBRANCH   2   3
ENDBRANCH   1   2
BRANCH   1  27
ATOM     27  C   UNL A   1      34.466  32.723  28.919  1.00  0.00     0.002 C 
BRANCH  27  28
ATOM     28  C   UNL A   1      34.502  34.240  28.684  1.00  0.00     0.002 C 
BRANCH  28  29
ATOM     29  C   UNL A   1      33.216  34.987  29.034  1.00  0.00     0.021 C 
BRANCH  29  30
ATOM     30  C   UNL A   1      33.448  36.280  29.800  1.00  0.00     0.116 C 
BRANCH  30  31
ATOM     31  N   UNL A   1      32.515  36.426  30.909  1.00  0.00    -0.352 N 
ATOM     32  C   UNL A   1      32.524  35.801  32.127  1.00  0.00     0.251 C 
ATOM     33  H   UNL A   1      31.778  37.063  30.763  1.00  0.00     0.163 HD
ATOM     34  O   UNL A   1      31.544  35.856  32.868  1.00  0.00    -0.269 OA
BRANCH  32  35
ATOM     35  C   UNL A   1      33.724  35.051  32.531  1.00  0.00     0.039 A 
ATOM     36  C   UNL A   1      33.605  33.709  32.896  1.00  0.00     0.014 A 
ATOM     37  C   UNL A   1      34.973  35.677  32.513  1.00  0.00     0.014 A 
ATOM     38  C   UNL A   1      34.756  32.981  33.199  1.00  0.00     0.010 A 
ATOM     39  C   UNL A   1      36.120  34.925  32.704  1.00  0.00     0.010 A 
ATOM     40  C   UNL A   1      36.022  33.577  33.076  1.00  0.00    -0.014 A 
BRANCH  40  41
ATOM     41  C   UNL A   1      37.264  32.825  33.370  1.00  0.00     0.031 A 
ATOM     42  C   UNL A   1      38.005  33.089  34.652  1.00  0.00     0.074 A 
ATOM     43  C   UNL A   1      37.756  31.963  32.460  1.00  0.00     0.049 A 
ATOM     44  N   UNL A   1      39.139  32.588  35.070  1.00  0.00    -0.248 NA
ATOM     45  C   UNL A   1      37.412  34.077  35.571  1.00  0.00     0.031 C 
ATOM     46  C   UNL A   1      37.153  31.665  31.160  1.00  0.00     0.029 A 
ATOM     47  N   UNL A   1      38.882  31.183  32.493  1.00  0.00    -0.354 N 
ATOM     48  C   UNL A   1      39.404  33.219  36.279  1.00  0.00     0.074 A 
ATOM     49  C   UNL A   1      38.353  34.186  36.495  1.00  0.00     0.031 C 
ATOM     50  C   UNL A   1      37.894  30.736  30.536  1.00  0.00     0.029 A 
ATOM     51  C   UNL A   1      39.045  30.408  31.370  1.00  0.00     0.049 A 
ATOM     52  H   UNL A   1      39.514  31.177  33.248  1.00  0.00     0.167 HD
ATOM     53  C   UNL A   1      40.416  32.993  37.148  1.00  0.00     0.031 A 
ATOM     54  C   UNL A   1      40.016  29.532  31.051  1.00  0.00     0.031 A 
ATOM     55  C   UNL A   1      41.448  32.015  36.935  1.00  0.00     0.049 A 
ATOM     56  C   UNL A   1      41.133  29.297  32.030  1.00  0.00     0.074 A 
ATOM     57  C   UNL A   1      42.485  31.658  37.776  1.00  0.00     0.029 A 
ATOM     58  N   UNL A   1      41.571  31.241  35.791  1.00  0.00    -0.354 N 
ATOM     59  N   UNL A   1      41.329  29.845  33.207  1.00  0.00    -0.248 NA
ATOM     60  C   UNL A   1      42.152  28.314  31.643  1.00  0.00     0.031 C 
ATOM     61  C   UNL A   1      43.272  30.708  37.116  1.00  0.00     0.029 A 
ATOM     62  C   UNL A   1      42.683  30.426  35.891  1.00  0.00     0.049 A 
ATOM     63  H   UNL A   1      40.958  31.269  35.021  1.00  0.00     0.167 HD
ATOM     64  C   UNL A   1      42.478  29.252  33.712  1.00  0.00     0.074 A 
ATOM     65  C   UNL A   1      42.923  28.292  32.722  1.00  0.00     0.031 C 
ATOM     66  C   UNL A   1      43.109  29.480  34.891  1.00  0.00     0.031 A 
BRANCH  53  67
ATOM     67  C   UNL A   1      40.451  33.828  38.401  1.00  0.00    -0.014 A 
ATOM     68  C   UNL A   1      41.136  35.055  38.444  1.00  0.00     0.009 A 
ATOM     69  C   UNL A   1      39.788  33.384  39.554  1.00  0.00     0.009 A 
ATOM     70  C   UNL A   1      41.197  35.791  39.629  1.00  0.00     0.001 A 
ATOM     71  C   UNL A   1      39.819  34.141  40.728  1.00  0.00     0.001 A 
ATOM     72  C   UNL A   1      40.535  35.336  40.768  1.00  0.00     0.000 A 
ENDBRANCH  53  67
BRANCH  54  73
ATOM     73  C   UNL A   1      39.958  28.796  29.761  1.00  0.00    -0.014 A 
ATOM     74  C   UNL A   1      40.479  29.370  28.590  1.00  0.00     0.009 A 
ATOM     75  C   UNL A   1      39.397  27.511  29.693  1.00  0.00     0.009 A 
ATOM     76  C   UNL A   1      40.415  28.683  27.376  1.00  0.00     0.001 A 
ATOM     77  C   UNL A   1      39.364  26.814  28.484  1.00  0.00     0.001 A 
ATOM     78  C   UNL A   1      39.864  27.403  27.325  1.00  0.00     0.000 A 
ENDBRANCH  54  73
BRANCH  66  79
ATOM     79  C   UNL A   1      44.327  28.651  35.189  1.00  0.00    -0.014 A 
ATOM     80  C   UNL A   1      44.225  27.403  35.822  1.00  0.00     0.009 A 
ATOM     81  C   UNL A   1      45.591  29.109  34.786  1.00  0.00     0.009 A 
ATOM     82  C   UNL A   1      45.371  26.647  36.076  1.00  0.00     0.001 A 
ATOM     83  C   UNL A   1      46.730  28.336  35.010  1.00  0.00     0.001 A 
ATOM     84  C   UNL A   1      46.620  27.110  35.665  1.00  0.00     0.000 A 
ENDBRANCH  66  79
ENDBRANCH  40  41
ENDBRANCH  32  35
ENDBRANCH  30  31
ENDBRANCH  29  30
ENDBRANCH  28  29
ENDBRANCH  27  28
ENDBRANCH   1  27
TORSDOF 18
ENDMDL
MODEL 2
REMARK VINA RESULT:     -10.6      2.221      6.727
REMARK SMILES Cc1ccc(F)c(NC(=O)NC(=O)CCCCC(=O)NCCCCCCNC(=O)c2ccc(-c3c4nc(c(-c5ccccc5)c5ccc([nH]5)c(-c5ccccc5)c5nc(c(-c6ccccc6)c6ccc3[nH]6)C=C5)C=C4)cc2)c1
REMARK SMILES IDX 22 1 21 2 20 3 18 4 19 5 17 7 16 8 15 9 14 10 12 11 8 12
REMARK SMILES IDX 9 13 10 15 11 16 13 18 7 19 1 20 2 21 3 22 78 23 4 24 5 25
REMARK SMILES IDX 6 26 23 27 24 28 25 29 26 30 27 31 28 32 29 34 30 35 31 36
REMARK SMILES IDX 77 37 32 38 76 39 33 40 34 41 35 42 70 43 36 44 75 45 69 46
REMARK SMILES IDX 71 47 37 48 74 49 68 50 67 51 38 53 60 54 45 55 59 56 46 57
REMARK SMILES IDX 49 58 58 59 72 60 47 61 48 62 57 64 73 65 50 66 39 67 40 68
REMARK SMILES IDX 44 69 41 70 43 71 42 72 61 73 62 74 66 75 63 76 65 77 64 78
REMARK SMILES IDX 51 79 52 80 56 81 53 82 55 83 54 84
REMARK H PARENT 20 6 8 14 11 17 27 33 71 52 49 63
REMARK Flexibility Score: inf
ROOT
ATOM      1  C   UNL A   1      33.070  28.277  27.021  1.00  0.00     0.021 C 
ENDROOT
BRANCH   1   2
ATOM      2  C   UNL A   1      31.837  27.625  26.420  1.00  0.00     0.116 C 
BRANCH   2   3
ATOM      3  N   UNL A   1      31.501  26.373  27.054  1.00  0.00    -0.356 N 
ATOM      4  C   UNL A   1      31.688  25.106  26.595  1.00  0.00     0.219 C 
ATOM      5  O   UNL A   1      31.462  24.169  27.361  1.00  0.00    -0.275 OA
ATOM      6  H   UNL A   1      31.079  26.447  27.941  1.00  0.00     0.163 HD
BRANCH   4   7
ATOM      7  C   UNL A   1      32.233  24.866  25.199  1.00  0.00     0.100 C 
BRANCH   7   8
ATOM      8  C   UNL A   1      31.350  24.107  24.210  1.00  0.00     0.010 C 
BRANCH   8   9
ATOM      9  C   UNL A   1      31.631  24.272  22.709  1.00  0.00     0.010 C 
BRANCH   9  10
ATOM     10  C   UNL A   1      31.405  25.654  22.091  1.00  0.00     0.100 C 
BRANCH  10  11
ATOM     11  C   UNL A   1      32.601  26.304  21.443  1.00  0.00     0.227 C 
ATOM     12  N   UNL A   1      31.745  28.864  23.352  1.00  0.00    -0.305 N 
ATOM     13  C   UNL A   1      32.886  28.409  22.798  1.00  0.00     0.325 C 
ATOM     14  H   UNL A   1      31.902  29.273  24.234  1.00  0.00     0.171 HD
ATOM     15  O   UNL A   1      33.944  28.741  23.342  1.00  0.00    -0.248 OA
ATOM     16  N   UNL A   1      32.946  27.616  21.698  1.00  0.00    -0.278 N 
ATOM     17  H   UNL A   1      33.317  28.077  20.911  1.00  0.00     0.174 HD
ATOM     18  O   UNL A   1      33.306  25.657  20.661  1.00  0.00    -0.275 OA
BRANCH  12  19
ATOM     19  C   UNL A   1      30.386  28.902  22.991  1.00  0.00     0.079 A 
ATOM     20  C   UNL A   1      28.308  31.373  20.940  1.00  0.00     0.044 C 
ATOM     21  C   UNL A   1      28.679  30.171  21.766  1.00  0.00    -0.049 A 
ATOM     22  C   UNL A   1      27.692  29.346  22.314  1.00  0.00     0.006 A 
ATOM     23  C   UNL A   1      30.021  29.933  22.104  1.00  0.00     0.032 A 
ATOM     24  C   UNL A   1      28.047  28.285  23.150  1.00  0.00     0.042 A 
ATOM     25  C   UNL A   1      29.386  28.057  23.469  1.00  0.00     0.146 A 
ATOM     26  F   UNL A   1      29.671  27.025  24.272  1.00  0.00    -0.205 F 
ENDBRANCH  12  19
ENDBRANCH  10  11
ENDBRANCH   9  10
ENDBRANCH   8   9
ENDBRANCH   7   8
ENDBRANCH   4   7
ENDBRANCH   2   3
ENDBRANCH   1   2
BRANCH   1  27
ATOM     27  C   UNL A   1      32.892  29.786  27.195  1.00  0.00     0.002 C 
BRANCH  27  28
ATOM     28  C   UNL A   1      31.579  30.344  26.627  1.00  0.00     0.002 C 
BRANCH  28  29
ATOM     29  C   UNL A   1      31.422  31.863  26.712  1.00  0.00     0.021 C 
BRANCH  29  30
ATOM     30  C   UNL A   1      32.728  32.600  26.962  1.00  0.00     0.116 C 
BRANCH  30  31
ATOM     31  N   UNL A   1      32.510  33.870  27.641  1.00  0.00    -0.352 N 
ATOM     32  C   UNL A   1      33.196  34.409  28.696  1.00  0.00     0.251 C 
ATOM     33  H   UNL A   1      31.769  34.417  27.291  1.00  0.00     0.163 HD
ATOM     34  O   UNL A   1      32.750  35.380  29.304  1.00  0.00    -0.269 OA
BRANCH  32  35
ATOM     35  C   UNL A   1      34.472  33.796  29.100  1.00  0.00     0.039 A 
ATOM     36  C   UNL A   1      35.665  34.266  28.551  1.00  0.00     0.014 A 
ATOM     37  C   UNL A   1      34.479  32.774  30.054  1.00  0.00     0.014 A 
ATOM     38  C   UNL A   1      36.876  33.738  28.998  1.00  0.00     0.010 A 
ATOM     39  C   UNL A   1      35.684  32.333  30.576  1.00  0.00     0.010 A 
ATOM     40  C   UNL A   1      36.893  32.790  30.034  1.00  0.00    -0.014 A 
BRANCH  40  41
ATOM     41  C   UNL A   1      38.163  32.224  30.545  1.00  0.00     0.031 A 
ATOM     42  C   UNL A   1      38.699  30.949  29.955  1.00  0.00     0.074 A 
ATOM     43  C   UNL A   1      38.792  32.817  31.578  1.00  0.00     0.049 A 
ATOM     44  N   UNL A   1      39.754  30.257  30.301  1.00  0.00    -0.248 NA
ATOM     45  C   UNL A   1      37.924  30.349  28.854  1.00  0.00     0.031 C 
ATOM     46  C   UNL A   1      38.339  34.028  32.266  1.00  0.00     0.029 A 
ATOM     47  N   UNL A   1      39.947  32.475  32.231  1.00  0.00    -0.354 N 
ATOM     48  C   UNL A   1      39.751  29.135  29.481  1.00  0.00     0.074 A 
ATOM     49  C   UNL A   1      38.556  29.201  28.673  1.00  0.00     0.031 C 
ATOM     50  C   UNL A   1      39.229  34.350  33.218  1.00  0.00     0.029 A 
ATOM     51  C   UNL A   1      40.287  33.346  33.238  1.00  0.00     0.049 A 
ATOM     52  H   UNL A   1      40.482  31.681  32.002  1.00  0.00     0.167 HD
ATOM     53  C   UNL A   1      40.675  28.151  29.390  1.00  0.00     0.031 A 
ATOM     54  C   UNL A   1      41.336  33.334  34.081  1.00  0.00     0.031 A 
ATOM     55  C   UNL A   1      41.870  28.101  30.186  1.00  0.00     0.049 A 
ATOM     56  C   UNL A   1      42.350  32.230  33.963  1.00  0.00     0.074 A 
ATOM     57  C   UNL A   1      42.906  27.187  30.133  1.00  0.00     0.029 A 
ATOM     58  N   UNL A   1      42.185  29.009  31.186  1.00  0.00    -0.354 N 
ATOM     59  N   UNL A   1      42.375  31.216  33.130  1.00  0.00    -0.248 NA
ATOM     60  C   UNL A   1      43.487  32.277  34.892  1.00  0.00     0.031 C 
ATOM     61  C   UNL A   1      43.820  27.508  31.141  1.00  0.00     0.029 A 
ATOM     62  C   UNL A   1      43.387  28.662  31.776  1.00  0.00     0.049 A 
ATOM     63  H   UNL A   1      41.635  29.786  31.438  1.00  0.00     0.167 HD
ATOM     64  C   UNL A   1      43.542  30.521  33.416  1.00  0.00     0.074 A 
ATOM     65  C   UNL A   1      44.206  31.240  34.486  1.00  0.00     0.031 C 
ATOM     66  C   UNL A   1      44.025  29.391  32.843  1.00  0.00     0.031 A 
BRANCH  53  67
ATOM     67  C   UNL A   1      40.415  27.049  28.397  1.00  0.00    -0.014 A 
ATOM     68  C   UNL A   1      40.912  27.114  27.083  1.00  0.00     0.009 A 
ATOM     69  C   UNL A   1      39.665  25.928  28.779  1.00  0.00     0.009 A 
ATOM     70  C   UNL A   1      40.619  26.105  26.163  1.00  0.00     0.001 A 
ATOM     71  C   UNL A   1      39.405  24.902  27.867  1.00  0.00     0.001 A 
ATOM     72  C   UNL A   1      39.871  24.999  26.557  1.00  0.00     0.000 A 
ENDBRANCH  53  67
BRANCH  54  73
ATOM     73  C   UNL A   1      41.490  34.414  35.090  1.00  0.00    -0.014 A 
ATOM     74  C   UNL A   1      40.960  34.265  36.381  1.00  0.00     0.009 A 
ATOM     75  C   UNL A   1      42.182  35.595  34.776  1.00  0.00     0.009 A 
ATOM     76  C   UNL A   1      41.096  35.284  37.326  1.00  0.00     0.001 A 
ATOM     77  C   UNL A   1      42.344  36.599  35.732  1.00  0.00     0.001 A 
ATOM     78  C   UNL A   1      41.794  36.447  37.003  1.00  0.00     0.000 A 
ENDBRANCH  54  73
BRANCH  66  79
ATOM     79  C   UNL A   1      45.351  28.882  33.338  1.00  0.00    -0.014 A 
ATOM     80  C   UNL A   1      45.437  28.006  34.429  1.00  0.00     0.009 A 
ATOM     81  C   UNL A   1      46.527  29.252  32.666  1.00  0.00     0.009 A 
ATOM     82  C   UNL A   1      46.680  27.538  34.861  1.00  0.00     0.001 A 
ATOM     83  C   UNL A   1      47.764  28.756  33.077  1.00  0.00     0.001 A 
ATOM     84  C   UNL A   1      47.840  27.907  34.181  1.00  0.00     0.000 A 
ENDBRANCH  66  79
ENDBRANCH  40  41
ENDBRANCH  32  35
ENDBRANCH  30  31
ENDBRANCH  29  30
ENDBRANCH  28  29
ENDBRANCH  27  28
ENDBRANCH   1  27
TORSDOF 18
ENDMDL
MODEL 3
REMARK VINA RESULT:     -10.6      1.220      6.008
REMARK SMILES Cc1ccc(F)c(NC(=O)NC(=O)CCCCC(=O)NCCCCCCNC(=O)c2ccc(-c3c4nc(c(-c5ccccc5)c5ccc([nH]5)c(-c5ccccc5)c5nc(c(-c6ccccc6)c6ccc3[nH]6)C=C5)C=C4)cc2)c1
REMARK SMILES IDX 22 1 21 2 20 3 18 4 19 5 17 7 16 8 15 9 14 10 12 11 8 12
REMARK SMILES IDX 9 13 10 15 11 16 13 18 7 19 1 20 2 21 3 22 78 23 4 24 5 25
REMARK SMILES IDX 6 26 23 27 24 28 25 29 26 30 27 31 28 32 29 34 30 35 31 36
REMARK SMILES IDX 77 37 32 38 76 39 33 40 34 41 35 42 70 43 36 44 75 45 69 46
REMARK SMILES IDX 71 47 37 48 74 49 68 50 67 51 38 53 60 54 45 55 59 56 46 57
REMARK SMILES IDX 49 58 58 59 72 60 47 61 48 62 57 64 73 65 50 66 39 67 40 68
REMARK SMILES IDX 44 69 41 70 43 71 42 72 61 73 62 74 66 75 63 76 65 77 64 78
REMARK SMILES IDX 51 79 52 80 56 81 53 82 55 83 54 84
REMARK H PARENT 20 6 8 14 11 17 27 33 71 52 49 63
REMARK Flexibility Score: inf
ROOT
ATOM      1  C   UNL A   1      35.048  31.052  28.438  1.00  0.00     0.021 C 
ENDROOT
BRANCH   1   2
ATOM      2  C   UNL A   1      34.722  30.031  27.361  1.00  0.00     0.116 C 
BRANCH   2   3
ATOM      3  N   UNL A   1      33.643  30.452  26.500  1.00  0.00    -0.356 N 
ATOM      4  C   UNL A   1      32.410  29.899  26.343  1.00  0.00     0.219 C 
ATOM      5  O   UNL A   1      31.582  30.503  25.661  1.00  0.00    -0.275 OA
ATOM      6  H   UNL A   1      33.825  31.250  25.951  1.00  0.00     0.163 HD
BRANCH   4   7
ATOM      7  C   UNL A   1      32.050  28.609  27.056  1.00  0.00     0.100 C 
BRANCH   7   8
ATOM      8  C   UNL A   1      32.229  27.298  26.292  1.00  0.00     0.010 C 
BRANCH   8   9
ATOM      9  C   UNL A   1      33.652  26.750  26.110  1.00  0.00     0.010 C 
BRANCH   9  10
ATOM     10  C   UNL A   1      34.008  26.129  24.756  1.00  0.00     0.100 C 
BRANCH  10  11
ATOM     11  C   UNL A   1      34.205  24.635  24.734  1.00  0.00     0.227 C 
ATOM     12  N   UNL A   1      32.328  24.826  22.019  1.00  0.00    -0.305 N 
ATOM     13  C   UNL A   1      33.277  23.989  22.483  1.00  0.00     0.325 C 
ATOM     14  H   UNL A   1      32.371  24.925  21.041  1.00  0.00     0.171 HD
ATOM     15  O   UNL A   1      33.899  23.328  21.645  1.00  0.00    -0.248 OA
ATOM     16  N   UNL A   1      33.593  23.831  23.794  1.00  0.00    -0.278 N 
ATOM     17  H   UNL A   1      33.328  22.953  24.150  1.00  0.00     0.174 HD
ATOM     18  O   UNL A   1      34.936  24.097  25.573  1.00  0.00    -0.275 OA
BRANCH  12  19
ATOM     19  C   UNL A   1      31.292  25.595  22.580  1.00  0.00     0.079 A 
ATOM     20  C   UNL A   1      30.472  29.330  22.466  1.00  0.00     0.044 C 
ATOM     21  C   UNL A   1      30.372  27.862  22.782  1.00  0.00    -0.049 A 
ATOM     22  C   UNL A   1      29.478  27.398  23.751  1.00  0.00     0.006 A 
ATOM     23  C   UNL A   1      31.266  26.951  22.198  1.00  0.00     0.032 A 
ATOM     24  C   UNL A   1      29.455  26.044  24.097  1.00  0.00     0.042 A 
ATOM     25  C   UNL A   1      30.345  25.151  23.500  1.00  0.00     0.146 A 
ATOM     26  F   UNL A   1      30.279  23.865  23.865  1.00  0.00    -0.205 F 
ENDBRANCH  12  19
ENDBRANCH  10  11
ENDBRANCH   9  10
ENDBRANCH   8   9
ENDBRANCH   7   8
ENDBRANCH   4   7
ENDBRANCH   2   3
ENDBRANCH   1   2
BRANCH   1  27
ATOM     27  C   UNL A   1      34.704  32.476  28.000  1.00  0.00     0.002 C 
BRANCH  27  28
ATOM     28  C   UNL A   1      34.466  33.460  29.154  1.00  0.00     0.002 C 
BRANCH  28  29
ATOM     29  C   UNL A   1      33.278  34.406  28.973  1.00  0.00     0.021 C 
BRANCH  29  30
ATOM     30  C   UNL A   1      33.521  35.804  29.518  1.00  0.00     0.116 C 
BRANCH  30  31
ATOM     31  N   UNL A   1      32.607  36.127  30.605  1.00  0.00    -0.352 N 
ATOM     32  C   UNL A   1      32.637  35.703  31.906  1.00  0.00     0.251 C 
ATOM     33  H   UNL A   1      31.868  36.735  30.372  1.00  0.00     0.163 HD
ATOM     34  O   UNL A   1      31.670  35.876  32.645  1.00  0.00    -0.269 OA
BRANCH  32  35
ATOM     35  C   UNL A   1      33.843  35.022  32.404  1.00  0.00     0.039 A 
ATOM     36  C   UNL A   1      33.753  33.706  32.857  1.00  0.00     0.014 A 
ATOM     37  C   UNL A   1      35.073  35.687  32.386  1.00  0.00     0.014 A 
ATOM     38  C   UNL A   1      34.913  33.038  33.250  1.00  0.00     0.010 A 
ATOM     39  C   UNL A   1      36.235  34.988  32.669  1.00  0.00     0.010 A 
ATOM     40  C   UNL A   1      36.164  33.666  33.130  1.00  0.00    -0.014 A 
BRANCH  40  41
ATOM     41  C   UNL A   1      37.416  32.978  33.520  1.00  0.00     0.031 A 
ATOM     42  C   UNL A   1      38.017  31.951  32.600  1.00  0.00     0.074 A 
ATOM     43  C   UNL A   1      37.970  33.227  34.722  1.00  0.00     0.049 A 
ATOM     44  N   UNL A   1      39.068  31.193  32.780  1.00  0.00    -0.248 NA
ATOM     45  C   UNL A   1      37.321  31.716  31.322  1.00  0.00     0.031 C 
ATOM     46  C   UNL A   1      37.448  34.163  35.720  1.00  0.00     0.029 A 
ATOM     47  N   UNL A   1      39.094  32.707  35.308  1.00  0.00    -0.354 N 
ATOM     48  C   UNL A   1      39.139  30.379  31.656  1.00  0.00     0.074 A 
ATOM     49  C   UNL A   1      37.991  30.684  30.835  1.00  0.00     0.031 C 
ATOM     50  C   UNL A   1      38.274  34.181  36.778  1.00  0.00     0.029 A 
ATOM     51  C   UNL A   1      39.355  33.227  36.553  1.00  0.00     0.049 A 
ATOM     52  H   UNL A   1      39.661  32.027  34.879  1.00  0.00     0.167 HD
ATOM     53  C   UNL A   1      40.092  29.477  31.323  1.00  0.00     0.031 A 
ATOM     54  C   UNL A   1      40.353  32.961  37.415  1.00  0.00     0.031 A 
ATOM     55  C   UNL A   1      41.240  29.192  32.139  1.00  0.00     0.049 A 
ATOM     56  C   UNL A   1      41.400  31.954  37.026  1.00  0.00     0.074 A 
ATOM     57  C   UNL A   1      42.300  28.345  31.870  1.00  0.00     0.029 A 
ATOM     58  N   UNL A   1      41.475  29.749  33.387  1.00  0.00    -0.354 N 
ATOM     59  N   UNL A   1      41.498  31.248  35.924  1.00  0.00    -0.248 NA
ATOM     60  C   UNL A   1      42.480  31.720  37.992  1.00  0.00     0.031 C 
ATOM     61  C   UNL A   1      43.147  28.345  32.983  1.00  0.00     0.029 A 
ATOM     62  C   UNL A   1      42.649  29.243  33.915  1.00  0.00     0.049 A 
ATOM     63  H   UNL A   1      40.892  30.405  33.832  1.00  0.00     0.167 HD
ATOM     64  C   UNL A   1      42.664  30.506  36.054  1.00  0.00     0.074 A 
ATOM     65  C   UNL A   1      43.247  30.863  37.332  1.00  0.00     0.031 C 
ATOM     66  C   UNL A   1      43.208  29.611  35.192  1.00  0.00     0.031 A 
BRANCH  53  67
ATOM     67  C   UNL A   1      39.916  28.735  30.025  1.00  0.00    -0.014 A 
ATOM     68  C   UNL A   1      39.342  27.452  29.986  1.00  0.00     0.009 A 
ATOM     69  C   UNL A   1      40.327  29.327  28.822  1.00  0.00     0.009 A 
ATOM     70  C   UNL A   1      39.233  26.761  28.778  1.00  0.00     0.001 A 
ATOM     71  C   UNL A   1      40.182  28.648  27.610  1.00  0.00     0.001 A 
ATOM     72  C   UNL A   1      39.648  27.360  27.591  1.00  0.00     0.000 A 
ENDBRANCH  53  67
BRANCH  54  73
ATOM     73  C   UNL A   1      40.423  33.678  38.715  1.00  0.00    -0.014 A 
ATOM     74  C   UNL A   1      39.872  33.107  39.873  1.00  0.00     0.009 A 
ATOM     75  C   UNL A   1      41.053  34.928  38.811  1.00  0.00     0.009 A 
ATOM     76  C   UNL A   1      39.929  33.785  41.093  1.00  0.00     0.001 A 
ATOM     77  C   UNL A   1      41.136  35.590  40.038  1.00  0.00     0.001 A 
ATOM     78  C   UNL A   1      40.566  35.023  41.176  1.00  0.00     0.000 A 
ENDBRANCH  54  73
BRANCH  66  79
ATOM     79  C   UNL A   1      44.515  28.983  35.586  1.00  0.00    -0.014 A 
ATOM     80  C   UNL A   1      44.561  27.768  36.286  1.00  0.00     0.009 A 
ATOM     81  C   UNL A   1      45.719  29.598  35.207  1.00  0.00     0.009 A 
ATOM     82  C   UNL A   1      45.789  27.200  36.630  1.00  0.00     0.001 A 
ATOM     83  C   UNL A   1      46.945  29.010  35.521  1.00  0.00     0.001 A 
ATOM     84  C   UNL A   1      46.978  27.816  36.242  1.00  0.00     0.000 A 
ENDBRANCH  66  79
ENDBRANCH  40  41
ENDBRANCH  32  35
ENDBRANCH  30  31
ENDBRANCH  29  30
ENDBRANCH  28  29
ENDBRANCH  27  28
ENDBRANCH   1  27
TORSDOF 18
ENDMDL
