MODEL 1
REMARK VINA RESULT:     -11.4      0.000      0.000
REMARK SMILES O=C(NCCCCCCNC(=O)c1ccc2c(c1)[C@@H](C1CCOCC1)C(=O)N2)c1ccc(-c2c3nc(c(-c4ccccc4)c4ccc([nH]4)c(-c4ccccc4)c4nc(c(-c5ccccc5)c5ccc2[nH]5)C=C4)C=C3)cc1
REMARK SMILES IDX 6 1 5 2 4 3 3 4 1 5 2 6 29 8 30 9 76 10 31 11 75 12 32 13
REMARK SMILES IDX 33 14 34 15 69 16 35 17 74 18 68 19 70 20 36 21 73 22 67 23
REMARK SMILES IDX 66 24 37 26 59 27 44 28 58 29 45 30 48 31 57 32 71 33 46 34
REMARK SMILES IDX 47 35 56 37 72 38 49 39 38 40 39 41 43 42 40 43 42 44 41 45
REMARK SMILES IDX 60 46 61 47 65 48 62 49 64 50 63 51 50 52 51 53 55 54 52 55
REMARK SMILES IDX 54 56 53 57 7 58 8 59 9 60 10 61 11 62 12 64 13 65 14 66
REMARK SMILES IDX 18 67 15 68 17 69 16 70 19 71 28 72 26 73 27 75 20 76 21 77
REMARK SMILES IDX 25 78 22 79 24 80 23 81
REMARK H PARENT 3 7 70 25 48 36 10 63 28 74
REMARK Flexibility Score: inf
ROOT
ATOM      1  C   UNL A   1      34.584  23.900  24.639  1.00  0.00     0.002 C 
ENDROOT
BRANCH   1   2
ATOM      2  C   UNL A   1      35.959  23.273  24.409  1.00  0.00     0.021 C 
BRANCH   2   3
ATOM      3  C   UNL A   1      37.065  23.816  25.306  1.00  0.00     0.116 C 
BRANCH   3   4
ATOM      4  N   UNL A   1      38.078  22.815  25.592  1.00  0.00    -0.352 N 
ATOM      5  O   UNL A   1      40.117  22.047  26.177  1.00  0.00    -0.269 OA
ATOM      6  C   UNL A   1      39.302  22.965  26.191  1.00  0.00     0.251 C 
ATOM      7  H   UNL A   1      37.853  21.897  25.318  1.00  0.00     0.163 HD
BRANCH   6   8
ATOM      8  C   UNL A   1      39.648  24.246  26.843  1.00  0.00     0.039 A 
ATOM      9  C   UNL A   1      40.370  25.226  26.157  1.00  0.00     0.014 A 
ATOM     10  C   UNL A   1      39.215  24.474  28.151  1.00  0.00     0.014 A 
ATOM     11  C   UNL A   1      40.760  26.387  26.814  1.00  0.00     0.010 A 
ATOM     12  C   UNL A   1      39.543  25.673  28.785  1.00  0.00     0.010 A 
ATOM     13  C   UNL A   1      40.334  26.630  28.128  1.00  0.00    -0.014 A 
BRANCH  13  14
ATOM     14  C   UNL A   1      40.656  27.914  28.794  1.00  0.00     0.031 A 
ATOM     15  C   UNL A   1      41.966  28.110  29.497  1.00  0.00     0.074 A 
ATOM     16  C   UNL A   1      39.731  28.892  28.802  1.00  0.00     0.049 A 
ATOM     17  N   UNL A   1      42.376  29.129  30.209  1.00  0.00    -0.248 NA
ATOM     18  C   UNL A   1      42.940  27.013  29.398  1.00  0.00     0.031 C 
ATOM     19  C   UNL A   1      38.419  28.818  28.153  1.00  0.00     0.029 A 
ATOM     20  N   UNL A   1      39.743  30.131  29.390  1.00  0.00    -0.354 N 
ATOM     21  C   UNL A   1      43.641  28.787  30.666  1.00  0.00     0.074 A 
ATOM     22  C   UNL A   1      43.922  27.456  30.170  1.00  0.00     0.031 C 
ATOM     23  C   UNL A   1      37.757  29.961  28.374  1.00  0.00     0.029 A 
ATOM     24  C   UNL A   1      38.565  30.819  29.234  1.00  0.00     0.049 A 
ATOM     25  H   UNL A   1      40.520  30.492  29.875  1.00  0.00     0.167 HD
ATOM     26  C   UNL A   1      44.488  29.516  31.433  1.00  0.00     0.031 A 
ATOM     27  C   UNL A   1      38.156  31.988  29.759  1.00  0.00     0.031 A 
ATOM     28  C   UNL A   1      44.189  30.830  31.941  1.00  0.00     0.049 A 
ATOM     29  C   UNL A   1      39.086  32.754  30.652  1.00  0.00     0.074 A 
ATOM     30  C   UNL A   1      44.994  31.668  32.692  1.00  0.00     0.029 A 
ATOM     31  N   UNL A   1      42.979  31.488  31.766  1.00  0.00    -0.354 N 
ATOM     32  N   UNL A   1      40.300  32.442  31.036  1.00  0.00    -0.248 NA
ATOM     33  C   UNL A   1      38.595  34.033  31.180  1.00  0.00     0.031 C 
ATOM     34  C   UNL A   1      44.247  32.800  33.032  1.00  0.00     0.029 A 
ATOM     35  C   UNL A   1      43.005  32.705  32.427  1.00  0.00     0.049 A 
ATOM     36  H   UNL A   1      42.217  31.142  31.249  1.00  0.00     0.167 HD
ATOM     37  C   UNL A   1      40.730  33.498  31.828  1.00  0.00     0.074 A 
ATOM     38  C   UNL A   1      39.648  34.461  31.865  1.00  0.00     0.031 C 
ATOM     39  C   UNL A   1      41.919  33.655  32.458  1.00  0.00     0.031 A 
BRANCH  26  40
ATOM     40  C   UNL A   1      45.798  28.877  31.816  1.00  0.00    -0.014 A 
ATOM     41  C   UNL A   1      45.933  28.114  32.986  1.00  0.00     0.009 A 
ATOM     42  C   UNL A   1      46.916  29.038  30.981  1.00  0.00     0.009 A 
ATOM     43  C   UNL A   1      47.172  27.573  33.340  1.00  0.00     0.001 A 
ATOM     44  C   UNL A   1      48.144  28.466  31.318  1.00  0.00     0.001 A 
ATOM     45  C   UNL A   1      48.275  27.748  32.506  1.00  0.00     0.000 A 
ENDBRANCH  26  40
BRANCH  27  46
ATOM     46  C   UNL A   1      36.785  32.473  29.460  1.00  0.00    -0.014 A 
ATOM     47  C   UNL A   1      35.726  32.220  30.343  1.00  0.00     0.009 A 
ATOM     48  C   UNL A   1      36.544  33.250  28.315  1.00  0.00     0.009 A 
ATOM     49  C   UNL A   1      34.452  32.728  30.080  1.00  0.00     0.001 A 
ATOM     50  C   UNL A   1      35.277  33.782  28.070  1.00  0.00     0.001 A 
ATOM     51  C   UNL A   1      34.231  33.515  28.950  1.00  0.00     0.000 A 
ENDBRANCH  27  46
BRANCH  39  52
ATOM     52  C   UNL A   1      42.144  34.937  33.212  1.00  0.00    -0.014 A 
ATOM     53  C   UNL A   1      41.650  35.122  34.511  1.00  0.00     0.009 A 
ATOM     54  C   UNL A   1      42.936  35.943  32.635  1.00  0.00     0.009 A 
ATOM     55  C   UNL A   1      41.933  36.296  35.212  1.00  0.00     0.001 A 
ATOM     56  C   UNL A   1      43.243  37.102  33.348  1.00  0.00     0.001 A 
ATOM     57  C   UNL A   1      42.736  37.280  34.634  1.00  0.00     0.000 A 
ENDBRANCH  39  52
ENDBRANCH  13  14
ENDBRANCH   6   8
ENDBRANCH   3   4
ENDBRANCH   2   3
ENDBRANCH   1   2
BRANCH   1  58
ATOM     58  C   UNL A   1      34.259  24.238  26.098  1.00  0.00     0.002 C 
BRANCH  58  59
ATOM     59  C   UNL A   1      33.838  23.048  26.966  1.00  0.00     0.021 C 
BRANCH  59  60
ATOM     60  C   UNL A   1      32.867  22.079  26.298  1.00  0.00     0.116 C 
BRANCH  60  61
ATOM     61  N   UNL A   1      31.541  22.153  26.883  1.00  0.00    -0.352 N 
ATOM     62  C   UNL A   1      30.576  23.114  26.714  1.00  0.00     0.251 C 
ATOM     63  H   UNL A   1      31.299  21.412  27.484  1.00  0.00     0.163 HD
ATOM     64  O   UNL A   1      29.587  23.140  27.437  1.00  0.00    -0.269 OA
BRANCH  62  65
ATOM     65  C   UNL A   1      30.742  24.136  25.659  1.00  0.00     0.040 A 
ATOM     66  C   UNL A   1      30.901  23.744  24.311  1.00  0.00     0.016 A 
ATOM     67  C   UNL A   1      30.719  25.488  26.028  1.00  0.00     0.020 A 
ATOM     68  C   UNL A   1      31.102  24.699  23.316  1.00  0.00     0.027 A 
ATOM     69  C   UNL A   1      30.919  26.426  25.030  1.00  0.00    -0.011 A 
ATOM     70  C   UNL A   1      31.107  26.021  23.707  1.00  0.00     0.045 A 
ATOM     71  C   UNL A   1      30.979  27.936  25.105  1.00  0.00     0.114 C 
ATOM     72  N   UNL A   1      31.283  27.125  22.895  1.00  0.00    -0.325 N 
ATOM     73  C   UNL A   1      31.204  28.306  23.618  1.00  0.00     0.232 C 
ATOM     74  H   UNL A   1      31.444  27.079  21.926  1.00  0.00     0.169 HD
ATOM     75  O   UNL A   1      31.280  29.423  23.131  1.00  0.00    -0.274 OA
BRANCH  71  76
ATOM     76  C   UNL A   1      32.059  28.474  26.069  1.00  0.00     0.010 C 
ATOM     77  C   UNL A   1      31.862  29.968  26.382  1.00  0.00     0.033 C 
ATOM     78  C   UNL A   1      33.501  28.231  25.590  1.00  0.00     0.033 C 
ATOM     79  C   UNL A   1      32.971  30.502  27.278  1.00  0.00     0.160 C 
ATOM     80  C   UNL A   1      34.506  28.859  26.547  1.00  0.00     0.160 C 
ATOM     81  O   UNL A   1      34.252  30.251  26.704  1.00  0.00    -0.381 OA
ENDBRANCH  71  76
ENDBRANCH  62  65
ENDBRANCH  60  61
ENDBRANCH  59  60
ENDBRANCH  58  59
ENDBRANCH   1  58
TORSDOF 14
ENDMDL
MODEL 2
REMARK VINA RESULT:     -11.2      3.035      7.138
REMARK SMILES O=C(NCCCCCCNC(=O)c1ccc2c(c1)[C@@H](C1CCOCC1)C(=O)N2)c1ccc(-c2c3nc(c(-c4ccccc4)c4ccc([nH]4)c(-c4ccccc4)c4nc(c(-c5ccccc5)c5ccc2[nH]5)C=C4)C=C3)cc1
REMARK SMILES IDX 6 1 5 2 4 3 3 4 1 5 2 6 29 8 30 9 76 10 31 11 75 12 32 13
REMARK SMILES IDX 33 14 34 15 69 16 35 17 74 18 68 19 70 20 36 21 73 22 67 23
REMARK SMILES IDX 66 24 37 26 59 27 44 28 58 29 45 30 48 31 57 32 71 33 46 34
REMARK SMILES IDX 47 35 56 37 72 38 49 39 38 40 39 41 43 42 40 43 42 44 41 45
REMARK SMILES IDX 60 46 61 47 65 48 62 49 64 50 63 51 50 52 51 53 55 54 52 55
REMARK SMILES IDX 54 56 53 57 7 58 8 59 9 60 10 61 11 62 12 64 13 65 14 66
REMARK SMILES IDX 18 67 15 68 17 69 16 70 19 71 28 72 26 73 27 75 20 76 21 77
REMARK SMILES IDX 25 78 22 79 24 80 23 81
REMARK H PARENT 3 7 70 25 48 36 10 63 28 74
REMARK Flexibility Score: inf
ROOT
ATOM      1  C   UNL A   1      36.547  20.485  24.951  1.00  0.00     0.002 C 
ENDROOT
BRANCH   1   2
ATOM      2  C   UNL A   1      37.826  19.649  24.879  1.00  0.00     0.021 C 
BRANCH   2   3
ATOM      3  C   UNL A   1      38.941  20.110  25.810  1.00  0.00     0.116 C 
BRANCH   3   4
ATOM      4  N   UNL A   1      40.039  19.159  25.860  1.00  0.00    -0.352 N 
ATOM      5  O   UNL A   1      42.192  18.488  25.882  1.00  0.00    -0.269 OA
ATOM      6  C   UNL A   1      41.375  19.385  26.067  1.00  0.00     0.251 C 
ATOM      7  H   UNL A   1      39.786  18.216  25.729  1.00  0.00     0.163 HD
BRANCH   6   8
ATOM      8  C   UNL A   1      41.834  20.722  26.497  1.00  0.00     0.039 A 
ATOM      9  C   UNL A   1      42.151  21.707  25.558  1.00  0.00     0.014 A 
ATOM     10  C   UNL A   1      41.921  20.996  27.864  1.00  0.00     0.014 A 
ATOM     11  C   UNL A   1      42.663  22.929  25.980  1.00  0.00     0.010 A 
ATOM     12  C   UNL A   1      42.364  22.250  28.287  1.00  0.00     0.010 A 
ATOM     13  C   UNL A   1      42.757  23.218  27.349  1.00  0.00    -0.014 A 
BRANCH  13  14
ATOM     14  C   UNL A   1      43.200  24.558  27.802  1.00  0.00     0.031 A 
ATOM     15  C   UNL A   1      42.201  25.606  28.195  1.00  0.00     0.074 A 
ATOM     16  C   UNL A   1      44.515  24.841  27.810  1.00  0.00     0.049 A 
ATOM     17  N   UNL A   1      42.403  26.856  28.523  1.00  0.00    -0.248 NA
ATOM     18  C   UNL A   1      40.787  25.200  28.208  1.00  0.00     0.031 C 
ATOM     19  C   UNL A   1      45.581  23.903  27.448  1.00  0.00     0.029 A 
ATOM     20  N   UNL A   1      45.180  26.001  28.114  1.00  0.00    -0.354 N 
ATOM     21  C   UNL A   1      41.145  27.395  28.756  1.00  0.00     0.074 A 
ATOM     22  C   UNL A   1      40.184  26.342  28.507  1.00  0.00     0.031 C 
ATOM     23  C   UNL A   1      46.764  24.524  27.557  1.00  0.00     0.029 A 
ATOM     24  C   UNL A   1      46.537  25.916  27.927  1.00  0.00     0.049 A 
ATOM     25  H   UNL A   1      44.727  26.814  28.436  1.00  0.00     0.167 HD
ATOM     26  C   UNL A   1      40.823  28.655  29.137  1.00  0.00     0.031 A 
ATOM     27  C   UNL A   1      47.493  26.860  28.000  1.00  0.00     0.031 A 
ATOM     28  C   UNL A   1      41.787  29.702  29.359  1.00  0.00     0.049 A 
ATOM     29  C   UNL A   1      47.110  28.263  28.368  1.00  0.00     0.074 A 
ATOM     30  C   UNL A   1      41.567  31.000  29.787  1.00  0.00     0.029 A 
ATOM     31  N   UNL A   1      43.153  29.576  29.151  1.00  0.00    -0.354 N 
ATOM     32  N   UNL A   1      45.923  28.748  28.633  1.00  0.00    -0.248 NA
ATOM     33  C   UNL A   1      48.198  29.246  28.452  1.00  0.00     0.031 C 
ATOM     34  C   UNL A   1      42.789  31.679  29.768  1.00  0.00     0.029 A 
ATOM     35  C   UNL A   1      43.782  30.783  29.405  1.00  0.00     0.049 A 
ATOM     36  H   UNL A   1      43.607  28.751  28.866  1.00  0.00     0.167 HD
ATOM     37  C   UNL A   1      46.120  30.086  28.944  1.00  0.00     0.074 A 
ATOM     38  C   UNL A   1      47.543  30.334  28.837  1.00  0.00     0.031 C 
ATOM     39  C   UNL A   1      45.202  31.019  29.294  1.00  0.00     0.031 A 
BRANCH  26  40
ATOM     40  C   UNL A   1      39.359  28.981  29.281  1.00  0.00    -0.014 A 
ATOM     41  C   UNL A   1      38.682  28.815  30.499  1.00  0.00     0.009 A 
ATOM     42  C   UNL A   1      38.648  29.472  28.174  1.00  0.00     0.009 A 
ATOM     43  C   UNL A   1      37.313  29.080  30.591  1.00  0.00     0.001 A 
ATOM     44  C   UNL A   1      37.288  29.770  28.278  1.00  0.00     0.001 A 
ATOM     45  C   UNL A   1      36.618  29.558  29.482  1.00  0.00     0.000 A 
ENDBRANCH  26  40
BRANCH  27  46
ATOM     46  C   UNL A   1      48.897  26.491  27.685  1.00  0.00    -0.014 A 
ATOM     47  C   UNL A   1      49.772  26.071  28.696  1.00  0.00     0.009 A 
ATOM     48  C   UNL A   1      49.348  26.497  26.355  1.00  0.00     0.009 A 
ATOM     49  C   UNL A   1      51.073  25.673  28.382  1.00  0.00     0.001 A 
ATOM     50  C   UNL A   1      50.639  26.070  26.040  1.00  0.00     0.001 A 
ATOM     51  C   UNL A   1      51.502  25.664  27.054  1.00  0.00     0.000 A 
ENDBRANCH  27  46
BRANCH  39  52
ATOM     52  C   UNL A   1      45.704  32.395  29.636  1.00  0.00    -0.014 A 
ATOM     53  C   UNL A   1      46.135  32.720  30.930  1.00  0.00     0.009 A 
ATOM     54  C   UNL A   1      45.822  33.355  28.618  1.00  0.00     0.009 A 
ATOM     55  C   UNL A   1      46.660  33.984  31.201  1.00  0.00     0.001 A 
ATOM     56  C   UNL A   1      46.376  34.607  28.884  1.00  0.00     0.001 A 
ATOM     57  C   UNL A   1      46.790  34.923  30.177  1.00  0.00     0.000 A 
ENDBRANCH  39  52
ENDBRANCH  13  14
ENDBRANCH   6   8
ENDBRANCH   3   4
ENDBRANCH   2   3
ENDBRANCH   1   2
BRANCH   1  58
ATOM     58  C   UNL A   1      36.628  21.857  24.275  1.00  0.00     0.002 C 
BRANCH  58  59
ATOM     59  C   UNL A   1      36.965  23.027  25.205  1.00  0.00     0.021 C 
BRANCH  59  60
ATOM     60  C   UNL A   1      35.756  23.710  25.838  1.00  0.00     0.116 C 
BRANCH  60  61
ATOM     61  N   UNL A   1      35.144  22.884  26.863  1.00  0.00    -0.352 N 
ATOM     62  C   UNL A   1      33.814  22.709  27.149  1.00  0.00     0.251 C 
ATOM     63  H   UNL A   1      35.769  22.381  27.432  1.00  0.00     0.163 HD
ATOM     64  O   UNL A   1      33.465  22.140  28.176  1.00  0.00    -0.269 OA
BRANCH  62  65
ATOM     65  C   UNL A   1      32.793  23.227  26.213  1.00  0.00     0.040 A 
ATOM     66  C   UNL A   1      32.457  22.494  25.053  1.00  0.00     0.016 A 
ATOM     67  C   UNL A   1      32.162  24.442  26.516  1.00  0.00     0.020 A 
ATOM     68  C   UNL A   1      31.527  22.996  24.144  1.00  0.00     0.027 A 
ATOM     69  C   UNL A   1      31.242  24.929  25.605  1.00  0.00    -0.011 A 
ATOM     70  C   UNL A   1      30.944  24.208  24.447  1.00  0.00     0.045 A 
ATOM     71  C   UNL A   1      30.426  26.203  25.625  1.00  0.00     0.114 C 
ATOM     72  N   UNL A   1      30.002  24.885  23.697  1.00  0.00    -0.325 N 
ATOM     73  C   UNL A   1      29.613  26.065  24.314  1.00  0.00     0.232 C 
ATOM     74  H   UNL A   1      29.651  24.570  22.834  1.00  0.00     0.169 HD
ATOM     75  O   UNL A   1      28.761  26.825  23.881  1.00  0.00    -0.274 OA
BRANCH  71  76
ATOM     76  C   UNL A   1      31.274  27.490  25.720  1.00  0.00     0.010 C 
ATOM     77  C   UNL A   1      32.547  27.408  24.859  1.00  0.00     0.033 C 
ATOM     78  C   UNL A   1      31.645  27.889  27.159  1.00  0.00     0.033 C 
ATOM     79  C   UNL A   1      33.408  28.656  25.014  1.00  0.00     0.160 C 
ATOM     80  C   UNL A   1      32.548  29.117  27.168  1.00  0.00     0.160 C 
ATOM     81  O   UNL A   1      33.716  28.892  26.387  1.00  0.00    -0.381 OA
ENDBRANCH  71  76
ENDBRANCH  62  65
ENDBRANCH  60  61
ENDBRANCH  59  60
ENDBRANCH  58  59
ENDBRANCH   1  58
TORSDOF 14
ENDMDL
MODEL 3
REMARK VINA RESULT:     -11.1      2.066      7.589
REMARK SMILES O=C(NCCCCCCNC(=O)c1ccc2c(c1)[C@@H](C1CCOCC1)C(=O)N2)c1ccc(-c2c3nc(c(-c4ccccc4)c4ccc([nH]4)c(-c4ccccc4)c4nc(c(-c5ccccc5)c5ccc2[nH]5)C=C4)C=C3)cc1
REMARK SMILES IDX 6 1 5 2 4 3 3 4 1 5 2 6 29 8 30 9 76 10 31 11 75 12 32 13
REMARK SMILES IDX 33 14 34 15 69 16 35 17 74 18 68 19 70 20 36 21 73 22 67 23
REMARK SMILES IDX 66 24 37 26 59 27 44 28 58 29 45 30 48 31 57 32 71 33 46 34
REMARK SMILES IDX 47 35 56 37 72 38 49 39 38 40 39 41 43 42 40 43 42 44 41 45
REMARK SMILES IDX 60 46 61 47 65 48 62 49 64 50 63 51 50 52 51 53 55 54 52 55
REMARK SMILES IDX 54 56 53 57 7 58 8 59 9 60 10 61 11 62 12 64 13 65 14 66
REMARK SMILES IDX 18 67 15 68 17 69 16 70 19 71 28 72 26 73 27 75 20 76 21 77
REMARK SMILES IDX 25 78 22 79 24 80 23 81
REMARK H PARENT 3 7 70 25 48 36 10 63 28 74
REMARK Flexibility Score: inf
ROOT
ATOM      1  C   UNL A   1      31.492  30.535  25.901  1.00  0.00     0.002 C 
ENDROOT
BRANCH   1   2
ATOM      2  C   UNL A   1      31.358  31.925  26.525  1.00  0.00     0.021 C 
BRANCH   2   3
ATOM      3  C   UNL A   1      32.640  32.471  27.143  1.00  0.00     0.116 C 
BRANCH   3   4
ATOM      4  N   UNL A   1      32.460  33.808  27.683  1.00  0.00    -0.352 N 
ATOM      5  O   UNL A   1      32.779  35.516  29.121  1.00  0.00    -0.269 OA
ATOM      6  C   UNL A   1      33.189  34.462  28.642  1.00  0.00     0.251 C 
ATOM      7  H   UNL A   1      31.708  34.318  27.304  1.00  0.00     0.163 HD
BRANCH   6   8
ATOM      8  C   UNL A   1      34.465  33.886  29.113  1.00  0.00     0.039 A 
ATOM      9  C   UNL A   1      34.484  32.913  30.116  1.00  0.00     0.014 A 
ATOM     10  C   UNL A   1      35.655  34.311  28.520  1.00  0.00     0.014 A 
ATOM     11  C   UNL A   1      35.699  32.446  30.606  1.00  0.00     0.010 A 
ATOM     12  C   UNL A   1      36.871  33.786  28.961  1.00  0.00     0.010 A 
ATOM     13  C   UNL A   1      36.902  32.865  30.021  1.00  0.00    -0.014 A 
BRANCH  13  14
ATOM     14  C   UNL A   1      38.192  32.287  30.467  1.00  0.00     0.031 A 
ATOM     15  C   UNL A   1      38.710  31.010  29.875  1.00  0.00     0.074 A 
ATOM     16  C   UNL A   1      38.874  32.901  31.452  1.00  0.00     0.049 A 
ATOM     17  N   UNL A   1      39.766  30.314  30.210  1.00  0.00    -0.248 NA
ATOM     18  C   UNL A   1      37.931  30.431  28.769  1.00  0.00     0.031 C 
ATOM     19  C   UNL A   1      38.470  34.147  32.107  1.00  0.00     0.029 A 
ATOM     20  N   UNL A   1      40.037  32.551  32.088  1.00  0.00    -0.354 N 
ATOM     21  C   UNL A   1      39.767  29.203  29.377  1.00  0.00     0.074 A 
ATOM     22  C   UNL A   1      38.591  29.305  28.538  1.00  0.00     0.031 C 
ATOM     23  C   UNL A   1      39.373  34.460  33.047  1.00  0.00     0.029 A 
ATOM     24  C   UNL A   1      40.378  33.404  33.108  1.00  0.00     0.049 A 
ATOM     25  H   UNL A   1      40.575  31.765  31.837  1.00  0.00     0.167 HD
ATOM     26  C   UNL A   1      40.664  28.188  29.323  1.00  0.00     0.031 A 
ATOM     27  C   UNL A   1      41.362  33.329  34.023  1.00  0.00     0.031 A 
ATOM     28  C   UNL A   1      41.817  28.084  30.179  1.00  0.00     0.049 A 
ATOM     29  C   UNL A   1      42.311  32.169  33.983  1.00  0.00     0.074 A 
ATOM     30  C   UNL A   1      42.809  27.119  30.176  1.00  0.00     0.029 A 
ATOM     31  N   UNL A   1      42.122  28.968  31.205  1.00  0.00    -0.354 N 
ATOM     32  N   UNL A   1      42.330  31.150  33.159  1.00  0.00    -0.248 NA
ATOM     33  C   UNL A   1      43.377  32.150  34.993  1.00  0.00     0.031 C 
ATOM     34  C   UNL A   1      43.672  27.377  31.246  1.00  0.00     0.029 A 
ATOM     35  C   UNL A   1      43.265  28.548  31.865  1.00  0.00     0.049 A 
ATOM     36  H   UNL A   1      41.603  29.774  31.430  1.00  0.00     0.167 HD
ATOM     37  C   UNL A   1      43.424  30.382  33.531  1.00  0.00     0.074 A 
ATOM     38  C   UNL A   1      44.046  31.055  34.653  1.00  0.00     0.031 C 
ATOM     39  C   UNL A   1      43.874  29.227  32.983  1.00  0.00     0.031 A 
BRANCH  26  40
ATOM     40  C   UNL A   1      40.395  27.080  28.338  1.00  0.00    -0.014 A 
ATOM     41  C   UNL A   1      40.928  27.102  27.040  1.00  0.00     0.009 A 
ATOM     42  C   UNL A   1      39.599  25.990  28.724  1.00  0.00     0.009 A 
ATOM     43  C   UNL A   1      40.623  26.084  26.132  1.00  0.00     0.001 A 
ATOM     44  C   UNL A   1      39.326  24.956  27.827  1.00  0.00     0.001 A 
ATOM     45  C   UNL A   1      39.824  25.012  26.526  1.00  0.00     0.000 A 
ENDBRANCH  26  40
BRANCH  27  46
ATOM     46  C   UNL A   1      41.461  34.384  35.064  1.00  0.00    -0.014 A 
ATOM     47  C   UNL A   1      42.177  35.565  34.823  1.00  0.00     0.009 A 
ATOM     48  C   UNL A   1      40.782  34.237  36.285  1.00  0.00     0.009 A 
ATOM     49  C   UNL A   1      42.218  36.573  35.788  1.00  0.00     0.001 A 
ATOM     50  C   UNL A   1      40.799  35.260  37.235  1.00  0.00     0.001 A 
ATOM     51  C   UNL A   1      41.522  36.425  36.988  1.00  0.00     0.000 A 
ENDBRANCH  27  46
BRANCH  39  52
ATOM     52  C   UNL A   1      45.130  28.629  33.555  1.00  0.00    -0.014 A 
ATOM     53  C   UNL A   1      46.399  28.995  33.083  1.00  0.00     0.009 A 
ATOM     54  C   UNL A   1      45.037  27.745  34.642  1.00  0.00     0.009 A 
ATOM     55  C   UNL A   1      47.549  28.475  33.680  1.00  0.00     0.001 A 
ATOM     56  C   UNL A   1      46.188  27.251  35.256  1.00  0.00     0.001 A 
ATOM     57  C   UNL A   1      47.443  27.612  34.771  1.00  0.00     0.000 A 
ENDBRANCH  39  52
ENDBRANCH  13  14
ENDBRANCH   6   8
ENDBRANCH   3   4
ENDBRANCH   2   3
ENDBRANCH   1   2
BRANCH   1  58
ATOM     58  C   UNL A   1      31.985  29.440  26.852  1.00  0.00     0.002 C 
BRANCH  58  59
ATOM     59  C   UNL A   1      33.480  29.118  26.762  1.00  0.00     0.021 C 
BRANCH  59  60
ATOM     60  C   UNL A   1      33.845  28.060  25.725  1.00  0.00     0.116 C 
BRANCH  60  61
ATOM     61  N   UNL A   1      34.034  28.638  24.406  1.00  0.00    -0.352 N 
ATOM     62  C   UNL A   1      33.807  28.074  23.176  1.00  0.00     0.251 C 
ATOM     63  H   UNL A   1      34.373  29.562  24.392  1.00  0.00     0.163 HD
ATOM     64  O   UNL A   1      34.209  28.618  22.155  1.00  0.00    -0.269 OA
BRANCH  62  65
ATOM     65  C   UNL A   1      33.082  26.789  23.087  1.00  0.00     0.040 A 
ATOM     66  C   UNL A   1      31.672  26.762  23.181  1.00  0.00     0.016 A 
ATOM     67  C   UNL A   1      33.822  25.615  22.889  1.00  0.00     0.020 A 
ATOM     68  C   UNL A   1      30.984  25.550  23.141  1.00  0.00     0.027 A 
ATOM     69  C   UNL A   1      33.127  24.419  22.851  1.00  0.00    -0.011 A 
ATOM     70  C   UNL A   1      31.736  24.407  22.979  1.00  0.00     0.045 A 
ATOM     71  C   UNL A   1      33.627  23.002  22.685  1.00  0.00     0.114 C 
ATOM     72  N   UNL A   1      31.266  23.109  22.908  1.00  0.00    -0.325 N 
ATOM     73  C   UNL A   1      32.299  22.204  22.714  1.00  0.00     0.232 C 
ATOM     74  H   UNL A   1      30.318  22.859  22.986  1.00  0.00     0.169 HD
ATOM     75  O   UNL A   1      32.150  21.000  22.573  1.00  0.00    -0.274 OA
BRANCH  71  76
ATOM     76  C   UNL A   1      34.657  22.570  23.752  1.00  0.00     0.010 C 
ATOM     77  C   UNL A   1      34.286  23.084  25.154  1.00  0.00     0.033 C 
ATOM     78  C   UNL A   1      36.105  22.968  23.419  1.00  0.00     0.033 C 
ATOM     79  C   UNL A   1      35.344  22.709  26.184  1.00  0.00     0.160 C 
ATOM     80  C   UNL A   1      37.050  22.584  24.551  1.00  0.00     0.160 C 
ATOM     81  O   UNL A   1      36.632  23.170  25.779  1.00  0.00    -0.381 OA
ENDBRANCH  71  76
ENDBRANCH  62  65
ENDBRANCH  60  61
ENDBRANCH  59  60
ENDBRANCH  58  59
ENDBRANCH   1  58
TORSDOF 14
ENDMDL
