MODEL 1
REMARK VINA RESULT:     -12.8      0.000      0.000
REMARK SMILES C[N@@H+]1CC[C@H]2CN(C(=O)c3csc(-c4ccncc4)n3)C[C@@]2(C(=O)NCCCCCCNC(=O)c2ccc(-c3c4nc(c(-c5ccccc5)c5ccc([nH]5)c(-c5ccccc5)c5nc(c(-c6ccccc6)c6ccc3[nH]6)C=C5)C=C4)cc2)C1
REMARK SMILES IDX 28 1 27 2 26 3 25 4 23 5 24 6 22 8 1 9 2 10 3 11 83 12 4 14
REMARK SMILES IDX 5 15 21 16 6 17 7 18 8 19 9 20 10 21 11 22 20 23 12 24 13 25
REMARK SMILES IDX 14 26 15 27 19 28 16 29 18 30 17 31 29 32 30 33 31 34 32 35
REMARK SMILES IDX 33 36 34 38 35 39 36 40 82 41 37 42 81 43 38 44 39 45 40 46
REMARK SMILES IDX 75 47 41 48 80 49 74 50 76 51 42 52 79 53 73 54 72 55 43 57
REMARK SMILES IDX 65 58 50 59 64 60 51 61 54 62 63 63 77 64 52 65 53 66 62 68
REMARK SMILES IDX 78 69 55 70 44 71 45 72 49 73 46 74 48 75 47 76 66 77 67 78
REMARK SMILES IDX 71 79 68 80 70 81 69 82 56 83 57 84 61 85 58 86 60 87 59 88
REMARK H PARENT 25 7 2 13 32 37 76 56 54 67
REMARK Flexibility Score: inf
ROOT
ATOM      1  C   UNL A   1      32.392  29.910  27.093  1.00  0.00     0.002 C 
ENDROOT
BRANCH   1   2
ATOM      2  C   UNL A   1      31.890  28.508  27.432  1.00  0.00     0.021 C 
BRANCH   2   3
ATOM      3  C   UNL A   1      32.744  27.354  26.906  1.00  0.00     0.116 C 
BRANCH   3   4
ATOM      4  N   UNL A   1      33.308  27.447  25.542  1.00  0.00    -0.355 N 
ATOM      5  C   UNL A   1      32.791  27.318  24.253  1.00  0.00     0.234 C 
ATOM      6  O   UNL A   1      33.417  27.855  23.337  1.00  0.00    -0.274 OA
ATOM      7  H   UNL A   1      34.271  27.646  25.544  1.00  0.00     0.163 HD
BRANCH   5   8
ATOM      8  C   UNL A   1      31.587  26.392  23.978  1.00  0.00     0.120 C 
ATOM      9  C   UNL A   1      30.716  29.272  22.245  1.00  0.00     0.332 C 
ATOM     10  N   UNL A   1      30.215  27.906  22.375  1.00  0.00    -0.336 N 
ATOM     11  C   UNL A   1      29.041  27.864  23.240  1.00  0.00     0.262 C 
ATOM     12  C   UNL A   1      31.204  26.806  22.522  1.00  0.00     0.281 C 
ATOM     13  H   UNL A   1      29.899  27.648  21.440  1.00  0.00     0.347 HD
ATOM     14  C   UNL A   1      28.990  26.585  24.034  1.00  0.00     0.068 C 
ATOM     15  C   UNL A   1      30.278  26.422  24.858  1.00  0.00     0.037 C 
ATOM     16  C   UNL A   1      32.133  24.995  24.322  1.00  0.00     0.143 C 
ATOM     17  C   UNL A   1      30.137  25.060  25.551  1.00  0.00     0.125 C 
ATOM     18  N   UNL A   1      31.438  24.500  25.486  1.00  0.00    -0.336 N 
BRANCH  18  19
ATOM     19  C   UNL A   1      31.890  23.588  26.430  1.00  0.00     0.273 C 
ATOM     20  O   UNL A   1      31.532  23.648  27.603  1.00  0.00    -0.267 OA
BRANCH  19  21
ATOM     21  C   UNL A   1      32.847  22.554  25.990  1.00  0.00     0.139 A 
ATOM     22  C   UNL A   1      34.217  22.746  25.970  1.00  0.00     0.101 A 
ATOM     23  N   UNL A   1      32.438  21.332  25.433  1.00  0.00    -0.231 NA
ATOM     24  S   UNL A   1      35.005  21.386  25.290  1.00  0.00    -0.122 S 
ATOM     25  C   UNL A   1      33.476  20.655  24.985  1.00  0.00     0.124 A 
BRANCH  25  26
ATOM     26  C   UNL A   1      33.413  19.407  24.217  1.00  0.00     0.013 A 
ATOM     27  C   UNL A   1      34.330  18.383  24.478  1.00  0.00     0.031 A 
ATOM     28  C   UNL A   1      32.442  19.199  23.235  1.00  0.00     0.031 A 
ATOM     29  C   UNL A   1      34.221  17.199  23.765  1.00  0.00     0.111 A 
ATOM     30  C   UNL A   1      32.422  17.983  22.570  1.00  0.00     0.111 A 
ATOM     31  N   UNL A   1      33.286  16.977  22.818  1.00  0.00    -0.265 NA
ENDBRANCH  25  26
ENDBRANCH  19  21
ENDBRANCH  18  19
ENDBRANCH   5   8
ENDBRANCH   3   4
ENDBRANCH   2   3
ENDBRANCH   1   2
BRANCH   1  32
ATOM     32  C   UNL A   1      31.482  30.741  26.181  1.00  0.00     0.002 C 
BRANCH  32  33
ATOM     33  C   UNL A   1      31.380  32.238  26.500  1.00  0.00     0.021 C 
BRANCH  33  34
ATOM     34  C   UNL A   1      32.537  32.803  27.311  1.00  0.00     0.116 C 
BRANCH  34  35
ATOM     35  N   UNL A   1      32.338  34.204  27.636  1.00  0.00    -0.352 N 
ATOM     36  C   UNL A   1      32.949  34.970  28.598  1.00  0.00     0.251 C 
ATOM     37  H   UNL A   1      31.666  34.671  27.088  1.00  0.00     0.163 HD
ATOM     38  O   UNL A   1      32.499  36.072  28.888  1.00  0.00    -0.269 OA
BRANCH  36  39
ATOM     39  C   UNL A   1      34.147  34.455  29.295  1.00  0.00     0.039 A 
ATOM     40  C   UNL A   1      34.008  33.931  30.582  1.00  0.00     0.014 A 
ATOM     41  C   UNL A   1      35.404  34.496  28.684  1.00  0.00     0.014 A 
ATOM     42  C   UNL A   1      35.121  33.396  31.234  1.00  0.00     0.010 A 
ATOM     43  C   UNL A   1      36.494  33.890  29.301  1.00  0.00     0.010 A 
ATOM     44  C   UNL A   1      36.367  33.340  30.585  1.00  0.00    -0.014 A 
BRANCH  44  45
ATOM     45  C   UNL A   1      37.545  32.714  31.237  1.00  0.00     0.031 A 
ATOM     46  C   UNL A   1      38.208  31.517  30.612  1.00  0.00     0.074 A 
ATOM     47  C   UNL A   1      37.985  33.190  32.418  1.00  0.00     0.049 A 
ATOM     48  N   UNL A   1      39.218  30.810  31.054  1.00  0.00    -0.248 NA
ATOM     49  C   UNL A   1      37.651  31.035  29.338  1.00  0.00     0.031 C 
ATOM     50  C   UNL A   1      37.404  34.321  33.146  1.00  0.00     0.029 A 
ATOM     51  N   UNL A   1      39.021  32.778  33.218  1.00  0.00    -0.354 N 
ATOM     52  C   UNL A   1      39.405  29.795  30.122  1.00  0.00     0.074 A 
ATOM     53  C   UNL A   1      38.373  29.945  29.120  1.00  0.00     0.031 C 
ATOM     54  C   UNL A   1      38.111  34.531  34.269  1.00  0.00     0.029 A 
ATOM     55  C   UNL A   1      39.164  33.526  34.364  1.00  0.00     0.049 A 
ATOM     56  H   UNL A   1      39.606  32.020  32.994  1.00  0.00     0.167 HD
ATOM     57  C   UNL A   1      40.362  28.838  30.091  1.00  0.00     0.031 A 
ATOM     58  C   UNL A   1      40.040  33.410  35.380  1.00  0.00     0.031 A 
ATOM     59  C   UNL A   1      41.394  28.695  31.084  1.00  0.00     0.049 A 
ATOM     60  C   UNL A   1      41.079  32.324  35.331  1.00  0.00     0.074 A 
ATOM     61  C   UNL A   1      42.441  27.792  31.112  1.00  0.00     0.029 A 
ATOM     62  N   UNL A   1      41.503  29.472  32.226  1.00  0.00    -0.354 N 
ATOM     63  N   UNL A   1      41.285  31.419  34.405  1.00  0.00    -0.248 NA
ATOM     64  C   UNL A   1      42.011  32.250  36.465  1.00  0.00     0.031 C 
ATOM     65  C   UNL A   1      43.148  27.981  32.303  1.00  0.00     0.029 A 
ATOM     66  C   UNL A   1      42.583  29.049  32.982  1.00  0.00     0.049 A 
ATOM     67  H   UNL A   1      40.902  30.214  32.465  1.00  0.00     0.167 HD
ATOM     68  C   UNL A   1      42.391  30.691  34.827  1.00  0.00     0.074 A 
ATOM     69  C   UNL A   1      42.820  31.271  36.084  1.00  0.00     0.031 C 
ATOM     70  C   UNL A   1      42.998  29.638  34.230  1.00  0.00     0.031 A 
BRANCH  57  71
ATOM     71  C   UNL A   1      40.333  27.861  28.948  1.00  0.00    -0.014 A 
ATOM     72  C   UNL A   1      39.626  26.651  29.037  1.00  0.00     0.009 A 
ATOM     73  C   UNL A   1      40.985  28.176  27.745  1.00  0.00     0.009 A 
ATOM     74  C   UNL A   1      39.600  25.764  27.959  1.00  0.00     0.001 A 
ATOM     75  C   UNL A   1      40.931  27.302  26.657  1.00  0.00     0.001 A 
ATOM     76  C   UNL A   1      40.247  26.092  26.769  1.00  0.00     0.000 A 
ENDBRANCH  57  71
BRANCH  58  77
ATOM     77  C   UNL A   1      39.980  34.351  36.530  1.00  0.00    -0.014 A 
ATOM     78  C   UNL A   1      39.271  34.015  37.693  1.00  0.00     0.009 A 
ATOM     79  C   UNL A   1      40.616  35.601  36.464  1.00  0.00     0.009 A 
ATOM     80  C   UNL A   1      39.171  34.923  38.751  1.00  0.00     0.001 A 
ATOM     81  C   UNL A   1      40.544  36.492  37.536  1.00  0.00     0.001 A 
ATOM     82  C   UNL A   1      39.812  36.158  38.673  1.00  0.00     0.000 A 
ENDBRANCH  58  77
BRANCH  70  83
ATOM     83  C   UNL A   1      44.217  29.069  34.903  1.00  0.00    -0.014 A 
ATOM     84  C   UNL A   1      44.113  28.093  35.905  1.00  0.00     0.009 A 
ATOM     85  C   UNL A   1      45.491  29.492  34.494  1.00  0.00     0.009 A 
ATOM     86  C   UNL A   1      45.260  27.578  36.511  1.00  0.00     0.001 A 
ATOM     87  C   UNL A   1      46.639  28.950  35.077  1.00  0.00     0.001 A 
ATOM     88  C   UNL A   1      46.522  28.002  36.092  1.00  0.00     0.000 A 
ENDBRANCH  70  83
ENDBRANCH  44  45
ENDBRANCH  36  39
ENDBRANCH  34  35
ENDBRANCH  33  34
ENDBRANCH  32  33
ENDBRANCH   1  32
TORSDOF 16
ENDMDL
MODEL 2
REMARK VINA RESULT:     -12.7      0.327      5.646
REMARK SMILES C[N@@H+]1CC[C@H]2CN(C(=O)c3csc(-c4ccncc4)n3)C[C@@]2(C(=O)NCCCCCCNC(=O)c2ccc(-c3c4nc(c(-c5ccccc5)c5ccc([nH]5)c(-c5ccccc5)c5nc(c(-c6ccccc6)c6ccc3[nH]6)C=C5)C=C4)cc2)C1
REMARK SMILES IDX 28 1 27 2 26 3 25 4 23 5 24 6 22 8 1 9 2 10 3 11 83 12 4 14
REMARK SMILES IDX 5 15 21 16 6 17 7 18 8 19 9 20 10 21 11 22 20 23 12 24 13 25
REMARK SMILES IDX 14 26 15 27 19 28 16 29 18 30 17 31 29 32 30 33 31 34 32 35
REMARK SMILES IDX 33 36 34 38 35 39 36 40 82 41 37 42 81 43 38 44 39 45 40 46
REMARK SMILES IDX 75 47 41 48 80 49 74 50 76 51 42 52 79 53 73 54 72 55 43 57
REMARK SMILES IDX 65 58 50 59 64 60 51 61 54 62 63 63 77 64 52 65 53 66 62 68
REMARK SMILES IDX 78 69 55 70 44 71 45 72 49 73 46 74 48 75 47 76 66 77 67 78
REMARK SMILES IDX 71 79 68 80 70 81 69 82 56 83 57 84 61 85 58 86 60 87 59 88
REMARK H PARENT 25 7 2 13 32 37 76 56 54 67
REMARK Flexibility Score: inf
ROOT
ATOM      1  C   UNL A   1      32.224  29.923  27.074  1.00  0.00     0.002 C 
ENDROOT
BRANCH   1   2
ATOM      2  C   UNL A   1      31.777  28.465  27.156  1.00  0.00     0.021 C 
BRANCH   2   3
ATOM      3  C   UNL A   1      32.860  27.423  26.876  1.00  0.00     0.116 C 
BRANCH   3   4
ATOM      4  N   UNL A   1      33.506  27.403  25.547  1.00  0.00    -0.355 N 
ATOM      5  C   UNL A   1      33.057  27.227  24.238  1.00  0.00     0.234 C 
ATOM      6  O   UNL A   1      33.766  27.673  23.333  1.00  0.00    -0.274 OA
ATOM      7  H   UNL A   1      34.478  27.548  25.596  1.00  0.00     0.163 HD
BRANCH   5   8
ATOM      8  C   UNL A   1      31.819  26.354  23.942  1.00  0.00     0.120 C 
ATOM      9  C   UNL A   1      31.160  29.222  22.099  1.00  0.00     0.332 C 
ATOM     10  N   UNL A   1      30.585  27.886  22.247  1.00  0.00    -0.336 N 
ATOM     11  C   UNL A   1      29.380  27.928  23.068  1.00  0.00     0.262 C 
ATOM     12  C   UNL A   1      31.511  26.743  22.462  1.00  0.00     0.281 C 
ATOM     13  H   UNL A   1      30.292  27.617  21.308  1.00  0.00     0.347 HD
ATOM     14  C   UNL A   1      29.235  26.678  23.894  1.00  0.00     0.068 C 
ATOM     15  C   UNL A   1      30.482  26.475  24.770  1.00  0.00     0.037 C 
ATOM     16  C   UNL A   1      32.281  24.943  24.346  1.00  0.00     0.143 C 
ATOM     17  C   UNL A   1      30.246  25.143  25.495  1.00  0.00     0.125 C 
ATOM     18  N   UNL A   1      31.519  24.517  25.495  1.00  0.00    -0.336 N 
BRANCH  18  19
ATOM     19  C   UNL A   1      31.889  23.611  26.480  1.00  0.00     0.273 C 
ATOM     20  O   UNL A   1      31.453  23.696  27.626  1.00  0.00    -0.267 OA
BRANCH  19  21
ATOM     21  C   UNL A   1      32.854  22.555  26.121  1.00  0.00     0.139 A 
ATOM     22  C   UNL A   1      34.224  22.707  26.232  1.00  0.00     0.101 A 
ATOM     23  N   UNL A   1      32.465  21.349  25.515  1.00  0.00    -0.231 NA
ATOM     24  S   UNL A   1      35.035  21.331  25.615  1.00  0.00    -0.122 S 
ATOM     25  C   UNL A   1      33.522  20.646  25.160  1.00  0.00     0.124 A 
BRANCH  25  26
ATOM     26  C   UNL A   1      33.497  19.407  24.376  1.00  0.00     0.013 A 
ATOM     27  C   UNL A   1      34.463  18.421  24.603  1.00  0.00     0.031 A 
ATOM     28  C   UNL A   1      32.515  19.169  23.411  1.00  0.00     0.031 A 
ATOM     29  C   UNL A   1      34.391  17.243  23.877  1.00  0.00     0.111 A 
ATOM     30  C   UNL A   1      32.534  17.962  22.730  1.00  0.00     0.111 A 
ATOM     31  N   UNL A   1      33.446  16.992  22.946  1.00  0.00    -0.265 NA
ENDBRANCH  25  26
ENDBRANCH  19  21
ENDBRANCH  18  19
ENDBRANCH   5   8
ENDBRANCH   3   4
ENDBRANCH   2   3
ENDBRANCH   1   2
BRANCH   1  32
ATOM     32  C   UNL A   1      31.404  30.819  26.139  1.00  0.00     0.002 C 
BRANCH  32  33
ATOM     33  C   UNL A   1      31.345  32.309  26.501  1.00  0.00     0.021 C 
BRANCH  33  34
ATOM     34  C   UNL A   1      32.567  32.842  27.235  1.00  0.00     0.116 C 
BRANCH  34  35
ATOM     35  N   UNL A   1      32.397  34.225  27.639  1.00  0.00    -0.352 N 
ATOM     36  C   UNL A   1      33.019  34.921  28.646  1.00  0.00     0.251 C 
ATOM     37  H   UNL A   1      31.739  34.738  27.116  1.00  0.00     0.163 HD
ATOM     38  O   UNL A   1      32.591  36.014  28.998  1.00  0.00    -0.269 OA
BRANCH  36  39
ATOM     39  C   UNL A   1      34.202  34.341  29.318  1.00  0.00     0.039 A 
ATOM     40  C   UNL A   1      34.024  33.631  30.508  1.00  0.00     0.014 A 
ATOM     41  C   UNL A   1      35.482  34.502  28.780  1.00  0.00     0.014 A 
ATOM     42  C   UNL A   1      35.124  33.036  31.128  1.00  0.00     0.010 A 
ATOM     43  C   UNL A   1      36.563  33.840  29.354  1.00  0.00     0.010 A 
ATOM     44  C   UNL A   1      36.398  33.107  30.538  1.00  0.00    -0.014 A 
BRANCH  44  45
ATOM     45  C   UNL A   1      37.566  32.422  31.148  1.00  0.00     0.031 A 
ATOM     46  C   UNL A   1      38.156  32.932  32.434  1.00  0.00     0.074 A 
ATOM     47  C   UNL A   1      38.129  31.374  30.515  1.00  0.00     0.049 A 
ATOM     48  N   UNL A   1      39.200  32.495  33.093  1.00  0.00    -0.248 NA
ATOM     49  C   UNL A   1      37.507  34.102  33.048  1.00  0.00     0.031 C 
ATOM     50  C   UNL A   1      37.674  30.807  29.243  1.00  0.00     0.029 A 
ATOM     51  N   UNL A   1      39.209  30.600  30.855  1.00  0.00    -0.354 N 
ATOM     52  C   UNL A   1      39.338  33.341  34.187  1.00  0.00     0.074 A 
ATOM     53  C   UNL A   1      38.308  34.350  34.074  1.00  0.00     0.031 C 
ATOM     54  C   UNL A   1      38.451  29.758  28.927  1.00  0.00     0.029 A 
ATOM     55  C   UNL A   1      39.483  29.605  29.946  1.00  0.00     0.049 A 
ATOM     56  H   UNL A   1      39.739  30.743  31.673  1.00  0.00     0.167 HD
ATOM     57  C   UNL A   1      40.229  33.274  35.204  1.00  0.00     0.031 A 
ATOM     58  C   UNL A   1      40.460  28.678  29.931  1.00  0.00     0.031 A 
ATOM     59  C   UNL A   1      41.249  32.265  35.319  1.00  0.00     0.049 A 
ATOM     60  C   UNL A   1      41.450  28.640  31.062  1.00  0.00     0.074 A 
ATOM     61  C   UNL A   1      42.163  32.080  36.340  1.00  0.00     0.029 A 
ATOM     62  N   UNL A   1      41.491  31.277  34.378  1.00  0.00    -0.354 N 
ATOM     63  N   UNL A   1      41.521  29.404  32.126  1.00  0.00    -0.248 NA
ATOM     64  C   UNL A   1      42.490  27.604  30.995  1.00  0.00     0.031 C 
ATOM     65  C   UNL A   1      43.000  31.017  35.987  1.00  0.00     0.029 A 
ATOM     66  C   UNL A   1      42.561  30.496  34.780  1.00  0.00     0.049 A 
ATOM     67  H   UNL A   1      40.979  31.150  33.547  1.00  0.00     0.167 HD
ATOM     68  C   UNL A   1      42.589  28.920  32.869  1.00  0.00     0.074 A 
ATOM     69  C   UNL A   1      43.126  27.787  32.144  1.00  0.00     0.031 C 
ATOM     70  C   UNL A   1      43.083  29.371  34.048  1.00  0.00     0.031 A 
BRANCH  57  71
ATOM     71  C   UNL A   1      40.147  34.329  36.273  1.00  0.00    -0.014 A 
ATOM     72  C   UNL A   1      39.325  34.165  37.400  1.00  0.00     0.009 A 
ATOM     73  C   UNL A   1      40.939  35.484  36.176  1.00  0.00     0.009 A 
ATOM     74  C   UNL A   1      39.273  35.150  38.389  1.00  0.00     0.001 A 
ATOM     75  C   UNL A   1      40.910  36.452  37.181  1.00  0.00     0.001 A 
ATOM     76  C   UNL A   1      40.070  36.289  38.282  1.00  0.00     0.000 A 
ENDBRANCH  57  71
BRANCH  58  77
ATOM     77  C   UNL A   1      40.550  27.704  28.811  1.00  0.00    -0.014 A 
ATOM     78  C   UNL A   1      41.313  27.995  27.669  1.00  0.00     0.009 A 
ATOM     79  C   UNL A   1      39.858  26.485  28.868  1.00  0.00     0.009 A 
ATOM     80  C   UNL A   1      41.352  27.102  26.596  1.00  0.00     0.001 A 
ATOM     81  C   UNL A   1      39.927  25.578  27.808  1.00  0.00     0.001 A 
ATOM     82  C   UNL A   1      40.664  25.893  26.668  1.00  0.00     0.000 A 
ENDBRANCH  58  77
BRANCH  70  83
ATOM     83  C   UNL A   1      44.235  28.615  34.650  1.00  0.00    -0.014 A 
ATOM     84  C   UNL A   1      45.565  28.975  34.388  1.00  0.00     0.009 A 
ATOM     85  C   UNL A   1      43.979  27.549  35.526  1.00  0.00     0.009 A 
ATOM     86  C   UNL A   1      46.617  28.260  34.964  1.00  0.00     0.001 A 
ATOM     87  C   UNL A   1      45.031  26.856  36.128  1.00  0.00     0.001 A 
ATOM     88  C   UNL A   1      46.349  27.206  35.837  1.00  0.00     0.000 A 
ENDBRANCH  70  83
ENDBRANCH  44  45
ENDBRANCH  36  39
ENDBRANCH  34  35
ENDBRANCH  33  34
ENDBRANCH  32  33
ENDBRANCH   1  32
TORSDOF 16
ENDMDL
MODEL 3
REMARK VINA RESULT:     -12.2      2.476      5.089
REMARK SMILES C[N@@H+]1CC[C@H]2CN(C(=O)c3csc(-c4ccncc4)n3)C[C@@]2(C(=O)NCCCCCCNC(=O)c2ccc(-c3c4nc(c(-c5ccccc5)c5ccc([nH]5)c(-c5ccccc5)c5nc(c(-c6ccccc6)c6ccc3[nH]6)C=C5)C=C4)cc2)C1
REMARK SMILES IDX 28 1 27 2 26 3 25 4 23 5 24 6 22 8 1 9 2 10 3 11 83 12 4 14
REMARK SMILES IDX 5 15 21 16 6 17 7 18 8 19 9 20 10 21 11 22 20 23 12 24 13 25
REMARK SMILES IDX 14 26 15 27 19 28 16 29 18 30 17 31 29 32 30 33 31 34 32 35
REMARK SMILES IDX 33 36 34 38 35 39 36 40 82 41 37 42 81 43 38 44 39 45 40 46
REMARK SMILES IDX 75 47 41 48 80 49 74 50 76 51 42 52 79 53 73 54 72 55 43 57
REMARK SMILES IDX 65 58 50 59 64 60 51 61 54 62 63 63 77 64 52 65 53 66 62 68
REMARK SMILES IDX 78 69 55 70 44 71 45 72 49 73 46 74 48 75 47 76 66 77 67 78
REMARK SMILES IDX 71 79 68 80 70 81 69 82 56 83 57 84 61 85 58 86 60 87 59 88
REMARK H PARENT 25 7 2 13 32 37 76 56 54 67
REMARK Flexibility Score: inf
ROOT
ATOM      1  C   UNL A   1      33.545  28.790  27.294  1.00  0.00     0.002 C 
ENDROOT
BRANCH   1   2
ATOM      2  C   UNL A   1      33.761  28.118  25.939  1.00  0.00     0.021 C 
BRANCH   2   3
ATOM      3  C   UNL A   1      33.707  26.590  25.942  1.00  0.00     0.116 C 
BRANCH   3   4
ATOM      4  N   UNL A   1      32.397  25.922  26.093  1.00  0.00    -0.355 N 
ATOM      5  C   UNL A   1      31.945  24.608  25.983  1.00  0.00     0.234 C 
ATOM      6  O   UNL A   1      30.898  24.319  26.567  1.00  0.00    -0.274 OA
ATOM      7  H   UNL A   1      31.676  26.551  26.326  1.00  0.00     0.163 HD
BRANCH   5   8
ATOM      8  C   UNL A   1      32.636  23.616  25.024  1.00  0.00     0.120 C 
ATOM      9  C   UNL A   1      33.241  22.184  28.129  1.00  0.00     0.332 C 
ATOM     10  N   UNL A   1      33.417  21.816  26.725  1.00  0.00    -0.336 N 
ATOM     11  C   UNL A   1      34.813  21.954  26.325  1.00  0.00     0.262 C 
ATOM     12  C   UNL A   1      32.386  22.256  25.749  1.00  0.00     0.281 C 
ATOM     13  H   UNL A   1      33.196  20.822  26.681  1.00  0.00     0.347 HD
ATOM     14  C   UNL A   1      34.931  22.391  24.888  1.00  0.00     0.068 C 
ATOM     15  C   UNL A   1      34.171  23.710  24.673  1.00  0.00     0.037 C 
ATOM     16  C   UNL A   1      32.008  23.952  23.660  1.00  0.00     0.143 C 
ATOM     17  C   UNL A   1      34.301  24.003  23.171  1.00  0.00     0.125 C 
ATOM     18  N   UNL A   1      33.028  24.508  22.804  1.00  0.00    -0.336 N 
BRANCH  18  19
ATOM     19  C   UNL A   1      32.868  25.386  21.740  1.00  0.00     0.273 C 
ATOM     20  O   UNL A   1      33.163  25.062  20.592  1.00  0.00    -0.267 OA
BRANCH  19  21
ATOM     21  C   UNL A   1      32.361  26.740  22.031  1.00  0.00     0.139 A 
ATOM     22  C   UNL A   1      33.169  27.778  22.458  1.00  0.00     0.101 A 
ATOM     23  N   UNL A   1      30.992  27.055  22.020  1.00  0.00    -0.231 NA
ATOM     24  S   UNL A   1      32.229  29.165  22.813  1.00  0.00    -0.122 S 
ATOM     25  C   UNL A   1      30.795  28.281  22.458  1.00  0.00     0.124 A 
BRANCH  25  26
ATOM     26  C   UNL A   1      29.487  28.894  22.718  1.00  0.00     0.013 A 
ATOM     27  C   UNL A   1      28.392  28.085  23.039  1.00  0.00     0.031 A 
ATOM     28  C   UNL A   1      29.304  30.278  22.674  1.00  0.00     0.031 A 
ATOM     29  C   UNL A   1      27.179  28.692  23.320  1.00  0.00     0.111 A 
ATOM     30  C   UNL A   1      28.048  30.790  22.961  1.00  0.00     0.111 A 
ATOM     31  N   UNL A   1      26.984  30.028  23.289  1.00  0.00    -0.265 NA
ENDBRANCH  25  26
ENDBRANCH  19  21
ENDBRANCH  18  19
ENDBRANCH   5   8
ENDBRANCH   3   4
ENDBRANCH   2   3
ENDBRANCH   1   2
BRANCH   1  32
ATOM     32  C   UNL A   1      33.804  30.301  27.337  1.00  0.00     0.002 C 
BRANCH  32  33
ATOM     33  C   UNL A   1      32.570  31.199  27.493  1.00  0.00     0.021 C 
BRANCH  33  34
ATOM     34  C   UNL A   1      32.589  32.470  26.656  1.00  0.00     0.116 C 
BRANCH  34  35
ATOM     35  N   UNL A   1      32.368  33.655  27.464  1.00  0.00    -0.352 N 
ATOM     36  C   UNL A   1      33.075  34.114  28.547  1.00  0.00     0.251 C 
ATOM     37  H   UNL A   1      31.598  34.208  27.197  1.00  0.00     0.163 HD
ATOM     38  O   UNL A   1      32.616  35.005  29.252  1.00  0.00    -0.269 OA
BRANCH  36  39
ATOM     39  C   UNL A   1      34.390  33.520  28.872  1.00  0.00     0.039 A 
ATOM     40  C   UNL A   1      35.475  33.775  28.031  1.00  0.00     0.014 A 
ATOM     41  C   UNL A   1      34.549  32.707  29.999  1.00  0.00     0.014 A 
ATOM     42  C   UNL A   1      36.733  33.261  28.351  1.00  0.00     0.010 A 
ATOM     43  C   UNL A   1      35.818  32.264  30.359  1.00  0.00     0.010 A 
ATOM     44  C   UNL A   1      36.922  32.529  29.535  1.00  0.00    -0.014 A 
BRANCH  44  45
ATOM     45  C   UNL A   1      38.267  32.033  29.926  1.00  0.00     0.031 A 
ATOM     46  C   UNL A   1      38.763  30.710  29.412  1.00  0.00     0.074 A 
ATOM     47  C   UNL A   1      39.017  32.749  30.785  1.00  0.00     0.049 A 
ATOM     48  N   UNL A   1      39.888  30.092  29.677  1.00  0.00    -0.248 NA
ATOM     49  C   UNL A   1      37.873  29.970  28.503  1.00  0.00     0.031 C 
ATOM     50  C   UNL A   1      38.632  34.030  31.385  1.00  0.00     0.029 A 
ATOM     51  N   UNL A   1      40.261  32.499  31.309  1.00  0.00    -0.354 N 
ATOM     52  C   UNL A   1      39.831  28.890  28.979  1.00  0.00     0.074 A 
ATOM     53  C   UNL A   1      38.542  28.840  28.326  1.00  0.00     0.031 C 
ATOM     54  C   UNL A   1      39.632  34.466  32.168  1.00  0.00     0.029 A 
ATOM     55  C   UNL A   1      40.707  33.480  32.163  1.00  0.00     0.049 A 
ATOM     56  H   UNL A   1      40.784  31.694  31.092  1.00  0.00     0.167 HD
ATOM     57  C   UNL A   1      40.775  27.925  28.876  1.00  0.00     0.031 A 
ATOM     58  C   UNL A   1      41.850  33.571  32.869  1.00  0.00     0.031 A 
ATOM     59  C   UNL A   1      42.060  27.980  29.521  1.00  0.00     0.049 A 
ATOM     60  C   UNL A   1      42.872  32.474  32.754  1.00  0.00     0.074 A 
ATOM     61  C   UNL A   1      43.106  27.078  29.432  1.00  0.00     0.029 A 
ATOM     62  N   UNL A   1      42.472  28.989  30.376  1.00  0.00    -0.354 N 
ATOM     63  N   UNL A   1      42.831  31.379  32.032  1.00  0.00    -0.248 NA
ATOM     64  C   UNL A   1      44.101  32.630  33.543  1.00  0.00     0.031 C 
ATOM     65  C   UNL A   1      44.127  27.510  30.284  1.00  0.00     0.029 A 
ATOM     66  C   UNL A   1      43.745  28.718  30.847  1.00  0.00     0.049 A 
ATOM     67  H   UNL A   1      41.938  29.783  30.613  1.00  0.00     0.167 HD
ATOM     68  C   UNL A   1      44.042  30.735  32.254  1.00  0.00     0.074 A 
ATOM     69  C   UNL A   1      44.800  31.570  33.164  1.00  0.00     0.031 C 
ATOM     70  C   UNL A   1      44.487  29.559  31.751  1.00  0.00     0.031 A 
BRANCH  57  71
ATOM     71  C   UNL A   1      40.448  26.718  28.040  1.00  0.00    -0.014 A 
ATOM     72  C   UNL A   1      40.906  26.599  26.718  1.00  0.00     0.009 A 
ATOM     73  C   UNL A   1      39.711  25.661  28.598  1.00  0.00     0.009 A 
ATOM     74  C   UNL A   1      40.603  25.464  25.962  1.00  0.00     0.001 A 
ATOM     75  C   UNL A   1      39.438  24.514  27.852  1.00  0.00     0.001 A 
ATOM     76  C   UNL A   1      39.875  24.421  26.531  1.00  0.00     0.000 A 
ENDBRANCH  57  71
BRANCH  58  77
ATOM     77  C   UNL A   1      42.095  34.747  33.747  1.00  0.00    -0.014 A 
ATOM     78  C   UNL A   1      42.783  35.870  33.263  1.00  0.00     0.009 A 
ATOM     79  C   UNL A   1      41.659  34.744  35.081  1.00  0.00     0.009 A 
ATOM     80  C   UNL A   1      43.059  36.950  34.105  1.00  0.00     0.001 A 
ATOM     81  C   UNL A   1      41.906  35.840  35.911  1.00  0.00     0.001 A 
ATOM     82  C   UNL A   1      42.616  36.936  35.426  1.00  0.00     0.000 A 
ENDBRANCH  58  77
BRANCH  70  83
ATOM     83  C   UNL A   1      45.874  29.123  32.136  1.00  0.00    -0.014 A 
ATOM     84  C   UNL A   1      46.101  28.299  33.249  1.00  0.00     0.009 A 
ATOM     85  C   UNL A   1      46.965  29.513  31.345  1.00  0.00     0.009 A 
ATOM     86  C   UNL A   1      47.398  27.905  33.582  1.00  0.00     0.001 A 
ATOM     87  C   UNL A   1      48.258  29.089  31.659  1.00  0.00     0.001 A 
ATOM     88  C   UNL A   1      48.474  28.294  32.785  1.00  0.00     0.000 A 
ENDBRANCH  70  83
ENDBRANCH  44  45
ENDBRANCH  36  39
ENDBRANCH  34  35
ENDBRANCH  33  34
ENDBRANCH  32  33
ENDBRANCH   1  32
TORSDOF 16
ENDMDL
