MODEL 1
REMARK VINA RESULT:      -8.8      0.000      0.000
REMARK SMILES O=C(CCC(=O)/[NH+]=C1\S[C@H]2CS(=O)(=O)C[C@@H]2N1c1ccc(Oc2ccccc2)cc1)NCCCCCCNC(=O)c1ccc(-c2c3nc(c(-c4ccccc4)c4ccc([nH]4)c(-c4ccccc4)c4nc(c(-c5ccccc5)c5ccc2[nH]5)C=C4)C=C3)cc1
REMARK SMILES IDX 33 1 32 2 31 3 2 4 1 5 3 7 4 8 5 9 6 10 7 11 8 12 9 14 17 15
REMARK SMILES IDX 10 16 16 17 11 18 15 19 12 20 13 21 14 22 18 23 19 24 30 25
REMARK SMILES IDX 20 26 29 27 21 28 22 29 23 30 24 31 28 32 25 33 27 34 26 35
REMARK SMILES IDX 34 36 35 37 36 38 37 39 38 40 39 41 40 43 41 44 42 45 88 46
REMARK SMILES IDX 43 47 87 48 44 49 45 50 46 51 81 52 47 53 86 54 80 55 82 56
REMARK SMILES IDX 48 57 85 58 79 59 78 60 49 62 71 63 56 64 70 65 57 66 60 67
REMARK SMILES IDX 69 68 83 69 58 70 59 71 68 73 84 74 61 75 50 76 51 77 55 78
REMARK SMILES IDX 52 79 54 80 53 81 72 82 73 83 77 84 74 85 76 86 75 87 62 88
REMARK SMILES IDX 63 89 67 90 64 91 66 92 65 93
REMARK H PARENT 31 6 7 13 38 42 82 61 60 72
REMARK Flexibility Score: inf
ROOT
ATOM      1  C   UNL A   1      33.050  36.402  30.570  1.00  0.00     0.021 C 
ENDROOT
BRANCH   1   2
ATOM      2  C   UNL A   1      33.271  35.778  31.946  1.00  0.00     0.116 C 
BRANCH   2   3
ATOM      3  N   UNL A   1      33.395  34.330  31.900  1.00  0.00    -0.356 N 
ATOM      4  C   UNL A   1      34.382  33.513  32.348  1.00  0.00     0.220 C 
ATOM      5  O   UNL A   1      34.316  32.308  32.101  1.00  0.00    -0.275 OA
ATOM      6  H   UNL A   1      32.640  33.866  31.473  1.00  0.00     0.163 HD
BRANCH   4   7
ATOM      7  C   UNL A   1      35.511  34.080  33.162  1.00  0.00     0.112 C 
BRANCH   7   8
ATOM      8  C   UNL A   1      36.601  34.865  32.448  1.00  0.00     0.138 C 
BRANCH   8   9
ATOM      9  C   UNL A   1      37.904  34.247  31.930  1.00  0.00     0.308 C 
ATOM     10  O   UNL A   1      38.354  34.664  30.861  1.00  0.00    -0.247 OA
ATOM     11  N   UNL A   1      38.536  33.232  32.599  1.00  0.00    -0.204 N 
ATOM     12  C   UNL A   1      39.079  33.392  33.757  1.00  0.00     0.319 C 
ATOM     13  H   UNL A   1      38.578  32.343  32.179  1.00  0.00     0.316 HD
ATOM     14  S   UNL A   1      38.980  34.927  34.677  1.00  0.00    -0.029 SA
ATOM     15  N   UNL A   1      39.708  32.415  34.539  1.00  0.00    -0.217 N 
ATOM     16  C   UNL A   1      39.786  34.187  36.097  1.00  0.00     0.120 C 
ATOM     17  C   UNL A   1      39.518  32.683  35.963  1.00  0.00     0.212 C 
ATOM     18  C   UNL A   1      39.340  34.522  37.496  1.00  0.00     0.156 C 
ATOM     19  C   UNL A   1      40.415  32.083  37.026  1.00  0.00     0.188 C 
ATOM     20  S   UNL A   1      40.140  33.197  38.416  1.00  0.00     0.155 S 
ATOM     21  O   UNL A   1      41.431  33.675  38.872  1.00  0.00    -0.229 OA
ATOM     22  O   UNL A   1      39.175  32.599  39.306  1.00  0.00    -0.229 OA
BRANCH  15  23
ATOM     23  C   UNL A   1      40.291  31.223  34.091  1.00  0.00     0.128 A 
ATOM     24  C   UNL A   1      41.682  31.033  34.074  1.00  0.00     0.056 A 
ATOM     25  C   UNL A   1      39.510  30.164  33.600  1.00  0.00     0.056 A 
ATOM     26  C   UNL A   1      42.268  29.903  33.489  1.00  0.00     0.051 A 
ATOM     27  C   UNL A   1      40.093  29.012  33.034  1.00  0.00     0.051 A 
ATOM     28  C   UNL A   1      41.478  28.904  32.923  1.00  0.00     0.127 A 
BRANCH  28  29
ATOM     29  O   UNL A   1      42.185  27.868  32.357  1.00  0.00    -0.457 OA
BRANCH  29  30
ATOM     30  C   UNL A   1      43.131  27.177  33.074  1.00  0.00     0.127 A 
ATOM     31  C   UNL A   1      42.711  26.642  34.291  1.00  0.00     0.047 A 
ATOM     32  C   UNL A   1      44.471  27.071  32.709  1.00  0.00     0.047 A 
ATOM     33  C   UNL A   1      43.578  25.884  35.075  1.00  0.00     0.004 A 
ATOM     34  C   UNL A   1      45.349  26.323  33.499  1.00  0.00     0.004 A 
ATOM     35  C   UNL A   1      44.898  25.710  34.669  1.00  0.00     0.000 A 
ENDBRANCH  29  30
ENDBRANCH  28  29
ENDBRANCH  15  23
ENDBRANCH   8   9
ENDBRANCH   7   8
ENDBRANCH   4   7
ENDBRANCH   2   3
ENDBRANCH   1   2
BRANCH   1  36
ATOM     36  C   UNL A   1      33.259  35.427  29.410  1.00  0.00     0.002 C 
BRANCH  36  37
ATOM     37  C   UNL A   1      34.644  35.466  28.774  1.00  0.00     0.002 C 
BRANCH  37  38
ATOM     38  C   UNL A   1      35.006  34.187  28.027  1.00  0.00     0.021 C 
BRANCH  38  39
ATOM     39  C   UNL A   1      35.297  33.008  28.948  1.00  0.00     0.116 C 
BRANCH  39  40
ATOM     40  N   UNL A   1      34.284  31.974  28.805  1.00  0.00    -0.352 N 
ATOM     41  C   UNL A   1      34.496  30.700  28.339  1.00  0.00     0.251 C 
ATOM     42  H   UNL A   1      33.364  32.208  29.065  1.00  0.00     0.163 HD
ATOM     43  O   UNL A   1      33.617  30.068  27.765  1.00  0.00    -0.269 OA
BRANCH  41  44
ATOM     44  C   UNL A   1      35.838  30.113  28.486  1.00  0.00     0.039 A 
ATOM     45  C   UNL A   1      36.674  30.090  27.371  1.00  0.00     0.014 A 
ATOM     46  C   UNL A   1      36.289  29.671  29.733  1.00  0.00     0.014 A 
ATOM     47  C   UNL A   1      38.002  29.713  27.528  1.00  0.00     0.010 A 
ATOM     48  C   UNL A   1      37.637  29.398  29.908  1.00  0.00     0.010 A 
ATOM     49  C   UNL A   1      38.504  29.421  28.805  1.00  0.00    -0.014 A 
BRANCH  49  50
ATOM     50  C   UNL A   1      39.945  29.155  29.002  1.00  0.00     0.031 A 
ATOM     51  C   UNL A   1      40.517  27.819  28.631  1.00  0.00     0.074 A 
ATOM     52  C   UNL A   1      40.720  30.109  29.554  1.00  0.00     0.049 A 
ATOM     53  N   UNL A   1      41.750  27.397  28.731  1.00  0.00    -0.248 NA
ATOM     54  C   UNL A   1      39.577  26.815  28.101  1.00  0.00     0.031 C 
ATOM     55  C   UNL A   1      40.260  31.428  29.998  1.00  0.00     0.029 A 
ATOM     56  N   UNL A   1      42.063  30.118  29.829  1.00  0.00    -0.354 N 
ATOM     57  C   UNL A   1      41.730  26.079  28.292  1.00  0.00     0.074 A 
ATOM     58  C   UNL A   1      40.357  25.752  27.983  1.00  0.00     0.031 C 
ATOM     59  C   UNL A   1      41.311  32.135  30.442  1.00  0.00     0.029 A 
ATOM     60  C   UNL A   1      42.508  31.305  30.360  1.00  0.00     0.049 A 
ATOM     61  H   UNL A   1      42.653  29.348  29.661  1.00  0.00     0.167 HD
ATOM     62  C   UNL A   1      42.769  25.226  28.138  1.00  0.00     0.031 A 
ATOM     63  C   UNL A   1      43.743  31.680  30.737  1.00  0.00     0.031 A 
ATOM     64  C   UNL A   1      44.133  25.564  28.442  1.00  0.00     0.049 A 
ATOM     65  C   UNL A   1      44.876  30.705  30.573  1.00  0.00     0.074 A 
ATOM     66  C   UNL A   1      45.268  24.794  28.272  1.00  0.00     0.029 A 
ATOM     67  N   UNL A   1      44.541  26.771  28.988  1.00  0.00    -0.354 N 
ATOM     68  N   UNL A   1      44.855  29.490  30.082  1.00  0.00    -0.248 NA
ATOM     69  C   UNL A   1      46.203  31.159  31.006  1.00  0.00     0.031 C 
ATOM     70  C   UNL A   1      46.359  25.514  28.771  1.00  0.00     0.029 A 
ATOM     71  C   UNL A   1      45.911  26.757  29.190  1.00  0.00     0.049 A 
ATOM     72  H   UNL A   1      43.947  27.527  29.201  1.00  0.00     0.167 HD
ATOM     73  C   UNL A   1      46.170  29.044  30.118  1.00  0.00     0.074 A 
ATOM     74  C   UNL A   1      46.962  30.128  30.663  1.00  0.00     0.031 C 
ATOM     75  C   UNL A   1      46.677  27.848  29.735  1.00  0.00     0.031 A 
BRANCH  62  76
ATOM     76  C   UNL A   1      42.460  23.846  27.631  1.00  0.00    -0.014 A 
ATOM     77  C   UNL A   1      42.070  22.817  28.506  1.00  0.00     0.009 A 
ATOM     78  C   UNL A   1      42.538  23.574  26.258  1.00  0.00     0.009 A 
ATOM     79  C   UNL A   1      41.805  21.536  28.017  1.00  0.00     0.001 A 
ATOM     80  C   UNL A   1      42.241  22.301  25.769  1.00  0.00     0.001 A 
ATOM     81  C   UNL A   1      41.885  21.280  26.649  1.00  0.00     0.000 A 
ENDBRANCH  62  76
BRANCH  63  82
ATOM     82  C   UNL A   1      43.979  33.041  31.288  1.00  0.00    -0.014 A 
ATOM     83  C   UNL A   1      44.030  33.250  32.675  1.00  0.00     0.009 A 
ATOM     84  C   UNL A   1      44.147  34.140  30.432  1.00  0.00     0.009 A 
ATOM     85  C   UNL A   1      44.210  34.535  33.192  1.00  0.00     0.001 A 
ATOM     86  C   UNL A   1      44.360  35.420  30.952  1.00  0.00     0.001 A 
ATOM     87  C   UNL A   1      44.379  35.618  32.330  1.00  0.00     0.000 A 
ENDBRANCH  63  82
BRANCH  75  88
ATOM     88  C   UNL A   1      48.164  27.663  29.857  1.00  0.00    -0.014 A 
ATOM     89  C   UNL A   1      48.751  27.221  31.052  1.00  0.00     0.009 A 
ATOM     90  C   UNL A   1      48.983  27.896  28.740  1.00  0.00     0.009 A 
ATOM     91  C   UNL A   1      50.134  27.050  31.137  1.00  0.00     0.001 A 
ATOM     92  C   UNL A   1      50.361  27.690  28.817  1.00  0.00     0.001 A 
ATOM     93  C   UNL A   1      50.935  27.278  30.019  1.00  0.00     0.000 A 
ENDBRANCH  75  88
ENDBRANCH  49  50
ENDBRANCH  41  44
ENDBRANCH  39  40
ENDBRANCH  38  39
ENDBRANCH  37  38
ENDBRANCH  36  37
ENDBRANCH   1  36
TORSDOF 18
ENDMDL
MODEL 2
REMARK VINA RESULT:      -8.5      0.780      5.563
REMARK SMILES O=C(CCC(=O)/[NH+]=C1\S[C@H]2CS(=O)(=O)C[C@@H]2N1c1ccc(Oc2ccccc2)cc1)NCCCCCCNC(=O)c1ccc(-c2c3nc(c(-c4ccccc4)c4ccc([nH]4)c(-c4ccccc4)c4nc(c(-c5ccccc5)c5ccc2[nH]5)C=C4)C=C3)cc1
REMARK SMILES IDX 33 1 32 2 31 3 2 4 1 5 3 7 4 8 5 9 6 10 7 11 8 12 9 14 17 15
REMARK SMILES IDX 10 16 16 17 11 18 15 19 12 20 13 21 14 22 18 23 19 24 30 25
REMARK SMILES IDX 20 26 29 27 21 28 22 29 23 30 24 31 28 32 25 33 27 34 26 35
REMARK SMILES IDX 34 36 35 37 36 38 37 39 38 40 39 41 40 43 41 44 42 45 88 46
REMARK SMILES IDX 43 47 87 48 44 49 45 50 46 51 81 52 47 53 86 54 80 55 82 56
REMARK SMILES IDX 48 57 85 58 79 59 78 60 49 62 71 63 56 64 70 65 57 66 60 67
REMARK SMILES IDX 69 68 83 69 58 70 59 71 68 73 84 74 61 75 50 76 51 77 55 78
REMARK SMILES IDX 52 79 54 80 53 81 72 82 73 83 77 84 74 85 76 86 75 87 62 88
REMARK SMILES IDX 63 89 67 90 64 91 66 92 65 93
REMARK H PARENT 31 6 7 13 38 42 82 61 60 72
REMARK Flexibility Score: inf
ROOT
ATOM      1  C   UNL A   1      33.207  35.998  29.967  1.00  0.00     0.021 C 
ENDROOT
BRANCH   1   2
ATOM      2  C   UNL A   1      33.465  35.648  31.431  1.00  0.00     0.116 C 
BRANCH   2   3
ATOM      3  N   UNL A   1      33.557  34.216  31.665  1.00  0.00    -0.356 N 
ATOM      4  C   UNL A   1      34.528  33.479  32.262  1.00  0.00     0.220 C 
ATOM      5  O   UNL A   1      34.434  32.250  32.252  1.00  0.00    -0.275 OA
ATOM      6  H   UNL A   1      32.789  33.695  31.336  1.00  0.00     0.163 HD
BRANCH   4   7
ATOM      7  C   UNL A   1      35.673  34.167  32.950  1.00  0.00     0.112 C 
BRANCH   7   8
ATOM      8  C   UNL A   1      36.739  34.837  32.097  1.00  0.00     0.138 C 
BRANCH   8   9
ATOM      9  C   UNL A   1      38.055  34.169  31.688  1.00  0.00     0.308 C 
ATOM     10  O   UNL A   1      38.594  34.547  30.646  1.00  0.00    -0.247 OA
ATOM     11  N   UNL A   1      38.606  33.151  32.422  1.00  0.00    -0.204 N 
ATOM     12  C   UNL A   1      39.069  33.321  33.612  1.00  0.00     0.319 C 
ATOM     13  H   UNL A   1      38.649  32.252  32.024  1.00  0.00     0.316 HD
ATOM     14  S   UNL A   1      38.952  34.879  34.491  1.00  0.00    -0.029 SA
ATOM     15  N   UNL A   1      39.609  32.344  34.458  1.00  0.00    -0.217 N 
ATOM     16  C   UNL A   1      39.631  34.148  35.981  1.00  0.00     0.120 C 
ATOM     17  C   UNL A   1      39.325  32.649  35.859  1.00  0.00     0.212 C 
ATOM     18  C   UNL A   1      39.096  34.528  37.336  1.00  0.00     0.156 C 
ATOM     19  C   UNL A   1      40.125  32.047  36.996  1.00  0.00     0.188 C 
ATOM     20  S   UNL A   1      39.786  33.200  38.339  1.00  0.00     0.155 S 
ATOM     21  O   UNL A   1      41.055  33.650  38.878  1.00  0.00    -0.229 OA
ATOM     22  O   UNL A   1      38.741  32.652  39.169  1.00  0.00    -0.229 OA
BRANCH  15  23
ATOM     23  C   UNL A   1      40.185  31.125  34.078  1.00  0.00     0.128 A 
ATOM     24  C   UNL A   1      41.568  30.897  34.155  1.00  0.00     0.056 A 
ATOM     25  C   UNL A   1      39.406  30.075  33.565  1.00  0.00     0.056 A 
ATOM     26  C   UNL A   1      42.158  29.736  33.637  1.00  0.00     0.051 A 
ATOM     27  C   UNL A   1      39.991  28.893  33.065  1.00  0.00     0.051 A 
ATOM     28  C   UNL A   1      41.377  28.745  33.047  1.00  0.00     0.127 A 
BRANCH  28  29
ATOM     29  O   UNL A   1      42.089  27.675  32.553  1.00  0.00    -0.457 OA
BRANCH  29  30
ATOM     30  C   UNL A   1      43.074  27.072  33.296  1.00  0.00     0.127 A 
ATOM     31  C   UNL A   1      44.153  26.554  32.582  1.00  0.00     0.047 A 
ATOM     32  C   UNL A   1      43.006  26.870  34.673  1.00  0.00     0.047 A 
ATOM     33  C   UNL A   1      45.228  25.962  33.242  1.00  0.00     0.004 A 
ATOM     34  C   UNL A   1      44.076  26.265  35.339  1.00  0.00     0.004 A 
ATOM     35  C   UNL A   1      45.197  25.834  34.628  1.00  0.00     0.000 A 
ENDBRANCH  29  30
ENDBRANCH  28  29
ENDBRANCH  15  23
ENDBRANCH   8   9
ENDBRANCH   7   8
ENDBRANCH   4   7
ENDBRANCH   2   3
ENDBRANCH   1   2
BRANCH   1  36
ATOM     36  C   UNL A   1      33.173  34.782  29.039  1.00  0.00     0.002 C 
BRANCH  36  37
ATOM     37  C   UNL A   1      34.296  34.721  28.011  1.00  0.00     0.002 C 
BRANCH  37  38
ATOM     38  C   UNL A   1      34.752  33.303  27.692  1.00  0.00     0.021 C 
BRANCH  38  39
ATOM     39  C   UNL A   1      34.763  32.381  28.906  1.00  0.00     0.116 C 
BRANCH  39  40
ATOM     40  N   UNL A   1      34.171  31.091  28.585  1.00  0.00    -0.352 N 
ATOM     41  C   UNL A   1      34.839  30.002  28.084  1.00  0.00     0.251 C 
ATOM     42  H   UNL A   1      33.204  30.990  28.742  1.00  0.00     0.163 HD
ATOM     43  O   UNL A   1      34.283  29.174  27.373  1.00  0.00    -0.269 OA
BRANCH  41  44
ATOM     44  C   UNL A   1      36.279  29.872  28.363  1.00  0.00     0.039 A 
ATOM     45  C   UNL A   1      36.667  29.362  29.601  1.00  0.00     0.014 A 
ATOM     46  C   UNL A   1      37.225  30.170  27.378  1.00  0.00     0.014 A 
ATOM     47  C   UNL A   1      38.006  29.057  29.817  1.00  0.00     0.010 A 
ATOM     48  C   UNL A   1      38.539  29.769  27.557  1.00  0.00     0.010 A 
ATOM     49  C   UNL A   1      38.938  29.205  28.779  1.00  0.00    -0.014 A 
BRANCH  49  50
ATOM     50  C   UNL A   1      40.335  28.754  28.955  1.00  0.00     0.031 A 
ATOM     51  C   UNL A   1      41.354  29.685  29.542  1.00  0.00     0.074 A 
ATOM     52  C   UNL A   1      40.683  27.518  28.545  1.00  0.00     0.049 A 
ATOM     53  N   UNL A   1      42.623  29.474  29.772  1.00  0.00    -0.248 NA
ATOM     54  C   UNL A   1      40.894  31.039  29.894  1.00  0.00     0.031 C 
ATOM     55  C   UNL A   1      39.785  26.546  27.916  1.00  0.00     0.029 A 
ATOM     56  N   UNL A   1      41.887  26.865  28.604  1.00  0.00    -0.354 N 
ATOM     57  C   UNL A   1      43.114  30.669  30.279  1.00  0.00     0.074 A 
ATOM     58  C   UNL A   1      42.024  31.619  30.268  1.00  0.00     0.031 C 
ATOM     59  C   UNL A   1      40.457  25.405  27.693  1.00  0.00     0.029 A 
ATOM     60  C   UNL A   1      41.841  25.581  28.118  1.00  0.00     0.049 A 
ATOM     61  H   UNL A   1      42.707  27.277  28.960  1.00  0.00     0.167 HD
ATOM     62  C   UNL A   1      44.357  30.944  30.737  1.00  0.00     0.031 A 
ATOM     63  C   UNL A   1      42.808  24.651  28.027  1.00  0.00     0.031 A 
ATOM     64  C   UNL A   1      45.433  29.990  30.750  1.00  0.00     0.049 A 
ATOM     65  C   UNL A   1      44.185  24.989  28.525  1.00  0.00     0.074 A 
ATOM     66  C   UNL A   1      46.716  30.148  31.242  1.00  0.00     0.029 A 
ATOM     67  N   UNL A   1      45.350  28.704  30.240  1.00  0.00    -0.354 N 
ATOM     68  N   UNL A   1      44.615  26.098  29.077  1.00  0.00    -0.248 NA
ATOM     69  C   UNL A   1      45.207  23.942  28.397  1.00  0.00     0.031 C 
ATOM     70  C   UNL A   1      47.428  28.974  30.975  1.00  0.00     0.029 A 
ATOM     71  C   UNL A   1      46.570  28.064  30.378  1.00  0.00     0.049 A 
ATOM     72  H   UNL A   1      44.544  28.304  29.840  1.00  0.00     0.167 HD
ATOM     73  C   UNL A   1      45.950  25.873  29.390  1.00  0.00     0.074 A 
ATOM     74  C   UNL A   1      46.250  24.516  28.982  1.00  0.00     0.031 C 
ATOM     75  C   UNL A   1      46.845  26.712  29.963  1.00  0.00     0.031 A 
BRANCH  62  76
ATOM     76  C   UNL A   1      44.615  32.335  31.245  1.00  0.00    -0.014 A 
ATOM     77  C   UNL A   1      44.418  32.668  32.595  1.00  0.00     0.009 A 
ATOM     78  C   UNL A   1      45.082  33.322  30.365  1.00  0.00     0.009 A 
ATOM     79  C   UNL A   1      44.645  33.971  33.043  1.00  0.00     0.001 A 
ATOM     80  C   UNL A   1      45.340  34.615  30.822  1.00  0.00     0.001 A 
ATOM     81  C   UNL A   1      45.111  34.942  32.158  1.00  0.00     0.000 A 
ENDBRANCH  62  76
BRANCH  63  82
ATOM     82  C   UNL A   1      42.508  23.309  27.461  1.00  0.00    -0.014 A 
ATOM     83  C   UNL A   1      41.674  22.414  28.149  1.00  0.00     0.009 A 
ATOM     84  C   UNL A   1      43.061  22.910  26.234  1.00  0.00     0.009 A 
ATOM     85  C   UNL A   1      41.426  21.138  27.637  1.00  0.00     0.001 A 
ATOM     86  C   UNL A   1      42.785  21.646  25.707  1.00  0.00     0.001 A 
ATOM     87  C   UNL A   1      41.978  20.757  26.414  1.00  0.00     0.000 A 
ENDBRANCH  63  82
BRANCH  75  88
ATOM     88  C   UNL A   1      48.225  26.172  30.218  1.00  0.00    -0.014 A 
ATOM     89  C   UNL A   1      49.206  26.168  29.215  1.00  0.00     0.009 A 
ATOM     90  C   UNL A   1      48.556  25.700  31.498  1.00  0.00     0.009 A 
ATOM     91  C   UNL A   1      50.482  25.668  29.479  1.00  0.00     0.001 A 
ATOM     92  C   UNL A   1      49.843  25.233  31.769  1.00  0.00     0.001 A 
ATOM     93  C   UNL A   1      50.800  25.207  30.756  1.00  0.00     0.000 A 
ENDBRANCH  75  88
ENDBRANCH  49  50
ENDBRANCH  41  44
ENDBRANCH  39  40
ENDBRANCH  38  39
ENDBRANCH  37  38
ENDBRANCH  36  37
ENDBRANCH   1  36
TORSDOF 18
ENDMDL
MODEL 3
REMARK VINA RESULT:      -8.5      4.339      8.908
REMARK SMILES O=C(CCC(=O)/[NH+]=C1\S[C@H]2CS(=O)(=O)C[C@@H]2N1c1ccc(Oc2ccccc2)cc1)NCCCCCCNC(=O)c1ccc(-c2c3nc(c(-c4ccccc4)c4ccc([nH]4)c(-c4ccccc4)c4nc(c(-c5ccccc5)c5ccc2[nH]5)C=C4)C=C3)cc1
REMARK SMILES IDX 33 1 32 2 31 3 2 4 1 5 3 7 4 8 5 9 6 10 7 11 8 12 9 14 17 15
REMARK SMILES IDX 10 16 16 17 11 18 15 19 12 20 13 21 14 22 18 23 19 24 30 25
REMARK SMILES IDX 20 26 29 27 21 28 22 29 23 30 24 31 28 32 25 33 27 34 26 35
REMARK SMILES IDX 34 36 35 37 36 38 37 39 38 40 39 41 40 43 41 44 42 45 88 46
REMARK SMILES IDX 43 47 87 48 44 49 45 50 46 51 81 52 47 53 86 54 80 55 82 56
REMARK SMILES IDX 48 57 85 58 79 59 78 60 49 62 71 63 56 64 70 65 57 66 60 67
REMARK SMILES IDX 69 68 83 69 58 70 59 71 68 73 84 74 61 75 50 76 51 77 55 78
REMARK SMILES IDX 52 79 54 80 53 81 72 82 73 83 77 84 74 85 76 86 75 87 62 88
REMARK SMILES IDX 63 89 67 90 64 91 66 92 65 93
REMARK H PARENT 31 6 7 13 38 42 82 61 60 72
REMARK Flexibility Score: inf
ROOT
ATOM      1  C   UNL A   1      40.643  29.647  28.388  1.00  0.00     0.021 C 
ENDROOT
BRANCH   1   2
ATOM      2  C   UNL A   1      39.885  30.269  29.559  1.00  0.00     0.116 C 
BRANCH   2   3
ATOM      3  N   UNL A   1      39.973  29.479  30.776  1.00  0.00    -0.356 N 
ATOM      4  C   UNL A   1      39.808  29.836  32.075  1.00  0.00     0.220 C 
ATOM      5  O   UNL A   1      40.039  29.005  32.956  1.00  0.00    -0.275 OA
ATOM      6  H   UNL A   1      40.189  28.529  30.636  1.00  0.00     0.163 HD
BRANCH   4   7
ATOM      7  C   UNL A   1      39.317  31.215  32.415  1.00  0.00     0.112 C 
BRANCH   7   8
ATOM      8  C   UNL A   1      37.817  31.453  32.506  1.00  0.00     0.138 C 
BRANCH   8   9
ATOM      9  C   UNL A   1      36.762  30.505  31.928  1.00  0.00     0.308 C 
ATOM     10  O   UNL A   1      36.467  29.504  32.583  1.00  0.00    -0.247 OA
ATOM     11  N   UNL A   1      36.186  30.727  30.705  1.00  0.00    -0.204 N 
ATOM     12  C   UNL A   1      35.409  31.728  30.471  1.00  0.00     0.319 C 
ATOM     13  H   UNL A   1      36.375  30.096  29.973  1.00  0.00     0.316 HD
ATOM     14  S   UNL A   1      35.072  33.005  31.682  1.00  0.00    -0.029 SA
ATOM     15  N   UNL A   1      34.808  32.066  29.252  1.00  0.00    -0.217 N 
ATOM     16  C   UNL A   1      34.136  33.961  30.488  1.00  0.00     0.120 C 
ATOM     17  C   UNL A   1      34.670  33.515  29.121  1.00  0.00     0.212 C 
ATOM     18  C   UNL A   1      34.238  35.463  30.456  1.00  0.00     0.156 C 
ATOM     19  C   UNL A   1      33.693  34.150  28.153  1.00  0.00     0.188 C 
ATOM     20  S   UNL A   1      33.503  35.803  28.847  1.00  0.00     0.155 S 
ATOM     21  O   UNL A   1      32.087  36.051  29.038  1.00  0.00    -0.229 OA
ATOM     22  O   UNL A   1      34.360  36.711  28.125  1.00  0.00    -0.229 OA
BRANCH  15  23
ATOM     23  C   UNL A   1      34.528  31.205  28.182  1.00  0.00     0.128 A 
ATOM     24  C   UNL A   1      33.260  31.147  27.584  1.00  0.00     0.056 A 
ATOM     25  C   UNL A   1      35.500  30.328  27.675  1.00  0.00     0.056 A 
ATOM     26  C   UNL A   1      32.940  30.184  26.617  1.00  0.00     0.051 A 
ATOM     27  C   UNL A   1      35.192  29.374  26.683  1.00  0.00     0.051 A 
ATOM     28  C   UNL A   1      33.892  29.260  26.192  1.00  0.00     0.127 A 
BRANCH  28  29
ATOM     29  O   UNL A   1      33.434  28.354  25.263  1.00  0.00    -0.457 OA
BRANCH  29  30
ATOM     30  C   UNL A   1      33.154  27.056  25.613  1.00  0.00     0.127 A 
ATOM     31  C   UNL A   1      31.879  26.819  26.126  1.00  0.00     0.047 A 
ATOM     32  C   UNL A   1      34.079  26.016  25.578  1.00  0.00     0.047 A 
ATOM     33  C   UNL A   1      31.476  25.530  26.470  1.00  0.00     0.004 A 
ATOM     34  C   UNL A   1      33.684  24.723  25.935  1.00  0.00     0.004 A 
ATOM     35  C   UNL A   1      32.377  24.475  26.357  1.00  0.00     0.000 A 
ENDBRANCH  29  30
ENDBRANCH  28  29
ENDBRANCH  15  23
ENDBRANCH   8   9
ENDBRANCH   7   8
ENDBRANCH   4   7
ENDBRANCH   2   3
ENDBRANCH   1   2
BRANCH   1  36
ATOM     36  C   UNL A   1      39.849  28.574  27.639  1.00  0.00     0.002 C 
BRANCH  36  37
ATOM     37  C   UNL A   1      40.686  27.631  26.783  1.00  0.00     0.002 C 
BRANCH  37  38
ATOM     38  C   UNL A   1      40.152  26.203  26.753  1.00  0.00     0.021 C 
BRANCH  38  39
ATOM     39  C   UNL A   1      40.626  25.353  27.927  1.00  0.00     0.116 C 
BRANCH  39  40
ATOM     40  N   UNL A   1      40.958  24.006  27.493  1.00  0.00    -0.352 N 
ATOM     41  C   UNL A   1      41.984  23.664  26.647  1.00  0.00     0.251 C 
ATOM     42  H   UNL A   1      40.397  23.273  27.835  1.00  0.00     0.163 HD
ATOM     43  O   UNL A   1      41.923  22.676  25.925  1.00  0.00    -0.269 OA
BRANCH  41  44
ATOM     44  C   UNL A   1      43.155  24.552  26.569  1.00  0.00     0.039 A 
ATOM     45  C   UNL A   1      43.438  25.168  25.351  1.00  0.00     0.014 A 
ATOM     46  C   UNL A   1      43.911  24.835  27.711  1.00  0.00     0.014 A 
ATOM     47  C   UNL A   1      44.421  26.148  25.300  1.00  0.00     0.010 A 
ATOM     48  C   UNL A   1      44.816  25.884  27.682  1.00  0.00     0.010 A 
ATOM     49  C   UNL A   1      45.075  26.551  26.475  1.00  0.00    -0.014 A 
BRANCH  49  50
ATOM     50  C   UNL A   1      46.021  27.687  26.454  1.00  0.00     0.031 A 
ATOM     51  C   UNL A   1      47.493  27.432  26.319  1.00  0.00     0.074 A 
ATOM     52  C   UNL A   1      45.548  28.940  26.599  1.00  0.00     0.049 A 
ATOM     53  N   UNL A   1      48.476  28.293  26.284  1.00  0.00    -0.248 NA
ATOM     54  C   UNL A   1      47.921  26.025  26.238  1.00  0.00     0.031 C 
ATOM     55  C   UNL A   1      44.139  29.301  26.787  1.00  0.00     0.029 A 
ATOM     56  N   UNL A   1      46.201  30.145  26.605  1.00  0.00    -0.354 N 
ATOM     57  C   UNL A   1      49.635  27.533  26.193  1.00  0.00     0.074 A 
ATOM     58  C   UNL A   1      49.240  26.144  26.238  1.00  0.00     0.031 C 
ATOM     59  C   UNL A   1      44.030  30.638  26.838  1.00  0.00     0.029 A 
ATOM     60  C   UNL A   1      45.361  31.225  26.736  1.00  0.00     0.049 A 
ATOM     61  H   UNL A   1      47.178  30.229  26.522  1.00  0.00     0.167 HD
ATOM     62  C   UNL A   1      50.913  27.957  26.058  1.00  0.00     0.031 A 
ATOM     63  C   UNL A   1      45.637  32.541  26.769  1.00  0.00     0.031 A 
ATOM     64  C   UNL A   1      51.294  29.342  26.007  1.00  0.00     0.049 A 
ATOM     65  C   UNL A   1      47.067  32.983  26.637  1.00  0.00     0.074 A 
ATOM     66  C   UNL A   1      52.553  29.881  25.819  1.00  0.00     0.029 A 
ATOM     67  N   UNL A   1      50.417  30.406  26.154  1.00  0.00    -0.354 N 
ATOM     68  N   UNL A   1      48.145  32.256  26.471  1.00  0.00    -0.248 NA
ATOM     69  C   UNL A   1      47.317  34.430  26.687  1.00  0.00     0.031 C 
ATOM     70  C   UNL A   1      52.447  31.272  25.911  1.00  0.00     0.029 A 
ATOM     71  C   UNL A   1      51.112  31.601  26.091  1.00  0.00     0.049 A 
ATOM     72  H   UNL A   1      49.444  30.324  26.284  1.00  0.00     0.167 HD
ATOM     73  C   UNL A   1      49.198  33.156  26.366  1.00  0.00     0.074 A 
ATOM     74  C   UNL A   1      48.623  34.482  26.469  1.00  0.00     0.031 C 
ATOM     75  C   UNL A   1      50.519  32.909  26.198  1.00  0.00     0.031 A 
BRANCH  62  76
ATOM     76  C   UNL A   1      51.983  26.906  25.972  1.00  0.00    -0.014 A 
ATOM     77  C   UNL A   1      52.327  26.312  24.746  1.00  0.00     0.009 A 
ATOM     78  C   UNL A   1      52.674  26.519  27.130  1.00  0.00     0.009 A 
ATOM     79  C   UNL A   1      53.312  25.324  24.690  1.00  0.00     0.001 A 
ATOM     80  C   UNL A   1      53.681  25.554  27.066  1.00  0.00     0.001 A 
ATOM     81  C   UNL A   1      53.992  24.950  25.849  1.00  0.00     0.000 A 
ENDBRANCH  62  76
BRANCH  63  82
ATOM     82  C   UNL A   1      44.540  33.534  26.916  1.00  0.00    -0.014 A 
ATOM     83  C   UNL A   1      44.065  33.890  28.188  1.00  0.00     0.009 A 
ATOM     84  C   UNL A   1      43.954  34.126  25.786  1.00  0.00     0.009 A 
ATOM     85  C   UNL A   1      43.007  34.792  28.323  1.00  0.00     0.001 A 
ATOM     86  C   UNL A   1      42.918  35.052  25.925  1.00  0.00     0.001 A 
ATOM     87  C   UNL A   1      42.437  35.375  27.192  1.00  0.00     0.000 A 
ENDBRANCH  63  82
BRANCH  75  88
ATOM     88  C   UNL A   1      51.429  34.100  26.078  1.00  0.00    -0.014 A 
ATOM     89  C   UNL A   1      52.076  34.643  27.198  1.00  0.00     0.009 A 
ATOM     90  C   UNL A   1      51.673  34.658  24.812  1.00  0.00     0.009 A 
ATOM     91  C   UNL A   1      52.922  35.744  27.058  1.00  0.00     0.001 A 
ATOM     92  C   UNL A   1      52.546  35.737  24.671  1.00  0.00     0.001 A 
ATOM     93  C   UNL A   1      53.161  36.285  25.796  1.00  0.00     0.000 A 
ENDBRANCH  75  88
ENDBRANCH  49  50
ENDBRANCH  41  44
ENDBRANCH  39  40
ENDBRANCH  38  39
ENDBRANCH  37  38
ENDBRANCH  36  37
ENDBRANCH   1  36
TORSDOF 18
ENDMDL
