MODEL 1
REMARK VINA RESULT:     -10.2      0.000      0.000
REMARK SMILES CC1(C)[C@H](C#N)C(SCC(=O)NCCCCCCNC(=O)c2ccc(-c3c4nc(c(-c5ccccc5)c5ccc([nH]5)c(-c5ccccc5)c5nc(c(-c6ccccc6)c6ccc3[nH]6)C=C5)C=C4)cc2)=NC(=O)[C@@H]1C#N
REMARK SMILES IDX 15 1 14 2 13 3 12 4 10 5 11 6 9 8 8 9 7 10 1 11 2 12 3 13
REMARK SMILES IDX 4 14 73 15 71 16 70 17 72 18 5 19 6 20 74 21 75 22 16 23
REMARK SMILES IDX 17 24 18 25 19 26 20 27 21 29 22 30 23 31 69 32 24 33 68 34
REMARK SMILES IDX 25 35 26 36 27 37 62 38 28 39 67 40 61 41 63 42 29 43 66 44
REMARK SMILES IDX 60 45 59 46 30 48 52 49 37 50 51 51 38 52 41 53 50 54 64 55
REMARK SMILES IDX 39 56 40 57 49 59 65 60 42 61 31 62 32 63 36 64 33 65 35 66
REMARK SMILES IDX 34 67 53 68 54 69 58 70 55 71 57 72 56 73 43 74 44 75 48 76
REMARK SMILES IDX 45 77 47 78 46 79
REMARK H PARENT 12 7 19 28 63 47 41 58
REMARK Flexibility Score: inf
ROOT
ATOM      1  C   UNL A   1      35.845  22.284  24.365  1.00  0.00     0.002 C 
ENDROOT
BRANCH   1   2
ATOM      2  C   UNL A   1      36.123  23.538  25.206  1.00  0.00     0.021 C 
BRANCH   2   3
ATOM      3  C   UNL A   1      34.900  24.448  25.356  1.00  0.00     0.116 C 
BRANCH   3   4
ATOM      4  N   UNL A   1      34.054  23.983  26.437  1.00  0.00    -0.355 N 
ATOM      5  C   UNL A   1      32.860  23.325  26.410  1.00  0.00     0.230 C 
ATOM      6  O   UNL A   1      32.340  23.056  27.495  1.00  0.00    -0.274 OA
ATOM      7  H   UNL A   1      34.398  24.173  27.340  1.00  0.00     0.163 HD
BRANCH   5   8
ATOM      8  C   UNL A   1      32.263  22.841  25.106  1.00  0.00     0.176 C 
BRANCH   8   9
ATOM      9  S   UNL A   1      30.723  23.656  24.643  1.00  0.00    -0.099 SA
BRANCH   9  10
ATOM     10  C   UNL A   1      31.238  25.095  23.767  1.00  0.00     0.095 C 
ATOM     11  C   UNL A   1      29.762  28.210  22.692  1.00  0.00     0.015 C 
ATOM     12  C   UNL A   1      30.992  27.683  23.482  1.00  0.00     0.012 C 
ATOM     13  C   UNL A   1      31.305  28.854  24.488  1.00  0.00     0.015 C 
ATOM     14  C   UNL A   1      30.545  26.353  24.215  1.00  0.00     0.156 C 
ATOM     15  C   UNL A   1      32.178  27.484  22.478  1.00  0.00     0.191 C 
ATOM     16  C   UNL A   1      32.602  26.064  22.145  1.00  0.00     0.264 C 
ATOM     17  N   UNL A   1      32.141  24.996  22.864  1.00  0.00    -0.209 NA
ATOM     18  O   UNL A   1      33.383  25.886  21.213  1.00  0.00    -0.271 OA
BRANCH  14  19
ATOM     19  C   UNL A   1      30.920  26.507  25.680  1.00  0.00     0.073 C 
ATOM     20  N   UNL A   1      31.229  26.635  26.896  1.00  0.00    -0.198 NA
ENDBRANCH  14  19
BRANCH  15  21
ATOM     21  C   UNL A   1      33.406  28.226  22.822  1.00  0.00     0.076 C 
ATOM     22  N   UNL A   1      34.405  28.779  23.045  1.00  0.00    -0.197 NA
ENDBRANCH  15  21
ENDBRANCH   9  10
ENDBRANCH   8   9
ENDBRANCH   5   8
ENDBRANCH   3   4
ENDBRANCH   2   3
ENDBRANCH   1   2
BRANCH   1  23
ATOM     23  C   UNL A   1      36.010  20.963  25.123  1.00  0.00     0.002 C 
BRANCH  23  24
ATOM     24  C   UNL A   1      37.290  20.196  24.784  1.00  0.00     0.021 C 
BRANCH  24  25
ATOM     25  C   UNL A   1      38.527  20.704  25.512  1.00  0.00     0.116 C 
BRANCH  25  26
ATOM     26  N   UNL A   1      39.541  19.670  25.646  1.00  0.00    -0.352 N 
ATOM     27  C   UNL A   1      40.857  19.788  26.014  1.00  0.00     0.251 C 
ATOM     28  H   UNL A   1      39.240  18.755  25.442  1.00  0.00     0.163 HD
ATOM     29  O   UNL A   1      41.630  18.848  25.859  1.00  0.00    -0.269 OA
BRANCH  27  30
ATOM     30  C   UNL A   1      41.344  21.061  26.581  1.00  0.00     0.039 A 
ATOM     31  C   UNL A   1      41.903  22.014  25.727  1.00  0.00     0.014 A 
ATOM     32  C   UNL A   1      41.242  21.317  27.952  1.00  0.00     0.014 A 
ATOM     33  C   UNL A   1      42.306  23.246  26.241  1.00  0.00     0.010 A 
ATOM     34  C   UNL A   1      41.561  22.577  28.445  1.00  0.00     0.010 A 
ATOM     35  C   UNL A   1      42.103  23.552  27.597  1.00  0.00    -0.014 A 
BRANCH  35  36
ATOM     36  C   UNL A   1      42.446  24.890  28.141  1.00  0.00     0.031 A 
ATOM     37  C   UNL A   1      43.858  25.202  28.554  1.00  0.00     0.074 A 
ATOM     38  C   UNL A   1      41.476  25.809  28.310  1.00  0.00     0.049 A 
ATOM     39  N   UNL A   1      44.340  26.300  29.084  1.00  0.00    -0.248 NA
ATOM     40  C   UNL A   1      44.857  24.136  28.374  1.00  0.00     0.031 C 
ATOM     41  C   UNL A   1      40.061  25.620  27.979  1.00  0.00     0.029 A 
ATOM     42  N   UNL A   1      41.532  27.088  28.804  1.00  0.00    -0.354 N 
ATOM     43  C   UNL A   1      45.688  26.051  29.306  1.00  0.00     0.074 A 
ATOM     44  C   UNL A   1      45.937  24.681  28.912  1.00  0.00     0.031 C 
ATOM     45  C   UNL A   1      39.393  26.753  28.243  1.00  0.00     0.029 A 
ATOM     46  C   UNL A   1      40.315  27.729  28.812  1.00  0.00     0.049 A 
ATOM     47  H   UNL A   1      42.364  27.507  29.123  1.00  0.00     0.167 HD
ATOM     48  C   UNL A   1      46.640  26.892  29.776  1.00  0.00     0.031 A 
ATOM     49  C   UNL A   1      39.978  28.960  29.240  1.00  0.00     0.031 A 
ATOM     50  C   UNL A   1      46.389  28.253  30.174  1.00  0.00     0.049 A 
ATOM     51  C   UNL A   1      41.046  29.858  29.803  1.00  0.00     0.074 A 
ATOM     52  C   UNL A   1      47.295  29.198  30.619  1.00  0.00     0.029 A 
ATOM     53  N   UNL A   1      45.141  28.856  30.184  1.00  0.00    -0.354 N 
ATOM     54  N   UNL A   1      42.329  29.633  29.940  1.00  0.00    -0.248 NA
ATOM     55  C   UNL A   1      40.616  31.186  30.262  1.00  0.00     0.031 C 
ATOM     56  C   UNL A   1      46.585  30.350  30.972  1.00  0.00     0.029 A 
ATOM     57  C   UNL A   1      45.248  30.151  30.666  1.00  0.00     0.049 A 
ATOM     58  H   UNL A   1      44.304  28.428  29.893  1.00  0.00     0.167 HD
ATOM     59  C   UNL A   1      42.866  30.801  30.468  1.00  0.00     0.074 A 
ATOM     60  C   UNL A   1      41.770  31.738  30.607  1.00  0.00     0.031 C 
ATOM     61  C   UNL A   1      44.151  31.074  30.803  1.00  0.00     0.031 A 
BRANCH  48  62
ATOM     62  C   UNL A   1      48.040  26.355  29.906  1.00  0.00    -0.014 A 
ATOM     63  C   UNL A   1      48.960  26.440  28.847  1.00  0.00     0.009 A 
ATOM     64  C   UNL A   1      48.459  25.786  31.120  1.00  0.00     0.009 A 
ATOM     65  C   UNL A   1      50.252  25.930  28.988  1.00  0.00     0.001 A 
ATOM     66  C   UNL A   1      49.763  25.312  31.270  1.00  0.00     0.001 A 
ATOM     67  C   UNL A   1      50.655  25.372  30.201  1.00  0.00     0.000 A 
ENDBRANCH  48  62
BRANCH  49  68
ATOM     68  C   UNL A   1      38.566  29.422  29.153  1.00  0.00    -0.014 A 
ATOM     69  C   UNL A   1      38.086  30.047  27.992  1.00  0.00     0.009 A 
ATOM     70  C   UNL A   1      37.694  29.257  30.241  1.00  0.00     0.009 A 
ATOM     71  C   UNL A   1      36.776  30.528  27.934  1.00  0.00     0.001 A 
ATOM     72  C   UNL A   1      36.373  29.705  30.167  1.00  0.00     0.001 A 
ATOM     73  C   UNL A   1      35.920  30.353  29.020  1.00  0.00     0.000 A 
ENDBRANCH  49  68
BRANCH  61  74
ATOM     74  C   UNL A   1      44.454  32.458  31.313  1.00  0.00    -0.014 A 
ATOM     75  C   UNL A   1      44.419  32.763  32.683  1.00  0.00     0.009 A 
ATOM     76  C   UNL A   1      44.819  33.463  30.403  1.00  0.00     0.009 A 
ATOM     77  C   UNL A   1      44.704  34.057  33.125  1.00  0.00     0.001 A 
ATOM     78  C   UNL A   1      45.142  34.745  30.852  1.00  0.00     0.001 A 
ATOM     79  C   UNL A   1      45.071  35.043  32.211  1.00  0.00     0.000 A 
ENDBRANCH  61  74
ENDBRANCH  35  36
ENDBRANCH  27  30
ENDBRANCH  25  26
ENDBRANCH  24  25
ENDBRANCH  23  24
ENDBRANCH   1  23
TORSDOF 17
ENDMDL
MODEL 2
REMARK VINA RESULT:     -10.0      1.439      6.239
REMARK SMILES CC1(C)[C@H](C#N)C(SCC(=O)NCCCCCCNC(=O)c2ccc(-c3c4nc(c(-c5ccccc5)c5ccc([nH]5)c(-c5ccccc5)c5nc(c(-c6ccccc6)c6ccc3[nH]6)C=C5)C=C4)cc2)=NC(=O)[C@@H]1C#N
REMARK SMILES IDX 15 1 14 2 13 3 12 4 10 5 11 6 9 8 8 9 7 10 1 11 2 12 3 13
REMARK SMILES IDX 4 14 73 15 71 16 70 17 72 18 5 19 6 20 74 21 75 22 16 23
REMARK SMILES IDX 17 24 18 25 19 26 20 27 21 29 22 30 23 31 69 32 24 33 68 34
REMARK SMILES IDX 25 35 26 36 27 37 62 38 28 39 67 40 61 41 63 42 29 43 66 44
REMARK SMILES IDX 60 45 59 46 30 48 52 49 37 50 51 51 38 52 41 53 50 54 64 55
REMARK SMILES IDX 39 56 40 57 49 59 65 60 42 61 31 62 32 63 36 64 33 65 35 66
REMARK SMILES IDX 34 67 53 68 54 69 58 70 55 71 57 72 56 73 43 74 44 75 48 76
REMARK SMILES IDX 45 77 47 78 46 79
REMARK H PARENT 12 7 19 28 63 47 41 58
REMARK Flexibility Score: inf
ROOT
ATOM      1  C   UNL A   1      35.804  21.842  25.484  1.00  0.00     0.002 C 
ENDROOT
BRANCH   1   2
ATOM      2  C   UNL A   1      35.007  21.834  26.796  1.00  0.00     0.021 C 
BRANCH   2   3
ATOM      3  C   UNL A   1      33.506  22.054  26.592  1.00  0.00     0.116 C 
BRANCH   3   4
ATOM      4  N   UNL A   1      32.875  20.834  26.128  1.00  0.00    -0.355 N 
ATOM      5  C   UNL A   1      32.522  20.439  24.872  1.00  0.00     0.230 C 
ATOM      6  O   UNL A   1      31.979  19.339  24.758  1.00  0.00    -0.274 OA
ATOM      7  H   UNL A   1      32.668  20.183  26.836  1.00  0.00     0.163 HD
BRANCH   5   8
ATOM      8  C   UNL A   1      32.892  21.266  23.659  1.00  0.00     0.176 C 
BRANCH   8   9
ATOM      9  S   UNL A   1      31.583  22.359  23.073  1.00  0.00    -0.099 SA
BRANCH   9  10
ATOM     10  C   UNL A   1      31.765  23.816  24.049  1.00  0.00     0.095 C 
ATOM     11  C   UNL A   1      34.447  25.571  25.711  1.00  0.00     0.015 C 
ATOM     12  C   UNL A   1      33.300  25.832  24.696  1.00  0.00     0.012 C 
ATOM     13  C   UNL A   1      33.857  27.013  23.817  1.00  0.00     0.015 C 
ATOM     14  C   UNL A   1      33.093  24.499  23.867  1.00  0.00     0.156 C 
ATOM     15  C   UNL A   1      32.029  26.285  25.492  1.00  0.00     0.191 C 
ATOM     16  C   UNL A   1      30.858  25.322  25.576  1.00  0.00     0.264 C 
ATOM     17  N   UNL A   1      30.800  24.201  24.797  1.00  0.00    -0.209 NA
ATOM     18  O   UNL A   1      29.944  25.574  26.360  1.00  0.00    -0.271 OA
BRANCH  14  19
ATOM     19  C   UNL A   1      33.141  24.881  22.396  1.00  0.00     0.073 C 
ATOM     20  N   UNL A   1      33.182  25.198  21.177  1.00  0.00    -0.198 NA
ENDBRANCH  14  19
BRANCH  15  21
ATOM     21  C   UNL A   1      31.479  27.591  25.079  1.00  0.00     0.076 C 
ATOM     22  N   UNL A   1      30.992  28.607  24.789  1.00  0.00    -0.197 NA
ENDBRANCH  15  21
ENDBRANCH   9  10
ENDBRANCH   8   9
ENDBRANCH   5   8
ENDBRANCH   3   4
ENDBRANCH   2   3
ENDBRANCH   1   2
BRANCH   1  23
ATOM     23  C   UNL A   1      36.244  20.457  25.001  1.00  0.00     0.002 C 
BRANCH  23  24
ATOM     24  C   UNL A   1      37.724  20.360  24.623  1.00  0.00     0.021 C 
BRANCH  24  25
ATOM     25  C   UNL A   1      38.675  20.572  25.793  1.00  0.00     0.116 C 
BRANCH  25  26
ATOM     26  N   UNL A   1      39.689  19.531  25.862  1.00  0.00    -0.352 N 
ATOM     27  C   UNL A   1      41.031  19.644  26.121  1.00  0.00     0.251 C 
ATOM     28  H   UNL A   1      39.366  18.615  25.700  1.00  0.00     0.163 HD
ATOM     29  O   UNL A   1      41.783  18.696  25.921  1.00  0.00    -0.269 OA
BRANCH  27  30
ATOM     30  C   UNL A   1      41.572  20.923  26.625  1.00  0.00     0.039 A 
ATOM     31  C   UNL A   1      42.000  21.885  25.709  1.00  0.00     0.014 A 
ATOM     32  C   UNL A   1      41.648  21.173  27.998  1.00  0.00     0.014 A 
ATOM     33  C   UNL A   1      42.451  23.122  26.171  1.00  0.00     0.010 A 
ATOM     34  C   UNL A   1      42.012  22.436  28.451  1.00  0.00     0.010 A 
ATOM     35  C   UNL A   1      42.424  23.422  27.543  1.00  0.00    -0.014 A 
BRANCH  35  36
ATOM     36  C   UNL A   1      42.818  24.763  28.043  1.00  0.00     0.031 A 
ATOM     37  C   UNL A   1      41.776  25.819  28.288  1.00  0.00     0.074 A 
ATOM     38  C   UNL A   1      44.122  25.048  28.227  1.00  0.00     0.049 A 
ATOM     39  N   UNL A   1      41.933  27.057  28.686  1.00  0.00    -0.248 NA
ATOM     40  C   UNL A   1      40.375  25.445  28.029  1.00  0.00     0.031 C 
ATOM     41  C   UNL A   1      45.233  24.122  27.994  1.00  0.00     0.029 A 
ATOM     42  N   UNL A   1      44.734  26.200  28.653  1.00  0.00    -0.354 N 
ATOM     43  C   UNL A   1      40.657  27.608  28.715  1.00  0.00     0.074 A 
ATOM     44  C   UNL A   1      39.746  26.592  28.237  1.00  0.00     0.031 C 
ATOM     45  C   UNL A   1      46.386  24.730  28.316  1.00  0.00     0.029 A 
ATOM     46  C   UNL A   1      46.103  26.101  28.725  1.00  0.00     0.049 A 
ATOM     47  H   UNL A   1      44.240  27.019  28.885  1.00  0.00     0.167 HD
ATOM     48  C   UNL A   1      40.276  28.842  29.122  1.00  0.00     0.031 A 
ATOM     49  C   UNL A   1      47.030  27.016  29.070  1.00  0.00     0.031 A 
ATOM     50  C   UNL A   1      41.186  29.854  29.592  1.00  0.00     0.049 A 
ATOM     51  C   UNL A   1      46.582  28.395  29.472  1.00  0.00     0.074 A 
ATOM     52  C   UNL A   1      40.892  31.119  30.069  1.00  0.00     0.029 A 
ATOM     53  N   UNL A   1      42.565  29.720  29.631  1.00  0.00    -0.354 N 
ATOM     54  N   UNL A   1      45.367  28.878  29.563  1.00  0.00    -0.248 NA
ATOM     55  C   UNL A   1      47.638  29.352  29.829  1.00  0.00     0.031 C 
ATOM     56  C   UNL A   1      42.098  31.779  30.326  1.00  0.00     0.029 A 
ATOM     57  C   UNL A   1      43.139  30.896  30.089  1.00  0.00     0.049 A 
ATOM     58  H   UNL A   1      43.062  28.912  29.371  1.00  0.00     0.167 HD
ATOM     59  C   UNL A   1      45.511  30.182  30.020  1.00  0.00     0.074 A 
ATOM     60  C   UNL A   1      46.929  30.406  30.206  1.00  0.00     0.031 C 
ATOM     61  C   UNL A   1      44.553  31.109  30.267  1.00  0.00     0.031 A 
BRANCH  48  62
ATOM     62  C   UNL A   1      38.809  29.173  29.058  1.00  0.00    -0.014 A 
ATOM     63  C   UNL A   1      37.970  29.008  30.173  1.00  0.00     0.009 A 
ATOM     64  C   UNL A   1      38.263  29.692  27.874  1.00  0.00     0.009 A 
ATOM     65  C   UNL A   1      36.610  29.316  30.089  1.00  0.00     0.001 A 
ATOM     66  C   UNL A   1      36.911  30.035  27.804  1.00  0.00     0.001 A 
ATOM     67  C   UNL A   1      36.083  29.835  28.908  1.00  0.00     0.000 A 
ENDBRANCH  48  62
BRANCH  49  68
ATOM     68  C   UNL A   1      48.475  26.661  29.053  1.00  0.00    -0.014 A 
ATOM     69  C   UNL A   1      49.254  26.881  27.907  1.00  0.00     0.009 A 
ATOM     70  C   UNL A   1      49.079  26.081  30.180  1.00  0.00     0.009 A 
ATOM     71  C   UNL A   1      50.596  26.497  27.876  1.00  0.00     0.001 A 
ATOM     72  C   UNL A   1      50.431  25.731  30.160  1.00  0.00     0.001 A 
ATOM     73  C   UNL A   1      51.185  25.926  29.004  1.00  0.00     0.000 A 
ENDBRANCH  49  68
BRANCH  61  74
ATOM     74  C   UNL A   1      45.001  32.440  30.809  1.00  0.00    -0.014 A 
ATOM     75  C   UNL A   1      45.151  32.661  32.187  1.00  0.00     0.009 A 
ATOM     76  C   UNL A   1      45.316  33.478  29.917  1.00  0.00     0.009 A 
ATOM     77  C   UNL A   1      45.567  33.908  32.661  1.00  0.00     0.001 A 
ATOM     78  C   UNL A   1      45.771  34.709  30.391  1.00  0.00     0.001 A 
ATOM     79  C   UNL A   1      45.883  34.927  31.763  1.00  0.00     0.000 A 
ENDBRANCH  61  74
ENDBRANCH  35  36
ENDBRANCH  27  30
ENDBRANCH  25  26
ENDBRANCH  24  25
ENDBRANCH  23  24
ENDBRANCH   1  23
TORSDOF 17
ENDMDL
MODEL 3
REMARK VINA RESULT:     -10.0      4.891      9.938
REMARK SMILES CC1(C)[C@H](C#N)C(SCC(=O)NCCCCCCNC(=O)c2ccc(-c3c4nc(c(-c5ccccc5)c5ccc([nH]5)c(-c5ccccc5)c5nc(c(-c6ccccc6)c6ccc3[nH]6)C=C5)C=C4)cc2)=NC(=O)[C@@H]1C#N
REMARK SMILES IDX 15 1 14 2 13 3 12 4 10 5 11 6 9 8 8 9 7 10 1 11 2 12 3 13
REMARK SMILES IDX 4 14 73 15 71 16 70 17 72 18 5 19 6 20 74 21 75 22 16 23
REMARK SMILES IDX 17 24 18 25 19 26 20 27 21 29 22 30 23 31 69 32 24 33 68 34
REMARK SMILES IDX 25 35 26 36 27 37 62 38 28 39 67 40 61 41 63 42 29 43 66 44
REMARK SMILES IDX 60 45 59 46 30 48 52 49 37 50 51 51 38 52 41 53 50 54 64 55
REMARK SMILES IDX 39 56 40 57 49 59 65 60 42 61 31 62 32 63 36 64 33 65 35 66
REMARK SMILES IDX 34 67 53 68 54 69 58 70 55 71 57 72 56 73 43 74 44 75 48 76
REMARK SMILES IDX 45 77 47 78 46 79
REMARK H PARENT 12 7 19 28 63 47 41 58
REMARK Flexibility Score: inf
ROOT
ATOM      1  C   UNL A   1      34.650  32.962  28.973  1.00  0.00     0.002 C 
ENDROOT
BRANCH   1   2
ATOM      2  C   UNL A   1      35.517  32.118  28.028  1.00  0.00     0.021 C 
BRANCH   2   3
ATOM      3  C   UNL A   1      34.864  30.792  27.631  1.00  0.00     0.116 C 
BRANCH   3   4
ATOM      4  N   UNL A   1      33.471  30.997  27.288  1.00  0.00    -0.355 N 
ATOM      5  C   UNL A   1      32.672  30.353  26.391  1.00  0.00     0.230 C 
ATOM      6  O   UNL A   1      31.508  30.745  26.288  1.00  0.00    -0.274 OA
ATOM      7  H   UNL A   1      33.028  31.723  27.786  1.00  0.00     0.163 HD
BRANCH   5   8
ATOM      8  C   UNL A   1      33.162  29.130  25.645  1.00  0.00     0.176 C 
BRANCH   8   9
ATOM      9  S   UNL A   1      32.286  27.607  26.053  1.00  0.00    -0.099 SA
BRANCH   9  10
ATOM     10  C   UNL A   1      33.072  26.376  25.066  1.00  0.00     0.095 C 
ATOM     11  C   UNL A   1      35.817  24.057  25.417  1.00  0.00     0.015 C 
ATOM     12  C   UNL A   1      34.313  24.074  25.027  1.00  0.00     0.012 C 
ATOM     13  C   UNL A   1      33.814  22.640  25.442  1.00  0.00     0.015 C 
ATOM     14  C   UNL A   1      33.622  25.226  25.865  1.00  0.00     0.156 C 
ATOM     15  C   UNL A   1      34.207  24.270  23.476  1.00  0.00     0.191 C 
ATOM     16  C   UNL A   1      33.687  25.600  22.958  1.00  0.00     0.264 C 
ATOM     17  N   UNL A   1      33.106  26.513  23.794  1.00  0.00    -0.209 NA
ATOM     18  O   UNL A   1      33.791  25.845  21.757  1.00  0.00    -0.271 OA
BRANCH  14  19
ATOM     19  C   UNL A   1      32.414  24.611  26.552  1.00  0.00     0.073 C 
ATOM     20  N   UNL A   1      31.412  24.100  27.121  1.00  0.00    -0.198 NA
ENDBRANCH  14  19
BRANCH  15  21
ATOM     21  C   UNL A   1      33.451  23.215  22.773  1.00  0.00     0.076 C 
ATOM     22  N   UNL A   1      32.825  22.430  22.187  1.00  0.00    -0.197 NA
ENDBRANCH  15  21
ENDBRANCH   9  10
ENDBRANCH   8   9
ENDBRANCH   5   8
ENDBRANCH   3   4
ENDBRANCH   2   3
ENDBRANCH   1   2
BRANCH   1  23
ATOM     23  C   UNL A   1      34.448  34.413  28.523  1.00  0.00     0.002 C 
BRANCH  23  24
ATOM     24  C   UNL A   1      33.118  35.031  28.960  1.00  0.00     0.021 C 
BRANCH  24  25
ATOM     25  C   UNL A   1      33.263  36.367  29.676  1.00  0.00     0.116 C 
BRANCH  25  26
ATOM     26  N   UNL A   1      32.486  36.411  30.905  1.00  0.00    -0.352 N 
ATOM     27  C   UNL A   1      32.646  35.688  32.058  1.00  0.00     0.251 C 
ATOM     28  H   UNL A   1      31.737  37.050  30.908  1.00  0.00     0.163 HD
ATOM     29  O   UNL A   1      31.769  35.686  32.915  1.00  0.00    -0.269 OA
BRANCH  27  30
ATOM     30  C   UNL A   1      33.876  34.893  32.256  1.00  0.00     0.039 A 
ATOM     31  C   UNL A   1      35.116  35.520  32.126  1.00  0.00     0.014 A 
ATOM     32  C   UNL A   1      33.802  33.535  32.577  1.00  0.00     0.014 A 
ATOM     33  C   UNL A   1      36.282  34.797  32.375  1.00  0.00     0.010 A 
ATOM     34  C   UNL A   1      34.960  32.840  32.912  1.00  0.00     0.010 A 
ATOM     35  C   UNL A   1      36.212  33.462  32.808  1.00  0.00    -0.014 A 
BRANCH  35  36
ATOM     36  C   UNL A   1      37.440  32.705  33.160  1.00  0.00     0.031 A 
ATOM     37  C   UNL A   1      38.173  33.000  34.440  1.00  0.00     0.074 A 
ATOM     38  C   UNL A   1      37.925  31.786  32.303  1.00  0.00     0.049 A 
ATOM     39  N   UNL A   1      39.280  32.471  34.897  1.00  0.00    -0.248 NA
ATOM     40  C   UNL A   1      37.603  34.043  35.309  1.00  0.00     0.031 C 
ATOM     41  C   UNL A   1      37.326  31.429  31.014  1.00  0.00     0.029 A 
ATOM     42  N   UNL A   1      39.034  30.983  32.386  1.00  0.00    -0.354 N 
ATOM     43  C   UNL A   1      39.541  33.121  36.097  1.00  0.00     0.074 A 
ATOM     44  C   UNL A   1      38.514  34.125  36.267  1.00  0.00     0.031 C 
ATOM     45  C   UNL A   1      38.052  30.454  30.447  1.00  0.00     0.029 A 
ATOM     46  C   UNL A   1      39.196  30.154  31.301  1.00  0.00     0.049 A 
ATOM     47  H   UNL A   1      39.655  30.998  33.149  1.00  0.00     0.167 HD
ATOM     48  C   UNL A   1      40.535  32.892  36.988  1.00  0.00     0.031 A 
ATOM     49  C   UNL A   1      40.163  29.260  31.019  1.00  0.00     0.031 A 
ATOM     50  C   UNL A   1      41.561  31.897  36.813  1.00  0.00     0.049 A 
ATOM     51  C   UNL A   1      41.283  29.058  32.004  1.00  0.00     0.074 A 
ATOM     52  C   UNL A   1      42.584  31.557  37.680  1.00  0.00     0.029 A 
ATOM     53  N   UNL A   1      41.700  31.092  35.693  1.00  0.00    -0.354 N 
ATOM     54  N   UNL A   1      41.476  29.631  33.167  1.00  0.00    -0.248 NA
ATOM     55  C   UNL A   1      42.313  28.077  31.638  1.00  0.00     0.031 C 
ATOM     56  C   UNL A   1      43.388  30.599  37.052  1.00  0.00     0.029 A 
ATOM     57  C   UNL A   1      42.816  30.282  35.830  1.00  0.00     0.049 A 
ATOM     58  H   UNL A   1      41.096  31.096  34.916  1.00  0.00     0.167 HD
ATOM     59  C   UNL A   1      42.629  29.055  33.686  1.00  0.00     0.074 A 
ATOM     60  C   UNL A   1      43.078  28.075  32.720  1.00  0.00     0.031 C 
ATOM     61  C   UNL A   1      43.257  29.313  34.860  1.00  0.00     0.031 A 
BRANCH  48  62
ATOM     62  C   UNL A   1      40.572  33.749  38.225  1.00  0.00    -0.014 A 
ATOM     63  C   UNL A   1      39.906  33.367  39.402  1.00  0.00     0.009 A 
ATOM     64  C   UNL A   1      41.316  34.940  38.226  1.00  0.00     0.009 A 
ATOM     65  C   UNL A   1      39.950  34.181  40.536  1.00  0.00     0.001 A 
ATOM     66  C   UNL A   1      41.388  35.731  39.373  1.00  0.00     0.001 A 
ATOM     67  C   UNL A   1      40.695  35.358  40.523  1.00  0.00     0.000 A 
ENDBRANCH  48  62
BRANCH  49  68
ATOM     68  C   UNL A   1      40.119  28.484  29.750  1.00  0.00    -0.014 A 
ATOM     69  C   UNL A   1      39.464  27.245  29.690  1.00  0.00     0.009 A 
ATOM     70  C   UNL A   1      40.749  28.972  28.594  1.00  0.00     0.009 A 
ATOM     71  C   UNL A   1      39.471  26.494  28.512  1.00  0.00     0.001 A 
ATOM     72  C   UNL A   1      40.723  28.238  27.406  1.00  0.00     0.001 A 
ATOM     73  C   UNL A   1      40.097  26.993  27.371  1.00  0.00     0.000 A 
ENDBRANCH  49  68
BRANCH  61  74
ATOM     74  C   UNL A   1      44.475  28.491  35.189  1.00  0.00    -0.014 A 
ATOM     75  C   UNL A   1      45.765  28.912  34.833  1.00  0.00     0.009 A 
ATOM     76  C   UNL A   1      44.325  27.291  35.902  1.00  0.00     0.009 A 
ATOM     77  C   UNL A   1      46.877  28.128  35.150  1.00  0.00     0.001 A 
ATOM     78  C   UNL A   1      45.441  26.529  36.253  1.00  0.00     0.001 A 
ATOM     79  C   UNL A   1      46.714  26.942  35.865  1.00  0.00     0.000 A 
ENDBRANCH  61  74
ENDBRANCH  35  36
ENDBRANCH  27  30
ENDBRANCH  25  26
ENDBRANCH  24  25
ENDBRANCH  23  24
ENDBRANCH   1  23
TORSDOF 17
ENDMDL
