MODEL 1
REMARK VINA RESULT:     -11.4      0.000      0.000
REMARK SMILES COc1ccc(C)cc1[C@@H](C)NC(=O)CC1(C(=O)NCCCCCCNC(=O)c2ccc(-c3c4nc(c(-c5ccccc5)c5ccc([nH]5)c(-c5ccccc5)c5nc(c(-c6ccccc6)c6ccc3[nH]6)C=C5)C=C4)cc2)CCCC1
REMARK SMILES IDX 21 1 20 2 19 3 17 4 18 5 16 7 77 8 80 9 78 10 79 11 15 12
REMARK SMILES IDX 13 13 12 14 14 16 10 17 11 18 9 19 3 20 4 21 5 22 8 23 6 24
REMARK SMILES IDX 7 25 2 26 1 27 22 28 23 29 24 30 25 31 26 32 27 33 28 35
REMARK SMILES IDX 29 36 30 37 76 38 31 39 75 40 32 41 33 42 34 43 69 44 35 45
REMARK SMILES IDX 74 46 68 47 70 48 36 49 73 50 67 51 66 52 37 54 59 55 44 56
REMARK SMILES IDX 58 57 45 58 48 59 57 60 71 61 46 62 47 63 56 65 72 66 49 67
REMARK SMILES IDX 38 68 39 69 43 70 40 71 42 72 41 73 60 74 61 75 65 76 62 77
REMARK SMILES IDX 64 78 63 79 50 80 51 81 55 82 52 83 54 84 53 85
REMARK H PARENT 19 6 12 15 26 34 70 53 48 64
REMARK Flexibility Score: inf
ROOT
ATOM      1  C   UNL A   1      36.949  23.615  24.876  1.00  0.00     0.021 C 
ENDROOT
BRANCH   1   2
ATOM      2  C   UNL A   1      35.633  24.190  25.404  1.00  0.00     0.116 C 
BRANCH   2   3
ATOM      3  N   UNL A   1      34.632  24.230  24.369  1.00  0.00    -0.356 N 
ATOM      4  C   UNL A   1      33.477  23.575  24.139  1.00  0.00     0.226 C 
ATOM      5  O   UNL A   1      33.091  23.669  22.966  1.00  0.00    -0.274 OA
ATOM      6  H   UNL A   1      34.840  24.889  23.666  1.00  0.00     0.163 HD
BRANCH   4   7
ATOM      7  C   UNL A   1      32.693  22.686  25.136  1.00  0.00     0.058 C 
ATOM      8  C   UNL A   1      33.220  22.495  26.572  1.00  0.00     0.017 C 
ATOM      9  C   UNL A   1      32.698  21.232  24.596  1.00  0.00     0.017 C 
ATOM     10  C   UNL A   1      33.865  21.117  26.695  1.00  0.00     0.001 C 
ATOM     11  C   UNL A   1      33.836  20.514  25.307  1.00  0.00     0.001 C 
BRANCH   7  12
ATOM     12  C   UNL A   1      31.224  23.240  25.204  1.00  0.00     0.117 C 
BRANCH  12  13
ATOM     13  C   UNL A   1      30.728  23.945  26.468  1.00  0.00     0.221 C 
ATOM     14  N   UNL A   1      30.907  25.269  26.707  1.00  0.00    -0.349 N 
ATOM     15  H   UNL A   1      30.312  25.633  27.402  1.00  0.00     0.164 HD
ATOM     16  O   UNL A   1      30.184  23.291  27.365  1.00  0.00    -0.275 OA
BRANCH  14  17
ATOM     17  C   UNL A   1      31.816  26.255  26.130  1.00  0.00     0.113 C 
ATOM     18  C   UNL A   1      32.017  27.398  27.130  1.00  0.00     0.036 C 
BRANCH  17  19
ATOM     19  C   UNL A   1      31.299  26.804  24.801  1.00  0.00     0.016 A 
ATOM     20  C   UNL A   1      32.180  27.149  23.754  1.00  0.00     0.124 A 
ATOM     21  C   UNL A   1      31.674  27.597  22.528  1.00  0.00     0.047 A 
ATOM     22  C   UNL A   1      30.306  27.802  22.357  1.00  0.00     0.007 A 
ATOM     23  C   UNL A   1      29.921  27.048  24.615  1.00  0.00     0.013 A 
ATOM     24  C   UNL A   1      29.423  27.563  23.409  1.00  0.00    -0.051 A 
ATOM     25  C   UNL A   1      27.970  27.917  23.280  1.00  0.00     0.044 C 
BRANCH  20  26
ATOM     26  O   UNL A   1      33.516  27.043  24.024  1.00  0.00    -0.496 OA
ATOM     27  C   UNL A   1      34.267  28.236  24.201  1.00  0.00     0.278 C 
ENDBRANCH  20  26
ENDBRANCH  17  19
ENDBRANCH  14  17
ENDBRANCH  12  13
ENDBRANCH   7  12
ENDBRANCH   4   7
ENDBRANCH   2   3
ENDBRANCH   1   2
BRANCH   1  28
ATOM     28  C   UNL A   1      36.960  22.099  24.629  1.00  0.00     0.002 C 
BRANCH  28  29
ATOM     29  C   UNL A   1      38.066  21.286  25.322  1.00  0.00     0.002 C 
BRANCH  29  30
ATOM     30  C   UNL A   1      39.157  22.081  26.042  1.00  0.00     0.021 C 
BRANCH  30  31
ATOM     31  C   UNL A   1      40.119  21.233  26.863  1.00  0.00     0.116 C 
BRANCH  31  32
ATOM     32  N   UNL A   1      41.074  20.473  26.066  1.00  0.00    -0.352 N 
ATOM     33  C   UNL A   1      42.443  20.677  25.928  1.00  0.00     0.251 C 
ATOM     34  H   UNL A   1      40.701  19.716  25.559  1.00  0.00     0.163 HD
ATOM     35  O   UNL A   1      43.120  19.942  25.251  1.00  0.00    -0.269 OA
BRANCH  33  36
ATOM     36  C   UNL A   1      43.069  21.749  26.744  1.00  0.00     0.039 A 
ATOM     37  C   UNL A   1      42.922  21.666  28.130  1.00  0.00     0.014 A 
ATOM     38  C   UNL A   1      43.541  22.913  26.143  1.00  0.00     0.014 A 
ATOM     39  C   UNL A   1      42.996  22.831  28.886  1.00  0.00     0.010 A 
ATOM     40  C   UNL A   1      43.529  24.085  26.874  1.00  0.00     0.010 A 
ATOM     41  C   UNL A   1      43.180  24.049  28.229  1.00  0.00    -0.014 A 
BRANCH  41  42
ATOM     42  C   UNL A   1      42.881  25.325  28.866  1.00  0.00     0.031 A 
ATOM     43  C   UNL A   1      41.694  26.100  28.468  1.00  0.00     0.074 A 
ATOM     44  C   UNL A   1      43.719  25.821  29.803  1.00  0.00     0.049 A 
ATOM     45  N   UNL A   1      41.632  27.389  28.484  1.00  0.00    -0.248 NA
ATOM     46  C   UNL A   1      40.488  25.463  27.957  1.00  0.00     0.031 C 
ATOM     47  C   UNL A   1      43.516  26.988  30.656  1.00  0.00     0.029 A 
ATOM     48  N   UNL A   1      45.055  25.482  29.993  1.00  0.00    -0.354 N 
ATOM     49  C   UNL A   1      40.318  27.736  28.281  1.00  0.00     0.074 A 
ATOM     50  C   UNL A   1      39.668  26.514  27.860  1.00  0.00     0.031 C 
ATOM     51  C   UNL A   1      44.714  27.424  31.082  1.00  0.00     0.029 A 
ATOM     52  C   UNL A   1      45.736  26.631  30.418  1.00  0.00     0.049 A 
ATOM     53  H   UNL A   1      45.452  24.592  29.853  1.00  0.00     0.167 HD
ATOM     54  C   UNL A   1      39.882  28.976  28.642  1.00  0.00     0.031 A 
ATOM     55  C   UNL A   1      46.766  27.142  29.683  1.00  0.00     0.031 A 
ATOM     56  C   UNL A   1      40.973  29.817  29.133  1.00  0.00     0.049 A 
ATOM     57  C   UNL A   1      46.492  28.526  29.135  1.00  0.00     0.074 A 
ATOM     58  C   UNL A   1      41.387  30.168  30.409  1.00  0.00     0.029 A 
ATOM     59  N   UNL A   1      42.002  30.184  28.273  1.00  0.00    -0.354 N 
ATOM     60  N   UNL A   1      45.308  29.072  29.085  1.00  0.00    -0.248 NA
ATOM     61  C   UNL A   1      47.524  29.388  28.562  1.00  0.00     0.031 C 
ATOM     62  C   UNL A   1      42.707  30.678  30.318  1.00  0.00     0.029 A 
ATOM     63  C   UNL A   1      43.082  30.666  28.987  1.00  0.00     0.049 A 
ATOM     64  H   UNL A   1      41.966  30.111  27.291  1.00  0.00     0.167 HD
ATOM     65  C   UNL A   1      45.394  30.307  28.497  1.00  0.00     0.074 A 
ATOM     66  C   UNL A   1      46.805  30.466  28.198  1.00  0.00     0.031 C 
ATOM     67  C   UNL A   1      44.294  31.092  28.299  1.00  0.00     0.031 A 
BRANCH  54  68
ATOM     68  C   UNL A   1      38.419  29.290  28.858  1.00  0.00    -0.014 A 
ATOM     69  C   UNL A   1      37.639  29.753  27.781  1.00  0.00     0.009 A 
ATOM     70  C   UNL A   1      37.768  29.223  30.100  1.00  0.00     0.009 A 
ATOM     71  C   UNL A   1      36.335  30.234  27.959  1.00  0.00     0.001 A 
ATOM     72  C   UNL A   1      36.480  29.743  30.297  1.00  0.00     0.001 A 
ATOM     73  C   UNL A   1      35.768  30.263  29.226  1.00  0.00     0.000 A 
ENDBRANCH  54  68
BRANCH  55  74
ATOM     74  C   UNL A   1      47.589  26.104  29.003  1.00  0.00    -0.014 A 
ATOM     75  C   UNL A   1      47.331  25.838  27.643  1.00  0.00     0.009 A 
ATOM     76  C   UNL A   1      48.797  25.656  29.554  1.00  0.00     0.009 A 
ATOM     77  C   UNL A   1      48.302  25.245  26.830  1.00  0.00     0.001 A 
ATOM     78  C   UNL A   1      49.762  25.050  28.738  1.00  0.00     0.001 A 
ATOM     79  C   UNL A   1      49.529  24.877  27.373  1.00  0.00     0.000 A 
ENDBRANCH  55  74
BRANCH  67  80
ATOM     80  C   UNL A   1      44.251  32.379  27.514  1.00  0.00    -0.014 A 
ATOM     81  C   UNL A   1      44.186  32.452  26.117  1.00  0.00     0.009 A 
ATOM     82  C   UNL A   1      44.141  33.600  28.218  1.00  0.00     0.009 A 
ATOM     83  C   UNL A   1      44.066  33.684  25.457  1.00  0.00     0.001 A 
ATOM     84  C   UNL A   1      43.977  34.824  27.567  1.00  0.00     0.001 A 
ATOM     85  C   UNL A   1      43.951  34.867  26.182  1.00  0.00     0.000 A 
ENDBRANCH  67  80
ENDBRANCH  41  42
ENDBRANCH  33  36
ENDBRANCH  31  32
ENDBRANCH  30  31
ENDBRANCH  29  30
ENDBRANCH  28  29
ENDBRANCH   1  28
TORSDOF 18
ENDMDL
MODEL 2
REMARK VINA RESULT:     -11.3      3.607      9.097
REMARK SMILES COc1ccc(C)cc1[C@@H](C)NC(=O)CC1(C(=O)NCCCCCCNC(=O)c2ccc(-c3c4nc(c(-c5ccccc5)c5ccc([nH]5)c(-c5ccccc5)c5nc(c(-c6ccccc6)c6ccc3[nH]6)C=C5)C=C4)cc2)CCCC1
REMARK SMILES IDX 21 1 20 2 19 3 17 4 18 5 16 7 77 8 80 9 78 10 79 11 15 12
REMARK SMILES IDX 13 13 12 14 14 16 10 17 11 18 9 19 3 20 4 21 5 22 8 23 6 24
REMARK SMILES IDX 7 25 2 26 1 27 22 28 23 29 24 30 25 31 26 32 27 33 28 35
REMARK SMILES IDX 29 36 30 37 76 38 31 39 75 40 32 41 33 42 34 43 69 44 35 45
REMARK SMILES IDX 74 46 68 47 70 48 36 49 73 50 67 51 66 52 37 54 59 55 44 56
REMARK SMILES IDX 58 57 45 58 48 59 57 60 71 61 46 62 47 63 56 65 72 66 49 67
REMARK SMILES IDX 38 68 39 69 43 70 40 71 42 72 41 73 60 74 61 75 65 76 62 77
REMARK SMILES IDX 64 78 63 79 50 80 51 81 55 82 52 83 54 84 53 85
REMARK H PARENT 19 6 12 15 26 34 70 53 48 64
REMARK Flexibility Score: inf
ROOT
ATOM      1  C   UNL A   1      32.696  28.887  27.242  1.00  0.00     0.021 C 
ENDROOT
BRANCH   1   2
ATOM      2  C   UNL A   1      31.511  28.620  26.310  1.00  0.00     0.116 C 
BRANCH   2   3
ATOM      3  N   UNL A   1      31.252  27.208  26.192  1.00  0.00    -0.356 N 
ATOM      4  C   UNL A   1      31.021  26.367  25.166  1.00  0.00     0.226 C 
ATOM      5  O   UNL A   1      30.514  25.295  25.521  1.00  0.00    -0.274 OA
ATOM      6  H   UNL A   1      31.241  26.752  27.066  1.00  0.00     0.163 HD
BRANCH   4   7
ATOM      7  C   UNL A   1      31.231  26.654  23.658  1.00  0.00     0.058 C 
ATOM      8  C   UNL A   1      32.185  27.782  23.217  1.00  0.00     0.017 C 
ATOM      9  C   UNL A   1      29.880  27.124  23.061  1.00  0.00     0.017 C 
ATOM     10  C   UNL A   1      31.366  28.993  22.774  1.00  0.00     0.001 C 
ATOM     11  C   UNL A   1      29.919  28.646  23.054  1.00  0.00     0.001 C 
BRANCH   7  12
ATOM     12  C   UNL A   1      31.690  25.311  22.985  1.00  0.00     0.117 C 
BRANCH  12  13
ATOM     13  C   UNL A   1      33.120  25.164  22.459  1.00  0.00     0.221 C 
ATOM     14  N   UNL A   1      34.126  24.603  23.174  1.00  0.00    -0.349 N 
ATOM     15  H   UNL A   1      34.898  24.327  22.628  1.00  0.00     0.164 HD
ATOM     16  O   UNL A   1      33.419  25.627  21.352  1.00  0.00    -0.275 OA
BRANCH  14  17
ATOM     17  C   UNL A   1      34.284  24.330  24.600  1.00  0.00     0.113 C 
ATOM     18  C   UNL A   1      34.411  25.658  25.354  1.00  0.00     0.036 C 
BRANCH  17  19
ATOM     19  C   UNL A   1      35.496  23.445  24.885  1.00  0.00     0.016 A 
ATOM     20  C   UNL A   1      35.494  22.070  24.568  1.00  0.00     0.124 A 
ATOM     21  C   UNL A   1      36.639  21.296  24.789  1.00  0.00     0.047 A 
ATOM     22  C   UNL A   1      37.757  21.845  25.415  1.00  0.00     0.007 A 
ATOM     23  C   UNL A   1      36.627  23.971  25.545  1.00  0.00     0.013 A 
ATOM     24  C   UNL A   1      37.747  23.176  25.830  1.00  0.00    -0.051 A 
ATOM     25  C   UNL A   1      38.887  23.733  26.630  1.00  0.00     0.044 C 
BRANCH  20  26
ATOM     26  O   UNL A   1      34.327  21.562  24.070  1.00  0.00    -0.496 OA
ATOM     27  C   UNL A   1      33.756  20.428  24.708  1.00  0.00     0.278 C 
ENDBRANCH  20  26
ENDBRANCH  17  19
ENDBRANCH  14  17
ENDBRANCH  12  13
ENDBRANCH   7  12
ENDBRANCH   4   7
ENDBRANCH   2   3
ENDBRANCH   1   2
BRANCH   1  28
ATOM     28  C   UNL A   1      34.036  29.175  26.548  1.00  0.00     0.002 C 
BRANCH  28  29
ATOM     29  C   UNL A   1      35.269  29.343  27.450  1.00  0.00     0.002 C 
BRANCH  29  30
ATOM     30  C   UNL A   1      35.253  30.522  28.425  1.00  0.00     0.021 C 
BRANCH  30  31
ATOM     31  C   UNL A   1      35.093  31.885  27.765  1.00  0.00     0.116 C 
BRANCH  31  32
ATOM     32  N   UNL A   1      34.179  32.782  28.463  1.00  0.00    -0.352 N 
ATOM     33  C   UNL A   1      34.410  33.531  29.612  1.00  0.00     0.251 C 
ATOM     34  H   UNL A   1      33.281  32.869  28.069  1.00  0.00     0.163 HD
ATOM     35  O   UNL A   1      33.561  34.261  30.064  1.00  0.00    -0.269 OA
BRANCH  33  36
ATOM     36  C   UNL A   1      35.777  33.505  30.192  1.00  0.00     0.039 A 
ATOM     37  C   UNL A   1      36.795  34.119  29.458  1.00  0.00     0.014 A 
ATOM     38  C   UNL A   1      36.074  32.680  31.274  1.00  0.00     0.014 A 
ATOM     39  C   UNL A   1      38.107  33.696  29.643  1.00  0.00     0.010 A 
ATOM     40  C   UNL A   1      37.361  32.193  31.400  1.00  0.00     0.010 A 
ATOM     41  C   UNL A   1      38.358  32.648  30.531  1.00  0.00    -0.014 A 
BRANCH  41  42
ATOM     42  C   UNL A   1      39.601  31.888  30.499  1.00  0.00     0.031 A 
ATOM     43  C   UNL A   1      39.672  30.601  29.788  1.00  0.00     0.074 A 
ATOM     44  C   UNL A   1      40.686  32.347  31.160  1.00  0.00     0.049 A 
ATOM     45  N   UNL A   1      40.426  29.616  30.146  1.00  0.00    -0.248 NA
ATOM     46  C   UNL A   1      38.838  30.307  28.630  1.00  0.00     0.031 C 
ATOM     47  C   UNL A   1      42.046  31.819  31.120  1.00  0.00     0.029 A 
ATOM     48  N   UNL A   1      40.703  33.265  32.205  1.00  0.00    -0.354 N 
ATOM     49  C   UNL A   1      40.404  28.696  29.126  1.00  0.00     0.074 A 
ATOM     50  C   UNL A   1      39.329  29.122  28.257  1.00  0.00     0.031 C 
ATOM     51  C   UNL A   1      42.696  32.217  32.227  1.00  0.00     0.029 A 
ATOM     52  C   UNL A   1      41.740  32.908  33.077  1.00  0.00     0.049 A 
ATOM     53  H   UNL A   1      40.093  34.030  32.314  1.00  0.00     0.167 HD
ATOM     54  C   UNL A   1      41.395  27.764  29.035  1.00  0.00     0.031 A 
ATOM     55  C   UNL A   1      41.478  32.589  34.378  1.00  0.00     0.031 A 
ATOM     56  C   UNL A   1      42.327  27.845  30.159  1.00  0.00     0.049 A 
ATOM     57  C   UNL A   1      41.817  31.156  34.731  1.00  0.00     0.074 A 
ATOM     58  C   UNL A   1      43.588  28.406  30.296  1.00  0.00     0.029 A 
ATOM     59  N   UNL A   1      41.880  27.570  31.447  1.00  0.00    -0.354 N 
ATOM     60  N   UNL A   1      42.041  30.219  33.852  1.00  0.00    -0.248 NA
ATOM     61  C   UNL A   1      41.890  30.658  36.103  1.00  0.00     0.031 C 
ATOM     62  C   UNL A   1      43.863  28.538  31.680  1.00  0.00     0.029 A 
ATOM     63  C   UNL A   1      42.786  28.030  32.384  1.00  0.00     0.049 A 
ATOM     64  H   UNL A   1      41.035  27.112  31.662  1.00  0.00     0.167 HD
ATOM     65  C   UNL A   1      42.276  29.032  34.493  1.00  0.00     0.074 A 
ATOM     66  C   UNL A   1      42.184  29.360  35.904  1.00  0.00     0.031 C 
ATOM     67  C   UNL A   1      42.521  27.876  33.808  1.00  0.00     0.031 A 
BRANCH  54  68
ATOM     68  C   UNL A   1      41.691  27.017  27.754  1.00  0.00    -0.014 A 
ATOM     69  C   UNL A   1      41.979  25.639  27.801  1.00  0.00     0.009 A 
ATOM     70  C   UNL A   1      41.773  27.616  26.487  1.00  0.00     0.009 A 
ATOM     71  C   UNL A   1      42.440  24.936  26.680  1.00  0.00     0.001 A 
ATOM     72  C   UNL A   1      42.275  26.932  25.369  1.00  0.00     0.001 A 
ATOM     73  C   UNL A   1      42.623  25.594  25.470  1.00  0.00     0.000 A 
ENDBRANCH  54  68
BRANCH  55  74
ATOM     74  C   UNL A   1      40.360  33.372  34.972  1.00  0.00    -0.014 A 
ATOM     75  C   UNL A   1      39.093  32.758  35.061  1.00  0.00     0.009 A 
ATOM     76  C   UNL A   1      40.601  34.520  35.739  1.00  0.00     0.009 A 
ATOM     77  C   UNL A   1      38.138  33.211  35.975  1.00  0.00     0.001 A 
ATOM     78  C   UNL A   1      39.634  34.978  36.645  1.00  0.00     0.001 A 
ATOM     79  C   UNL A   1      38.421  34.305  36.788  1.00  0.00     0.000 A 
ENDBRANCH  55  74
BRANCH  67  80
ATOM     80  C   UNL A   1      42.620  26.494  34.405  1.00  0.00    -0.014 A 
ATOM     81  C   UNL A   1      41.609  25.882  35.156  1.00  0.00     0.009 A 
ATOM     82  C   UNL A   1      43.746  25.699  34.091  1.00  0.00     0.009 A 
ATOM     83  C   UNL A   1      41.738  24.561  35.611  1.00  0.00     0.001 A 
ATOM     84  C   UNL A   1      43.859  24.370  34.504  1.00  0.00     0.001 A 
ATOM     85  C   UNL A   1      42.857  23.803  35.276  1.00  0.00     0.000 A 
ENDBRANCH  67  80
ENDBRANCH  41  42
ENDBRANCH  33  36
ENDBRANCH  31  32
ENDBRANCH  30  31
ENDBRANCH  29  30
ENDBRANCH  28  29
ENDBRANCH   1  28
TORSDOF 18
ENDMDL
MODEL 3
REMARK VINA RESULT:     -11.2      1.226      2.305
REMARK SMILES COc1ccc(C)cc1[C@@H](C)NC(=O)CC1(C(=O)NCCCCCCNC(=O)c2ccc(-c3c4nc(c(-c5ccccc5)c5ccc([nH]5)c(-c5ccccc5)c5nc(c(-c6ccccc6)c6ccc3[nH]6)C=C5)C=C4)cc2)CCCC1
REMARK SMILES IDX 21 1 20 2 19 3 17 4 18 5 16 7 77 8 80 9 78 10 79 11 15 12
REMARK SMILES IDX 13 13 12 14 14 16 10 17 11 18 9 19 3 20 4 21 5 22 8 23 6 24
REMARK SMILES IDX 7 25 2 26 1 27 22 28 23 29 24 30 25 31 26 32 27 33 28 35
REMARK SMILES IDX 29 36 30 37 76 38 31 39 75 40 32 41 33 42 34 43 69 44 35 45
REMARK SMILES IDX 74 46 68 47 70 48 36 49 73 50 67 51 66 52 37 54 59 55 44 56
REMARK SMILES IDX 58 57 45 58 48 59 57 60 71 61 46 62 47 63 56 65 72 66 49 67
REMARK SMILES IDX 38 68 39 69 43 70 40 71 42 72 41 73 60 74 61 75 65 76 62 77
REMARK SMILES IDX 64 78 63 79 50 80 51 81 55 82 52 83 54 84 53 85
REMARK H PARENT 19 6 12 15 26 34 70 53 48 64
REMARK Flexibility Score: inf
ROOT
ATOM      1  C   UNL A   1      36.277  21.993  24.347  1.00  0.00     0.021 C 
ENDROOT
BRANCH   1   2
ATOM      2  C   UNL A   1      35.131  21.614  25.289  1.00  0.00     0.116 C 
BRANCH   2   3
ATOM      3  N   UNL A   1      33.986  21.147  24.550  1.00  0.00    -0.356 N 
ATOM      4  C   UNL A   1      32.748  21.623  24.318  1.00  0.00     0.226 C 
ATOM      5  O   UNL A   1      31.962  20.756  23.911  1.00  0.00    -0.274 OA
ATOM      6  H   UNL A   1      34.146  20.278  24.113  1.00  0.00     0.163 HD
BRANCH   4   7
ATOM      7  C   UNL A   1      32.230  23.056  24.597  1.00  0.00     0.058 C 
ATOM      8  C   UNL A   1      32.947  23.942  25.635  1.00  0.00     0.017 C 
ATOM      9  C   UNL A   1      30.805  22.948  25.197  1.00  0.00     0.017 C 
ATOM     10  C   UNL A   1      32.124  23.982  26.920  1.00  0.00     0.001 C 
ATOM     11  C   UNL A   1      30.967  23.030  26.708  1.00  0.00     0.001 C 
BRANCH   7  12
ATOM     12  C   UNL A   1      32.190  23.816  23.222  1.00  0.00     0.117 C 
BRANCH  12  13
ATOM     13  C   UNL A   1      33.484  24.344  22.599  1.00  0.00     0.221 C 
ATOM     14  N   UNL A   1      33.792  25.663  22.519  1.00  0.00    -0.349 N 
ATOM     15  H   UNL A   1      34.747  25.840  22.356  1.00  0.00     0.164 HD
ATOM     16  O   UNL A   1      34.283  23.558  22.079  1.00  0.00    -0.275 OA
BRANCH  14  17
ATOM     17  C   UNL A   1      32.976  26.870  22.627  1.00  0.00     0.113 C 
ATOM     18  C   UNL A   1      33.724  28.041  21.983  1.00  0.00     0.036 C 
BRANCH  17  19
ATOM     19  C   UNL A   1      32.630  27.200  24.079  1.00  0.00     0.016 A 
ATOM     20  C   UNL A   1      31.304  27.125  24.555  1.00  0.00     0.124 A 
ATOM     21  C   UNL A   1      31.026  27.380  25.903  1.00  0.00     0.047 A 
ATOM     22  C   UNL A   1      32.032  27.807  26.767  1.00  0.00     0.007 A 
ATOM     23  C   UNL A   1      33.627  27.664  24.964  1.00  0.00     0.013 A 
ATOM     24  C   UNL A   1      33.332  27.987  26.297  1.00  0.00    -0.051 A 
ATOM     25  C   UNL A   1      34.388  28.582  27.182  1.00  0.00     0.044 C 
BRANCH  20  26
ATOM     26  O   UNL A   1      30.343  26.820  23.632  1.00  0.00    -0.496 OA
ATOM     27  C   UNL A   1      29.133  26.229  24.086  1.00  0.00     0.278 C 
ENDBRANCH  20  26
ENDBRANCH  17  19
ENDBRANCH  14  17
ENDBRANCH  12  13
ENDBRANCH   7  12
ENDBRANCH   4   7
ENDBRANCH   2   3
ENDBRANCH   1   2
BRANCH   1  28
ATOM     28  C   UNL A   1      37.691  21.839  24.926  1.00  0.00     0.002 C 
BRANCH  28  29
ATOM     29  C   UNL A   1      38.190  22.953  25.861  1.00  0.00     0.002 C 
BRANCH  29  30
ATOM     30  C   UNL A   1      39.657  22.887  26.289  1.00  0.00     0.021 C 
BRANCH  30  31
ATOM     31  C   UNL A   1      40.060  21.585  26.967  1.00  0.00     0.116 C 
BRANCH  31  32
ATOM     32  N   UNL A   1      40.989  20.771  26.193  1.00  0.00    -0.352 N 
ATOM     33  C   UNL A   1      42.370  20.895  26.088  1.00  0.00     0.251 C 
ATOM     34  H   UNL A   1      40.585  20.037  25.676  1.00  0.00     0.163 HD
ATOM     35  O   UNL A   1      43.021  20.122  25.427  1.00  0.00    -0.269 OA
BRANCH  33  36
ATOM     36  C   UNL A   1      43.037  21.929  26.921  1.00  0.00     0.039 A 
ATOM     37  C   UNL A   1      42.876  21.837  28.305  1.00  0.00     0.014 A 
ATOM     38  C   UNL A   1      43.564  23.079  26.337  1.00  0.00     0.014 A 
ATOM     39  C   UNL A   1      42.996  22.989  29.075  1.00  0.00     0.010 A 
ATOM     40  C   UNL A   1      43.598  24.242  27.082  1.00  0.00     0.010 A 
ATOM     41  C   UNL A   1      43.238  24.206  28.434  1.00  0.00    -0.014 A 
BRANCH  41  42
ATOM     42  C   UNL A   1      42.991  25.486  29.084  1.00  0.00     0.031 A 
ATOM     43  C   UNL A   1      41.795  26.276  28.749  1.00  0.00     0.074 A 
ATOM     44  C   UNL A   1      43.885  25.971  29.973  1.00  0.00     0.049 A 
ATOM     45  N   UNL A   1      41.751  27.566  28.766  1.00  0.00    -0.248 NA
ATOM     46  C   UNL A   1      40.554  25.655  28.305  1.00  0.00     0.031 C 
ATOM     47  C   UNL A   1      43.743  27.142  30.834  1.00  0.00     0.029 A 
ATOM     48  N   UNL A   1      45.224  25.615  30.092  1.00  0.00    -0.354 N 
ATOM     49  C   UNL A   1      40.432  27.930  28.633  1.00  0.00     0.074 A 
ATOM     50  C   UNL A   1      39.744  26.716  28.250  1.00  0.00     0.031 C 
ATOM     51  C   UNL A   1      44.968  27.562  31.194  1.00  0.00     0.029 A 
ATOM     52  C   UNL A   1      45.942  26.755  30.478  1.00  0.00     0.049 A 
ATOM     53  H   UNL A   1      45.601  24.720  29.933  1.00  0.00     0.167 HD
ATOM     54  C   UNL A   1      40.033  29.176  29.014  1.00  0.00     0.031 A 
ATOM     55  C   UNL A   1      46.938  27.251  29.688  1.00  0.00     0.031 A 
ATOM     56  C   UNL A   1      41.160  30.004  29.445  1.00  0.00     0.049 A 
ATOM     57  C   UNL A   1      46.653  28.639  29.153  1.00  0.00     0.074 A 
ATOM     58  C   UNL A   1      41.647  30.350  30.696  1.00  0.00     0.029 A 
ATOM     59  N   UNL A   1      42.146  30.356  28.530  1.00  0.00    -0.354 N 
ATOM     60  N   UNL A   1      45.476  29.200  29.165  1.00  0.00    -0.248 NA
ATOM     61  C   UNL A   1      47.664  29.486  28.524  1.00  0.00     0.031 C 
ATOM     62  C   UNL A   1      42.966  30.842  30.534  1.00  0.00     0.029 A 
ATOM     63  C   UNL A   1      43.269  30.824  29.185  1.00  0.00     0.049 A 
ATOM     64  H   UNL A   1      42.056  30.282  27.552  1.00  0.00     0.167 HD
ATOM     65  C   UNL A   1      45.546  30.433  28.571  1.00  0.00     0.074 A 
ATOM     66  C   UNL A   1      46.942  30.573  28.197  1.00  0.00     0.031 C 
ATOM     67  C   UNL A   1      44.448  31.233  28.432  1.00  0.00     0.031 A 
BRANCH  54  68
ATOM     68  C   UNL A   1      38.588  29.510  29.308  1.00  0.00    -0.014 A 
ATOM     69  C   UNL A   1      37.867  30.329  28.418  1.00  0.00     0.009 A 
ATOM     70  C   UNL A   1      37.902  29.116  30.468  1.00  0.00     0.009 A 
ATOM     71  C   UNL A   1      36.592  30.823  28.727  1.00  0.00     0.001 A 
ATOM     72  C   UNL A   1      36.645  29.639  30.807  1.00  0.00     0.001 A 
ATOM     73  C   UNL A   1      35.996  30.506  29.941  1.00  0.00     0.000 A 
ENDBRANCH  54  68
BRANCH  55  74
ATOM     74  C   UNL A   1      47.709  26.201  28.967  1.00  0.00    -0.014 A 
ATOM     75  C   UNL A   1      47.414  25.977  27.606  1.00  0.00     0.009 A 
ATOM     76  C   UNL A   1      48.913  25.699  29.480  1.00  0.00     0.009 A 
ATOM     77  C   UNL A   1      48.345  25.369  26.759  1.00  0.00     0.001 A 
ATOM     78  C   UNL A   1      49.837  25.080  28.629  1.00  0.00     0.001 A 
ATOM     79  C   UNL A   1      49.570  24.947  27.267  1.00  0.00     0.000 A 
ENDBRANCH  55  74
BRANCH  67  80
ATOM     80  C   UNL A   1      44.380  32.520  27.648  1.00  0.00    -0.014 A 
ATOM     81  C   UNL A   1      44.487  33.796  28.212  1.00  0.00     0.009 A 
ATOM     82  C   UNL A   1      44.334  32.452  26.236  1.00  0.00     0.009 A 
ATOM     83  C   UNL A   1      44.498  34.948  27.410  1.00  0.00     0.001 A 
ATOM     84  C   UNL A   1      44.389  33.593  25.433  1.00  0.00     0.001 A 
ATOM     85  C   UNL A   1      44.459  34.845  26.023  1.00  0.00     0.000 A 
ENDBRANCH  67  80
ENDBRANCH  41  42
ENDBRANCH  33  36
ENDBRANCH  31  32
ENDBRANCH  30  31
ENDBRANCH  29  30
ENDBRANCH  28  29
ENDBRANCH   1  28
TORSDOF 18
ENDMDL
