MODEL 1
REMARK VINA RESULT:     -10.2      0.000      0.000
REMARK SMILES CCN(CCC(=O)NCCCCCCNC(=O)c1ccc(-c2c3nc(c(-c4ccccc4)c4ccc([nH]4)c(-c4ccccc4)c4nc(c(-c5ccccc5)c5ccc2[nH]5)C=C4)C=C3)cc1)C(=O)c1cc(Cl)ccc1F
REMARK SMILES IDX 10 1 9 2 8 3 6 4 7 5 5 7 4 8 3 9 2 10 1 11 66 12 67 13 68 14
REMARK SMILES IDX 69 15 74 16 70 17 73 18 75 19 71 20 72 21 11 22 12 23 13 24
REMARK SMILES IDX 14 25 15 26 16 27 17 29 18 30 19 31 65 32 20 33 64 34 21 35
REMARK SMILES IDX 22 36 23 37 58 38 24 39 63 40 57 41 59 42 25 43 62 44 56 45
REMARK SMILES IDX 55 46 26 48 48 49 33 50 47 51 34 52 37 53 46 54 60 55 35 56
REMARK SMILES IDX 36 57 45 59 61 60 38 61 27 62 28 63 32 64 29 65 31 66 30 67
REMARK SMILES IDX 49 68 50 69 54 70 51 71 53 72 52 73 39 74 40 75 44 76 41 77
REMARK SMILES IDX 43 78 42 79
REMARK H PARENT 8 6 15 28 59 47 37 58
REMARK Flexibility Score: inf
ROOT
ATOM      1  C   UNL A   1      31.183  28.820  23.520  1.00  0.00     0.021 C 
ENDROOT
BRANCH   1   2
ATOM      2  C   UNL A   1      31.010  27.330  23.253  1.00  0.00     0.116 C 
BRANCH   2   3
ATOM      3  N   UNL A   1      31.770  26.911  22.091  1.00  0.00    -0.356 N 
ATOM      4  C   UNL A   1      32.829  26.060  22.006  1.00  0.00     0.221 C 
ATOM      5  O   UNL A   1      33.344  25.874  20.903  1.00  0.00    -0.275 OA
ATOM      6  H   UNL A   1      31.475  27.300  21.236  1.00  0.00     0.163 HD
BRANCH   4   7
ATOM      7  C   UNL A   1      33.347  25.353  23.234  1.00  0.00     0.121 C 
BRANCH   7   8
ATOM      8  C   UNL A   1      33.928  23.982  22.914  1.00  0.00     0.129 C 
BRANCH   8   9
ATOM      9  N   UNL A   1      33.389  22.847  23.681  1.00  0.00    -0.338 N 
BRANCH   9  10
ATOM     10  C   UNL A   1      32.393  22.044  22.942  1.00  0.00     0.116 C 
ATOM     11  C   UNL A   1      32.284  20.547  23.187  1.00  0.00     0.027 C 
ENDBRANCH   9  10
BRANCH   9  12
ATOM     12  C   UNL A   1      33.923  22.410  24.908  1.00  0.00     0.256 C 
ATOM     13  O   UNL A   1      33.228  22.186  25.899  1.00  0.00    -0.269 OA
BRANCH  12  14
ATOM     14  C   UNL A   1      35.389  22.477  25.177  1.00  0.00     0.077 A 
ATOM     15  C   UNL A   1      36.103  21.286  24.928  1.00  0.00     0.037 A 
ATOM     16  C   UNL A   1      36.106  23.590  25.600  1.00  0.00     0.136 A 
ATOM     17  C   UNL A   1      37.466  21.197  25.208  1.00  0.00     0.042 A 
ATOM     18  C   UNL A   1      37.463  23.489  25.924  1.00  0.00     0.041 A 
ATOM     19  F   UNL A   1      35.558  24.809  25.650  1.00  0.00    -0.206 F 
ATOM     20  Cl  UNL A   1      38.309  19.728  24.905  1.00  0.00    -0.084 Cl
ATOM     21  C   UNL A   1      38.145  22.287  25.740  1.00  0.00     0.023 A 
ENDBRANCH  12  14
ENDBRANCH   9  12
ENDBRANCH   8   9
ENDBRANCH   7   8
ENDBRANCH   4   7
ENDBRANCH   2   3
ENDBRANCH   1   2
BRANCH   1  22
ATOM     22  C   UNL A   1      31.459  29.160  24.989  1.00  0.00     0.002 C 
BRANCH  22  23
ATOM     23  C   UNL A   1      31.598  27.943  25.911  1.00  0.00     0.002 C 
BRANCH  23  24
ATOM     24  C   UNL A   1      32.226  28.230  27.278  1.00  0.00     0.021 C 
BRANCH  24  25
ATOM     25  C   UNL A   1      33.636  28.815  27.221  1.00  0.00     0.116 C 
BRANCH  25  26
ATOM     26  N   UNL A   1      33.662  30.208  27.632  1.00  0.00    -0.352 N 
ATOM     27  C   UNL A   1      34.629  30.883  28.337  1.00  0.00     0.251 C 
ATOM     28  H   UNL A   1      32.877  30.743  27.371  1.00  0.00     0.163 HD
ATOM     29  O   UNL A   1      34.403  31.993  28.804  1.00  0.00    -0.269 OA
BRANCH  27  30
ATOM     30  C   UNL A   1      35.951  30.254  28.549  1.00  0.00     0.039 A 
ATOM     31  C   UNL A   1      36.887  30.271  27.512  1.00  0.00     0.014 A 
ATOM     32  C   UNL A   1      36.258  29.642  29.766  1.00  0.00     0.014 A 
ATOM     33  C   UNL A   1      38.162  29.734  27.721  1.00  0.00     0.010 A 
ATOM     34  C   UNL A   1      37.546  29.163  29.992  1.00  0.00     0.010 A 
ATOM     35  C   UNL A   1      38.511  29.207  28.973  1.00  0.00    -0.014 A 
BRANCH  35  36
ATOM     36  C   UNL A   1      39.876  28.696  29.257  1.00  0.00     0.031 A 
ATOM     37  C   UNL A   1      40.912  29.612  29.850  1.00  0.00     0.074 A 
ATOM     38  C   UNL A   1      40.218  27.446  28.884  1.00  0.00     0.049 A 
ATOM     39  N   UNL A   1      42.194  29.411  30.013  1.00  0.00    -0.248 NA
ATOM     40  C   UNL A   1      40.447  30.937  30.291  1.00  0.00     0.031 C 
ATOM     41  C   UNL A   1      39.320  26.464  28.273  1.00  0.00     0.029 A 
ATOM     42  N   UNL A   1      41.428  26.799  28.940  1.00  0.00    -0.354 N 
ATOM     43  C   UNL A   1      42.696  30.596  30.535  1.00  0.00     0.074 A 
ATOM     44  C   UNL A   1      41.586  31.516  30.648  1.00  0.00     0.031 C 
ATOM     45  C   UNL A   1      40.009  25.342  28.010  1.00  0.00     0.029 A 
ATOM     46  C   UNL A   1      41.404  25.538  28.393  1.00  0.00     0.049 A 
ATOM     47  H   UNL A   1      42.236  27.200  29.333  1.00  0.00     0.167 HD
ATOM     48  C   UNL A   1      43.969  30.891  30.892  1.00  0.00     0.031 A 
ATOM     49  C   UNL A   1      42.397  24.651  28.198  1.00  0.00     0.031 A 
ATOM     50  C   UNL A   1      45.069  29.968  30.821  1.00  0.00     0.049 A 
ATOM     51  C   UNL A   1      43.798  25.000  28.616  1.00  0.00     0.074 A 
ATOM     52  C   UNL A   1      46.375  30.152  31.239  1.00  0.00     0.029 A 
ATOM     53  N   UNL A   1      44.988  28.686  30.304  1.00  0.00    -0.354 N 
ATOM     54  N   UNL A   1      44.243  26.104  29.165  1.00  0.00    -0.248 NA
ATOM     55  C   UNL A   1      44.832  23.981  28.389  1.00  0.00     0.031 C 
ATOM     56  C   UNL A   1      47.097  28.994  30.940  1.00  0.00     0.029 A 
ATOM     57  C   UNL A   1      46.229  28.076  30.372  1.00  0.00     0.049 A 
ATOM     58  H   UNL A   1      44.173  28.272  29.941  1.00  0.00     0.167 HD
ATOM     59  C   UNL A   1      45.601  25.899  29.376  1.00  0.00     0.074 A 
ATOM     60  C   UNL A   1      45.905  24.566  28.903  1.00  0.00     0.031 C 
ATOM     61  C   UNL A   1      46.512  26.742  29.915  1.00  0.00     0.031 A 
BRANCH  48  62
ATOM     62  C   UNL A   1      44.252  32.280  31.385  1.00  0.00    -0.014 A 
ATOM     63  C   UNL A   1      44.196  32.593  32.752  1.00  0.00     0.009 A 
ATOM     64  C   UNL A   1      44.642  33.274  30.473  1.00  0.00     0.009 A 
ATOM     65  C   UNL A   1      44.503  33.881  33.193  1.00  0.00     0.001 A 
ATOM     66  C   UNL A   1      44.970  34.554  30.920  1.00  0.00     0.001 A 
ATOM     67  C   UNL A   1      44.895  34.859  32.278  1.00  0.00     0.000 A 
ENDBRANCH  48  62
BRANCH  49  68
ATOM     68  C   UNL A   1      42.113  23.339  27.562  1.00  0.00    -0.014 A 
ATOM     69  C   UNL A   1      42.399  23.131  26.204  1.00  0.00     0.009 A 
ATOM     70  C   UNL A   1      41.526  22.299  28.300  1.00  0.00     0.009 A 
ATOM     71  C   UNL A   1      42.075  21.918  25.591  1.00  0.00     0.001 A 
ATOM     72  C   UNL A   1      41.228  21.079  27.691  1.00  0.00     0.001 A 
ATOM     73  C   UNL A   1      41.492  20.893  26.335  1.00  0.00     0.000 A 
ENDBRANCH  49  68
BRANCH  61  74
ATOM     74  C   UNL A   1      47.916  26.235  30.068  1.00  0.00    -0.014 A 
ATOM     75  C   UNL A   1      48.838  26.323  29.016  1.00  0.00     0.009 A 
ATOM     76  C   UNL A   1      48.333  25.715  31.304  1.00  0.00     0.009 A 
ATOM     77  C   UNL A   1      50.150  25.879  29.193  1.00  0.00     0.001 A 
ATOM     78  C   UNL A   1      49.650  25.293  31.484  1.00  0.00     0.001 A 
ATOM     79  C   UNL A   1      50.557  25.371  30.427  1.00  0.00     0.000 A 
ENDBRANCH  61  74
ENDBRANCH  35  36
ENDBRANCH  27  30
ENDBRANCH  25  26
ENDBRANCH  24  25
ENDBRANCH  23  24
ENDBRANCH  22  23
ENDBRANCH   1  22
TORSDOF 18
ENDMDL
MODEL 2
REMARK VINA RESULT:      -9.8      2.904      7.942
REMARK SMILES CCN(CCC(=O)NCCCCCCNC(=O)c1ccc(-c2c3nc(c(-c4ccccc4)c4ccc([nH]4)c(-c4ccccc4)c4nc(c(-c5ccccc5)c5ccc2[nH]5)C=C4)C=C3)cc1)C(=O)c1cc(Cl)ccc1F
REMARK SMILES IDX 10 1 9 2 8 3 6 4 7 5 5 7 4 8 3 9 2 10 1 11 66 12 67 13 68 14
REMARK SMILES IDX 69 15 74 16 70 17 73 18 75 19 71 20 72 21 11 22 12 23 13 24
REMARK SMILES IDX 14 25 15 26 16 27 17 29 18 30 19 31 65 32 20 33 64 34 21 35
REMARK SMILES IDX 22 36 23 37 58 38 24 39 63 40 57 41 59 42 25 43 62 44 56 45
REMARK SMILES IDX 55 46 26 48 48 49 33 50 47 51 34 52 37 53 46 54 60 55 35 56
REMARK SMILES IDX 36 57 45 59 61 60 38 61 27 62 28 63 32 64 29 65 31 66 30 67
REMARK SMILES IDX 49 68 50 69 54 70 51 71 53 72 52 73 39 74 40 75 44 76 41 77
REMARK SMILES IDX 43 78 42 79
REMARK H PARENT 8 6 15 28 59 47 37 58
REMARK Flexibility Score: inf
ROOT
ATOM      1  C   UNL A   1      32.516  23.417  26.849  1.00  0.00     0.021 C 
ENDROOT
BRANCH   1   2
ATOM      2  C   UNL A   1      31.362  22.705  26.154  1.00  0.00     0.116 C 
BRANCH   2   3
ATOM      3  N   UNL A   1      31.755  22.213  24.847  1.00  0.00    -0.356 N 
ATOM      4  C   UNL A   1      31.842  22.876  23.661  1.00  0.00     0.221 C 
ATOM      5  O   UNL A   1      32.172  22.240  22.659  1.00  0.00    -0.275 OA
ATOM      6  H   UNL A   1      31.995  21.260  24.814  1.00  0.00     0.163 HD
BRANCH   4   7
ATOM      7  C   UNL A   1      31.555  24.355  23.583  1.00  0.00     0.121 C 
BRANCH   7   8
ATOM      8  C   UNL A   1      32.826  25.194  23.570  1.00  0.00     0.129 C 
BRANCH   8   9
ATOM      9  N   UNL A   1      32.646  26.654  23.526  1.00  0.00    -0.338 N 
BRANCH   9  10
ATOM     10  C   UNL A   1      33.204  27.291  22.315  1.00  0.00     0.116 C 
ATOM     11  C   UNL A   1      34.089  28.521  22.437  1.00  0.00     0.027 C 
ENDBRANCH   9  10
BRANCH   9  12
ATOM     12  C   UNL A   1      31.824  27.367  24.420  1.00  0.00     0.256 C 
ATOM     13  O   UNL A   1      30.610  27.491  24.258  1.00  0.00    -0.269 OA
BRANCH  12  14
ATOM     14  C   UNL A   1      32.410  28.267  25.455  1.00  0.00     0.077 A 
ATOM     15  C   UNL A   1      31.735  29.491  25.641  1.00  0.00     0.037 A 
ATOM     16  C   UNL A   1      33.509  27.999  26.264  1.00  0.00     0.136 A 
ATOM     17  C   UNL A   1      32.223  30.450  26.528  1.00  0.00     0.042 A 
ATOM     18  C   UNL A   1      34.025  28.978  27.120  1.00  0.00     0.041 A 
ATOM     19  F   UNL A   1      34.074  26.788  26.314  1.00  0.00    -0.206 F 
ATOM     20  Cl  UNL A   1      31.385  31.940  26.726  1.00  0.00    -0.084 Cl
ATOM     21  C   UNL A   1      33.389  30.212  27.245  1.00  0.00     0.023 A 
ENDBRANCH  12  14
ENDBRANCH   9  12
ENDBRANCH   8   9
ENDBRANCH   7   8
ENDBRANCH   4   7
ENDBRANCH   2   3
ENDBRANCH   1   2
BRANCH   1  22
ATOM     22  C   UNL A   1      33.500  22.469  27.545  1.00  0.00     0.002 C 
BRANCH  22  23
ATOM     23  C   UNL A   1      34.916  22.476  26.959  1.00  0.00     0.002 C 
BRANCH  23  24
ATOM     24  C   UNL A   1      35.136  23.449  25.797  1.00  0.00     0.021 C 
BRANCH  24  25
ATOM     25  C   UNL A   1      36.574  23.943  25.645  1.00  0.00     0.116 C 
BRANCH  25  26
ATOM     26  N   UNL A   1      37.537  22.870  25.824  1.00  0.00    -0.352 N 
ATOM     27  C   UNL A   1      38.831  22.939  26.282  1.00  0.00     0.251 C 
ATOM     28  H   UNL A   1      37.220  21.970  25.583  1.00  0.00     0.163 HD
ATOM     29  O   UNL A   1      39.589  21.984  26.160  1.00  0.00    -0.269 OA
BRANCH  27  30
ATOM     30  C   UNL A   1      39.318  24.185  26.911  1.00  0.00     0.039 A 
ATOM     31  C   UNL A   1      40.055  25.092  26.145  1.00  0.00     0.014 A 
ATOM     32  C   UNL A   1      39.051  24.452  28.256  1.00  0.00     0.014 A 
ATOM     33  C   UNL A   1      40.466  26.303  26.711  1.00  0.00     0.010 A 
ATOM     34  C   UNL A   1      39.410  25.683  28.800  1.00  0.00     0.010 A 
ATOM     35  C   UNL A   1      40.118  26.622  28.032  1.00  0.00    -0.014 A 
BRANCH  35  36
ATOM     36  C   UNL A   1      40.472  27.927  28.645  1.00  0.00     0.031 A 
ATOM     37  C   UNL A   1      41.805  28.101  29.320  1.00  0.00     0.074 A 
ATOM     38  C   UNL A   1      39.560  28.918  28.692  1.00  0.00     0.049 A 
ATOM     39  N   UNL A   1      42.234  29.094  30.056  1.00  0.00    -0.248 NA
ATOM     40  C   UNL A   1      42.771  27.000  29.170  1.00  0.00     0.031 C 
ATOM     41  C   UNL A   1      38.221  28.872  28.103  1.00  0.00     0.029 A 
ATOM     42  N   UNL A   1      39.616  30.153  29.291  1.00  0.00    -0.354 N 
ATOM     43  C   UNL A   1      43.500  28.720  30.491  1.00  0.00     0.074 A 
ATOM     44  C   UNL A   1      43.764  27.405  29.950  1.00  0.00     0.031 C 
ATOM     45  C   UNL A   1      37.582  30.023  28.370  1.00  0.00     0.029 A 
ATOM     46  C   UNL A   1      38.449  30.871  29.184  1.00  0.00     0.049 A 
ATOM     47  H   UNL A   1      40.416  30.492  29.754  1.00  0.00     0.167 HD
ATOM     48  C   UNL A   1      44.365  29.413  31.268  1.00  0.00     0.031 A 
ATOM     49  C   UNL A   1      38.104  32.063  29.704  1.00  0.00     0.031 A 
ATOM     50  C   UNL A   1      44.125  30.737  31.773  1.00  0.00     0.049 A 
ATOM     51  C   UNL A   1      39.091  32.816  30.552  1.00  0.00     0.074 A 
ATOM     52  C   UNL A   1      44.979  31.549  32.499  1.00  0.00     0.029 A 
ATOM     53  N   UNL A   1      42.947  31.444  31.601  1.00  0.00    -0.354 N 
ATOM     54  N   UNL A   1      40.307  32.474  30.902  1.00  0.00    -0.248 NA
ATOM     55  C   UNL A   1      38.658  34.120  31.077  1.00  0.00     0.031 C 
ATOM     56  C   UNL A   1      44.304  32.735  32.800  1.00  0.00     0.029 A 
ATOM     57  C   UNL A   1      43.044  32.675  32.227  1.00  0.00     0.049 A 
ATOM     58  H   UNL A   1      42.159  31.120  31.110  1.00  0.00     0.167 HD
ATOM     59  C   UNL A   1      40.793  33.532  31.659  1.00  0.00     0.074 A 
ATOM     60  C   UNL A   1      39.746  34.529  31.714  1.00  0.00     0.031 C 
ATOM     61  C   UNL A   1      42.001  33.664  32.256  1.00  0.00     0.031 A 
BRANCH  48  62
ATOM     62  C   UNL A   1      45.660  28.748  31.635  1.00  0.00    -0.014 A 
ATOM     63  C   UNL A   1      45.781  27.988  32.808  1.00  0.00     0.009 A 
ATOM     64  C   UNL A   1      46.754  28.831  30.758  1.00  0.00     0.009 A 
ATOM     65  C   UNL A   1      46.983  27.344  33.108  1.00  0.00     0.001 A 
ATOM     66  C   UNL A   1      47.946  28.167  31.051  1.00  0.00     0.001 A 
ATOM     67  C   UNL A   1      48.062  27.430  32.228  1.00  0.00     0.000 A 
ENDBRANCH  48  62
BRANCH  49  68
ATOM     68  C   UNL A   1      36.754  32.628  29.451  1.00  0.00    -0.014 A 
ATOM     69  C   UNL A   1      35.705  32.393  30.353  1.00  0.00     0.009 A 
ATOM     70  C   UNL A   1      36.499  33.377  28.292  1.00  0.00     0.009 A 
ATOM     71  C   UNL A   1      34.421  32.871  30.085  1.00  0.00     0.001 A 
ATOM     72  C   UNL A   1      35.220  33.877  28.040  1.00  0.00     0.001 A 
ATOM     73  C   UNL A   1      34.180  33.614  28.930  1.00  0.00     0.000 A 
ENDBRANCH  49  68
BRANCH  61  74
ATOM     74  C   UNL A   1      42.277  34.949  32.979  1.00  0.00    -0.014 A 
ATOM     75  C   UNL A   1      41.784  35.176  34.271  1.00  0.00     0.009 A 
ATOM     76  C   UNL A   1      43.092  35.921  32.376  1.00  0.00     0.009 A 
ATOM     77  C   UNL A   1      42.086  36.363  34.940  1.00  0.00     0.001 A 
ATOM     78  C   UNL A   1      43.409  37.097  33.056  1.00  0.00     0.001 A 
ATOM     79  C   UNL A   1      42.901  37.320  34.335  1.00  0.00     0.000 A 
ENDBRANCH  61  74
ENDBRANCH  35  36
ENDBRANCH  27  30
ENDBRANCH  25  26
ENDBRANCH  24  25
ENDBRANCH  23  24
ENDBRANCH  22  23
ENDBRANCH   1  22
TORSDOF 18
ENDMDL
MODEL 3
REMARK VINA RESULT:      -9.7      3.462      8.672
REMARK SMILES CCN(CCC(=O)NCCCCCCNC(=O)c1ccc(-c2c3nc(c(-c4ccccc4)c4ccc([nH]4)c(-c4ccccc4)c4nc(c(-c5ccccc5)c5ccc2[nH]5)C=C4)C=C3)cc1)C(=O)c1cc(Cl)ccc1F
REMARK SMILES IDX 10 1 9 2 8 3 6 4 7 5 5 7 4 8 3 9 2 10 1 11 66 12 67 13 68 14
REMARK SMILES IDX 69 15 74 16 70 17 73 18 75 19 71 20 72 21 11 22 12 23 13 24
REMARK SMILES IDX 14 25 15 26 16 27 17 29 18 30 19 31 65 32 20 33 64 34 21 35
REMARK SMILES IDX 22 36 23 37 58 38 24 39 63 40 57 41 59 42 25 43 62 44 56 45
REMARK SMILES IDX 55 46 26 48 48 49 33 50 47 51 34 52 37 53 46 54 60 55 35 56
REMARK SMILES IDX 36 57 45 59 61 60 38 61 27 62 28 63 32 64 29 65 31 66 30 67
REMARK SMILES IDX 49 68 50 69 54 70 51 71 53 72 52 73 39 74 40 75 44 76 41 77
REMARK SMILES IDX 43 78 42 79
REMARK H PARENT 8 6 15 28 59 47 37 58
REMARK Flexibility Score: inf
ROOT
ATOM      1  C   UNL A   1      41.192  21.951  26.105  1.00  0.00     0.021 C 
ENDROOT
BRANCH   1   2
ATOM      2  C   UNL A   1      39.708  21.609  26.160  1.00  0.00     0.116 C 
BRANCH   2   3
ATOM      3  N   UNL A   1      38.889  22.805  26.105  1.00  0.00    -0.356 N 
ATOM      4  C   UNL A   1      37.586  22.948  25.740  1.00  0.00     0.221 C 
ATOM      5  O   UNL A   1      37.099  24.080  25.739  1.00  0.00    -0.275 OA
ATOM      6  H   UNL A   1      39.344  23.636  26.372  1.00  0.00     0.163 HD
BRANCH   4   7
ATOM      7  C   UNL A   1      36.756  21.745  25.362  1.00  0.00     0.121 C 
BRANCH   7   8
ATOM      8  C   UNL A   1      35.320  21.850  25.856  1.00  0.00     0.129 C 
BRANCH   8   9
ATOM      9  N   UNL A   1      34.275  21.926  24.823  1.00  0.00    -0.338 N 
BRANCH   9  10
ATOM     10  C   UNL A   1      34.693  22.644  23.600  1.00  0.00     0.116 C 
ATOM     11  C   UNL A   1      33.976  23.917  23.180  1.00  0.00     0.027 C 
ENDBRANCH   9  10
BRANCH   9  12
ATOM     12  C   UNL A   1      33.073  21.196  24.872  1.00  0.00     0.256 C 
ATOM     13  O   UNL A   1      32.145  21.485  25.628  1.00  0.00    -0.269 OA
BRANCH  12  14
ATOM     14  C   UNL A   1      32.961  19.852  24.234  1.00  0.00     0.077 A 
ATOM     15  C   UNL A   1      33.450  18.776  25.004  1.00  0.00     0.037 A 
ATOM     16  C   UNL A   1      32.393  19.564  22.998  1.00  0.00     0.136 A 
ATOM     17  C   UNL A   1      33.467  17.479  24.492  1.00  0.00     0.042 A 
ATOM     18  C   UNL A   1      32.451  18.271  22.466  1.00  0.00     0.041 A 
ATOM     19  F   UNL A   1      31.711  20.479  22.300  1.00  0.00    -0.206 F 
ATOM     20  Cl  UNL A   1      34.080  16.188  25.450  1.00  0.00    -0.084 Cl
ATOM     21  C   UNL A   1      33.000  17.227  23.208  1.00  0.00     0.023 A 
ENDBRANCH  12  14
ENDBRANCH   9  12
ENDBRANCH   8   9
ENDBRANCH   7   8
ENDBRANCH   4   7
ENDBRANCH   2   3
ENDBRANCH   1   2
BRANCH   1  22
ATOM     22  C   UNL A   1      42.034  21.231  27.165  1.00  0.00     0.002 C 
BRANCH  22  23
ATOM     23  C   UNL A   1      41.815  19.716  27.236  1.00  0.00     0.002 C 
BRANCH  23  24
ATOM     24  C   UNL A   1      42.373  18.920  26.053  1.00  0.00     0.021 C 
BRANCH  24  25
ATOM     25  C   UNL A   1      43.868  18.617  26.140  1.00  0.00     0.116 C 
BRANCH  25  26
ATOM     26  N   UNL A   1      44.483  18.542  24.826  1.00  0.00    -0.352 N 
ATOM     27  C   UNL A   1      44.850  19.566  23.984  1.00  0.00     0.251 C 
ATOM     28  H   UNL A   1      44.659  17.634  24.490  1.00  0.00     0.163 HD
ATOM     29  O   UNL A   1      45.144  19.339  22.817  1.00  0.00    -0.269 OA
BRANCH  27  30
ATOM     30  C   UNL A   1      44.871  20.955  24.491  1.00  0.00     0.039 A 
ATOM     31  C   UNL A   1      45.513  21.229  25.701  1.00  0.00     0.014 A 
ATOM     32  C   UNL A   1      44.250  21.981  23.774  1.00  0.00     0.014 A 
ATOM     33  C   UNL A   1      45.594  22.548  26.159  1.00  0.00     0.010 A 
ATOM     34  C   UNL A   1      44.383  23.299  24.202  1.00  0.00     0.010 A 
ATOM     35  C   UNL A   1      45.059  23.597  25.396  1.00  0.00    -0.014 A 
BRANCH  35  36
ATOM     36  C   UNL A   1      45.189  25.016  25.811  1.00  0.00     0.031 A 
ATOM     37  C   UNL A   1      46.531  25.694  25.755  1.00  0.00     0.074 A 
ATOM     38  C   UNL A   1      44.130  25.662  26.339  1.00  0.00     0.049 A 
ATOM     39  N   UNL A   1      46.886  26.861  26.228  1.00  0.00    -0.248 NA
ATOM     40  C   UNL A   1      47.621  24.949  25.106  1.00  0.00     0.031 C 
ATOM     41  C   UNL A   1      42.780  25.113  26.478  1.00  0.00     0.029 A 
ATOM     42  N   UNL A   1      44.035  26.918  26.885  1.00  0.00    -0.354 N 
ATOM     43  C   UNL A   1      48.247  26.972  25.973  1.00  0.00     0.074 A 
ATOM     44  C   UNL A   1      48.657  25.750  25.317  1.00  0.00     0.031 C 
ATOM     45  C   UNL A   1      41.993  26.026  27.071  1.00  0.00     0.029 A 
ATOM     46  C   UNL A   1      42.790  27.206  27.393  1.00  0.00     0.049 A 
ATOM     47  H   UNL A   1      44.787  27.553  26.912  1.00  0.00     0.167 HD
ATOM     48  C   UNL A   1      49.079  28.001  26.256  1.00  0.00     0.031 A 
ATOM     49  C   UNL A   1      42.347  28.285  28.063  1.00  0.00     0.031 A 
ATOM     50  C   UNL A   1      48.668  29.235  26.869  1.00  0.00     0.049 A 
ATOM     51  C   UNL A   1      43.290  29.419  28.352  1.00  0.00     0.074 A 
ATOM     52  C   UNL A   1      49.426  30.366  27.118  1.00  0.00     0.029 A 
ATOM     53  N   UNL A   1      47.388  29.500  27.324  1.00  0.00    -0.354 N 
ATOM     54  N   UNL A   1      44.560  29.532  28.048  1.00  0.00    -0.248 NA
ATOM     55  C   UNL A   1      42.739  30.574  29.075  1.00  0.00     0.031 C 
ATOM     56  C   UNL A   1      48.613  31.304  27.760  1.00  0.00     0.029 A 
ATOM     57  C   UNL A   1      47.340  30.770  27.873  1.00  0.00     0.049 A 
ATOM     58  H   UNL A   1      46.627  28.879  27.268  1.00  0.00     0.167 HD
ATOM     59  C   UNL A   1      44.950  30.781  28.515  1.00  0.00     0.074 A 
ATOM     60  C   UNL A   1      43.783  31.391  29.116  1.00  0.00     0.031 C 
ATOM     61  C   UNL A   1      46.167  31.369  28.450  1.00  0.00     0.031 A 
BRANCH  48  62
ATOM     62  C   UNL A   1      50.532  27.838  25.915  1.00  0.00    -0.014 A 
ATOM     63  C   UNL A   1      51.441  27.301  26.839  1.00  0.00     0.009 A 
ATOM     64  C   UNL A   1      50.982  28.169  24.627  1.00  0.00     0.009 A 
ATOM     65  C   UNL A   1      52.779  27.120  26.487  1.00  0.00     0.001 A 
ATOM     66  C   UNL A   1      52.316  27.965  24.271  1.00  0.00     0.001 A 
ATOM     67  C   UNL A   1      53.214  27.447  25.202  1.00  0.00     0.000 A 
ENDBRANCH  48  62
BRANCH  49  68
ATOM     68  C   UNL A   1      40.937  28.351  28.527  1.00  0.00    -0.014 A 
ATOM     69  C   UNL A   1      40.568  27.794  29.760  1.00  0.00     0.009 A 
ATOM     70  C   UNL A   1      39.949  28.943  27.725  1.00  0.00     0.009 A 
ATOM     71  C   UNL A   1      39.232  27.800  30.168  1.00  0.00     0.001 A 
ATOM     72  C   UNL A   1      38.619  28.971  28.147  1.00  0.00     0.001 A 
ATOM     73  C   UNL A   1      38.259  28.391  29.363  1.00  0.00     0.000 A 
ENDBRANCH  49  68
BRANCH  61  74
ATOM     74  C   UNL A   1      46.292  32.760  28.998  1.00  0.00    -0.014 A 
ATOM     75  C   UNL A   1      46.024  33.882  28.201  1.00  0.00     0.009 A 
ATOM     76  C   UNL A   1      46.627  32.944  30.349  1.00  0.00     0.009 A 
ATOM     77  C   UNL A   1      46.109  35.166  28.743  1.00  0.00     0.001 A 
ATOM     78  C   UNL A   1      46.690  34.227  30.893  1.00  0.00     0.001 A 
ATOM     79  C   UNL A   1      46.436  35.337  30.088  1.00  0.00     0.000 A 
ENDBRANCH  61  74
ENDBRANCH  35  36
ENDBRANCH  27  30
ENDBRANCH  25  26
ENDBRANCH  24  25
ENDBRANCH  23  24
ENDBRANCH  22  23
ENDBRANCH   1  22
TORSDOF 18
ENDMDL
