MODEL 1
REMARK VINA RESULT:     -10.9      0.000      0.000
REMARK SMILES CNC(=O)[C@H](C)S(=O)(=O)c1cc(C(=O)NCCCCCCNC(=O)c2ccc(-c3c4nc(c(-c5ccccc5)c5ccc([nH]5)c(-c5ccccc5)c5nc(c(-c6ccccc6)c6ccc3[nH]6)C=C5)C=C4)cc2)c(C)cc1C
REMARK SMILES IDX 18 1 17 2 16 3 15 4 13 5 14 6 12 8 10 9 11 10 76 11 75 12
REMARK SMILES IDX 77 13 73 14 74 15 7 16 8 17 9 18 5 19 6 20 3 21 1 22 2 23
REMARK SMILES IDX 4 25 19 26 20 27 21 28 22 29 23 30 24 32 25 33 26 34 72 35
REMARK SMILES IDX 27 36 71 37 28 38 29 39 30 40 65 41 31 42 70 43 64 44 66 45
REMARK SMILES IDX 32 46 69 47 63 48 62 49 33 51 55 52 40 53 54 54 41 55 44 56
REMARK SMILES IDX 53 57 67 58 42 59 43 60 52 62 68 63 45 64 34 65 35 66 39 67
REMARK SMILES IDX 36 68 38 69 37 70 56 71 57 72 61 73 58 74 60 75 59 76 46 77
REMARK SMILES IDX 47 78 51 79 48 80 50 81 49 82
REMARK H PARENT 15 7 2 24 22 31 66 50 44 61
REMARK Flexibility Score: inf
ROOT
ATOM      1  C   UNL A   1      34.423  21.084  25.857  1.00  0.00     0.002 C 
ENDROOT
BRANCH   1   2
ATOM      2  C   UNL A   1      34.348  21.475  27.334  1.00  0.00     0.021 C 
BRANCH   2   3
ATOM      3  C   UNL A   1      33.330  22.581  27.641  1.00  0.00     0.116 C 
BRANCH   3   4
ATOM      4  N   UNL A   1      32.047  22.198  27.103  1.00  0.00    -0.352 N 
ATOM      5  C   UNL A   1      31.299  22.586  26.026  1.00  0.00     0.251 C 
ATOM      6  O   UNL A   1      30.162  22.102  25.990  1.00  0.00    -0.269 OA
ATOM      7  H   UNL A   1      31.608  21.494  27.633  1.00  0.00     0.163 HD
BRANCH   5   8
ATOM      8  C   UNL A   1      31.750  23.429  24.865  1.00  0.00     0.044 A 
ATOM      9  C   UNL A   1      32.450  25.748  24.338  1.00  0.00     0.071 A 
ATOM     10  C   UNL A   1      31.983  24.771  25.235  1.00  0.00     0.034 A 
ATOM     11  C   UNL A   1      32.612  25.430  22.989  1.00  0.00    -0.032 A 
ATOM     12  C   UNL A   1      32.424  24.089  22.621  1.00  0.00     0.009 A 
ATOM     13  C   UNL A   1      33.093  26.373  21.924  1.00  0.00     0.046 C 
ATOM     14  C   UNL A   1      32.083  23.072  23.549  1.00  0.00    -0.038 A 
ATOM     15  C   UNL A   1      32.246  21.678  23.028  1.00  0.00     0.045 C 
BRANCH   9  16
ATOM     16  S   UNL A   1      33.034  27.275  25.066  1.00  0.00     0.190 S 
ATOM     17  O   UNL A   1      33.597  28.099  24.018  1.00  0.00    -0.223 OA
ATOM     18  O   UNL A   1      33.919  26.894  26.161  1.00  0.00    -0.223 OA
BRANCH  16  19
ATOM     19  C   UNL A   1      31.624  28.121  25.743  1.00  0.00     0.199 C 
ATOM     20  C   UNL A   1      31.646  28.084  27.272  1.00  0.00     0.036 C 
BRANCH  19  21
ATOM     21  C   UNL A   1      31.566  29.547  25.252  1.00  0.00     0.238 C 
ATOM     22  C   UNL A   1      30.260  29.040  23.125  1.00  0.00     0.142 C 
ATOM     23  N   UNL A   1      30.881  29.884  24.124  1.00  0.00    -0.358 N 
ATOM     24  H   UNL A   1      30.795  30.851  23.962  1.00  0.00     0.163 HD
ATOM     25  O   UNL A   1      32.106  30.465  25.875  1.00  0.00    -0.274 OA
ENDBRANCH  19  21
ENDBRANCH  16  19
ENDBRANCH   9  16
ENDBRANCH   5   8
ENDBRANCH   3   4
ENDBRANCH   2   3
ENDBRANCH   1   2
BRANCH   1  26
ATOM     26  C   UNL A   1      35.701  21.541  25.147  1.00  0.00     0.002 C 
BRANCH  26  27
ATOM     27  C   UNL A   1      35.760  23.035  24.811  1.00  0.00     0.021 C 
BRANCH  27  28
ATOM     28  C   UNL A   1      37.096  23.707  25.116  1.00  0.00     0.116 C 
BRANCH  28  29
ATOM     29  N   UNL A   1      38.113  22.739  25.494  1.00  0.00    -0.352 N 
ATOM     30  C   UNL A   1      39.304  22.937  26.143  1.00  0.00     0.251 C 
ATOM     31  H   UNL A   1      37.918  21.806  25.248  1.00  0.00     0.163 HD
ATOM     32  O   UNL A   1      40.155  22.053  26.161  1.00  0.00    -0.269 OA
BRANCH  30  33
ATOM     33  C   UNL A   1      39.569  24.225  26.820  1.00  0.00     0.039 A 
ATOM     34  C   UNL A   1      39.073  24.428  28.110  1.00  0.00     0.014 A 
ATOM     35  C   UNL A   1      40.278  25.239  26.169  1.00  0.00     0.014 A 
ATOM     36  C   UNL A   1      39.335  25.630  28.770  1.00  0.00     0.010 A 
ATOM     37  C   UNL A   1      40.594  26.410  26.852  1.00  0.00     0.010 A 
ATOM     38  C   UNL A   1      40.120  26.620  28.156  1.00  0.00    -0.014 A 
BRANCH  38  39
ATOM     39  C   UNL A   1      40.454  27.883  28.859  1.00  0.00     0.031 A 
ATOM     40  C   UNL A   1      41.781  28.039  29.547  1.00  0.00     0.074 A 
ATOM     41  C   UNL A   1      39.535  28.866  28.934  1.00  0.00     0.049 A 
ATOM     42  N   UNL A   1      42.227  29.040  30.265  1.00  0.00    -0.248 NA
ATOM     43  C   UNL A   1      42.723  26.914  29.435  1.00  0.00     0.031 C 
ATOM     44  C   UNL A   1      38.197  28.824  28.340  1.00  0.00     0.029 A 
ATOM     45  N   UNL A   1      39.587  30.091  29.550  1.00  0.00    -0.354 N 
ATOM     46  C   UNL A   1      43.489  28.657  30.703  1.00  0.00     0.074 A 
ATOM     47  C   UNL A   1      43.719  27.317  30.211  1.00  0.00     0.031 C 
ATOM     48  C   UNL A   1      37.565  29.978  28.600  1.00  0.00     0.029 A 
ATOM     49  C   UNL A   1      38.434  30.825  29.410  1.00  0.00     0.049 A 
ATOM     50  H   UNL A   1      40.374  30.414  30.044  1.00  0.00     0.167 HD
ATOM     51  C   UNL A   1      44.382  29.363  31.436  1.00  0.00     0.031 A 
ATOM     52  C   UNL A   1      38.111  32.043  29.886  1.00  0.00     0.031 A 
ATOM     53  C   UNL A   1      44.158  30.701  31.916  1.00  0.00     0.049 A 
ATOM     54  C   UNL A   1      39.117  32.803  30.703  1.00  0.00     0.074 A 
ATOM     55  C   UNL A   1      45.024  31.522  32.618  1.00  0.00     0.029 A 
ATOM     56  N   UNL A   1      42.982  31.414  31.743  1.00  0.00    -0.354 N 
ATOM     57  N   UNL A   1      40.330  32.452  31.055  1.00  0.00    -0.248 NA
ATOM     58  C   UNL A   1      38.712  34.134  31.178  1.00  0.00     0.031 C 
ATOM     59  C   UNL A   1      44.354  32.714  32.911  1.00  0.00     0.029 A 
ATOM     60  C   UNL A   1      43.091  32.656  32.344  1.00  0.00     0.049 A 
ATOM     61  H   UNL A   1      42.188  31.085  31.264  1.00  0.00     0.167 HD
ATOM     62  C   UNL A   1      40.843  33.528  31.768  1.00  0.00     0.074 A 
ATOM     63  C   UNL A   1      39.815  34.548  31.785  1.00  0.00     0.031 C 
ATOM     64  C   UNL A   1      42.059  33.660  32.352  1.00  0.00     0.031 A 
BRANCH  51  65
ATOM     65  C   UNL A   1      45.687  28.694  31.770  1.00  0.00    -0.014 A 
ATOM     66  C   UNL A   1      45.833  27.926  32.937  1.00  0.00     0.009 A 
ATOM     67  C   UNL A   1      46.775  28.807  30.892  1.00  0.00     0.009 A 
ATOM     68  C   UNL A   1      47.053  27.316  33.234  1.00  0.00     0.001 A 
ATOM     69  C   UNL A   1      47.985  28.172  31.177  1.00  0.00     0.001 A 
ATOM     70  C   UNL A   1      48.127  27.435  32.353  1.00  0.00     0.000 A 
ENDBRANCH  51  65
BRANCH  52  71
ATOM     71  C   UNL A   1      36.780  32.629  29.584  1.00  0.00    -0.014 A 
ATOM     72  C   UNL A   1      35.747  32.574  30.533  1.00  0.00     0.009 A 
ATOM     73  C   UNL A   1      36.532  33.245  28.348  1.00  0.00     0.009 A 
ATOM     74  C   UNL A   1      34.488  33.101  30.240  1.00  0.00     0.001 A 
ATOM     75  C   UNL A   1      35.281  33.797  28.069  1.00  0.00     0.001 A 
ATOM     76  C   UNL A   1      34.257  33.716  29.010  1.00  0.00     0.000 A 
ENDBRANCH  52  71
BRANCH  64  77
ATOM     77  C   UNL A   1      42.358  34.968  33.029  1.00  0.00    -0.014 A 
ATOM     78  C   UNL A   1      41.878  35.250  34.317  1.00  0.00     0.009 A 
ATOM     79  C   UNL A   1      43.165  35.914  32.380  1.00  0.00     0.009 A 
ATOM     80  C   UNL A   1      42.177  36.469  34.929  1.00  0.00     0.001 A 
ATOM     81  C   UNL A   1      43.485  37.119  33.005  1.00  0.00     0.001 A 
ATOM     82  C   UNL A   1      42.983  37.399  34.275  1.00  0.00     0.000 A 
ENDBRANCH  64  77
ENDBRANCH  38  39
ENDBRANCH  30  33
ENDBRANCH  28  29
ENDBRANCH  27  28
ENDBRANCH  26  27
ENDBRANCH   1  26
TORSDOF 16
ENDMDL
MODEL 2
REMARK VINA RESULT:     -10.8      1.948      7.876
REMARK SMILES CNC(=O)[C@H](C)S(=O)(=O)c1cc(C(=O)NCCCCCCNC(=O)c2ccc(-c3c4nc(c(-c5ccccc5)c5ccc([nH]5)c(-c5ccccc5)c5nc(c(-c6ccccc6)c6ccc3[nH]6)C=C5)C=C4)cc2)c(C)cc1C
REMARK SMILES IDX 18 1 17 2 16 3 15 4 13 5 14 6 12 8 10 9 11 10 76 11 75 12
REMARK SMILES IDX 77 13 73 14 74 15 7 16 8 17 9 18 5 19 6 20 3 21 1 22 2 23
REMARK SMILES IDX 4 25 19 26 20 27 21 28 22 29 23 30 24 32 25 33 26 34 72 35
REMARK SMILES IDX 27 36 71 37 28 38 29 39 30 40 65 41 31 42 70 43 64 44 66 45
REMARK SMILES IDX 32 46 69 47 63 48 62 49 33 51 55 52 40 53 54 54 41 55 44 56
REMARK SMILES IDX 53 57 67 58 42 59 43 60 52 62 68 63 45 64 34 65 35 66 39 67
REMARK SMILES IDX 36 68 38 69 37 70 56 71 57 72 61 73 58 74 60 75 59 76 46 77
REMARK SMILES IDX 47 78 51 79 48 80 50 81 49 82
REMARK H PARENT 15 7 2 24 22 31 66 50 44 61
REMARK Flexibility Score: inf
ROOT
ATOM      1  C   UNL A   1      30.743  30.562  24.593  1.00  0.00     0.002 C 
ENDROOT
BRANCH   1   2
ATOM      2  C   UNL A   1      30.706  29.118  24.087  1.00  0.00     0.021 C 
BRANCH   2   3
ATOM      3  C   UNL A   1      30.962  28.974  22.581  1.00  0.00     0.116 C 
BRANCH   3   4
ATOM      4  N   UNL A   1      32.385  29.011  22.342  1.00  0.00    -0.352 N 
ATOM      5  C   UNL A   1      33.479  28.470  22.957  1.00  0.00     0.251 C 
ATOM      6  O   UNL A   1      34.564  28.865  22.514  1.00  0.00    -0.269 OA
ATOM      7  H   UNL A   1      32.623  29.550  21.553  1.00  0.00     0.163 HD
BRANCH   5   8
ATOM      8  C   UNL A   1      33.489  27.398  24.012  1.00  0.00     0.044 A 
ATOM      9  C   UNL A   1      33.369  24.932  24.239  1.00  0.00     0.071 A 
ATOM     10  C   UNL A   1      33.349  26.105  23.463  1.00  0.00     0.034 A 
ATOM     11  C   UNL A   1      33.438  25.022  25.630  1.00  0.00    -0.032 A 
ATOM     12  C   UNL A   1      33.620  26.299  26.180  1.00  0.00     0.009 A 
ATOM     13  C   UNL A   1      33.459  23.857  26.577  1.00  0.00     0.046 C 
ATOM     14  C   UNL A   1      33.735  27.473  25.392  1.00  0.00    -0.038 A 
ATOM     15  C   UNL A   1      34.244  28.669  26.133  1.00  0.00     0.045 C 
BRANCH   9  16
ATOM     16  S   UNL A   1      33.551  23.394  23.342  1.00  0.00     0.190 S 
ATOM     17  O   UNL A   1      34.683  22.675  23.886  1.00  0.00    -0.223 OA
ATOM     18  O   UNL A   1      33.604  23.749  21.928  1.00  0.00    -0.223 OA
BRANCH  16  19
ATOM     19  C   UNL A   1      32.087  22.428  23.630  1.00  0.00     0.199 C 
ATOM     20  C   UNL A   1      30.838  23.173  23.158  1.00  0.00     0.036 C 
BRANCH  19  21
ATOM     21  C   UNL A   1      32.187  21.084  22.950  1.00  0.00     0.238 C 
ATOM     22  C   UNL A   1      33.001  19.810  24.999  1.00  0.00     0.142 C 
ATOM     23  N   UNL A   1      32.528  19.960  23.639  1.00  0.00    -0.358 N 
ATOM     24  H   UNL A   1      32.437  19.119  23.136  1.00  0.00     0.163 HD
ATOM     25  O   UNL A   1      31.928  20.949  21.751  1.00  0.00    -0.274 OA
ENDBRANCH  19  21
ENDBRANCH  16  19
ENDBRANCH   9  16
ENDBRANCH   5   8
ENDBRANCH   3   4
ENDBRANCH   2   3
ENDBRANCH   1   2
BRANCH   1  26
ATOM     26  C   UNL A   1      31.377  30.729  25.977  1.00  0.00     0.002 C 
BRANCH  26  27
ATOM     27  C   UNL A   1      31.318  32.149  26.552  1.00  0.00     0.021 C 
BRANCH  27  28
ATOM     28  C   UNL A   1      32.624  32.645  27.168  1.00  0.00     0.116 C 
BRANCH  28  29
ATOM     29  N   UNL A   1      32.476  33.967  27.752  1.00  0.00    -0.352 N 
ATOM     30  C   UNL A   1      33.199  34.562  28.754  1.00  0.00     0.251 C 
ATOM     31  H   UNL A   1      31.752  34.516  27.374  1.00  0.00     0.163 HD
ATOM     32  O   UNL A   1      32.785  35.582  29.295  1.00  0.00    -0.269 OA
BRANCH  30  33
ATOM     33  C   UNL A   1      34.482  33.969  29.189  1.00  0.00     0.039 A 
ATOM     34  C   UNL A   1      34.503  33.158  30.326  1.00  0.00     0.014 A 
ATOM     35  C   UNL A   1      35.664  34.239  28.493  1.00  0.00     0.014 A 
ATOM     36  C   UNL A   1      35.703  32.573  30.735  1.00  0.00     0.010 A 
ATOM     37  C   UNL A   1      36.846  33.603  28.864  1.00  0.00     0.010 A 
ATOM     38  C   UNL A   1      36.879  32.769  29.991  1.00  0.00    -0.014 A 
BRANCH  38  39
ATOM     39  C   UNL A   1      38.153  32.115  30.378  1.00  0.00     0.031 A 
ATOM     40  C   UNL A   1      39.093  32.794  31.334  1.00  0.00     0.074 A 
ATOM     41  C   UNL A   1      38.494  30.939  29.816  1.00  0.00     0.049 A 
ATOM     42  N   UNL A   1      40.278  32.411  31.739  1.00  0.00    -0.248 NA
ATOM     43  C   UNL A   1      38.656  34.085  31.889  1.00  0.00     0.031 C 
ATOM     44  C   UNL A   1      37.686  30.195  28.847  1.00  0.00     0.029 A 
ATOM     45  N   UNL A   1      39.618  30.166  29.976  1.00  0.00    -0.354 N 
ATOM     46  C   UNL A   1      40.734  33.420  32.580  1.00  0.00     0.074 A 
ATOM     47  C   UNL A   1      39.720  34.452  32.590  1.00  0.00     0.031 C 
ATOM     48  C   UNL A   1      38.329  29.064  28.517  1.00  0.00     0.029 A 
ATOM     49  C   UNL A   1      39.607  29.020  29.218  1.00  0.00     0.049 A 
ATOM     50  H   UNL A   1      40.359  30.410  30.575  1.00  0.00     0.167 HD
ATOM     51  C   UNL A   1      41.884  33.475  33.292  1.00  0.00     0.031 A 
ATOM     52  C   UNL A   1      40.529  28.046  29.098  1.00  0.00     0.031 A 
ATOM     53  C   UNL A   1      42.887  32.444  33.291  1.00  0.00     0.049 A 
ATOM     54  C   UNL A   1      41.801  28.135  29.892  1.00  0.00     0.074 A 
ATOM     55  C   UNL A   1      44.061  32.381  34.022  1.00  0.00     0.029 A 
ATOM     56  N   UNL A   1      42.834  31.294  32.520  1.00  0.00    -0.354 N 
ATOM     57  N   UNL A   1      42.188  29.065  30.730  1.00  0.00    -0.248 NA
ATOM     58  C   UNL A   1      42.759  27.030  29.731  1.00  0.00     0.031 C 
ATOM     59  C   UNL A   1      44.741  31.215  33.657  1.00  0.00     0.029 A 
ATOM     60  C   UNL A   1      43.964  30.525  32.740  1.00  0.00     0.049 A 
ATOM     61  H   UNL A   1      42.101  31.059  31.906  1.00  0.00     0.167 HD
ATOM     62  C   UNL A   1      43.419  28.645  31.219  1.00  0.00     0.074 A 
ATOM     63  C   UNL A   1      43.706  27.371  30.593  1.00  0.00     0.031 C 
ATOM     64  C   UNL A   1      44.235  29.260  32.109  1.00  0.00     0.031 A 
BRANCH  51  65
ATOM     65  C   UNL A   1      42.122  34.702  34.128  1.00  0.00    -0.014 A 
ATOM     66  C   UNL A   1      42.728  35.848  33.585  1.00  0.00     0.009 A 
ATOM     67  C   UNL A   1      41.709  34.725  35.469  1.00  0.00     0.009 A 
ATOM     68  C   UNL A   1      42.946  36.975  34.378  1.00  0.00     0.001 A 
ATOM     69  C   UNL A   1      41.902  35.865  36.251  1.00  0.00     0.001 A 
ATOM     70  C   UNL A   1      42.530  36.986  35.709  1.00  0.00     0.000 A 
ENDBRANCH  51  65
BRANCH  52  71
ATOM     71  C   UNL A   1      40.272  26.888  28.202  1.00  0.00    -0.014 A 
ATOM     72  C   UNL A   1      39.486  25.811  28.639  1.00  0.00     0.009 A 
ATOM     73  C   UNL A   1      40.812  26.852  26.907  1.00  0.00     0.009 A 
ATOM     74  C   UNL A   1      39.267  24.712  27.807  1.00  0.00     0.001 A 
ATOM     75  C   UNL A   1      40.568  25.764  26.067  1.00  0.00     0.001 A 
ATOM     76  C   UNL A   1      39.804  24.691  26.521  1.00  0.00     0.000 A 
ENDBRANCH  52  71
BRANCH  64  77
ATOM     77  C   UNL A   1      45.502  28.545  32.487  1.00  0.00    -0.014 A 
ATOM     78  C   UNL A   1      46.708  28.791  31.814  1.00  0.00     0.009 A 
ATOM     79  C   UNL A   1      45.491  27.640  33.559  1.00  0.00     0.009 A 
ATOM     80  C   UNL A   1      47.874  28.121  32.190  1.00  0.00     0.001 A 
ATOM     81  C   UNL A   1      46.664  26.993  33.951  1.00  0.00     0.001 A 
ATOM     82  C   UNL A   1      47.852  27.227  33.260  1.00  0.00     0.000 A 
ENDBRANCH  64  77
ENDBRANCH  38  39
ENDBRANCH  30  33
ENDBRANCH  28  29
ENDBRANCH  27  28
ENDBRANCH  26  27
ENDBRANCH   1  26
TORSDOF 16
ENDMDL
MODEL 3
REMARK VINA RESULT:     -10.8      3.258      8.471
REMARK SMILES CNC(=O)[C@H](C)S(=O)(=O)c1cc(C(=O)NCCCCCCNC(=O)c2ccc(-c3c4nc(c(-c5ccccc5)c5ccc([nH]5)c(-c5ccccc5)c5nc(c(-c6ccccc6)c6ccc3[nH]6)C=C5)C=C4)cc2)c(C)cc1C
REMARK SMILES IDX 18 1 17 2 16 3 15 4 13 5 14 6 12 8 10 9 11 10 76 11 75 12
REMARK SMILES IDX 77 13 73 14 74 15 7 16 8 17 9 18 5 19 6 20 3 21 1 22 2 23
REMARK SMILES IDX 4 25 19 26 20 27 21 28 22 29 23 30 24 32 25 33 26 34 72 35
REMARK SMILES IDX 27 36 71 37 28 38 29 39 30 40 65 41 31 42 70 43 64 44 66 45
REMARK SMILES IDX 32 46 69 47 63 48 62 49 33 51 55 52 40 53 54 54 41 55 44 56
REMARK SMILES IDX 53 57 67 58 42 59 43 60 52 62 68 63 45 64 34 65 35 66 39 67
REMARK SMILES IDX 36 68 38 69 37 70 56 71 57 72 61 73 58 74 60 75 59 76 46 77
REMARK SMILES IDX 47 78 51 79 48 80 50 81 49 82
REMARK H PARENT 15 7 2 24 22 31 66 50 44 61
REMARK Flexibility Score: inf
ROOT
ATOM      1  C   UNL A   1      34.407  32.238  28.779  1.00  0.00     0.002 C 
ENDROOT
BRANCH   1   2
ATOM      2  C   UNL A   1      33.532  31.693  27.648  1.00  0.00     0.021 C 
BRANCH   2   3
ATOM      3  C   UNL A   1      33.930  30.293  27.162  1.00  0.00     0.116 C 
BRANCH   3   4
ATOM      4  N   UNL A   1      32.990  29.332  27.687  1.00  0.00    -0.352 N 
ATOM      5  C   UNL A   1      32.237  28.327  27.147  1.00  0.00     0.251 C 
ATOM      6  O   UNL A   1      31.432  27.812  27.931  1.00  0.00    -0.269 OA
ATOM      7  H   UNL A   1      32.861  29.420  28.660  1.00  0.00     0.163 HD
BRANCH   5   8
ATOM      8  C   UNL A   1      32.367  27.736  25.771  1.00  0.00     0.044 A 
ATOM      9  C   UNL A   1      33.165  25.683  24.633  1.00  0.00     0.071 A 
ATOM     10  C   UNL A   1      32.969  26.459  25.789  1.00  0.00     0.034 A 
ATOM     11  C   UNL A   1      32.843  26.209  23.382  1.00  0.00    -0.032 A 
ATOM     12  C   UNL A   1      32.206  27.458  23.357  1.00  0.00     0.009 A 
ATOM     13  C   UNL A   1      33.007  25.497  22.069  1.00  0.00     0.046 C 
ATOM     14  C   UNL A   1      31.885  28.187  24.531  1.00  0.00    -0.038 A 
ATOM     15  C   UNL A   1      30.932  29.320  24.316  1.00  0.00     0.045 C 
BRANCH   9  16
ATOM     16  S   UNL A   1      33.593  23.965  24.899  1.00  0.00     0.190 S 
ATOM     17  O   UNL A   1      33.740  23.742  26.321  1.00  0.00    -0.223 OA
ATOM     18  O   UNL A   1      34.755  23.698  24.058  1.00  0.00    -0.223 OA
BRANCH  16  19
ATOM     19  C   UNL A   1      32.233  22.977  24.318  1.00  0.00     0.199 C 
ATOM     20  C   UNL A   1      32.584  22.284  23.001  1.00  0.00     0.036 C 
BRANCH  19  21
ATOM     21  C   UNL A   1      31.826  21.959  25.357  1.00  0.00     0.238 C 
ATOM     22  C   UNL A   1      30.342  23.533  26.700  1.00  0.00     0.142 C 
ATOM     23  N   UNL A   1      30.929  22.261  26.336  1.00  0.00    -0.358 N 
ATOM     24  H   UNL A   1      30.634  21.496  26.880  1.00  0.00     0.163 HD
ATOM     25  O   UNL A   1      32.265  20.806  25.334  1.00  0.00    -0.274 OA
ENDBRANCH  19  21
ENDBRANCH  16  19
ENDBRANCH   9  16
ENDBRANCH   5   8
ENDBRANCH   3   4
ENDBRANCH   2   3
ENDBRANCH   1   2
BRANCH   1  26
ATOM     26  C   UNL A   1      34.526  33.764  28.807  1.00  0.00     0.002 C 
BRANCH  26  27
ATOM     27  C   UNL A   1      33.200  34.516  28.966  1.00  0.00     0.021 C 
BRANCH  27  28
ATOM     28  C   UNL A   1      33.339  35.970  29.413  1.00  0.00     0.116 C 
BRANCH  28  29
ATOM     29  N   UNL A   1      32.537  36.250  30.592  1.00  0.00    -0.352 N 
ATOM     30  C   UNL A   1      32.641  35.735  31.859  1.00  0.00     0.251 C 
ATOM     31  H   UNL A   1      31.813  36.905  30.463  1.00  0.00     0.163 HD
ATOM     32  O   UNL A   1      31.732  35.889  32.668  1.00  0.00    -0.269 OA
BRANCH  30  33
ATOM     33  C   UNL A   1      33.853  34.984  32.250  1.00  0.00     0.039 A 
ATOM     34  C   UNL A   1      33.724  33.654  32.660  1.00  0.00     0.014 A 
ATOM     35  C   UNL A   1      35.107  35.601  32.244  1.00  0.00     0.014 A 
ATOM     36  C   UNL A   1      34.863  32.926  33.011  1.00  0.00     0.010 A 
ATOM     37  C   UNL A   1      36.247  34.855  32.531  1.00  0.00     0.010 A 
ATOM     38  C   UNL A   1      36.136  33.513  32.923  1.00  0.00    -0.014 A 
BRANCH  38  39
ATOM     39  C   UNL A   1      37.363  32.742  33.242  1.00  0.00     0.031 A 
ATOM     40  C   UNL A   1      38.097  32.984  34.531  1.00  0.00     0.074 A 
ATOM     41  C   UNL A   1      37.853  31.870  32.339  1.00  0.00     0.049 A 
ATOM     42  N   UNL A   1      39.219  32.457  34.954  1.00  0.00    -0.248 NA
ATOM     43  C   UNL A   1      37.507  33.966  35.455  1.00  0.00     0.031 C 
ATOM     44  C   UNL A   1      37.256  31.571  31.036  1.00  0.00     0.029 A 
ATOM     45  N   UNL A   1      38.975  31.080  32.380  1.00  0.00    -0.354 N 
ATOM     46  C   UNL A   1      39.476  33.055  36.182  1.00  0.00     0.074 A 
ATOM     47  C   UNL A   1      38.421  34.018  36.413  1.00  0.00     0.031 C 
ATOM     48  C   UNL A   1      38.002  30.647  30.412  1.00  0.00     0.029 A 
ATOM     49  C   UNL A   1      39.150  30.317  31.251  1.00  0.00     0.049 A 
ATOM     50  H   UNL A   1      39.595  31.061  33.144  1.00  0.00     0.167 HD
ATOM     51  C   UNL A   1      40.490  32.814  37.046  1.00  0.00     0.031 A 
ATOM     52  C   UNL A   1      40.129  29.452  30.925  1.00  0.00     0.031 A 
ATOM     53  C   UNL A   1      41.533  31.849  36.822  1.00  0.00     0.049 A 
ATOM     54  C   UNL A   1      41.248  29.208  31.898  1.00  0.00     0.074 A 
ATOM     55  C   UNL A   1      42.573  31.492  37.662  1.00  0.00     0.029 A 
ATOM     56  N   UNL A   1      41.668  31.088  35.671  1.00  0.00    -0.354 N 
ATOM     57  N   UNL A   1      41.442  29.735  33.082  1.00  0.00    -0.248 NA
ATOM     58  C   UNL A   1      42.276  28.238  31.492  1.00  0.00     0.031 C 
ATOM     59  C   UNL A   1      43.365  30.548  36.999  1.00  0.00     0.029 A 
ATOM     60  C   UNL A   1      42.787  30.278  35.770  1.00  0.00     0.049 A 
ATOM     61  H   UNL A   1      41.059  31.120  34.898  1.00  0.00     0.167 HD
ATOM     62  C   UNL A   1      42.598  29.141  33.575  1.00  0.00     0.074 A 
ATOM     63  C   UNL A   1      43.051  28.205  32.568  1.00  0.00     0.031 C 
ATOM     64  C   UNL A   1      43.224  29.352  34.758  1.00  0.00     0.031 A 
BRANCH  51  65
ATOM     65  C   UNL A   1      40.523  33.618  38.317  1.00  0.00    -0.014 A 
ATOM     66  C   UNL A   1      39.878  33.166  39.481  1.00  0.00     0.009 A 
ATOM     67  C   UNL A   1      41.233  34.827  38.361  1.00  0.00     0.009 A 
ATOM     68  C   UNL A   1      39.913  33.928  40.650  1.00  0.00     0.001 A 
ATOM     69  C   UNL A   1      41.292  35.571  39.541  1.00  0.00     0.001 A 
ATOM     70  C   UNL A   1      40.624  35.127  40.682  1.00  0.00     0.000 A 
ENDBRANCH  51  65
BRANCH  52  71
ATOM     71  C   UNL A   1      40.084  28.735  29.624  1.00  0.00    -0.014 A 
ATOM     72  C   UNL A   1      39.498  27.463  29.533  1.00  0.00     0.009 A 
ATOM     73  C   UNL A   1      40.628  29.315  28.469  1.00  0.00     0.009 A 
ATOM     74  C   UNL A   1      39.479  26.778  28.316  1.00  0.00     0.001 A 
ATOM     75  C   UNL A   1      40.583  28.640  27.247  1.00  0.00     0.001 A 
ATOM     76  C   UNL A   1      40.018  27.369  27.174  1.00  0.00     0.000 A 
ENDBRANCH  52  71
BRANCH  64  77
ATOM     77  C   UNL A   1      44.448  28.528  35.044  1.00  0.00    -0.014 A 
ATOM     78  C   UNL A   1      44.364  27.313  35.741  1.00  0.00     0.009 A 
ATOM     79  C   UNL A   1      45.697  28.957  34.571  1.00  0.00     0.009 A 
ATOM     80  C   UNL A   1      45.513  26.560  35.986  1.00  0.00     0.001 A 
ATOM     81  C   UNL A   1      46.840  28.188  34.792  1.00  0.00     0.001 A 
ATOM     82  C   UNL A   1      46.749  26.996  35.507  1.00  0.00     0.000 A 
ENDBRANCH  64  77
ENDBRANCH  38  39
ENDBRANCH  30  33
ENDBRANCH  28  29
ENDBRANCH  27  28
ENDBRANCH  26  27
ENDBRANCH   1  26
TORSDOF 16
ENDMDL
