MODEL 1
REMARK VINA RESULT:      -9.8      0.000      0.000
REMARK SMILES O=C(NCCCCCCNC(=O)[C@@H]1C=C[C@H](NC(=O)[C@@H]2Cc3ccccc3O2)C1)c1ccc(-c2c3nc(c(-c4ccccc4)c4ccc([nH]4)c(-c4ccccc4)c4nc(c(-c5ccccc5)c5ccc2[nH]5)C=C4)C=C3)cc1
REMARK SMILES IDX 6 1 5 2 4 3 3 4 1 5 2 6 30 8 31 9 77 10 32 11 76 12 33 13
REMARK SMILES IDX 34 14 35 15 70 16 36 17 75 18 69 19 71 20 37 21 74 22 68 23
REMARK SMILES IDX 67 24 38 26 60 27 45 28 59 29 46 30 49 31 58 32 72 33 47 34
REMARK SMILES IDX 48 35 57 37 73 38 50 39 39 40 40 41 44 42 41 43 43 44 42 45
REMARK SMILES IDX 61 46 62 47 66 48 63 49 65 50 64 51 51 52 52 53 56 54 53 55
REMARK SMILES IDX 55 56 54 57 7 58 8 59 9 60 10 61 11 62 12 64 13 65 14 66
REMARK SMILES IDX 29 67 15 68 16 69 17 70 18 71 19 73 20 74 21 75 28 76 22 77
REMARK SMILES IDX 27 78 23 79 26 80 24 81 25 82
REMARK H PARENT 3 7 71 25 49 36 10 63 17 72
REMARK Flexibility Score: inf
ROOT
ATOM      1  C   UNL A   1      35.013  35.206  33.094  1.00  0.00     0.002 C 
ENDROOT
BRANCH   1   2
ATOM      2  C   UNL A   1      33.601  35.292  32.511  1.00  0.00     0.021 C 
BRANCH   2   3
ATOM      3  C   UNL A   1      33.493  36.115  31.234  1.00  0.00     0.116 C 
BRANCH   3   4
ATOM      4  N   UNL A   1      32.767  35.412  30.189  1.00  0.00    -0.352 N 
ATOM      5  O   UNL A   1      32.516  34.104  28.369  1.00  0.00    -0.269 OA
ATOM      6  C   UNL A   1      33.213  34.453  29.311  1.00  0.00     0.251 C 
ATOM      7  H   UNL A   1      31.819  35.659  30.096  1.00  0.00     0.163 HD
BRANCH   6   8
ATOM      8  C   UNL A   1      34.552  33.854  29.502  1.00  0.00     0.039 A 
ATOM      9  C   UNL A   1      34.737  32.792  30.391  1.00  0.00     0.014 A 
ATOM     10  C   UNL A   1      35.634  34.356  28.774  1.00  0.00     0.014 A 
ATOM     11  C   UNL A   1      36.019  32.330  30.657  1.00  0.00     0.010 A 
ATOM     12  C   UNL A   1      36.913  33.830  28.978  1.00  0.00     0.010 A 
ATOM     13  C   UNL A   1      37.121  32.835  29.945  1.00  0.00    -0.014 A 
BRANCH  13  14
ATOM     14  C   UNL A   1      38.467  32.264  30.202  1.00  0.00     0.031 A 
ATOM     15  C   UNL A   1      39.442  32.948  31.120  1.00  0.00     0.074 A 
ATOM     16  C   UNL A   1      38.790  31.089  29.627  1.00  0.00     0.049 A 
ATOM     17  N   UNL A   1      40.630  32.546  31.502  1.00  0.00    -0.248 NA
ATOM     18  C   UNL A   1      39.042  34.249  31.676  1.00  0.00     0.031 C 
ATOM     19  C   UNL A   1      37.930  30.335  28.712  1.00  0.00     0.029 A 
ATOM     20  N   UNL A   1      39.909  30.307  29.752  1.00  0.00    -0.354 N 
ATOM     21  C   UNL A   1      41.128  33.553  32.319  1.00  0.00     0.074 A 
ATOM     22  C   UNL A   1      40.123  34.595  32.363  1.00  0.00     0.031 C 
ATOM     23  C   UNL A   1      38.524  29.171  28.412  1.00  0.00     0.029 A 
ATOM     24  C   UNL A   1      39.828  29.123  29.061  1.00  0.00     0.049 A 
ATOM     25  H   UNL A   1      40.695  30.570  30.285  1.00  0.00     0.167 HD
ATOM     26  C   UNL A   1      42.313  33.604  32.974  1.00  0.00     0.031 A 
ATOM     27  C   UNL A   1      40.706  28.110  28.957  1.00  0.00     0.031 A 
ATOM     28  C   UNL A   1      43.308  32.564  32.936  1.00  0.00     0.049 A 
ATOM     29  C   UNL A   1      42.016  28.202  29.680  1.00  0.00     0.074 A 
ATOM     30  C   UNL A   1      44.521  32.506  33.601  1.00  0.00     0.029 A 
ATOM     31  N   UNL A   1      43.207  31.401  32.188  1.00  0.00    -0.354 N 
ATOM     32  N   UNL A   1      42.452  29.142  30.482  1.00  0.00    -0.248 NA
ATOM     33  C   UNL A   1      42.954  27.089  29.483  1.00  0.00     0.031 C 
ATOM     34  C   UNL A   1      45.177  31.331  33.216  1.00  0.00     0.029 A 
ATOM     35  C   UNL A   1      44.347  30.632  32.354  1.00  0.00     0.049 A 
ATOM     36  H   UNL A   1      42.440  31.159  31.622  1.00  0.00     0.167 HD
ATOM     37  C   UNL A   1      43.707  28.728  30.901  1.00  0.00     0.074 A 
ATOM     38  C   UNL A   1      43.953  27.441  30.282  1.00  0.00     0.031 C 
ATOM     39  C   UNL A   1      44.580  29.357  31.725  1.00  0.00     0.031 A 
BRANCH  26  40
ATOM     40  C   UNL A   1      42.617  34.848  33.765  1.00  0.00    -0.014 A 
ATOM     41  C   UNL A   1      43.265  35.947  33.182  1.00  0.00     0.009 A 
ATOM     42  C   UNL A   1      42.212  34.932  35.107  1.00  0.00     0.009 A 
ATOM     43  C   UNL A   1      43.531  37.093  33.936  1.00  0.00     0.001 A 
ATOM     44  C   UNL A   1      42.455  36.088  35.851  1.00  0.00     0.001 A 
ATOM     45  C   UNL A   1      43.123  37.164  35.268  1.00  0.00     0.000 A 
ENDBRANCH  26  40
BRANCH  27  46
ATOM     46  C   UNL A   1      40.366  26.919  28.137  1.00  0.00    -0.014 A 
ATOM     47  C   UNL A   1      40.861  26.788  26.831  1.00  0.00     0.009 A 
ATOM     48  C   UNL A   1      39.557  25.899  28.663  1.00  0.00     0.009 A 
ATOM     49  C   UNL A   1      40.537  25.670  26.062  1.00  0.00     0.001 A 
ATOM     50  C   UNL A   1      39.259  24.768  27.902  1.00  0.00     0.001 A 
ATOM     51  C   UNL A   1      39.741  24.658  26.599  1.00  0.00     0.000 A 
ENDBRANCH  27  46
BRANCH  39  52
ATOM     52  C   UNL A   1      45.866  28.642  32.024  1.00  0.00    -0.014 A 
ATOM     53  C   UNL A   1      45.978  27.770  33.117  1.00  0.00     0.009 A 
ATOM     54  C   UNL A   1      46.978  28.838  31.191  1.00  0.00     0.009 A 
ATOM     55  C   UNL A   1      47.192  27.137  33.392  1.00  0.00     0.001 A 
ATOM     56  C   UNL A   1      48.182  28.183  31.452  1.00  0.00     0.001 A 
ATOM     57  C   UNL A   1      48.290  27.341  32.558  1.00  0.00     0.000 A 
ENDBRANCH  39  52
ENDBRANCH  13  14
ENDBRANCH   6   8
ENDBRANCH   3   4
ENDBRANCH   2   3
ENDBRANCH   1   2
BRANCH   1  58
ATOM     58  C   UNL A   1      35.168  34.306  34.328  1.00  0.00     0.002 C 
BRANCH  58  59
ATOM     59  C   UNL A   1      36.337  33.318  34.281  1.00  0.00     0.021 C 
BRANCH  59  60
ATOM     60  C   UNL A   1      37.256  33.391  35.494  1.00  0.00     0.116 C 
BRANCH  60  61
ATOM     61  N   UNL A   1      37.522  32.095  36.062  1.00  0.00    -0.356 N 
ATOM     62  C   UNL A   1      38.576  31.250  36.009  1.00  0.00     0.227 C 
ATOM     63  H   UNL A   1      36.777  31.750  36.605  1.00  0.00     0.163 HD
ATOM     64  O   UNL A   1      38.426  30.195  36.646  1.00  0.00    -0.274 OA
BRANCH  62  65
ATOM     65  C   UNL A   1      39.873  31.455  35.204  1.00  0.00     0.103 C 
ATOM     66  C   UNL A   1      39.713  30.724  33.898  1.00  0.00    -0.016 C 
ATOM     67  C   UNL A   1      41.273  30.964  35.595  1.00  0.00     0.047 C 
ATOM     68  C   UNL A   1      40.568  29.702  33.791  1.00  0.00    -0.006 C 
ATOM     69  C   UNL A   1      41.445  29.559  34.970  1.00  0.00     0.106 C 
BRANCH  69  70
ATOM     70  N   UNL A   1      41.074  28.528  35.929  1.00  0.00    -0.347 N 
ATOM     71  C   UNL A   1      41.560  27.375  36.442  1.00  0.00     0.261 C 
ATOM     72  H   UNL A   1      40.198  28.735  36.328  1.00  0.00     0.164 HD
ATOM     73  O   UNL A   1      40.878  26.898  37.364  1.00  0.00    -0.271 OA
BRANCH  71  74
ATOM     74  C   UNL A   1      42.861  26.678  36.038  1.00  0.00     0.266 C 
ATOM     75  C   UNL A   1      43.042  26.685  34.515  1.00  0.00     0.095 C 
ATOM     76  O   UNL A   1      43.068  25.363  36.574  1.00  0.00    -0.480 OA
ATOM     77  C   UNL A   1      43.541  25.309  34.313  1.00  0.00    -0.002 A 
ATOM     78  C   UNL A   1      43.549  24.631  35.522  1.00  0.00     0.123 A 
ATOM     79  C   UNL A   1      43.867  24.665  33.133  1.00  0.00     0.008 A 
ATOM     80  C   UNL A   1      43.871  23.292  35.605  1.00  0.00     0.047 A 
ATOM     81  C   UNL A   1      44.188  23.306  33.194  1.00  0.00     0.001 A 
ATOM     82  C   UNL A   1      44.189  22.623  34.421  1.00  0.00     0.004 A 
ENDBRANCH  71  74
ENDBRANCH  69  70
ENDBRANCH  62  65
ENDBRANCH  60  61
ENDBRANCH  59  60
ENDBRANCH  58  59
ENDBRANCH   1  58
TORSDOF 15
ENDMDL
MODEL 2
REMARK VINA RESULT:      -9.8      0.392      5.863
REMARK SMILES O=C(NCCCCCCNC(=O)[C@@H]1C=C[C@H](NC(=O)[C@@H]2Cc3ccccc3O2)C1)c1ccc(-c2c3nc(c(-c4ccccc4)c4ccc([nH]4)c(-c4ccccc4)c4nc(c(-c5ccccc5)c5ccc2[nH]5)C=C4)C=C3)cc1
REMARK SMILES IDX 6 1 5 2 4 3 3 4 1 5 2 6 30 8 31 9 77 10 32 11 76 12 33 13
REMARK SMILES IDX 34 14 35 15 70 16 36 17 75 18 69 19 71 20 37 21 74 22 68 23
REMARK SMILES IDX 67 24 38 26 60 27 45 28 59 29 46 30 49 31 58 32 72 33 47 34
REMARK SMILES IDX 48 35 57 37 73 38 50 39 39 40 40 41 44 42 41 43 43 44 42 45
REMARK SMILES IDX 61 46 62 47 66 48 63 49 65 50 64 51 51 52 52 53 56 54 53 55
REMARK SMILES IDX 55 56 54 57 7 58 8 59 9 60 10 61 11 62 12 64 13 65 14 66
REMARK SMILES IDX 29 67 15 68 16 69 17 70 18 71 19 73 20 74 21 75 28 76 22 77
REMARK SMILES IDX 27 78 23 79 26 80 24 81 25 82
REMARK H PARENT 3 7 71 25 49 36 10 63 17 72
REMARK Flexibility Score: inf
ROOT
ATOM      1  C   UNL A   1      35.022  35.154  32.960  1.00  0.00     0.002 C 
ENDROOT
BRANCH   1   2
ATOM      2  C   UNL A   1      33.608  35.269  32.388  1.00  0.00     0.021 C 
BRANCH   2   3
ATOM      3  C   UNL A   1      33.504  36.104  31.119  1.00  0.00     0.116 C 
BRANCH   3   4
ATOM      4  N   UNL A   1      32.815  35.398  30.052  1.00  0.00    -0.352 N 
ATOM      5  O   UNL A   1      32.624  34.064  28.244  1.00  0.00    -0.269 OA
ATOM      6  C   UNL A   1      33.282  34.415  29.212  1.00  0.00     0.251 C 
ATOM      7  H   UNL A   1      31.877  35.661  29.910  1.00  0.00     0.163 HD
BRANCH   6   8
ATOM      8  C   UNL A   1      34.598  33.794  29.477  1.00  0.00     0.039 A 
ATOM      9  C   UNL A   1      34.709  32.699  30.336  1.00  0.00     0.014 A 
ATOM     10  C   UNL A   1      35.735  34.309  28.847  1.00  0.00     0.014 A 
ATOM     11  C   UNL A   1      35.965  32.212  30.676  1.00  0.00     0.010 A 
ATOM     12  C   UNL A   1      36.991  33.761  29.122  1.00  0.00     0.010 A 
ATOM     13  C   UNL A   1      37.119  32.729  30.064  1.00  0.00    -0.014 A 
BRANCH  13  14
ATOM     14  C   UNL A   1      38.438  32.134  30.396  1.00  0.00     0.031 A 
ATOM     15  C   UNL A   1      38.885  30.836  29.782  1.00  0.00     0.074 A 
ATOM     16  C   UNL A   1      39.256  32.803  31.232  1.00  0.00     0.049 A 
ATOM     17  N   UNL A   1      40.033  30.218  29.915  1.00  0.00    -0.248 NA
ATOM     18  C   UNL A   1      37.925  30.137  28.916  1.00  0.00     0.031 C 
ATOM     19  C   UNL A   1      38.931  34.068  31.895  1.00  0.00     0.029 A 
ATOM     20  N   UNL A   1      40.537  32.534  31.639  1.00  0.00    -0.354 N 
ATOM     21  C   UNL A   1      39.923  29.048  29.173  1.00  0.00     0.074 A 
ATOM     22  C   UNL A   1      38.591  29.031  28.608  1.00  0.00     0.031 C 
ATOM     23  C   UNL A   1      40.006  34.498  32.571  1.00  0.00     0.029 A 
ATOM     24  C   UNL A   1      41.072  33.513  32.441  1.00  0.00     0.049 A 
ATOM     25  H   UNL A   1      41.026  31.718  31.383  1.00  0.00     0.167 HD
ATOM     26  C   UNL A   1      40.850  28.077  28.979  1.00  0.00     0.031 A 
ATOM     27  C   UNL A   1      42.285  33.608  33.012  1.00  0.00     0.031 A 
ATOM     28  C   UNL A   1      42.178  28.099  29.535  1.00  0.00     0.049 A 
ATOM     29  C   UNL A   1      43.284  32.511  32.793  1.00  0.00     0.074 A 
ATOM     30  C   UNL A   1      43.201  27.183  29.360  1.00  0.00     0.029 A 
ATOM     31  N   UNL A   1      42.665  29.085  30.379  1.00  0.00    -0.354 N 
ATOM     32  N   UNL A   1      43.178  31.434  32.054  1.00  0.00    -0.248 NA
ATOM     33  C   UNL A   1      44.571  32.646  33.488  1.00  0.00     0.031 C 
ATOM     34  C   UNL A   1      44.291  27.590  30.139  1.00  0.00     0.029 A 
ATOM     35  C   UNL A   1      43.965  28.787  30.754  1.00  0.00     0.049 A 
ATOM     36  H   UNL A   1      42.161  29.880  30.670  1.00  0.00     0.167 HD
ATOM     37  C   UNL A   1      44.390  30.771  32.178  1.00  0.00     0.074 A 
ATOM     38  C   UNL A   1      45.222  31.579  33.046  1.00  0.00     0.031 C 
ATOM     39  C   UNL A   1      44.778  29.597  31.624  1.00  0.00     0.031 A 
BRANCH  26  40
ATOM     40  C   UNL A   1      40.445  26.886  28.154  1.00  0.00    -0.014 A 
ATOM     41  C   UNL A   1      39.603  25.889  28.670  1.00  0.00     0.009 A 
ATOM     42  C   UNL A   1      40.885  26.782  26.825  1.00  0.00     0.009 A 
ATOM     43  C   UNL A   1      39.237  24.795  27.882  1.00  0.00     0.001 A 
ATOM     44  C   UNL A   1      40.497  25.701  26.031  1.00  0.00     0.001 A 
ATOM     45  C   UNL A   1      39.681  24.704  26.563  1.00  0.00     0.000 A 
ENDBRANCH  26  40
BRANCH  27  46
ATOM     46  C   UNL A   1      42.621  34.793  33.842  1.00  0.00    -0.014 A 
ATOM     47  C   UNL A   1      42.428  34.767  35.232  1.00  0.00     0.009 A 
ATOM     48  C   UNL A   1      43.149  35.951  33.251  1.00  0.00     0.009 A 
ATOM     49  C   UNL A   1      42.740  35.884  36.009  1.00  0.00     0.001 A 
ATOM     50  C   UNL A   1      43.488  37.056  34.034  1.00  0.00     0.001 A 
ATOM     51  C   UNL A   1      43.275  37.024  35.411  1.00  0.00     0.000 A 
ENDBRANCH  27  46
BRANCH  39  52
ATOM     52  C   UNL A   1      46.177  29.138  31.920  1.00  0.00    -0.014 A 
ATOM     53  C   UNL A   1      46.456  28.311  33.018  1.00  0.00     0.009 A 
ATOM     54  C   UNL A   1      47.228  29.531  31.077  1.00  0.00     0.009 A 
ATOM     55  C   UNL A   1      47.768  27.918  33.289  1.00  0.00     0.001 A 
ATOM     56  C   UNL A   1      48.535  29.115  31.335  1.00  0.00     0.001 A 
ATOM     57  C   UNL A   1      48.804  28.317  32.446  1.00  0.00     0.000 A 
ENDBRANCH  39  52
ENDBRANCH  13  14
ENDBRANCH   6   8
ENDBRANCH   3   4
ENDBRANCH   2   3
ENDBRANCH   1   2
BRANCH   1  58
ATOM     58  C   UNL A   1      35.161  34.284  34.218  1.00  0.00     0.002 C 
BRANCH  58  59
ATOM     59  C   UNL A   1      36.204  33.165  34.133  1.00  0.00     0.021 C 
BRANCH  59  60
ATOM     60  C   UNL A   1      37.303  33.267  35.184  1.00  0.00     0.116 C 
BRANCH  60  61
ATOM     61  N   UNL A   1      37.558  32.008  35.836  1.00  0.00    -0.356 N 
ATOM     62  C   UNL A   1      38.572  31.115  35.778  1.00  0.00     0.227 C 
ATOM     63  H   UNL A   1      36.842  31.741  36.455  1.00  0.00     0.163 HD
ATOM     64  O   UNL A   1      38.428  30.122  36.508  1.00  0.00    -0.274 OA
BRANCH  62  65
ATOM     65  C   UNL A   1      39.814  31.197  34.870  1.00  0.00     0.103 C 
ATOM     66  C   UNL A   1      39.547  30.340  33.663  1.00  0.00    -0.016 C 
ATOM     67  C   UNL A   1      41.226  30.710  35.216  1.00  0.00     0.047 C 
ATOM     68  C   UNL A   1      40.370  29.287  33.608  1.00  0.00    -0.006 C 
ATOM     69  C   UNL A   1      41.324  29.243  34.733  1.00  0.00     0.106 C 
BRANCH  69  70
ATOM     70  N   UNL A   1      40.999  28.329  35.819  1.00  0.00    -0.347 N 
ATOM     71  C   UNL A   1      41.514  27.245  36.443  1.00  0.00     0.261 C 
ATOM     72  H   UNL A   1      40.137  28.576  36.225  1.00  0.00     0.164 HD
ATOM     73  O   UNL A   1      40.872  26.875  37.440  1.00  0.00    -0.271 OA
BRANCH  71  74
ATOM     74  C   UNL A   1      42.805  26.511  36.073  1.00  0.00     0.266 C 
ATOM     75  C   UNL A   1      43.320  26.958  34.699  1.00  0.00     0.095 C 
ATOM     76  O   UNL A   1      42.770  25.080  36.168  1.00  0.00    -0.480 OA
ATOM     77  C   UNL A   1      43.727  25.651  34.144  1.00  0.00    -0.002 A 
ATOM     78  C   UNL A   1      43.405  24.642  35.037  1.00  0.00     0.123 A 
ATOM     79  C   UNL A   1      44.249  25.358  32.897  1.00  0.00     0.008 A 
ATOM     80  C   UNL A   1      43.581  23.308  34.726  1.00  0.00     0.047 A 
ATOM     81  C   UNL A   1      44.426  24.014  32.558  1.00  0.00     0.001 A 
ATOM     82  C   UNL A   1      44.093  22.995  33.466  1.00  0.00     0.004 A 
ENDBRANCH  71  74
ENDBRANCH  69  70
ENDBRANCH  62  65
ENDBRANCH  60  61
ENDBRANCH  59  60
ENDBRANCH  58  59
ENDBRANCH   1  58
TORSDOF 15
ENDMDL
MODEL 3
REMARK VINA RESULT:      -9.6      4.098      9.369
REMARK SMILES O=C(NCCCCCCNC(=O)[C@@H]1C=C[C@H](NC(=O)[C@@H]2Cc3ccccc3O2)C1)c1ccc(-c2c3nc(c(-c4ccccc4)c4ccc([nH]4)c(-c4ccccc4)c4nc(c(-c5ccccc5)c5ccc2[nH]5)C=C4)C=C3)cc1
REMARK SMILES IDX 6 1 5 2 4 3 3 4 1 5 2 6 30 8 31 9 77 10 32 11 76 12 33 13
REMARK SMILES IDX 34 14 35 15 70 16 36 17 75 18 69 19 71 20 37 21 74 22 68 23
REMARK SMILES IDX 67 24 38 26 60 27 45 28 59 29 46 30 49 31 58 32 72 33 47 34
REMARK SMILES IDX 48 35 57 37 73 38 50 39 39 40 40 41 44 42 41 43 43 44 42 45
REMARK SMILES IDX 61 46 62 47 66 48 63 49 65 50 64 51 51 52 52 53 56 54 53 55
REMARK SMILES IDX 55 56 54 57 7 58 8 59 9 60 10 61 11 62 12 64 13 65 14 66
REMARK SMILES IDX 29 67 15 68 16 69 17 70 18 71 19 73 20 74 21 75 28 76 22 77
REMARK SMILES IDX 27 78 23 79 26 80 24 81 25 82
REMARK H PARENT 3 7 71 25 49 36 10 63 17 72
REMARK Flexibility Score: inf
ROOT
ATOM      1  C   UNL A   1      34.617  33.835  28.990  1.00  0.00     0.002 C 
ENDROOT
BRANCH   1   2
ATOM      2  C   UNL A   1      33.272  34.556  29.107  1.00  0.00     0.021 C 
BRANCH   2   3
ATOM      3  C   UNL A   1      33.367  35.998  29.588  1.00  0.00     0.116 C 
BRANCH   3   4
ATOM      4  N   UNL A   1      32.499  36.255  30.725  1.00  0.00    -0.352 N 
ATOM      5  O   UNL A   1      31.653  35.942  32.792  1.00  0.00    -0.269 OA
ATOM      6  C   UNL A   1      32.577  35.773  32.010  1.00  0.00     0.251 C 
ATOM      7  H   UNL A   1      31.745  36.864  30.550  1.00  0.00     0.163 HD
BRANCH   6   8
ATOM      8  C   UNL A   1      33.783  35.030  32.438  1.00  0.00     0.039 A 
ATOM      9  C   UNL A   1      35.038  35.643  32.427  1.00  0.00     0.014 A 
ATOM     10  C   UNL A   1      33.652  33.707  32.868  1.00  0.00     0.014 A 
ATOM     11  C   UNL A   1      36.174  34.894  32.705  1.00  0.00     0.010 A 
ATOM     12  C   UNL A   1      34.789  32.979  33.233  1.00  0.00     0.010 A 
ATOM     13  C   UNL A   1      36.063  33.557  33.123  1.00  0.00    -0.014 A 
BRANCH  13  14
ATOM     14  C   UNL A   1      37.293  32.810  33.484  1.00  0.00     0.031 A 
ATOM     15  C   UNL A   1      37.933  31.848  32.522  1.00  0.00     0.074 A 
ATOM     16  C   UNL A   1      37.859  33.042  34.685  1.00  0.00     0.049 A 
ATOM     17  N   UNL A   1      39.046  31.169  32.659  1.00  0.00    -0.248 NA
ATOM     18  C   UNL A   1      37.238  31.609  31.250  1.00  0.00     0.031 C 
ATOM     19  C   UNL A   1      37.327  33.948  35.707  1.00  0.00     0.029 A 
ATOM     20  N   UNL A   1      39.020  32.564  35.237  1.00  0.00    -0.354 N 
ATOM     21  C   UNL A   1      39.169  30.405  31.506  1.00  0.00     0.074 A 
ATOM     22  C   UNL A   1      38.009  30.688  30.687  1.00  0.00     0.031 C 
ATOM     23  C   UNL A   1      38.192  34.012  36.729  1.00  0.00     0.029 A 
ATOM     24  C   UNL A   1      39.304  33.108  36.466  1.00  0.00     0.049 A 
ATOM     25  H   UNL A   1      39.593  31.896  34.795  1.00  0.00     0.167 HD
ATOM     26  C   UNL A   1      40.160  29.547  31.159  1.00  0.00     0.031 A 
ATOM     27  C   UNL A   1      40.343  32.900  37.294  1.00  0.00     0.031 A 
ATOM     28  C   UNL A   1      41.318  29.273  31.971  1.00  0.00     0.049 A 
ATOM     29  C   UNL A   1      41.416  31.934  36.891  1.00  0.00     0.074 A 
ATOM     30  C   UNL A   1      42.396  28.452  31.685  1.00  0.00     0.029 A 
ATOM     31  N   UNL A   1      41.546  29.808  33.229  1.00  0.00    -0.354 N 
ATOM     32  N   UNL A   1      41.538  31.253  35.778  1.00  0.00    -0.248 NA
ATOM     33  C   UNL A   1      42.496  31.710  37.861  1.00  0.00     0.031 C 
ATOM     34  C   UNL A   1      43.252  28.453  32.793  1.00  0.00     0.029 A 
ATOM     35  C   UNL A   1      42.733  29.316  33.744  1.00  0.00     0.049 A 
ATOM     36  H   UNL A   1      40.951  30.444  33.689  1.00  0.00     0.167 HD
ATOM     37  C   UNL A   1      42.717  30.533  35.904  1.00  0.00     0.074 A 
ATOM     38  C   UNL A   1      43.283  30.878  37.192  1.00  0.00     0.031 C 
ATOM     39  C   UNL A   1      43.280  29.663  35.031  1.00  0.00     0.031 A 
BRANCH  26  40
ATOM     40  C   UNL A   1      40.018  28.812  29.854  1.00  0.00    -0.014 A 
ATOM     41  C   UNL A   1      40.432  29.385  28.641  1.00  0.00     0.009 A 
ATOM     42  C   UNL A   1      39.497  27.509  29.846  1.00  0.00     0.009 A 
ATOM     43  C   UNL A   1      40.296  28.679  27.443  1.00  0.00     0.001 A 
ATOM     44  C   UNL A   1      39.385  26.796  28.650  1.00  0.00     0.001 A 
ATOM     45  C   UNL A   1      39.776  27.385  27.449  1.00  0.00     0.000 A 
ENDBRANCH  26  40
BRANCH  27  46
ATOM     46  C   UNL A   1      40.417  33.631  38.585  1.00  0.00    -0.014 A 
ATOM     47  C   UNL A   1      41.072  34.870  38.665  1.00  0.00     0.009 A 
ATOM     48  C   UNL A   1      39.822  33.101  39.739  1.00  0.00     0.009 A 
ATOM     49  C   UNL A   1      41.144  35.553  39.881  1.00  0.00     0.001 A 
ATOM     50  C   UNL A   1      39.870  33.800  40.947  1.00  0.00     0.001 A 
ATOM     51  C   UNL A   1      40.538  35.020  41.019  1.00  0.00     0.000 A 
ENDBRANCH  27  46
BRANCH  39  52
ATOM     52  C   UNL A   1      44.590  29.051  35.434  1.00  0.00    -0.014 A 
ATOM     53  C   UNL A   1      45.810  29.670  35.124  1.00  0.00     0.009 A 
ATOM     54  C   UNL A   1      44.601  27.840  36.144  1.00  0.00     0.009 A 
ATOM     55  C   UNL A   1      47.018  29.069  35.485  1.00  0.00     0.001 A 
ATOM     56  C   UNL A   1      45.808  27.255  36.527  1.00  0.00     0.001 A 
ATOM     57  C   UNL A   1      47.015  27.865  36.188  1.00  0.00     0.000 A 
ENDBRANCH  39  52
ENDBRANCH  13  14
ENDBRANCH   6   8
ENDBRANCH   3   4
ENDBRANCH   2   3
ENDBRANCH   1   2
BRANCH   1  58
ATOM     58  C   UNL A   1      34.548  32.301  28.976  1.00  0.00     0.002 C 
BRANCH  58  59
ATOM     59  C   UNL A   1      35.339  31.615  27.858  1.00  0.00     0.021 C 
BRANCH  59  60
ATOM     60  C   UNL A   1      35.383  30.097  27.976  1.00  0.00     0.116 C 
BRANCH  60  61
ATOM     61  N   UNL A   1      34.068  29.512  28.034  1.00  0.00    -0.356 N 
ATOM     62  C   UNL A   1      33.300  28.850  27.140  1.00  0.00     0.227 C 
ATOM     63  H   UNL A   1      33.636  29.618  28.912  1.00  0.00     0.163 HD
ATOM     64  O   UNL A   1      32.193  28.491  27.575  1.00  0.00    -0.274 OA
BRANCH  62  65
ATOM     65  C   UNL A   1      33.647  28.567  25.667  1.00  0.00     0.103 C 
ATOM     66  C   UNL A   1      32.562  29.180  24.823  1.00  0.00    -0.016 C 
ATOM     67  C   UNL A   1      33.733  27.187  25.001  1.00  0.00     0.047 C 
ATOM     68  C   UNL A   1      31.858  28.252  24.166  1.00  0.00    -0.006 C 
ATOM     69  C   UNL A   1      32.327  26.878  24.432  1.00  0.00     0.106 C 
BRANCH  69  70
ATOM     70  N   UNL A   1      31.550  26.105  25.390  1.00  0.00    -0.347 N 
ATOM     71  C   UNL A   1      31.552  24.885  25.974  1.00  0.00     0.261 C 
ATOM     72  H   UNL A   1      30.785  26.635  25.714  1.00  0.00     0.164 HD
ATOM     73  O   UNL A   1      30.688  24.738  26.855  1.00  0.00    -0.271 OA
BRANCH  71  74
ATOM     74  C   UNL A   1      32.533  23.745  25.693  1.00  0.00     0.266 C 
ATOM     75  C   UNL A   1      33.787  23.865  26.567  1.00  0.00     0.095 C 
ATOM     76  O   UNL A   1      32.884  23.536  24.318  1.00  0.00    -0.480 OA
ATOM     77  C   UNL A   1      34.824  23.521  25.573  1.00  0.00    -0.002 A 
ATOM     78  C   UNL A   1      34.237  23.327  24.332  1.00  0.00     0.123 A 
ATOM     79  C   UNL A   1      36.198  23.482  25.724  1.00  0.00     0.008 A 
ATOM     80  C   UNL A   1      34.988  23.096  23.198  1.00  0.00     0.047 A 
ATOM     81  C   UNL A   1      36.978  23.258  24.587  1.00  0.00     0.001 A 
ATOM     82  C   UNL A   1      36.378  23.067  23.331  1.00  0.00     0.004 A 
ENDBRANCH  71  74
ENDBRANCH  69  70
ENDBRANCH  62  65
ENDBRANCH  60  61
ENDBRANCH  59  60
ENDBRANCH  58  59
ENDBRANCH   1  58
TORSDOF 15
ENDMDL
