MODEL 1
REMARK VINA RESULT:      -8.9      0.000      0.000
REMARK SMILES COc1ccc(-c2ccc(C(=O)NCc3ccc(C(=O)NCCCCCCNC(=O)c4ccc(-c5c6nc(c(-c7ccccc7)c7ccc([nH]7)c(-c7ccccc7)c7nc(c(-c8ccccc8)c8ccc5[nH]8)C=C7)C=C6)cc4)cc3)o2)c([N+](=O)[O-])c1
REMARK SMILES IDX 23 1 22 2 21 3 19 4 20 5 18 7 15 8 16 9 80 10 17 11 79 12
REMARK SMILES IDX 14 13 13 14 11 15 12 16 10 18 7 19 8 20 81 21 9 22 6 23 3 24
REMARK SMILES IDX 4 25 86 26 5 27 82 28 2 29 1 30 83 31 84 32 85 33 24 34
REMARK SMILES IDX 25 35 26 36 27 37 28 38 29 39 30 41 31 42 32 43 78 44 33 45
REMARK SMILES IDX 77 46 34 47 35 48 36 49 71 50 37 51 76 52 70 53 72 54 38 55
REMARK SMILES IDX 75 56 69 57 68 58 39 60 61 61 46 62 60 63 47 64 50 65 59 66
REMARK SMILES IDX 73 67 48 68 49 69 58 71 74 72 51 73 40 74 41 75 45 76 42 77
REMARK SMILES IDX 44 78 43 79 62 80 63 81 67 82 64 83 66 84 65 85 52 86 53 87
REMARK SMILES IDX 57 88 54 89 56 90 55 91
REMARK H PARENT 21 6 13 17 28 40 72 59 50 70
REMARK Flexibility Score: inf
ROOT
ATOM      1  C   UNL A   1      44.673  23.393  29.429  1.00  0.00     0.021 C 
ENDROOT
BRANCH   1   2
ATOM      2  C   UNL A   1      43.248  22.880  29.212  1.00  0.00     0.116 C 
BRANCH   2   3
ATOM      3  N   UNL A   1      42.911  22.961  27.807  1.00  0.00    -0.352 N 
ATOM      4  C   UNL A   1      42.026  23.763  27.138  1.00  0.00     0.251 C 
ATOM      5  O   UNL A   1      41.919  23.621  25.919  1.00  0.00    -0.269 OA
ATOM      6  H   UNL A   1      43.403  22.331  27.233  1.00  0.00     0.163 HD
BRANCH   4   7
ATOM      7  C   UNL A   1      41.250  24.835  27.816  1.00  0.00     0.039 A 
ATOM      8  C   UNL A   1      39.609  26.824  28.976  1.00  0.00    -0.029 A 
ATOM      9  C   UNL A   1      39.048  25.689  28.374  1.00  0.00     0.006 A 
ATOM     10  C   UNL A   1      41.003  26.937  29.008  1.00  0.00     0.006 A 
ATOM     11  C   UNL A   1      39.859  24.702  27.810  1.00  0.00     0.014 A 
ATOM     12  C   UNL A   1      41.814  25.939  28.459  1.00  0.00     0.014 A 
BRANCH   8  13
ATOM     13  C   UNL A   1      38.756  27.896  29.605  1.00  0.00     0.152 C 
BRANCH  13  14
ATOM     14  N   UNL A   1      38.495  27.622  30.998  1.00  0.00    -0.345 N 
ATOM     15  C   UNL A   1      38.141  28.452  32.032  1.00  0.00     0.287 C 
ATOM     16  O   UNL A   1      37.768  27.886  33.064  1.00  0.00    -0.266 OA
ATOM     17  H   UNL A   1      38.585  26.674  31.249  1.00  0.00     0.164 HD
BRANCH  15  18
ATOM     18  C   UNL A   1      38.219  29.896  31.910  1.00  0.00     0.192 A 
ATOM     19  C   UNL A   1      37.304  31.905  31.795  1.00  0.00     0.142 A 
ATOM     20  C   UNL A   1      38.660  32.109  31.759  1.00  0.00     0.052 A 
ATOM     21  O   UNL A   1      37.025  30.583  31.924  1.00  0.00    -0.451 OA
ATOM     22  C   UNL A   1      39.244  30.825  31.813  1.00  0.00     0.057 A 
BRANCH  19  23
ATOM     23  C   UNL A   1      36.167  32.796  31.718  1.00  0.00     0.095 A 
ATOM     24  C   UNL A   1      34.134  34.752  31.662  1.00  0.00     0.125 A 
ATOM     25  C   UNL A   1      34.778  34.437  32.858  1.00  0.00     0.047 A 
ATOM     26  C   UNL A   1      34.492  34.090  30.489  1.00  0.00     0.132 A 
ATOM     27  C   UNL A   1      35.774  33.458  32.892  1.00  0.00     0.023 A 
ATOM     28  C   UNL A   1      35.501  33.111  30.521  1.00  0.00     0.284 A 
BRANCH  24  29
ATOM     29  O   UNL A   1      33.216  35.761  31.738  1.00  0.00    -0.497 OA
ATOM     30  C   UNL A   1      33.517  36.787  32.678  1.00  0.00     0.278 C 
ENDBRANCH  24  29
BRANCH  28  31
ATOM     31  N   UNL A   1      35.831  32.447  29.253  1.00  0.00     0.063 N 
ATOM     32  O   UNL A   1      36.659  32.974  28.500  1.00  0.00    -0.258 OA
ATOM     33  O   UNL A   1      35.274  31.362  29.025  1.00  0.00    -0.258 OA
ENDBRANCH  28  31
ENDBRANCH  19  23
ENDBRANCH  15  18
ENDBRANCH  13  14
ENDBRANCH   8  13
ENDBRANCH   4   7
ENDBRANCH   2   3
ENDBRANCH   1   2
BRANCH   1  34
ATOM     34  C   UNL A   1      45.148  24.322  28.307  1.00  0.00     0.002 C 
BRANCH  34  35
ATOM     35  C   UNL A   1      46.606  24.773  28.438  1.00  0.00     0.002 C 
BRANCH  35  36
ATOM     36  C   UNL A   1      47.468  24.501  27.202  1.00  0.00     0.021 C 
BRANCH  36  37
ATOM     37  C   UNL A   1      46.675  24.453  25.902  1.00  0.00     0.116 C 
BRANCH  37  38
ATOM     38  N   UNL A   1      47.195  25.406  24.931  1.00  0.00    -0.352 N 
ATOM     39  C   UNL A   1      46.912  26.742  24.797  1.00  0.00     0.251 C 
ATOM     40  H   UNL A   1      47.839  25.041  24.282  1.00  0.00     0.163 HD
ATOM     41  O   UNL A   1      47.216  27.344  23.777  1.00  0.00    -0.269 OA
BRANCH  39  42
ATOM     42  C   UNL A   1      46.229  27.446  25.900  1.00  0.00     0.039 A 
ATOM     43  C   UNL A   1      44.834  27.452  25.944  1.00  0.00     0.014 A 
ATOM     44  C   UNL A   1      46.974  28.096  26.888  1.00  0.00     0.014 A 
ATOM     45  C   UNL A   1      44.185  28.067  27.016  1.00  0.00     0.010 A 
ATOM     46  C   UNL A   1      46.329  28.638  27.992  1.00  0.00     0.010 A 
ATOM     47  C   UNL A   1      44.928  28.634  28.063  1.00  0.00    -0.014 A 
BRANCH  47  48
ATOM     48  C   UNL A   1      44.264  29.235  29.245  1.00  0.00     0.031 A 
ATOM     49  C   UNL A   1      43.887  30.690  29.236  1.00  0.00     0.074 A 
ATOM     50  C   UNL A   1      44.071  28.491  30.351  1.00  0.00     0.049 A 
ATOM     51  N   UNL A   1      43.380  31.418  30.199  1.00  0.00    -0.248 NA
ATOM     52  C   UNL A   1      44.135  31.433  27.989  1.00  0.00     0.031 C 
ATOM     53  C   UNL A   1      44.421  27.076  30.495  1.00  0.00     0.029 A 
ATOM     54  N   UNL A   1      43.538  28.826  31.571  1.00  0.00    -0.354 N 
ATOM     55  C   UNL A   1      43.266  32.701  29.680  1.00  0.00     0.074 A 
ATOM     56  C   UNL A   1      43.805  32.666  28.339  1.00  0.00     0.031 C 
ATOM     57  C   UNL A   1      44.073  26.660  31.723  1.00  0.00     0.029 A 
ATOM     58  C   UNL A   1      43.521  27.786  32.468  1.00  0.00     0.049 A 
ATOM     59  H   UNL A   1      43.201  29.727  31.782  1.00  0.00     0.167 HD
ATOM     60  C   UNL A   1      42.743  33.806  30.262  1.00  0.00     0.031 A 
ATOM     61  C   UNL A   1      43.118  27.747  33.752  1.00  0.00     0.031 A 
ATOM     62  C   UNL A   1      42.205  33.837  31.595  1.00  0.00     0.049 A 
ATOM     63  C   UNL A   1      42.576  28.997  34.388  1.00  0.00     0.074 A 
ATOM     64  C   UNL A   1      41.606  34.893  32.258  1.00  0.00     0.029 A 
ATOM     65  N   UNL A   1      42.208  32.762  32.471  1.00  0.00    -0.354 N 
ATOM     66  N   UNL A   1      42.414  30.187  33.862  1.00  0.00    -0.248 NA
ATOM     67  C   UNL A   1      42.154  28.896  35.792  1.00  0.00     0.031 C 
ATOM     68  C   UNL A   1      41.302  34.475  33.557  1.00  0.00     0.029 A 
ATOM     69  C   UNL A   1      41.648  33.139  33.681  1.00  0.00     0.049 A 
ATOM     70  H   UNL A   1      42.555  31.864  32.264  1.00  0.00     0.167 HD
ATOM     71  C   UNL A   1      41.842  30.967  34.860  1.00  0.00     0.074 A 
ATOM     72  C   UNL A   1      41.673  30.111  36.016  1.00  0.00     0.031 C 
ATOM     73  C   UNL A   1      41.484  32.274  34.820  1.00  0.00     0.031 A 
BRANCH  60  74
ATOM     74  C   UNL A   1      42.743  35.080  29.461  1.00  0.00    -0.014 A 
ATOM     75  C   UNL A   1      41.675  35.406  28.608  1.00  0.00     0.009 A 
ATOM     76  C   UNL A   1      43.807  35.985  29.589  1.00  0.00     0.009 A 
ATOM     77  C   UNL A   1      41.694  36.592  27.871  1.00  0.00     0.001 A 
ATOM     78  C   UNL A   1      43.807  37.185  28.876  1.00  0.00     0.001 A 
ATOM     79  C   UNL A   1      42.757  37.483  28.011  1.00  0.00     0.000 A 
ENDBRANCH  60  74
BRANCH  61  80
ATOM     80  C   UNL A   1      43.209  26.479  34.524  1.00  0.00    -0.014 A 
ATOM     81  C   UNL A   1      42.062  25.709  34.768  1.00  0.00     0.009 A 
ATOM     82  C   UNL A   1      44.442  26.036  35.030  1.00  0.00     0.009 A 
ATOM     83  C   UNL A   1      42.141  24.539  35.525  1.00  0.00     0.001 A 
ATOM     84  C   UNL A   1      44.523  24.848  35.760  1.00  0.00     0.001 A 
ATOM     85  C   UNL A   1      43.373  24.107  36.016  1.00  0.00     0.000 A 
ENDBRANCH  61  80
BRANCH  73  86
ATOM     86  C   UNL A   1      40.836  32.853  36.046  1.00  0.00    -0.014 A 
ATOM     87  C   UNL A   1      41.586  33.513  37.031  1.00  0.00     0.009 A 
ATOM     88  C   UNL A   1      39.440  32.786  36.186  1.00  0.00     0.009 A 
ATOM     89  C   UNL A   1      40.954  34.071  38.144  1.00  0.00     0.001 A 
ATOM     90  C   UNL A   1      38.808  33.373  37.283  1.00  0.00     0.001 A 
ATOM     91  C   UNL A   1      39.566  34.007  38.264  1.00  0.00     0.000 A 
ENDBRANCH  73  86
ENDBRANCH  47  48
ENDBRANCH  39  42
ENDBRANCH  37  38
ENDBRANCH  36  37
ENDBRANCH  35  36
ENDBRANCH  34  35
ENDBRANCH   1  34
TORSDOF 19
ENDMDL
MODEL 2
REMARK VINA RESULT:      -8.9      0.940      5.629
REMARK SMILES COc1ccc(-c2ccc(C(=O)NCc3ccc(C(=O)NCCCCCCNC(=O)c4ccc(-c5c6nc(c(-c7ccccc7)c7ccc([nH]7)c(-c7ccccc7)c7nc(c(-c8ccccc8)c8ccc5[nH]8)C=C7)C=C6)cc4)cc3)o2)c([N+](=O)[O-])c1
REMARK SMILES IDX 23 1 22 2 21 3 19 4 20 5 18 7 15 8 16 9 80 10 17 11 79 12
REMARK SMILES IDX 14 13 13 14 11 15 12 16 10 18 7 19 8 20 81 21 9 22 6 23 3 24
REMARK SMILES IDX 4 25 86 26 5 27 82 28 2 29 1 30 83 31 84 32 85 33 24 34
REMARK SMILES IDX 25 35 26 36 27 37 28 38 29 39 30 41 31 42 32 43 78 44 33 45
REMARK SMILES IDX 77 46 34 47 35 48 36 49 71 50 37 51 76 52 70 53 72 54 38 55
REMARK SMILES IDX 75 56 69 57 68 58 39 60 61 61 46 62 60 63 47 64 50 65 59 66
REMARK SMILES IDX 73 67 48 68 49 69 58 71 74 72 51 73 40 74 41 75 45 76 42 77
REMARK SMILES IDX 44 78 43 79 62 80 63 81 67 82 64 83 66 84 65 85 52 86 53 87
REMARK SMILES IDX 57 88 54 89 56 90 55 91
REMARK H PARENT 21 6 13 17 28 40 72 59 50 70
REMARK Flexibility Score: inf
ROOT
ATOM      1  C   UNL A   1      42.792  23.198  28.406  1.00  0.00     0.021 C 
ENDROOT
BRANCH   1   2
ATOM      2  C   UNL A   1      41.450  23.631  27.813  1.00  0.00     0.116 C 
BRANCH   2   3
ATOM      3  N   UNL A   1      41.674  24.338  26.569  1.00  0.00    -0.352 N 
ATOM      4  C   UNL A   1      41.275  25.579  26.154  1.00  0.00     0.251 C 
ATOM      5  O   UNL A   1      41.595  25.945  25.022  1.00  0.00    -0.269 OA
ATOM      6  H   UNL A   1      42.205  23.838  25.907  1.00  0.00     0.163 HD
BRANCH   4   7
ATOM      7  C   UNL A   1      40.538  26.518  27.040  1.00  0.00     0.039 A 
ATOM      8  C   UNL A   1      38.998  28.141  28.769  1.00  0.00    -0.029 A 
ATOM      9  C   UNL A   1      39.038  26.750  28.933  1.00  0.00     0.006 A 
ATOM     10  C   UNL A   1      39.757  28.709  27.740  1.00  0.00     0.006 A 
ATOM     11  C   UNL A   1      39.807  25.950  28.086  1.00  0.00     0.014 A 
ATOM     12  C   UNL A   1      40.539  27.908  26.903  1.00  0.00     0.014 A 
BRANCH   8  13
ATOM     13  C   UNL A   1      38.189  29.029  29.680  1.00  0.00     0.152 C 
BRANCH  13  14
ATOM     14  N   UNL A   1      37.995  28.429  30.978  1.00  0.00    -0.345 N 
ATOM     15  C   UNL A   1      37.752  28.989  32.206  1.00  0.00     0.287 C 
ATOM     16  O   UNL A   1      37.408  28.201  33.092  1.00  0.00    -0.266 OA
ATOM     17  H   UNL A   1      38.043  27.445  30.981  1.00  0.00     0.164 HD
BRANCH  15  18
ATOM     18  C   UNL A   1      37.907  30.414  32.438  1.00  0.00     0.192 A 
ATOM     19  C   UNL A   1      37.102  32.456  32.694  1.00  0.00     0.142 A 
ATOM     20  C   UNL A   1      38.460  32.565  32.863  1.00  0.00     0.052 A 
ATOM     21  O   UNL A   1      36.752  31.163  32.476  1.00  0.00    -0.451 OA
ATOM     22  C   UNL A   1      38.975  31.264  32.679  1.00  0.00     0.057 A 
BRANCH  19  23
ATOM     23  C   UNL A   1      36.023  33.420  32.700  1.00  0.00     0.095 A 
ATOM     24  C   UNL A   1      34.127  35.508  32.783  1.00  0.00     0.125 A 
ATOM     25  C   UNL A   1      34.855  35.169  33.924  1.00  0.00     0.047 A 
ATOM     26  C   UNL A   1      34.333  34.805  31.598  1.00  0.00     0.132 A 
ATOM     27  C   UNL A   1      35.783  34.126  33.889  1.00  0.00     0.023 A 
ATOM     28  C   UNL A   1      35.275  33.761  31.561  1.00  0.00     0.284 A 
BRANCH  24  29
ATOM     29  O   UNL A   1      33.288  36.578  32.919  1.00  0.00    -0.497 OA
ATOM     30  C   UNL A   1      33.559  37.675  32.054  1.00  0.00     0.278 C 
ENDBRANCH  24  29
BRANCH  28  31
ATOM     31  N   UNL A   1      35.444  33.056  30.283  1.00  0.00     0.063 N 
ATOM     32  O   UNL A   1      34.570  32.260  29.919  1.00  0.00    -0.258 OA
ATOM     33  O   UNL A   1      36.455  33.331  29.619  1.00  0.00    -0.258 OA
ENDBRANCH  28  31
ENDBRANCH  19  23
ENDBRANCH  15  18
ENDBRANCH  13  14
ENDBRANCH   8  13
ENDBRANCH   4   7
ENDBRANCH   2   3
ENDBRANCH   1   2
BRANCH   1  34
ATOM     34  C   UNL A   1      43.751  24.373  28.629  1.00  0.00     0.002 C 
BRANCH  34  35
ATOM     35  C   UNL A   1      45.223  24.044  28.361  1.00  0.00     0.002 C 
BRANCH  35  36
ATOM     36  C   UNL A   1      45.479  23.316  27.038  1.00  0.00     0.021 C 
BRANCH  36  37
ATOM     37  C   UNL A   1      44.949  24.059  25.819  1.00  0.00     0.116 C 
BRANCH  37  38
ATOM     38  N   UNL A   1      46.025  24.721  25.095  1.00  0.00    -0.352 N 
ATOM     39  C   UNL A   1      46.397  26.041  25.119  1.00  0.00     0.251 C 
ATOM     40  H   UNL A   1      46.561  24.140  24.507  1.00  0.00     0.163 HD
ATOM     41  O   UNL A   1      47.140  26.496  24.260  1.00  0.00    -0.269 OA
BRANCH  39  42
ATOM     42  C   UNL A   1      45.884  26.912  26.194  1.00  0.00     0.039 A 
ATOM     43  C   UNL A   1      44.517  27.194  26.251  1.00  0.00     0.014 A 
ATOM     44  C   UNL A   1      46.759  27.446  27.145  1.00  0.00     0.014 A 
ATOM     45  C   UNL A   1      44.020  27.969  27.298  1.00  0.00     0.010 A 
ATOM     46  C   UNL A   1      46.251  28.151  28.229  1.00  0.00     0.010 A 
ATOM     47  C   UNL A   1      44.877  28.424  28.313  1.00  0.00    -0.014 A 
BRANCH  47  48
ATOM     48  C   UNL A   1      44.364  29.194  29.472  1.00  0.00     0.031 A 
ATOM     49  C   UNL A   1      44.073  28.493  30.769  1.00  0.00     0.074 A 
ATOM     50  C   UNL A   1      44.089  30.504  29.332  1.00  0.00     0.049 A 
ATOM     51  N   UNL A   1      43.541  28.972  31.866  1.00  0.00    -0.248 NA
ATOM     52  C   UNL A   1      44.399  27.058  30.837  1.00  0.00     0.031 C 
ATOM     53  C   UNL A   1      44.298  31.291  28.114  1.00  0.00     0.029 A 
ATOM     54  N   UNL A   1      43.563  31.406  30.223  1.00  0.00    -0.354 N 
ATOM     55  C   UNL A   1      43.454  27.898  32.742  1.00  0.00     0.074 A 
ATOM     56  C   UNL A   1      43.937  26.733  32.035  1.00  0.00     0.031 C 
ATOM     57  C   UNL A   1      43.928  32.561  28.343  1.00  0.00     0.029 A 
ATOM     58  C   UNL A   1      43.411  32.669  29.703  1.00  0.00     0.049 A 
ATOM     59  H   UNL A   1      43.318  31.171  31.147  1.00  0.00     0.167 HD
ATOM     60  C   UNL A   1      43.027  27.886  34.026  1.00  0.00     0.031 A 
ATOM     61  C   UNL A   1      42.899  33.785  30.255  1.00  0.00     0.031 A 
ATOM     62  C   UNL A   1      42.550  29.048  34.728  1.00  0.00     0.049 A 
ATOM     63  C   UNL A   1      42.396  33.737  31.671  1.00  0.00     0.074 A 
ATOM     64  C   UNL A   1      42.143  29.151  36.046  1.00  0.00     0.029 A 
ATOM     65  N   UNL A   1      42.411  30.307  34.164  1.00  0.00    -0.354 N 
ATOM     66  N   UNL A   1      42.382  32.729  32.509  1.00  0.00    -0.248 NA
ATOM     67  C   UNL A   1      41.846  34.984  32.220  1.00  0.00     0.031 C 
ATOM     68  C   UNL A   1      41.699  30.459  36.263  1.00  0.00     0.029 A 
ATOM     69  C   UNL A   1      41.894  31.187  35.100  1.00  0.00     0.049 A 
ATOM     70  H   UNL A   1      42.645  30.541  33.237  1.00  0.00     0.167 HD
ATOM     71  C   UNL A   1      41.853  33.227  33.693  1.00  0.00     0.074 A 
ATOM     72  C   UNL A   1      41.573  34.631  33.469  1.00  0.00     0.031 C 
ATOM     73  C   UNL A   1      41.624  32.582  34.862  1.00  0.00     0.031 A 
BRANCH  60  74
ATOM     74  C   UNL A   1      43.042  26.569  34.752  1.00  0.00    -0.014 A 
ATOM     75  C   UNL A   1      41.888  25.774  34.848  1.00  0.00     0.009 A 
ATOM     76  C   UNL A   1      44.236  26.098  35.318  1.00  0.00     0.009 A 
ATOM     77  C   UNL A   1      41.921  24.555  35.528  1.00  0.00     0.001 A 
ATOM     78  C   UNL A   1      44.275  24.863  35.969  1.00  0.00     0.001 A 
ATOM     79  C   UNL A   1      43.116  24.098  36.083  1.00  0.00     0.000 A 
ENDBRANCH  60  74
BRANCH  61  80
ATOM     80  C   UNL A   1      42.838  35.046  29.468  1.00  0.00    -0.014 A 
ATOM     81  C   UNL A   1      41.692  35.368  28.726  1.00  0.00     0.009 A 
ATOM     82  C   UNL A   1      43.930  35.929  29.447  1.00  0.00     0.009 A 
ATOM     83  C   UNL A   1      41.650  36.533  27.957  1.00  0.00     0.001 A 
ATOM     84  C   UNL A   1      43.872  37.110  28.703  1.00  0.00     0.001 A 
ATOM     85  C   UNL A   1      42.738  37.405  27.951  1.00  0.00     0.000 A 
ENDBRANCH  61  80
BRANCH  73  86
ATOM     86  C   UNL A   1      41.081  33.391  36.006  1.00  0.00    -0.014 A 
ATOM     87  C   UNL A   1      39.702  33.489  36.246  1.00  0.00     0.009 A 
ATOM     88  C   UNL A   1      41.972  34.017  36.893  1.00  0.00     0.009 A 
ATOM     89  C   UNL A   1      39.226  34.220  37.336  1.00  0.00     0.001 A 
ATOM     90  C   UNL A   1      41.494  34.720  37.999  1.00  0.00     0.001 A 
ATOM     91  C   UNL A   1      40.122  34.828  38.215  1.00  0.00     0.000 A 
ENDBRANCH  73  86
ENDBRANCH  47  48
ENDBRANCH  39  42
ENDBRANCH  37  38
ENDBRANCH  36  37
ENDBRANCH  35  36
ENDBRANCH  34  35
ENDBRANCH   1  34
TORSDOF 19
ENDMDL
MODEL 3
REMARK VINA RESULT:      -8.7      5.068     10.649
REMARK SMILES COc1ccc(-c2ccc(C(=O)NCc3ccc(C(=O)NCCCCCCNC(=O)c4ccc(-c5c6nc(c(-c7ccccc7)c7ccc([nH]7)c(-c7ccccc7)c7nc(c(-c8ccccc8)c8ccc5[nH]8)C=C7)C=C6)cc4)cc3)o2)c([N+](=O)[O-])c1
REMARK SMILES IDX 23 1 22 2 21 3 19 4 20 5 18 7 15 8 16 9 80 10 17 11 79 12
REMARK SMILES IDX 14 13 13 14 11 15 12 16 10 18 7 19 8 20 81 21 9 22 6 23 3 24
REMARK SMILES IDX 4 25 86 26 5 27 82 28 2 29 1 30 83 31 84 32 85 33 24 34
REMARK SMILES IDX 25 35 26 36 27 37 28 38 29 39 30 41 31 42 32 43 78 44 33 45
REMARK SMILES IDX 77 46 34 47 35 48 36 49 71 50 37 51 76 52 70 53 72 54 38 55
REMARK SMILES IDX 75 56 69 57 68 58 39 60 61 61 46 62 60 63 47 64 50 65 59 66
REMARK SMILES IDX 73 67 48 68 49 69 58 71 74 72 51 73 40 74 41 75 45 76 42 77
REMARK SMILES IDX 44 78 43 79 62 80 63 81 67 82 64 83 66 84 65 85 52 86 53 87
REMARK SMILES IDX 57 88 54 89 56 90 55 91
REMARK H PARENT 21 6 13 17 28 40 72 59 50 70
REMARK Flexibility Score: inf
ROOT
ATOM      1  C   UNL A   1      40.239  28.754  27.642  1.00  0.00     0.021 C 
ENDROOT
BRANCH   1   2
ATOM      2  C   UNL A   1      39.035  28.820  28.584  1.00  0.00     0.116 C 
BRANCH   2   3
ATOM      3  N   UNL A   1      38.964  30.133  29.191  1.00  0.00    -0.352 N 
ATOM      4  C   UNL A   1      37.996  31.100  29.135  1.00  0.00     0.251 C 
ATOM      5  O   UNL A   1      38.190  32.152  29.745  1.00  0.00    -0.269 OA
ATOM      6  H   UNL A   1      39.747  30.371  29.738  1.00  0.00     0.163 HD
BRANCH   4   7
ATOM      7  C   UNL A   1      36.704  30.895  28.429  1.00  0.00     0.039 A 
ATOM      8  C   UNL A   1      34.162  30.659  27.215  1.00  0.00    -0.029 A 
ATOM      9  C   UNL A   1      34.559  31.856  27.826  1.00  0.00     0.006 A 
ATOM     10  C   UNL A   1      35.064  29.590  27.202  1.00  0.00     0.006 A 
ATOM     11  C   UNL A   1      35.819  31.976  28.416  1.00  0.00     0.014 A 
ATOM     12  C   UNL A   1      36.331  29.717  27.779  1.00  0.00     0.014 A 
BRANCH   8  13
ATOM     13  C   UNL A   1      32.814  30.509  26.557  1.00  0.00     0.152 C 
BRANCH  13  14
ATOM     14  N   UNL A   1      31.969  29.583  27.271  1.00  0.00    -0.345 N 
ATOM     15  C   UNL A   1      31.785  28.231  27.128  1.00  0.00     0.287 C 
ATOM     16  O   UNL A   1      31.161  27.680  28.039  1.00  0.00    -0.266 OA
ATOM     17  H   UNL A   1      31.432  29.994  27.987  1.00  0.00     0.164 HD
BRANCH  15  18
ATOM     18  C   UNL A   1      32.286  27.512  25.971  1.00  0.00     0.192 A 
ATOM     19  C   UNL A   1      33.282  25.785  25.017  1.00  0.00     0.142 A 
ATOM     20  C   UNL A   1      32.912  26.618  23.990  1.00  0.00     0.052 A 
ATOM     21  O   UNL A   1      32.878  26.291  26.209  1.00  0.00    -0.451 OA
ATOM     22  C   UNL A   1      32.294  27.730  24.601  1.00  0.00     0.057 A 
BRANCH  19  23
ATOM     23  C   UNL A   1      33.995  24.527  25.062  1.00  0.00     0.095 A 
ATOM     24  C   UNL A   1      35.423  22.124  25.447  1.00  0.00     0.125 A 
ATOM     25  C   UNL A   1      36.025  23.354  25.712  1.00  0.00     0.047 A 
ATOM     26  C   UNL A   1      34.110  22.083  24.982  1.00  0.00     0.132 A 
ATOM     27  C   UNL A   1      35.326  24.545  25.508  1.00  0.00     0.023 A 
ATOM     28  C   UNL A   1      33.402  23.283  24.785  1.00  0.00     0.284 A 
BRANCH  24  29
ATOM     29  O   UNL A   1      36.181  21.025  25.735  1.00  0.00    -0.497 OA
ATOM     30  C   UNL A   1      37.257  20.776  24.836  1.00  0.00     0.278 C 
ENDBRANCH  24  29
BRANCH  28  31
ATOM     31  N   UNL A   1      32.023  23.175  24.291  1.00  0.00     0.063 N 
ATOM     32  O   UNL A   1      31.104  23.045  25.108  1.00  0.00    -0.258 OA
ATOM     33  O   UNL A   1      31.858  23.254  23.064  1.00  0.00    -0.258 OA
ENDBRANCH  28  31
ENDBRANCH  19  23
ENDBRANCH  15  18
ENDBRANCH  13  14
ENDBRANCH   8  13
ENDBRANCH   4   7
ENDBRANCH   2   3
ENDBRANCH   1   2
BRANCH   1  34
ATOM     34  C   UNL A   1      40.770  27.329  27.456  1.00  0.00     0.002 C 
BRANCH  34  35
ATOM     35  C   UNL A   1      40.251  26.323  28.489  1.00  0.00     0.002 C 
BRANCH  35  36
ATOM     36  C   UNL A   1      39.428  25.175  27.899  1.00  0.00     0.021 C 
BRANCH  36  37
ATOM     37  C   UNL A   1      40.002  24.615  26.603  1.00  0.00     0.116 C 
BRANCH  37  38
ATOM     38  N   UNL A   1      40.805  23.426  26.852  1.00  0.00    -0.352 N 
ATOM     39  C   UNL A   1      42.166  23.272  26.769  1.00  0.00     0.251 C 
ATOM     40  H   UNL A   1      40.303  22.623  27.117  1.00  0.00     0.163 HD
ATOM     41  O   UNL A   1      42.667  22.156  26.743  1.00  0.00    -0.269 OA
BRANCH  39  42
ATOM     42  C   UNL A   1      43.022  24.472  26.705  1.00  0.00     0.039 A 
ATOM     43  C   UNL A   1      43.630  24.940  27.872  1.00  0.00     0.014 A 
ATOM     44  C   UNL A   1      43.222  25.130  25.487  1.00  0.00     0.014 A 
ATOM     45  C   UNL A   1      44.485  26.040  27.806  1.00  0.00     0.010 A 
ATOM     46  C   UNL A   1      44.134  26.175  25.410  1.00  0.00     0.010 A 
ATOM     47  C   UNL A   1      44.770  26.644  26.570  1.00  0.00    -0.014 A 
BRANCH  47  48
ATOM     48  C   UNL A   1      45.726  27.773  26.463  1.00  0.00     0.031 A 
ATOM     49  C   UNL A   1      47.197  27.499  26.316  1.00  0.00     0.074 A 
ATOM     50  C   UNL A   1      45.278  29.038  26.574  1.00  0.00     0.049 A 
ATOM     51  N   UNL A   1      48.196  28.345  26.293  1.00  0.00    -0.248 NA
ATOM     52  C   UNL A   1      47.603  26.088  26.205  1.00  0.00     0.031 C 
ATOM     53  C   UNL A   1      43.879  29.431  26.750  1.00  0.00     0.029 A 
ATOM     54  N   UNL A   1      45.959  30.229  26.564  1.00  0.00    -0.354 N 
ATOM     55  C   UNL A   1      49.343  27.570  26.183  1.00  0.00     0.074 A 
ATOM     56  C   UNL A   1      48.923  26.186  26.197  1.00  0.00     0.031 C 
ATOM     57  C   UNL A   1      43.803  30.770  26.807  1.00  0.00     0.029 A 
ATOM     58  C   UNL A   1      45.149  31.328  26.722  1.00  0.00     0.049 A 
ATOM     59  H   UNL A   1      46.936  30.291  26.455  1.00  0.00     0.167 HD
ATOM     60  C   UNL A   1      50.629  27.974  26.063  1.00  0.00     0.031 A 
ATOM     61  C   UNL A   1      45.456  32.635  26.803  1.00  0.00     0.031 A 
ATOM     62  C   UNL A   1      51.043  29.351  26.046  1.00  0.00     0.049 A 
ATOM     63  C   UNL A   1      46.896  33.056  26.705  1.00  0.00     0.074 A 
ATOM     64  C   UNL A   1      52.316  29.866  25.877  1.00  0.00     0.029 A 
ATOM     65  N   UNL A   1      50.191  30.432  26.209  1.00  0.00    -0.354 N 
ATOM     66  N   UNL A   1      47.964  32.315  26.534  1.00  0.00    -0.248 NA
ATOM     67  C   UNL A   1      47.173  34.496  26.801  1.00  0.00     0.031 C 
ATOM     68  C   UNL A   1      52.243  31.256  26.001  1.00  0.00     0.029 A 
ATOM     69  C   UNL A   1      50.915  31.612  26.177  1.00  0.00     0.049 A 
ATOM     70  H   UNL A   1      49.216  30.371  26.331  1.00  0.00     0.167 HD
ATOM     71  C   UNL A   1      49.034  33.199  26.471  1.00  0.00     0.074 A 
ATOM     72  C   UNL A   1      48.484  34.532  26.607  1.00  0.00     0.031 C 
ATOM     73  C   UNL A   1      50.352  32.932  26.310  1.00  0.00     0.031 A 
BRANCH  60  74
ATOM     74  C   UNL A   1      51.686  26.909  25.956  1.00  0.00    -0.014 A 
ATOM     75  C   UNL A   1      52.312  26.383  27.099  1.00  0.00     0.009 A 
ATOM     76  C   UNL A   1      52.035  26.397  24.697  1.00  0.00     0.009 A 
ATOM     77  C   UNL A   1      53.292  25.396  26.979  1.00  0.00     0.001 A 
ATOM     78  C   UNL A   1      52.992  25.386  24.583  1.00  0.00     0.001 A 
ATOM     79  C   UNL A   1      53.627  24.895  25.722  1.00  0.00     0.000 A 
ENDBRANCH  60  74
BRANCH  61  80
ATOM     80  C   UNL A   1      44.379  33.645  26.983  1.00  0.00    -0.014 A 
ATOM     81  C   UNL A   1      43.804  34.280  25.873  1.00  0.00     0.009 A 
ATOM     82  C   UNL A   1      43.927  33.987  28.268  1.00  0.00     0.009 A 
ATOM     83  C   UNL A   1      42.819  35.256  26.045  1.00  0.00     0.001 A 
ATOM     84  C   UNL A   1      42.920  34.940  28.436  1.00  0.00     0.001 A 
ATOM     85  C   UNL A   1      42.375  35.581  27.326  1.00  0.00     0.000 A 
ENDBRANCH  61  80
BRANCH  73  86
ATOM     86  C   UNL A   1      51.293  34.101  26.230  1.00  0.00    -0.014 A 
ATOM     87  C   UNL A   1      51.947  34.596  27.368  1.00  0.00     0.009 A 
ATOM     88  C   UNL A   1      51.572  34.677  24.980  1.00  0.00     0.009 A 
ATOM     89  C   UNL A   1      52.841  35.663  27.260  1.00  0.00     0.001 A 
ATOM     90  C   UNL A   1      52.491  35.722  24.870  1.00  0.00     0.001 A 
ATOM     91  C   UNL A   1      53.118  36.219  26.011  1.00  0.00     0.000 A 
ENDBRANCH  73  86
ENDBRANCH  47  48
ENDBRANCH  39  42
ENDBRANCH  37  38
ENDBRANCH  36  37
ENDBRANCH  35  36
ENDBRANCH  34  35
ENDBRANCH   1  34
TORSDOF 19
ENDMDL
