MODEL 1
REMARK VINA RESULT:     -11.2      0.000      0.000
REMARK SMILES Cc1n[nH]c(S[C@H]2CC[C@]([NH3+])(C(=O)NCCCCCCNC(=O)c3ccc(-c4c5nc(c(-c6ccccc6)c6ccc([nH]6)c(-c6ccccc6)c6nc(c(-c7ccccc7)c7ccc4[nH]7)C=C6)C=C5)cc3)C2)n1
REMARK SMILES IDX 17 1 16 2 15 3 14 4 12 5 13 6 10 8 7 9 8 10 72 11 9 12 6 13
REMARK SMILES IDX 5 14 1 15 2 16 3 17 73 18 4 19 11 21 18 25 19 26 20 27 21 28
REMARK SMILES IDX 22 29 23 31 24 32 25 33 71 34 26 35 70 36 27 37 28 38 29 39
REMARK SMILES IDX 64 40 30 41 69 42 63 43 65 44 31 45 68 46 62 47 61 48 32 50
REMARK SMILES IDX 54 51 39 52 53 53 40 54 43 55 52 56 66 57 41 58 42 59 51 61
REMARK SMILES IDX 67 62 44 63 33 64 34 65 38 66 35 67 37 68 36 69 55 70 56 71
REMARK SMILES IDX 60 72 57 73 59 74 58 75 45 76 46 77 50 78 47 79 49 80 48 81
REMARK H PARENT 14 7 4 20 11 22 11 23 11 24 21 30 65 49 43 60
REMARK Flexibility Score: inf
ROOT
ATOM      1  C   UNL A   1      34.839  20.648  24.560  1.00  0.00     0.002 C 
ENDROOT
BRANCH   1   2
ATOM      2  C   UNL A   1      33.605  20.208  25.353  1.00  0.00     0.021 C 
BRANCH   2   3
ATOM      3  C   UNL A   1      32.362  21.067  25.153  1.00  0.00     0.116 C 
BRANCH   3   4
ATOM      4  N   UNL A   1      32.015  21.834  26.331  1.00  0.00    -0.351 N 
ATOM      5  C   UNL A   1      31.722  23.153  26.493  1.00  0.00     0.281 C 
ATOM      6  O   UNL A   1      31.276  23.484  27.598  1.00  0.00    -0.268 OA
ATOM      7  H   UNL A   1      31.986  21.308  27.163  1.00  0.00     0.163 HD
BRANCH   5   8
ATOM      8  C   UNL A   1      31.899  24.200  25.352  1.00  0.00     0.175 C 
ATOM      9  C   UNL A   1      33.570  25.492  24.111  1.00  0.00     0.062 C 
ATOM     10  C   UNL A   1      32.940  26.424  25.150  1.00  0.00     0.022 C 
ATOM     11  C   UNL A   1      33.256  24.085  24.635  1.00  0.00     0.094 C 
ATOM     12  C   UNL A   1      31.821  25.652  25.849  1.00  0.00     0.080 C 
BRANCH   9  13
ATOM     13  S   UNL A   1      32.898  25.680  22.432  1.00  0.00    -0.083 SA
BRANCH  13  14
ATOM     14  C   UNL A   1      31.817  27.016  22.491  1.00  0.00     0.183 A 
ATOM     15  C   UNL A   1      28.717  28.601  22.983  1.00  0.00     0.092 C 
ATOM     16  C   UNL A   1      30.121  28.231  22.722  1.00  0.00     0.148 A 
ATOM     17  N   UNL A   1      31.084  29.126  22.464  1.00  0.00    -0.158 NA
ATOM     18  N   UNL A   1      30.534  26.926  22.738  1.00  0.00    -0.206 NA
ATOM     19  N   UNL A   1      32.151  28.322  22.308  1.00  0.00    -0.254 N 
ATOM     20  H   UNL A   1      33.058  28.637  22.089  1.00  0.00     0.192 HD
ENDBRANCH  13  14
ENDBRANCH   9  13
BRANCH   8  21
ATOM     21  N   UNL A   1      30.790  24.029  24.385  1.00  0.00    -0.345 N 
ATOM     22  H   UNL A   1      30.910  24.682  23.610  1.00  0.00     0.345 HD
ATOM     23  H   UNL A   1      29.901  24.212  24.850  1.00  0.00     0.345 HD
ATOM     24  H   UNL A   1      30.797  23.074  24.027  1.00  0.00     0.345 HD
ENDBRANCH   8  21
ENDBRANCH   5   8
ENDBRANCH   3   4
ENDBRANCH   2   3
ENDBRANCH   1   2
BRANCH   1  25
ATOM     25  C   UNL A   1      36.139  20.820  25.359  1.00  0.00     0.002 C 
BRANCH  25  26
ATOM     26  C   UNL A   1      37.328  19.941  24.949  1.00  0.00     0.021 C 
BRANCH  26  27
ATOM     27  C   UNL A   1      38.673  20.420  25.472  1.00  0.00     0.116 C 
BRANCH  27  28
ATOM     28  N   UNL A   1      39.642  19.340  25.641  1.00  0.00    -0.352 N 
ATOM     29  C   UNL A   1      40.996  19.446  25.908  1.00  0.00     0.251 C 
ATOM     30  H   UNL A   1      39.288  18.425  25.556  1.00  0.00     0.163 HD
ATOM     31  O   UNL A   1      41.765  18.534  25.656  1.00  0.00    -0.269 OA
BRANCH  29  32
ATOM     32  C   UNL A   1      41.493  20.691  26.525  1.00  0.00     0.039 A 
ATOM     33  C   UNL A   1      42.151  21.672  25.775  1.00  0.00     0.014 A 
ATOM     34  C   UNL A   1      41.272  20.865  27.887  1.00  0.00     0.014 A 
ATOM     35  C   UNL A   1      42.516  22.862  26.402  1.00  0.00     0.010 A 
ATOM     36  C   UNL A   1      41.476  22.092  28.458  1.00  0.00     0.010 A 
ATOM     37  C   UNL A   1      42.160  23.069  27.744  1.00  0.00    -0.014 A 
BRANCH  37  38
ATOM     38  C   UNL A   1      42.357  24.358  28.398  1.00  0.00     0.031 A 
ATOM     39  C   UNL A   1      41.293  25.353  28.088  1.00  0.00     0.074 A 
ATOM     40  C   UNL A   1      43.253  24.521  29.399  1.00  0.00     0.049 A 
ATOM     41  N   UNL A   1      41.428  26.493  27.497  1.00  0.00    -0.248 NA
ATOM     42  C   UNL A   1      39.887  24.977  28.336  1.00  0.00     0.031 C 
ATOM     43  C   UNL A   1      44.121  23.499  30.000  1.00  0.00     0.029 A 
ATOM     44  N   UNL A   1      43.478  25.597  30.203  1.00  0.00    -0.354 N 
ATOM     45  C   UNL A   1      40.163  27.074  27.497  1.00  0.00     0.074 A 
ATOM     46  C   UNL A   1      39.235  26.026  27.833  1.00  0.00     0.031 C 
ATOM     47  C   UNL A   1      44.552  23.920  31.209  1.00  0.00     0.029 A 
ATOM     48  C   UNL A   1      44.131  25.296  31.398  1.00  0.00     0.049 A 
ATOM     49  H   UNL A   1      43.203  26.510  29.959  1.00  0.00     0.167 HD
ATOM     50  C   UNL A   1      40.014  28.428  27.517  1.00  0.00     0.031 A 
ATOM     51  C   UNL A   1      44.272  26.101  32.484  1.00  0.00     0.031 A 
ATOM     52  C   UNL A   1      41.242  29.096  27.163  1.00  0.00     0.049 A 
ATOM     53  C   UNL A   1      43.999  27.487  32.043  1.00  0.00     0.074 A 
ATOM     54  C   UNL A   1      42.079  29.079  26.064  1.00  0.00     0.029 A 
ATOM     55  N   UNL A   1      41.983  29.615  28.197  1.00  0.00    -0.354 N 
ATOM     56  N   UNL A   1      44.767  28.141  31.222  1.00  0.00    -0.248 NA
ATOM     57  C   UNL A   1      42.630  27.967  32.137  1.00  0.00     0.031 C 
ATOM     58  C   UNL A   1      43.396  29.126  26.610  1.00  0.00     0.029 A 
ATOM     59  C   UNL A   1      43.291  29.267  27.995  1.00  0.00     0.049 A 
ATOM     60  H   UNL A   1      41.634  30.145  28.951  1.00  0.00     0.167 HD
ATOM     61  C   UNL A   1      43.888  28.783  30.363  1.00  0.00     0.074 A 
ATOM     62  C   UNL A   1      42.589  28.719  31.033  1.00  0.00     0.031 C 
ATOM     63  C   UNL A   1      44.235  29.036  29.066  1.00  0.00     0.031 A 
BRANCH  50  64
ATOM     64  C   UNL A   1      38.931  29.132  28.304  1.00  0.00    -0.014 A 
ATOM     65  C   UNL A   1      38.842  28.887  29.686  1.00  0.00     0.009 A 
ATOM     66  C   UNL A   1      37.828  29.772  27.707  1.00  0.00     0.009 A 
ATOM     67  C   UNL A   1      37.677  29.180  30.406  1.00  0.00     0.001 A 
ATOM     68  C   UNL A   1      36.680  30.106  28.430  1.00  0.00     0.001 A 
ATOM     69  C   UNL A   1      36.592  29.780  29.774  1.00  0.00     0.000 A 
ENDBRANCH  50  64
BRANCH  51  70
ATOM     70  C   UNL A   1      44.320  25.742  33.922  1.00  0.00    -0.014 A 
ATOM     71  C   UNL A   1      43.455  24.766  34.448  1.00  0.00     0.009 A 
ATOM     72  C   UNL A   1      45.407  26.143  34.720  1.00  0.00     0.009 A 
ATOM     73  C   UNL A   1      43.698  24.180  35.699  1.00  0.00     0.001 A 
ATOM     74  C   UNL A   1      45.648  25.560  35.971  1.00  0.00     0.001 A 
ATOM     75  C   UNL A   1      44.803  24.566  36.453  1.00  0.00     0.000 A 
ENDBRANCH  51  70
BRANCH  63  76
ATOM     76  C   UNL A   1      45.678  28.847  28.666  1.00  0.00    -0.014 A 
ATOM     77  C   UNL A   1      46.215  27.627  28.215  1.00  0.00     0.009 A 
ATOM     78  C   UNL A   1      46.493  29.987  28.618  1.00  0.00     0.009 A 
ATOM     79  C   UNL A   1      47.540  27.551  27.769  1.00  0.00     0.001 A 
ATOM     80  C   UNL A   1      47.806  29.916  28.151  1.00  0.00     0.001 A 
ATOM     81  C   UNL A   1      48.333  28.696  27.735  1.00  0.00     0.000 A 
ENDBRANCH  63  76
ENDBRANCH  37  38
ENDBRANCH  29  32
ENDBRANCH  27  28
ENDBRANCH  26  27
ENDBRANCH  25  26
ENDBRANCH   1  25
TORSDOF 16
ENDMDL
MODEL 2
REMARK VINA RESULT:     -11.0      2.387      3.919
REMARK SMILES Cc1n[nH]c(S[C@H]2CC[C@]([NH3+])(C(=O)NCCCCCCNC(=O)c3ccc(-c4c5nc(c(-c6ccccc6)c6ccc([nH]6)c(-c6ccccc6)c6nc(c(-c7ccccc7)c7ccc4[nH]7)C=C6)C=C5)cc3)C2)n1
REMARK SMILES IDX 17 1 16 2 15 3 14 4 12 5 13 6 10 8 7 9 8 10 72 11 9 12 6 13
REMARK SMILES IDX 5 14 1 15 2 16 3 17 73 18 4 19 11 21 18 25 19 26 20 27 21 28
REMARK SMILES IDX 22 29 23 31 24 32 25 33 71 34 26 35 70 36 27 37 28 38 29 39
REMARK SMILES IDX 64 40 30 41 69 42 63 43 65 44 31 45 68 46 62 47 61 48 32 50
REMARK SMILES IDX 54 51 39 52 53 53 40 54 43 55 52 56 66 57 41 58 42 59 51 61
REMARK SMILES IDX 67 62 44 63 33 64 34 65 38 66 35 67 37 68 36 69 55 70 56 71
REMARK SMILES IDX 60 72 57 73 59 74 58 75 45 76 46 77 50 78 47 79 49 80 48 81
REMARK H PARENT 14 7 4 20 11 22 11 23 11 24 21 30 65 49 43 60
REMARK Flexibility Score: inf
ROOT
ATOM      1  C   UNL A   1      38.010  23.406  25.548  1.00  0.00     0.002 C 
ENDROOT
BRANCH   1   2
ATOM      2  C   UNL A   1      36.674  23.709  26.234  1.00  0.00     0.021 C 
BRANCH   2   3
ATOM      3  C   UNL A   1      35.848  22.487  26.619  1.00  0.00     0.116 C 
BRANCH   3   4
ATOM      4  N   UNL A   1      34.655  22.829  27.365  1.00  0.00    -0.351 N 
ATOM      5  C   UNL A   1      33.340  22.563  27.132  1.00  0.00     0.281 C 
ATOM      6  O   UNL A   1      32.558  22.824  28.053  1.00  0.00    -0.268 OA
ATOM      7  H   UNL A   1      34.824  23.345  28.185  1.00  0.00     0.163 HD
BRANCH   5   8
ATOM      8  C   UNL A   1      32.832  21.933  25.800  1.00  0.00     0.175 C 
ATOM      9  C   UNL A   1      33.561  20.777  23.768  1.00  0.00     0.062 C 
ATOM     10  C   UNL A   1      33.322  22.245  23.406  1.00  0.00     0.022 C 
ATOM     11  C   UNL A   1      33.730  20.792  25.293  1.00  0.00     0.094 C 
ATOM     12  C   UNL A   1      32.760  22.943  24.645  1.00  0.00     0.080 C 
BRANCH   9  13
ATOM     13  S   UNL A   1      32.196  19.663  23.319  1.00  0.00    -0.083 SA
BRANCH  13  14
ATOM     14  C   UNL A   1      32.668  18.090  23.828  1.00  0.00     0.183 A 
ATOM     15  C   UNL A   1      32.475  15.166  25.772  1.00  0.00     0.092 C 
ATOM     16  C   UNL A   1      32.793  16.239  24.810  1.00  0.00     0.148 A 
ATOM     17  N   UNL A   1      33.734  16.128  23.864  1.00  0.00    -0.158 NA
ATOM     18  N   UNL A   1      32.125  17.434  24.823  1.00  0.00    -0.206 NA
ATOM     19  N   UNL A   1      33.641  17.327  23.262  1.00  0.00    -0.254 N 
ATOM     20  H   UNL A   1      34.205  17.616  22.508  1.00  0.00     0.192 HD
ENDBRANCH  13  14
ENDBRANCH   9  13
BRANCH   8  21
ATOM     21  N   UNL A   1      31.450  21.443  26.014  1.00  0.00    -0.345 N 
ATOM     22  H   UNL A   1      31.436  20.425  25.942  1.00  0.00     0.345 HD
ATOM     23  H   UNL A   1      30.834  21.842  25.305  1.00  0.00     0.345 HD
ATOM     24  H   UNL A   1      31.130  21.723  26.940  1.00  0.00     0.345 HD
ENDBRANCH   8  21
ENDBRANCH   5   8
ENDBRANCH   3   4
ENDBRANCH   2   3
ENDBRANCH   1   2
BRANCH   1  25
ATOM     25  C   UNL A   1      38.915  22.377  26.242  1.00  0.00     0.002 C 
BRANCH  25  26
ATOM     26  C   UNL A   1      39.155  21.054  25.503  1.00  0.00     0.021 C 
BRANCH  26  27
ATOM     27  C   UNL A   1      39.559  19.896  26.403  1.00  0.00     0.116 C 
BRANCH  27  28
ATOM     28  N   UNL A   1      40.771  19.216  25.955  1.00  0.00    -0.352 N 
ATOM     29  C   UNL A   1      42.024  19.763  25.741  1.00  0.00     0.251 C 
ATOM     30  H   UNL A   1      40.686  18.250  25.784  1.00  0.00     0.163 HD
ATOM     31  O   UNL A   1      42.842  19.214  25.024  1.00  0.00    -0.269 OA
BRANCH  29  32
ATOM     32  C   UNL A   1      42.360  21.029  26.421  1.00  0.00     0.039 A 
ATOM     33  C   UNL A   1      42.808  22.149  25.711  1.00  0.00     0.014 A 
ATOM     34  C   UNL A   1      42.204  21.078  27.802  1.00  0.00     0.014 A 
ATOM     35  C   UNL A   1      43.023  23.339  26.404  1.00  0.00     0.010 A 
ATOM     36  C   UNL A   1      42.252  22.282  28.450  1.00  0.00     0.010 A 
ATOM     37  C   UNL A   1      42.727  23.400  27.774  1.00  0.00    -0.014 A 
BRANCH  37  38
ATOM     38  C   UNL A   1      42.763  24.659  28.510  1.00  0.00     0.031 A 
ATOM     39  C   UNL A   1      41.656  25.590  28.154  1.00  0.00     0.074 A 
ATOM     40  C   UNL A   1      43.551  24.828  29.597  1.00  0.00     0.049 A 
ATOM     41  N   UNL A   1      41.753  26.769  27.639  1.00  0.00    -0.248 NA
ATOM     42  C   UNL A   1      40.267  25.097  28.251  1.00  0.00     0.031 C 
ATOM     43  C   UNL A   1      44.439  23.839  30.222  1.00  0.00     0.029 A 
ATOM     44  N   UNL A   1      43.619  25.869  30.473  1.00  0.00    -0.354 N 
ATOM     45  C   UNL A   1      40.451  27.255  27.552  1.00  0.00     0.074 A 
ATOM     46  C   UNL A   1      39.582  26.124  27.744  1.00  0.00     0.031 C 
ATOM     47  C   UNL A   1      44.727  24.219  31.487  1.00  0.00     0.029 A 
ATOM     48  C   UNL A   1      44.184  25.547  31.706  1.00  0.00     0.049 A 
ATOM     49  H   UNL A   1      43.295  26.772  30.253  1.00  0.00     0.167 HD
ATOM     50  C   UNL A   1      40.195  28.591  27.628  1.00  0.00     0.031 A 
ATOM     51  C   UNL A   1      44.164  26.294  32.841  1.00  0.00     0.031 A 
ATOM     52  C   UNL A   1      41.393  29.367  27.424  1.00  0.00     0.049 A 
ATOM     53  C   UNL A   1      43.823  27.680  32.450  1.00  0.00     0.074 A 
ATOM     54  C   UNL A   1      42.323  29.476  26.410  1.00  0.00     0.029 A 
ATOM     55  N   UNL A   1      41.996  29.877  28.549  1.00  0.00    -0.354 N 
ATOM     56  N   UNL A   1      44.607  28.436  31.740  1.00  0.00    -0.248 NA
ATOM     57  C   UNL A   1      42.418  28.051  32.441  1.00  0.00     0.031 C 
ATOM     58  C   UNL A   1      43.578  29.588  27.078  1.00  0.00     0.029 A 
ATOM     59  C   UNL A   1      43.340  29.639  28.451  1.00  0.00     0.049 A 
ATOM     60  H   UNL A   1      41.541  30.335  29.294  1.00  0.00     0.167 HD
ATOM     61  C   UNL A   1      43.760  29.061  30.837  1.00  0.00     0.074 A 
ATOM     62  C   UNL A   1      42.416  28.862  31.379  1.00  0.00     0.031 C 
ATOM     63  C   UNL A   1      44.200  29.415  29.593  1.00  0.00     0.031 A 
BRANCH  50  64
ATOM     64  C   UNL A   1      38.994  29.166  28.346  1.00  0.00    -0.014 A 
ATOM     65  C   UNL A   1      38.821  28.862  29.708  1.00  0.00     0.009 A 
ATOM     66  C   UNL A   1      37.886  29.727  27.681  1.00  0.00     0.009 A 
ATOM     67  C   UNL A   1      37.582  29.023  30.340  1.00  0.00     0.001 A 
ATOM     68  C   UNL A   1      36.660  29.930  28.320  1.00  0.00     0.001 A 
ATOM     69  C   UNL A   1      36.499  29.547  29.642  1.00  0.00     0.000 A 
ENDBRANCH  50  64
BRANCH  51  70
ATOM     70  C   UNL A   1      44.113  25.856  34.257  1.00  0.00    -0.014 A 
ATOM     71  C   UNL A   1      44.914  26.478  35.231  1.00  0.00     0.009 A 
ATOM     72  C   UNL A   1      43.071  25.026  34.709  1.00  0.00     0.009 A 
ATOM     73  C   UNL A   1      44.650  26.317  36.599  1.00  0.00     0.001 A 
ATOM     74  C   UNL A   1      42.809  24.862  36.075  1.00  0.00     0.001 A 
ATOM     75  C   UNL A   1      43.587  25.521  37.020  1.00  0.00     0.000 A 
ENDBRANCH  51  70
BRANCH  63  76
ATOM     76  C   UNL A   1      45.684  29.356  29.319  1.00  0.00    -0.014 A 
ATOM     77  C   UNL A   1      46.565  30.432  29.536  1.00  0.00     0.009 A 
ATOM     78  C   UNL A   1      46.229  28.116  28.955  1.00  0.00     0.009 A 
ATOM     79  C   UNL A   1      47.945  30.274  29.352  1.00  0.00     0.001 A 
ATOM     80  C   UNL A   1      47.605  27.953  28.795  1.00  0.00     0.001 A 
ATOM     81  C   UNL A   1      48.463  29.034  28.984  1.00  0.00     0.000 A 
ENDBRANCH  63  76
ENDBRANCH  37  38
ENDBRANCH  29  32
ENDBRANCH  27  28
ENDBRANCH  26  27
ENDBRANCH  25  26
ENDBRANCH   1  25
TORSDOF 16
ENDMDL
MODEL 3
REMARK VINA RESULT:     -11.0      2.522      6.139
REMARK SMILES Cc1n[nH]c(S[C@H]2CC[C@]([NH3+])(C(=O)NCCCCCCNC(=O)c3ccc(-c4c5nc(c(-c6ccccc6)c6ccc([nH]6)c(-c6ccccc6)c6nc(c(-c7ccccc7)c7ccc4[nH]7)C=C6)C=C5)cc3)C2)n1
REMARK SMILES IDX 17 1 16 2 15 3 14 4 12 5 13 6 10 8 7 9 8 10 72 11 9 12 6 13
REMARK SMILES IDX 5 14 1 15 2 16 3 17 73 18 4 19 11 21 18 25 19 26 20 27 21 28
REMARK SMILES IDX 22 29 23 31 24 32 25 33 71 34 26 35 70 36 27 37 28 38 29 39
REMARK SMILES IDX 64 40 30 41 69 42 63 43 65 44 31 45 68 46 62 47 61 48 32 50
REMARK SMILES IDX 54 51 39 52 53 53 40 54 43 55 52 56 66 57 41 58 42 59 51 61
REMARK SMILES IDX 67 62 44 63 33 64 34 65 38 66 35 67 37 68 36 69 55 70 56 71
REMARK SMILES IDX 60 72 57 73 59 74 58 75 45 76 46 77 50 78 47 79 49 80 48 81
REMARK H PARENT 14 7 4 20 11 22 11 23 11 24 21 30 65 49 43 60
REMARK Flexibility Score: inf
ROOT
ATOM      1  C   UNL A   1      40.504  22.287  26.621  1.00  0.00     0.002 C 
ENDROOT
BRANCH   1   2
ATOM      2  C   UNL A   1      38.988  22.118  26.482  1.00  0.00     0.021 C 
BRANCH   2   3
ATOM      3  C   UNL A   1      38.251  23.316  25.895  1.00  0.00     0.116 C 
BRANCH   3   4
ATOM      4  N   UNL A   1      37.769  23.074  24.551  1.00  0.00    -0.351 N 
ATOM      5  C   UNL A   1      36.509  22.919  24.060  1.00  0.00     0.281 C 
ATOM      6  O   UNL A   1      36.397  22.914  22.829  1.00  0.00    -0.268 OA
ATOM      7  H   UNL A   1      38.478  23.011  23.872  1.00  0.00     0.163 HD
BRANCH   5   8
ATOM      8  C   UNL A   1      35.258  22.787  24.980  1.00  0.00     0.175 C 
ATOM      9  C   UNL A   1      33.847  21.171  26.161  1.00  0.00     0.062 C 
ATOM     10  C   UNL A   1      33.116  21.574  24.877  1.00  0.00     0.022 C 
ATOM     11  C   UNL A   1      35.309  21.549  25.892  1.00  0.00     0.094 C 
ATOM     12  C   UNL A   1      33.943  22.665  24.196  1.00  0.00     0.080 C 
BRANCH   9  13
ATOM     13  S   UNL A   1      33.262  22.026  27.655  1.00  0.00    -0.083 SA
BRANCH  13  14
ATOM     14  C   UNL A   1      31.984  23.060  27.151  1.00  0.00     0.183 A 
ATOM     15  C   UNL A   1      30.584  25.996  25.815  1.00  0.00     0.092 C 
ATOM     16  C   UNL A   1      30.869  24.667  26.391  1.00  0.00     0.148 A 
ATOM     17  N   UNL A   1      29.922  23.755  26.648  1.00  0.00    -0.158 NA
ATOM     18  N   UNL A   1      32.145  24.277  26.696  1.00  0.00    -0.206 NA
ATOM     19  N   UNL A   1      30.660  22.747  27.144  1.00  0.00    -0.254 N 
ATOM     20  H   UNL A   1      30.291  21.891  27.461  1.00  0.00     0.192 HD
ENDBRANCH  13  14
ENDBRANCH   9  13
BRANCH   8  21
ATOM     21  N   UNL A   1      35.146  24.020  25.795  1.00  0.00    -0.345 N 
ATOM     22  H   UNL A   1      34.752  24.769  25.225  1.00  0.00     0.345 HD
ATOM     23  H   UNL A   1      36.071  24.295  26.126  1.00  0.00     0.345 HD
ATOM     24  H   UNL A   1      34.537  23.845  26.594  1.00  0.00     0.345 HD
ENDBRANCH   8  21
ENDBRANCH   5   8
ENDBRANCH   3   4
ENDBRANCH   2   3
ENDBRANCH   1   2
BRANCH   1  25
ATOM     25  C   UNL A   1      41.181  21.486  27.743  1.00  0.00     0.002 C 
BRANCH  25  26
ATOM     26  C   UNL A   1      42.146  20.372  27.315  1.00  0.00     0.021 C 
BRANCH  26  27
ATOM     27  C   UNL A   1      42.124  20.059  25.827  1.00  0.00     0.116 C 
BRANCH  27  28
ATOM     28  N   UNL A   1      43.449  19.787  25.277  1.00  0.00    -0.352 N 
ATOM     29  C   UNL A   1      44.398  20.702  24.855  1.00  0.00     0.251 C 
ATOM     30  H   UNL A   1      43.697  18.837  25.197  1.00  0.00     0.163 HD
ATOM     31  O   UNL A   1      45.284  20.384  24.080  1.00  0.00    -0.269 OA
BRANCH  29  32
ATOM     32  C   UNL A   1      44.327  22.078  25.381  1.00  0.00     0.039 A 
ATOM     33  C   UNL A   1      43.492  23.043  24.805  1.00  0.00     0.014 A 
ATOM     34  C   UNL A   1      45.113  22.386  26.486  1.00  0.00     0.014 A 
ATOM     35  C   UNL A   1      43.406  24.299  25.405  1.00  0.00     0.010 A 
ATOM     36  C   UNL A   1      44.902  23.553  27.168  1.00  0.00     0.010 A 
ATOM     37  C   UNL A   1      44.105  24.539  26.598  1.00  0.00    -0.014 A 
BRANCH  37  38
ATOM     38  C   UNL A   1      43.915  25.767  27.362  1.00  0.00     0.031 A 
ATOM     39  C   UNL A   1      44.867  26.853  26.996  1.00  0.00     0.074 A 
ATOM     40  C   UNL A   1      42.808  25.976  28.113  1.00  0.00     0.049 A 
ATOM     41  N   UNL A   1      45.744  27.420  27.754  1.00  0.00    -0.248 NA
ATOM     42  C   UNL A   1      44.953  27.260  25.580  1.00  0.00     0.031 C 
ATOM     43  C   UNL A   1      41.650  25.084  28.269  1.00  0.00     0.029 A 
ATOM     44  N   UNL A   1      42.402  27.092  28.779  1.00  0.00    -0.354 N 
ATOM     45  C   UNL A   1      46.340  28.407  26.973  1.00  0.00     0.074 A 
ATOM     46  C   UNL A   1      45.967  28.128  25.611  1.00  0.00     0.031 C 
ATOM     47  C   UNL A   1      40.594  25.786  28.735  1.00  0.00     0.029 A 
ATOM     48  C   UNL A   1      41.038  27.128  29.064  1.00  0.00     0.049 A 
ATOM     49  H   UNL A   1      43.021  27.813  29.036  1.00  0.00     0.167 HD
ATOM     50  C   UNL A   1      46.841  29.541  27.539  1.00  0.00     0.031 A 
ATOM     51  C   UNL A   1      40.314  28.196  29.490  1.00  0.00     0.031 A 
ATOM     52  C   UNL A   1      47.005  29.387  28.963  1.00  0.00     0.049 A 
ATOM     53  C   UNL A   1      41.272  29.197  30.012  1.00  0.00     0.074 A 
ATOM     54  C   UNL A   1      47.710  28.522  29.776  1.00  0.00     0.029 A 
ATOM     55  N   UNL A   1      46.040  29.956  29.761  1.00  0.00    -0.354 N 
ATOM     56  N   UNL A   1      41.986  29.013  31.083  1.00  0.00    -0.248 NA
ATOM     57  C   UNL A   1      41.781  30.191  29.081  1.00  0.00     0.031 C 
ATOM     58  C   UNL A   1      46.834  28.255  30.870  1.00  0.00     0.029 A 
ATOM     59  C   UNL A   1      45.691  29.042  30.717  1.00  0.00     0.049 A 
ATOM     60  H   UNL A   1      45.667  30.863  29.661  1.00  0.00     0.167 HD
ATOM     61  C   UNL A   1      43.243  29.493  30.747  1.00  0.00     0.074 A 
ATOM     62  C   UNL A   1      43.032  30.294  29.540  1.00  0.00     0.031 C 
ATOM     63  C   UNL A   1      44.370  28.953  31.299  1.00  0.00     0.031 A 
BRANCH  50  64
ATOM     64  C   UNL A   1      46.727  30.907  26.899  1.00  0.00    -0.014 A 
ATOM     65  C   UNL A   1      47.852  31.751  26.921  1.00  0.00     0.009 A 
ATOM     66  C   UNL A   1      45.498  31.505  26.557  1.00  0.00     0.009 A 
ATOM     67  C   UNL A   1      47.734  33.130  26.705  1.00  0.00     0.001 A 
ATOM     68  C   UNL A   1      45.384  32.873  26.299  1.00  0.00     0.001 A 
ATOM     69  C   UNL A   1      46.497  33.691  26.405  1.00  0.00     0.000 A 
ENDBRANCH  50  64
BRANCH  51  70
ATOM     70  C   UNL A   1      38.902  28.551  29.207  1.00  0.00    -0.014 A 
ATOM     71  C   UNL A   1      37.976  28.705  30.255  1.00  0.00     0.009 A 
ATOM     72  C   UNL A   1      38.526  29.022  27.937  1.00  0.00     0.009 A 
ATOM     73  C   UNL A   1      36.749  29.352  30.049  1.00  0.00     0.001 A 
ATOM     74  C   UNL A   1      37.299  29.665  27.730  1.00  0.00     0.001 A 
ATOM     75  C   UNL A   1      36.417  29.845  28.790  1.00  0.00     0.000 A 
ENDBRANCH  51  70
BRANCH  63  76
ATOM     76  C   UNL A   1      44.209  28.017  32.472  1.00  0.00    -0.014 A 
ATOM     77  C   UNL A   1      44.051  26.624  32.349  1.00  0.00     0.009 A 
ATOM     78  C   UNL A   1      44.359  28.556  33.758  1.00  0.00     0.009 A 
ATOM     79  C   UNL A   1      44.005  25.807  33.486  1.00  0.00     0.001 A 
ATOM     80  C   UNL A   1      44.337  27.739  34.889  1.00  0.00     0.001 A 
ATOM     81  C   UNL A   1      44.151  26.366  34.754  1.00  0.00     0.000 A 
ENDBRANCH  63  76
ENDBRANCH  37  38
ENDBRANCH  29  32
ENDBRANCH  27  28
ENDBRANCH  26  27
ENDBRANCH  25  26
ENDBRANCH   1  25
TORSDOF 16
ENDMDL
