MODEL 1
REMARK VINA RESULT:     -11.3      0.000      0.000
REMARK SMILES Cc1nn(CC(=O)NCCCCCCNC(=O)c2ccc(-c3c4nc(c(-c5ccccc5)c5ccc([nH]5)c(-c5ccccc5)c5nc(c(-c6ccccc6)c6ccc3[nH]6)C=C5)C=C4)cc2)c(C)c1NC(=O)C(=O)Nc1ccc(F)cc1
REMARK SMILES IDX 10 1 9 2 8 3 6 4 7 5 5 7 4 8 1 9 2 10 3 11 68 12 66 13 67 14
REMARK SMILES IDX 69 15 70 16 71 18 72 19 73 20 74 21 75 23 76 24 81 25 77 26
REMARK SMILES IDX 80 27 78 28 79 29 11 30 12 31 13 32 14 33 15 34 16 35 17 37
REMARK SMILES IDX 18 38 19 39 65 40 20 41 64 42 21 43 22 44 23 45 58 46 24 47
REMARK SMILES IDX 63 48 57 49 59 50 25 51 62 52 56 53 55 54 26 56 48 57 33 58
REMARK SMILES IDX 47 59 34 60 37 61 46 62 60 63 35 64 36 65 45 67 61 68 38 69
REMARK SMILES IDX 27 70 28 71 32 72 29 73 31 74 30 75 49 76 50 77 54 78 51 79
REMARK SMILES IDX 53 80 52 81 39 82 40 83 44 84 41 85 43 86 42 87
REMARK H PARENT 8 6 69 17 74 22 15 36 59 55 37 66
REMARK Flexibility Score: inf
ROOT
ATOM      1  C   UNL A   1      33.373  29.292  24.929  1.00  0.00     0.021 C 
ENDROOT
BRANCH   1   2
ATOM      2  C   UNL A   1      31.868  29.151  24.736  1.00  0.00     0.116 C 
BRANCH   2   3
ATOM      3  N   UNL A   1      31.425  29.690  23.469  1.00  0.00    -0.354 N 
ATOM      4  C   UNL A   1      30.515  29.247  22.556  1.00  0.00     0.241 C 
ATOM      5  O   UNL A   1      30.399  29.942  21.537  1.00  0.00    -0.273 OA
ATOM      6  H   UNL A   1      31.863  30.536  23.218  1.00  0.00     0.163 HD
BRANCH   4   7
ATOM      7  C   UNL A   1      29.555  28.102  22.792  1.00  0.00     0.244 C 
BRANCH   7   8
ATOM      8  N   UNL A   1      30.150  26.799  23.043  1.00  0.00    -0.258 N 
ATOM      9  C   UNL A   1      32.736  24.565  22.175  1.00  0.00     0.071 C 
ATOM     10  C   UNL A   1      31.547  25.237  22.764  1.00  0.00     0.083 A 
ATOM     11  N   UNL A   1      31.284  26.492  22.400  1.00  0.00    -0.175 NA
ATOM     12  C   UNL A   1      30.574  24.729  23.683  1.00  0.00     0.086 A 
ATOM     13  C   UNL A   1      29.656  25.761  23.818  1.00  0.00     0.060 A 
ATOM     14  C   UNL A   1      28.419  25.951  24.629  1.00  0.00     0.069 C 
BRANCH  12  15
ATOM     15  N   UNL A   1      30.683  23.470  24.257  1.00  0.00    -0.315 N 
ATOM     16  C   UNL A   1      31.362  22.947  25.329  1.00  0.00     0.314 C 
ATOM     17  H   UNL A   1      30.148  22.794  23.784  1.00  0.00     0.170 HD
ATOM     18  O   UNL A   1      31.307  21.738  25.543  1.00  0.00    -0.263 OA
BRANCH  16  19
ATOM     19  C   UNL A   1      32.066  23.858  26.315  1.00  0.00     0.314 C 
ATOM     20  O   UNL A   1      31.515  24.121  27.381  1.00  0.00    -0.263 OA
ATOM     21  N   UNL A   1      33.299  24.415  26.007  1.00  0.00    -0.318 N 
ATOM     22  H   UNL A   1      33.391  25.395  26.003  1.00  0.00     0.170 HD
BRANCH  21  23
ATOM     23  C   UNL A   1      34.423  23.625  25.702  1.00  0.00     0.041 A 
ATOM     24  C   UNL A   1      35.372  24.211  24.854  1.00  0.00     0.029 A 
ATOM     25  C   UNL A   1      34.657  22.365  26.248  1.00  0.00     0.029 A 
ATOM     26  C   UNL A   1      36.603  23.596  24.653  1.00  0.00     0.041 A 
ATOM     27  C   UNL A   1      35.887  21.739  26.029  1.00  0.00     0.041 A 
ATOM     28  C   UNL A   1      36.858  22.373  25.259  1.00  0.00     0.123 A 
ATOM     29  F   UNL A   1      38.060  21.803  25.107  1.00  0.00    -0.207 F 
ENDBRANCH  21  23
ENDBRANCH  16  19
ENDBRANCH  12  15
ENDBRANCH   7   8
ENDBRANCH   4   7
ENDBRANCH   2   3
ENDBRANCH   1   2
BRANCH   1  30
ATOM     30  C   UNL A   1      33.905  28.535  26.149  1.00  0.00     0.002 C 
BRANCH  30  31
ATOM     31  C   UNL A   1      34.462  29.408  27.288  1.00  0.00     0.002 C 
BRANCH  31  32
ATOM     32  C   UNL A   1      33.957  30.857  27.359  1.00  0.00     0.021 C 
BRANCH  32  33
ATOM     33  C   UNL A   1      35.025  31.859  27.762  1.00  0.00     0.116 C 
BRANCH  33  34
ATOM     34  N   UNL A   1      34.739  32.514  29.044  1.00  0.00    -0.352 N 
ATOM     35  C   UNL A   1      35.143  32.143  30.318  1.00  0.00     0.251 C 
ATOM     36  H   UNL A   1      34.184  33.325  28.992  1.00  0.00     0.163 HD
ATOM     37  O   UNL A   1      34.570  32.549  31.312  1.00  0.00    -0.269 OA
BRANCH  35  38
ATOM     38  C   UNL A   1      36.310  31.251  30.436  1.00  0.00     0.039 A 
ATOM     39  C   UNL A   1      36.209  29.858  30.424  1.00  0.00     0.014 A 
ATOM     40  C   UNL A   1      37.548  31.873  30.519  1.00  0.00     0.014 A 
ATOM     41  C   UNL A   1      37.385  29.107  30.432  1.00  0.00     0.010 A 
ATOM     42  C   UNL A   1      38.673  31.158  30.251  1.00  0.00     0.010 A 
ATOM     43  C   UNL A   1      38.614  29.777  30.339  1.00  0.00    -0.014 A 
BRANCH  43  44
ATOM     44  C   UNL A   1      39.891  29.086  30.289  1.00  0.00     0.031 A 
ATOM     45  C   UNL A   1      40.496  28.801  31.612  1.00  0.00     0.074 A 
ATOM     46  C   UNL A   1      40.336  28.510  29.149  1.00  0.00     0.049 A 
ATOM     47  N   UNL A   1      41.590  29.284  32.097  1.00  0.00    -0.248 NA
ATOM     48  C   UNL A   1      39.732  27.977  32.564  1.00  0.00     0.031 C 
ATOM     49  C   UNL A   1      39.664  28.409  27.842  1.00  0.00     0.029 A 
ATOM     50  N   UNL A   1      41.449  27.761  28.957  1.00  0.00    -0.354 N 
ATOM     51  C   UNL A   1      41.757  28.682  33.340  1.00  0.00     0.074 A 
ATOM     52  C   UNL A   1      40.507  28.036  33.648  1.00  0.00     0.031 C 
ATOM     53  C   UNL A   1      40.252  27.445  27.100  1.00  0.00     0.029 A 
ATOM     54  C   UNL A   1      41.446  27.002  27.792  1.00  0.00     0.049 A 
ATOM     55  H   UNL A   1      42.201  27.754  29.592  1.00  0.00     0.167 HD
ATOM     56  C   UNL A   1      42.991  28.557  33.904  1.00  0.00     0.031 A 
ATOM     57  C   UNL A   1      42.352  26.056  27.443  1.00  0.00     0.031 A 
ATOM     58  C   UNL A   1      43.968  29.372  33.226  1.00  0.00     0.049 A 
ATOM     59  C   UNL A   1      43.561  26.291  28.269  1.00  0.00     0.074 A 
ATOM     60  C   UNL A   1      44.116  30.726  33.001  1.00  0.00     0.029 A 
ATOM     61  N   UNL A   1      44.761  28.744  32.292  1.00  0.00    -0.354 N 
ATOM     62  N   UNL A   1      44.303  27.357  28.160  1.00  0.00    -0.248 NA
ATOM     63  C   UNL A   1      43.662  25.586  29.536  1.00  0.00     0.031 C 
ATOM     64  C   UNL A   1      44.580  30.821  31.656  1.00  0.00     0.029 A 
ATOM     65  C   UNL A   1      44.767  29.526  31.166  1.00  0.00     0.049 A 
ATOM     66  H   UNL A   1      45.235  27.890  32.412  1.00  0.00     0.167 HD
ATOM     67  C   UNL A   1      44.616  27.705  29.466  1.00  0.00     0.074 A 
ATOM     68  C   UNL A   1      44.275  26.526  30.264  1.00  0.00     0.031 C 
ATOM     69  C   UNL A   1      44.842  29.006  29.817  1.00  0.00     0.031 A 
BRANCH  56  70
ATOM     70  C   UNL A   1      43.400  27.407  34.788  1.00  0.00    -0.014 A 
ATOM     71  C   UNL A   1      43.525  26.129  34.214  1.00  0.00     0.009 A 
ATOM     72  C   UNL A   1      43.397  27.470  36.194  1.00  0.00     0.009 A 
ATOM     73  C   UNL A   1      43.564  24.975  35.005  1.00  0.00     0.001 A 
ATOM     74  C   UNL A   1      43.478  26.323  36.989  1.00  0.00     0.001 A 
ATOM     75  C   UNL A   1      43.531  25.073  36.392  1.00  0.00     0.000 A 
ENDBRANCH  56  70
BRANCH  57  76
ATOM     76  C   UNL A   1      42.143  24.807  26.681  1.00  0.00    -0.014 A 
ATOM     77  C   UNL A   1      43.097  24.359  25.753  1.00  0.00     0.009 A 
ATOM     78  C   UNL A   1      41.134  23.903  27.069  1.00  0.00     0.009 A 
ATOM     79  C   UNL A   1      43.067  23.044  25.266  1.00  0.00     0.001 A 
ATOM     80  C   UNL A   1      41.104  22.592  26.582  1.00  0.00     0.001 A 
ATOM     81  C   UNL A   1      42.081  22.158  25.692  1.00  0.00     0.000 A 
ENDBRANCH  57  76
BRANCH  69  82
ATOM     82  C   UNL A   1      44.931  30.033  28.712  1.00  0.00    -0.014 A 
ATOM     83  C   UNL A   1      46.145  30.425  28.118  1.00  0.00     0.009 A 
ATOM     84  C   UNL A   1      43.736  30.489  28.136  1.00  0.00     0.009 A 
ATOM     85  C   UNL A   1      46.160  31.263  26.996  1.00  0.00     0.001 A 
ATOM     86  C   UNL A   1      43.750  31.309  27.006  1.00  0.00     0.001 A 
ATOM     87  C   UNL A   1      44.960  31.699  26.437  1.00  0.00     0.000 A 
ENDBRANCH  69  82
ENDBRANCH  43  44
ENDBRANCH  35  38
ENDBRANCH  33  34
ENDBRANCH  32  33
ENDBRANCH  31  32
ENDBRANCH  30  31
ENDBRANCH   1  30
TORSDOF 17
ENDMDL
MODEL 2
REMARK VINA RESULT:     -11.2      3.004      8.297
REMARK SMILES Cc1nn(CC(=O)NCCCCCCNC(=O)c2ccc(-c3c4nc(c(-c5ccccc5)c5ccc([nH]5)c(-c5ccccc5)c5nc(c(-c6ccccc6)c6ccc3[nH]6)C=C5)C=C4)cc2)c(C)c1NC(=O)C(=O)Nc1ccc(F)cc1
REMARK SMILES IDX 10 1 9 2 8 3 6 4 7 5 5 7 4 8 1 9 2 10 3 11 68 12 66 13 67 14
REMARK SMILES IDX 69 15 70 16 71 18 72 19 73 20 74 21 75 23 76 24 81 25 77 26
REMARK SMILES IDX 80 27 78 28 79 29 11 30 12 31 13 32 14 33 15 34 16 35 17 37
REMARK SMILES IDX 18 38 19 39 65 40 20 41 64 42 21 43 22 44 23 45 58 46 24 47
REMARK SMILES IDX 63 48 57 49 59 50 25 51 62 52 56 53 55 54 26 56 48 57 33 58
REMARK SMILES IDX 47 59 34 60 37 61 46 62 60 63 35 64 36 65 45 67 61 68 38 69
REMARK SMILES IDX 27 70 28 71 32 72 29 73 31 74 30 75 49 76 50 77 54 78 51 79
REMARK SMILES IDX 53 80 52 81 39 82 40 83 44 84 41 85 43 86 42 87
REMARK H PARENT 8 6 69 17 74 22 15 36 59 55 37 66
REMARK Flexibility Score: inf
ROOT
ATOM      1  C   UNL A   1      39.674  21.109  26.404  1.00  0.00     0.021 C 
ENDROOT
BRANCH   1   2
ATOM      2  C   UNL A   1      38.884  22.395  26.197  1.00  0.00     0.116 C 
BRANCH   2   3
ATOM      3  N   UNL A   1      38.108  22.372  24.976  1.00  0.00    -0.354 N 
ATOM      4  C   UNL A   1      37.021  23.086  24.572  1.00  0.00     0.241 C 
ATOM      5  O   UNL A   1      36.569  22.787  23.458  1.00  0.00    -0.273 OA
ATOM      6  H   UNL A   1      38.426  21.717  24.313  1.00  0.00     0.163 HD
BRANCH   4   7
ATOM      7  C   UNL A   1      36.471  24.293  25.301  1.00  0.00     0.244 C 
BRANCH   7   8
ATOM      8  N   UNL A   1      35.163  24.137  25.917  1.00  0.00    -0.258 N 
ATOM      9  C   UNL A   1      33.142  22.121  27.986  1.00  0.00     0.071 C 
ATOM     10  C   UNL A   1      33.694  23.175  27.094  1.00  0.00     0.083 A 
ATOM     11  N   UNL A   1      34.978  23.103  26.748  1.00  0.00    -0.175 NA
ATOM     12  C   UNL A   1      33.036  24.296  26.491  1.00  0.00     0.086 A 
ATOM     13  C   UNL A   1      34.015  24.884  25.701  1.00  0.00     0.060 A 
ATOM     14  C   UNL A   1      34.057  26.094  24.830  1.00  0.00     0.069 C 
BRANCH  12  15
ATOM     15  N   UNL A   1      31.715  24.615  26.766  1.00  0.00    -0.315 N 
ATOM     16  C   UNL A   1      30.651  25.069  26.026  1.00  0.00     0.314 C 
ATOM     17  H   UNL A   1      31.486  24.487  27.714  1.00  0.00     0.170 HD
ATOM     18  O   UNL A   1      29.594  25.334  26.594  1.00  0.00    -0.263 OA
BRANCH  16  19
ATOM     19  C   UNL A   1      30.732  25.123  24.514  1.00  0.00     0.314 C 
ATOM     20  O   UNL A   1      30.930  26.204  23.965  1.00  0.00    -0.263 OA
ATOM     21  N   UNL A   1      30.551  23.975  23.754  1.00  0.00    -0.318 N 
ATOM     22  H   UNL A   1      29.830  23.956  23.085  1.00  0.00     0.170 HD
BRANCH  21  23
ATOM     23  C   UNL A   1      31.367  22.839  23.909  1.00  0.00     0.041 A 
ATOM     24  C   UNL A   1      32.556  22.833  23.168  1.00  0.00     0.029 A 
ATOM     25  C   UNL A   1      31.087  21.797  24.791  1.00  0.00     0.029 A 
ATOM     26  C   UNL A   1      33.518  21.855  23.400  1.00  0.00     0.041 A 
ATOM     27  C   UNL A   1      32.047  20.805  25.008  1.00  0.00     0.041 A 
ATOM     28  C   UNL A   1      33.263  20.860  24.333  1.00  0.00     0.123 A 
ATOM     29  F   UNL A   1      34.208  19.948  24.595  1.00  0.00    -0.207 F 
ENDBRANCH  21  23
ENDBRANCH  16  19
ENDBRANCH  12  15
ENDBRANCH   7   8
ENDBRANCH   4   7
ENDBRANCH   2   3
ENDBRANCH   1   2
BRANCH   1  30
ATOM     30  C   UNL A   1      41.180  21.337  26.563  1.00  0.00     0.002 C 
BRANCH  30  31
ATOM     31  C   UNL A   1      41.909  20.362  27.504  1.00  0.00     0.002 C 
BRANCH  31  32
ATOM     32  C   UNL A   1      42.767  19.273  26.843  1.00  0.00     0.021 C 
BRANCH  32  33
ATOM     33  C   UNL A   1      42.673  19.253  25.328  1.00  0.00     0.116 C 
BRANCH  33  34
ATOM     34  N   UNL A   1      43.979  19.099  24.676  1.00  0.00    -0.352 N 
ATOM     35  C   UNL A   1      44.851  20.083  24.238  1.00  0.00     0.251 C 
ATOM     36  H   UNL A   1      44.274  18.172  24.530  1.00  0.00     0.163 HD
ATOM     37  O   UNL A   1      45.719  19.848  23.417  1.00  0.00    -0.269 OA
BRANCH  35  38
ATOM     38  C   UNL A   1      44.711  21.433  24.812  1.00  0.00     0.039 A 
ATOM     39  C   UNL A   1      43.847  22.398  24.289  1.00  0.00     0.014 A 
ATOM     40  C   UNL A   1      45.459  21.693  25.951  1.00  0.00     0.014 A 
ATOM     41  C   UNL A   1      43.708  23.606  24.973  1.00  0.00     0.010 A 
ATOM     42  C   UNL A   1      45.118  22.739  26.750  1.00  0.00     0.010 A 
ATOM     43  C   UNL A   1      44.349  23.757  26.211  1.00  0.00    -0.014 A 
BRANCH  43  44
ATOM     44  C   UNL A   1      44.228  24.954  27.025  1.00  0.00     0.031 A 
ATOM     45  C   UNL A   1      45.263  25.986  26.774  1.00  0.00     0.074 A 
ATOM     46  C   UNL A   1      43.106  25.211  27.737  1.00  0.00     0.049 A 
ATOM     47  N   UNL A   1      46.178  26.394  27.587  1.00  0.00    -0.248 NA
ATOM     48  C   UNL A   1      45.377  26.542  25.416  1.00  0.00     0.031 C 
ATOM     49  C   UNL A   1      41.852  24.441  27.792  1.00  0.00     0.029 A 
ATOM     50  N   UNL A   1      42.800  26.311  28.467  1.00  0.00    -0.354 N 
ATOM     51  C   UNL A   1      46.869  27.396  26.914  1.00  0.00     0.074 A 
ATOM     52  C   UNL A   1      46.455  27.318  25.536  1.00  0.00     0.031 C 
ATOM     53  C   UNL A   1      40.863  25.215  28.293  1.00  0.00     0.029 A 
ATOM     54  C   UNL A   1      41.450  26.453  28.767  1.00  0.00     0.049 A 
ATOM     55  H   UNL A   1      43.480  26.959  28.763  1.00  0.00     0.167 HD
ATOM     56  C   UNL A   1      47.541  28.369  27.590  1.00  0.00     0.031 A 
ATOM     57  C   UNL A   1      40.859  27.530  29.339  1.00  0.00     0.031 A 
ATOM     58  C   UNL A   1      47.691  28.036  28.985  1.00  0.00     0.049 A 
ATOM     59  C   UNL A   1      41.934  28.314  29.994  1.00  0.00     0.074 A 
ATOM     60  C   UNL A   1      48.304  27.013  29.679  1.00  0.00     0.029 A 
ATOM     61  N   UNL A   1      46.787  28.597  29.859  1.00  0.00    -0.354 N 
ATOM     62  N   UNL A   1      42.620  27.873  31.011  1.00  0.00    -0.248 NA
ATOM     63  C   UNL A   1      42.570  29.368  29.220  1.00  0.00     0.031 C 
ATOM     64  C   UNL A   1      47.400  26.698  30.736  1.00  0.00     0.029 A 
ATOM     65  C   UNL A   1      46.331  27.596  30.677  1.00  0.00     0.049 A 
ATOM     66  H   UNL A   1      46.517  29.543  29.889  1.00  0.00     0.167 HD
ATOM     67  C   UNL A   1      43.927  28.262  30.751  1.00  0.00     0.074 A 
ATOM     68  C   UNL A   1      43.819  29.260  29.685  1.00  0.00     0.031 C 
ATOM     69  C   UNL A   1      44.987  27.533  31.211  1.00  0.00     0.031 A 
BRANCH  56  70
ATOM     70  C   UNL A   1      47.697  29.785  27.097  1.00  0.00    -0.014 A 
ATOM     71  C   UNL A   1      48.941  30.420  27.258  1.00  0.00     0.009 A 
ATOM     72  C   UNL A   1      46.612  30.605  26.738  1.00  0.00     0.009 A 
ATOM     73  C   UNL A   1      49.071  31.809  27.145  1.00  0.00     0.001 A 
ATOM     74  C   UNL A   1      46.746  31.988  26.582  1.00  0.00     0.001 A 
ATOM     75  C   UNL A   1      47.971  32.592  26.815  1.00  0.00     0.000 A 
ENDBRANCH  56  70
BRANCH  57  76
ATOM     76  C   UNL A   1      39.506  28.078  29.110  1.00  0.00    -0.014 A 
ATOM     77  C   UNL A   1      38.596  28.222  30.169  1.00  0.00     0.009 A 
ATOM     78  C   UNL A   1      39.202  28.726  27.896  1.00  0.00     0.009 A 
ATOM     79  C   UNL A   1      37.448  29.017  30.031  1.00  0.00     0.001 A 
ATOM     80  C   UNL A   1      38.057  29.517  27.759  1.00  0.00     0.001 A 
ATOM     81  C   UNL A   1      37.188  29.676  28.832  1.00  0.00     0.000 A 
ENDBRANCH  57  76
BRANCH  69  82
ATOM     82  C   UNL A   1      44.704  26.400  32.170  1.00  0.00    -0.014 A 
ATOM     83  C   UNL A   1      44.423  25.086  31.752  1.00  0.00     0.009 A 
ATOM     84  C   UNL A   1      44.900  26.629  33.540  1.00  0.00     0.009 A 
ATOM     85  C   UNL A   1      44.321  24.042  32.680  1.00  0.00     0.001 A 
ATOM     86  C   UNL A   1      44.816  25.585  34.463  1.00  0.00     0.001 A 
ATOM     87  C   UNL A   1      44.524  24.293  34.035  1.00  0.00     0.000 A 
ENDBRANCH  69  82
ENDBRANCH  43  44
ENDBRANCH  35  38
ENDBRANCH  33  34
ENDBRANCH  32  33
ENDBRANCH  31  32
ENDBRANCH  30  31
ENDBRANCH   1  30
TORSDOF 17
ENDMDL
MODEL 3
REMARK VINA RESULT:     -11.0      3.079      8.382
REMARK SMILES Cc1nn(CC(=O)NCCCCCCNC(=O)c2ccc(-c3c4nc(c(-c5ccccc5)c5ccc([nH]5)c(-c5ccccc5)c5nc(c(-c6ccccc6)c6ccc3[nH]6)C=C5)C=C4)cc2)c(C)c1NC(=O)C(=O)Nc1ccc(F)cc1
REMARK SMILES IDX 10 1 9 2 8 3 6 4 7 5 5 7 4 8 1 9 2 10 3 11 68 12 66 13 67 14
REMARK SMILES IDX 69 15 70 16 71 18 72 19 73 20 74 21 75 23 76 24 81 25 77 26
REMARK SMILES IDX 80 27 78 28 79 29 11 30 12 31 13 32 14 33 15 34 16 35 17 37
REMARK SMILES IDX 18 38 19 39 65 40 20 41 64 42 21 43 22 44 23 45 58 46 24 47
REMARK SMILES IDX 63 48 57 49 59 50 25 51 62 52 56 53 55 54 26 56 48 57 33 58
REMARK SMILES IDX 47 59 34 60 37 61 46 62 60 63 35 64 36 65 45 67 61 68 38 69
REMARK SMILES IDX 27 70 28 71 32 72 29 73 31 74 30 75 49 76 50 77 54 78 51 79
REMARK SMILES IDX 53 80 52 81 39 82 40 83 44 84 41 85 43 86 42 87
REMARK H PARENT 8 6 69 17 74 22 15 36 59 55 37 66
REMARK Flexibility Score: inf
ROOT
ATOM      1  C   UNL A   1      40.047  21.247  26.446  1.00  0.00     0.021 C 
ENDROOT
BRANCH   1   2
ATOM      2  C   UNL A   1      39.256  22.549  26.480  1.00  0.00     0.116 C 
BRANCH   2   3
ATOM      3  N   UNL A   1      38.449  22.732  25.294  1.00  0.00    -0.354 N 
ATOM      4  C   UNL A   1      37.424  22.005  24.766  1.00  0.00     0.241 C 
ATOM      5  O   UNL A   1      36.966  22.426  23.695  1.00  0.00    -0.273 OA
ATOM      6  H   UNL A   1      38.684  23.530  24.768  1.00  0.00     0.163 HD
BRANCH   4   7
ATOM      7  C   UNL A   1      36.728  20.865  25.478  1.00  0.00     0.244 C 
BRANCH   7   8
ATOM      8  N   UNL A   1      35.275  20.902  25.494  1.00  0.00    -0.258 N 
ATOM      9  C   UNL A   1      32.316  19.626  24.064  1.00  0.00     0.071 C 
ATOM     10  C   UNL A   1      33.331  20.361  24.865  1.00  0.00     0.083 A 
ATOM     11  N   UNL A   1      34.616  20.055  24.692  1.00  0.00    -0.175 NA
ATOM     12  C   UNL A   1      33.152  21.415  25.818  1.00  0.00     0.086 A 
ATOM     13  C   UNL A   1      34.443  21.769  26.185  1.00  0.00     0.060 A 
ATOM     14  C   UNL A   1      35.014  22.752  27.150  1.00  0.00     0.069 C 
BRANCH  12  15
ATOM     15  N   UNL A   1      31.896  21.851  26.214  1.00  0.00    -0.315 N 
ATOM     16  C   UNL A   1      31.047  22.855  25.820  1.00  0.00     0.314 C 
ATOM     17  H   UNL A   1      31.526  21.314  26.951  1.00  0.00     0.170 HD
ATOM     18  O   UNL A   1      29.999  23.033  26.437  1.00  0.00    -0.263 OA
BRANCH  16  19
ATOM     19  C   UNL A   1      31.329  23.653  24.563  1.00  0.00     0.314 C 
ATOM     20  O   UNL A   1      30.636  23.462  23.567  1.00  0.00    -0.263 OA
ATOM     21  N   UNL A   1      32.376  24.564  24.523  1.00  0.00    -0.318 N 
ATOM     22  H   UNL A   1      33.084  24.446  23.849  1.00  0.00     0.170 HD
BRANCH  21  23
ATOM     23  C   UNL A   1      32.458  25.650  25.414  1.00  0.00     0.041 A 
ATOM     24  C   UNL A   1      33.748  26.127  25.681  1.00  0.00     0.029 A 
ATOM     25  C   UNL A   1      31.348  26.292  25.959  1.00  0.00     0.029 A 
ATOM     26  C   UNL A   1      33.922  27.314  26.386  1.00  0.00     0.041 A 
ATOM     27  C   UNL A   1      31.526  27.474  26.683  1.00  0.00     0.041 A 
ATOM     28  C   UNL A   1      32.807  27.988  26.865  1.00  0.00     0.123 A 
ATOM     29  F   UNL A   1      32.969  29.156  27.500  1.00  0.00    -0.207 F 
ENDBRANCH  21  23
ENDBRANCH  16  19
ENDBRANCH  12  15
ENDBRANCH   7   8
ENDBRANCH   4   7
ENDBRANCH   2   3
ENDBRANCH   1   2
BRANCH   1  30
ATOM     30  C   UNL A   1      41.146  21.173  27.509  1.00  0.00     0.002 C 
BRANCH  30  31
ATOM     31  C   UNL A   1      41.780  19.787  27.721  1.00  0.00     0.002 C 
BRANCH  31  32
ATOM     32  C   UNL A   1      42.474  19.150  26.508  1.00  0.00     0.021 C 
BRANCH  32  33
ATOM     33  C   UNL A   1      43.032  20.160  25.520  1.00  0.00     0.116 C 
BRANCH  33  34
ATOM     34  N   UNL A   1      44.471  19.994  25.285  1.00  0.00    -0.352 N 
ATOM     35  C   UNL A   1      45.435  20.969  25.075  1.00  0.00     0.251 C 
ATOM     36  H   UNL A   1      44.796  19.065  25.275  1.00  0.00     0.163 HD
ATOM     37  O   UNL A   1      46.504  20.707  24.555  1.00  0.00    -0.269 OA
BRANCH  35  38
ATOM     38  C   UNL A   1      45.133  22.341  25.521  1.00  0.00     0.039 A 
ATOM     39  C   UNL A   1      44.273  23.195  24.828  1.00  0.00     0.014 A 
ATOM     40  C   UNL A   1      45.723  22.739  26.712  1.00  0.00     0.014 A 
ATOM     41  C   UNL A   1      43.971  24.435  25.393  1.00  0.00     0.010 A 
ATOM     42  C   UNL A   1      45.218  23.810  27.381  1.00  0.00     0.010 A 
ATOM     43  C   UNL A   1      44.449  24.723  26.680  1.00  0.00    -0.014 A 
BRANCH  43  44
ATOM     44  C   UNL A   1      44.149  25.962  27.376  1.00  0.00     0.031 A 
ATOM     45  C   UNL A   1      45.010  27.111  27.002  1.00  0.00     0.074 A 
ATOM     46  C   UNL A   1      43.008  26.113  28.086  1.00  0.00     0.049 A 
ATOM     47  N   UNL A   1      45.857  27.735  27.749  1.00  0.00    -0.248 NA
ATOM     48  C   UNL A   1      45.023  27.540  25.593  1.00  0.00     0.031 C 
ATOM     49  C   UNL A   1      41.889  25.168  28.246  1.00  0.00     0.029 A 
ATOM     50  N   UNL A   1      42.540  27.219  28.714  1.00  0.00    -0.354 N 
ATOM     51  C   UNL A   1      46.377  28.759  26.966  1.00  0.00     0.074 A 
ATOM     52  C   UNL A   1      45.969  28.481  25.612  1.00  0.00     0.031 C 
ATOM     53  C   UNL A   1      40.796  25.827  28.693  1.00  0.00     0.029 A 
ATOM     54  C   UNL A   1      41.187  27.181  29.031  1.00  0.00     0.049 A 
ATOM     55  H   UNL A   1      43.113  27.990  28.929  1.00  0.00     0.167 HD
ATOM     56  C   UNL A   1      46.895  29.886  27.528  1.00  0.00     0.031 A 
ATOM     57  C   UNL A   1      40.441  28.206  29.510  1.00  0.00     0.031 A 
ATOM     58  C   UNL A   1      47.107  29.721  28.945  1.00  0.00     0.049 A 
ATOM     59  C   UNL A   1      41.386  29.207  30.059  1.00  0.00     0.074 A 
ATOM     60  C   UNL A   1      47.878  28.878  29.720  1.00  0.00     0.029 A 
ATOM     61  N   UNL A   1      46.134  30.220  29.781  1.00  0.00    -0.354 N 
ATOM     62  N   UNL A   1      42.141  28.981  31.097  1.00  0.00    -0.248 NA
ATOM     63  C   UNL A   1      41.844  30.264  29.172  1.00  0.00     0.031 C 
ATOM     64  C   UNL A   1      47.043  28.535  30.824  1.00  0.00     0.029 A 
ATOM     65  C   UNL A   1      45.847  29.247  30.704  1.00  0.00     0.049 A 
ATOM     66  H   UNL A   1      45.720  31.111  29.726  1.00  0.00     0.167 HD
ATOM     67  C   UNL A   1      43.369  29.538  30.770  1.00  0.00     0.074 A 
ATOM     68  C   UNL A   1      43.098  30.396  29.615  1.00  0.00     0.031 C 
ATOM     69  C   UNL A   1      44.533  29.031  31.273  1.00  0.00     0.031 A 
BRANCH  56  70
ATOM     70  C   UNL A   1      46.825  31.253  26.896  1.00  0.00    -0.014 A 
ATOM     71  C   UNL A   1      47.984  32.048  26.883  1.00  0.00     0.009 A 
ATOM     72  C   UNL A   1      45.616  31.894  26.567  1.00  0.00     0.009 A 
ATOM     73  C   UNL A   1      47.922  33.424  26.632  1.00  0.00     0.001 A 
ATOM     74  C   UNL A   1      45.555  33.259  26.275  1.00  0.00     0.001 A 
ATOM     75  C   UNL A   1      46.706  34.030  26.337  1.00  0.00     0.000 A 
ENDBRANCH  56  70
BRANCH  57  76
ATOM     76  C   UNL A   1      39.016  28.513  29.260  1.00  0.00    -0.014 A 
ATOM     77  C   UNL A   1      38.111  28.652  30.324  1.00  0.00     0.009 A 
ATOM     78  C   UNL A   1      38.600  28.949  27.987  1.00  0.00     0.009 A 
ATOM     79  C   UNL A   1      36.854  29.244  30.128  1.00  0.00     0.001 A 
ATOM     80  C   UNL A   1      37.346  29.538  27.792  1.00  0.00     0.001 A 
ATOM     81  C   UNL A   1      36.479  29.701  28.867  1.00  0.00     0.000 A 
ENDBRANCH  57  76
BRANCH  69  82
ATOM     82  C   UNL A   1      44.439  27.969  32.344  1.00  0.00    -0.014 A 
ATOM     83  C   UNL A   1      44.235  28.261  33.706  1.00  0.00     0.009 A 
ATOM     84  C   UNL A   1      44.380  26.627  31.941  1.00  0.00     0.009 A 
ATOM     85  C   UNL A   1      44.000  27.239  34.634  1.00  0.00     0.001 A 
ATOM     86  C   UNL A   1      44.128  25.609  32.863  1.00  0.00     0.001 A 
ATOM     87  C   UNL A   1      43.941  25.914  34.209  1.00  0.00     0.000 A 
ENDBRANCH  69  82
ENDBRANCH  43  44
ENDBRANCH  35  38
ENDBRANCH  33  34
ENDBRANCH  32  33
ENDBRANCH  31  32
ENDBRANCH  30  31
ENDBRANCH   1  30
TORSDOF 17
ENDMDL
