MODEL 1
REMARK VINA RESULT:     -10.9      0.000      0.000
REMARK SMILES CC[C@H](C)[C@H](NS(=O)(=O)c1ccc(C)cc1)C(=O)NCCCCCCNC(=O)c1ccc(-c2c3nc(c(-c4ccccc4)c4ccc([nH]4)c(-c4ccccc4)c4nc(c(-c5ccccc5)c5ccc2[nH]5)C=C4)C=C3)cc1
REMARK SMILES IDX 22 1 21 2 20 3 19 4 17 5 18 6 5 8 3 9 4 10 2 11 1 12 6 13
REMARK SMILES IDX 7 15 8 16 9 17 10 18 11 19 16 20 12 21 15 22 13 23 14 24
REMARK SMILES IDX 23 25 24 26 25 27 26 28 27 29 28 31 29 32 30 33 76 34 31 35
REMARK SMILES IDX 75 36 32 37 33 38 34 39 69 40 35 41 74 42 68 43 70 44 36 45
REMARK SMILES IDX 73 46 67 47 66 48 37 50 59 51 44 52 58 53 45 54 48 55 57 56
REMARK SMILES IDX 71 57 46 58 47 59 56 61 72 62 49 63 38 64 39 65 43 66 40 67
REMARK SMILES IDX 42 68 41 69 60 70 61 71 65 72 62 73 64 74 63 75 50 76 51 77
REMARK SMILES IDX 55 78 52 79 54 80 53 81
REMARK H PARENT 19 7 6 14 26 30 70 49 48 60
REMARK Flexibility Score: inf
ROOT
ATOM      1  C   UNL A   1      37.937  21.194  25.225  1.00  0.00     0.002 C 
ENDROOT
BRANCH   1   2
ATOM      2  C   UNL A   1      36.459  21.399  24.896  1.00  0.00     0.021 C 
BRANCH   2   3
ATOM      3  C   UNL A   1      35.525  21.663  26.069  1.00  0.00     0.116 C 
BRANCH   3   4
ATOM      4  N   UNL A   1      34.368  20.806  26.164  1.00  0.00    -0.355 N 
ATOM      5  C   UNL A   1      33.172  20.892  25.499  1.00  0.00     0.238 C 
ATOM      6  O   UNL A   1      32.454  19.887  25.527  1.00  0.00    -0.273 OA
ATOM      7  H   UNL A   1      34.449  20.054  26.793  1.00  0.00     0.163 HD
BRANCH   5   8
ATOM      8  C   UNL A   1      32.697  22.171  24.771  1.00  0.00     0.161 C 
BRANCH   8   9
ATOM      9  C   UNL A   1      33.299  22.363  23.343  1.00  0.00     0.013 C 
ATOM     10  C   UNL A   1      32.246  22.032  22.278  1.00  0.00     0.010 C 
BRANCH   9  11
ATOM     11  C   UNL A   1      33.977  23.727  23.088  1.00  0.00     0.002 C 
ATOM     12  C   UNL A   1      33.192  24.747  22.274  1.00  0.00     0.004 C 
ENDBRANCH   9  11
ENDBRANCH   8   9
BRANCH   8  13
ATOM     13  N   UNL A   1      32.843  23.362  25.629  1.00  0.00    -0.198 NA
ATOM     14  H   UNL A   1      33.526  23.964  25.169  1.00  0.00     0.142 HD
BRANCH  13  15
ATOM     15  S   UNL A   1      31.543  24.339  26.014  1.00  0.00     0.241 S 
ATOM     16  O   UNL A   1      30.718  24.337  24.820  1.00  0.00    -0.207 OA
ATOM     17  O   UNL A   1      31.029  23.890  27.284  1.00  0.00    -0.207 OA
BRANCH  15  18
ATOM     18  C   UNL A   1      32.149  25.989  26.212  1.00  0.00     0.082 A 
ATOM     19  C   UNL A   1      33.464  26.345  25.920  1.00  0.00     0.022 A 
ATOM     20  C   UNL A   1      31.259  26.941  26.722  1.00  0.00     0.022 A 
ATOM     21  C   UNL A   1      33.904  27.646  26.192  1.00  0.00     0.005 A 
ATOM     22  C   UNL A   1      31.695  28.243  26.966  1.00  0.00     0.005 A 
ATOM     23  C   UNL A   1      33.027  28.599  26.726  1.00  0.00    -0.051 A 
ATOM     24  C   UNL A   1      33.489  29.994  27.031  1.00  0.00     0.044 C 
ENDBRANCH  15  18
ENDBRANCH  13  15
ENDBRANCH   8  13
ENDBRANCH   5   8
ENDBRANCH   3   4
ENDBRANCH   2   3
ENDBRANCH   1   2
BRANCH   1  25
ATOM     25  C   UNL A   1      38.631  22.270  26.074  1.00  0.00     0.002 C 
BRANCH  25  26
ATOM     26  C   UNL A   1      39.912  21.874  26.804  1.00  0.00     0.021 C 
BRANCH  26  27
ATOM     27  C   UNL A   1      41.199  22.371  26.174  1.00  0.00     0.116 C 
BRANCH  27  28
ATOM     28  N   UNL A   1      42.040  21.320  25.618  1.00  0.00    -0.352 N 
ATOM     29  C   UNL A   1      43.414  21.275  25.451  1.00  0.00     0.251 C 
ATOM     30  H   UNL A   1      41.558  20.518  25.314  1.00  0.00     0.163 HD
ATOM     31  O   UNL A   1      43.927  20.310  24.894  1.00  0.00    -0.269 OA
BRANCH  29  32
ATOM     32  C   UNL A   1      44.278  22.283  26.118  1.00  0.00     0.039 A 
ATOM     33  C   UNL A   1      44.312  22.232  27.519  1.00  0.00     0.014 A 
ATOM     34  C   UNL A   1      44.654  23.440  25.453  1.00  0.00     0.014 A 
ATOM     35  C   UNL A   1      44.339  23.419  28.229  1.00  0.00     0.010 A 
ATOM     36  C   UNL A   1      44.516  24.623  26.125  1.00  0.00     0.010 A 
ATOM     37  C   UNL A   1      44.277  24.597  27.499  1.00  0.00    -0.014 A 
BRANCH  37  38
ATOM     38  C   UNL A   1      44.056  25.900  28.074  1.00  0.00     0.031 A 
ATOM     39  C   UNL A   1      42.737  26.487  27.852  1.00  0.00     0.074 A 
ATOM     40  C   UNL A   1      44.993  26.404  28.904  1.00  0.00     0.049 A 
ATOM     41  N   UNL A   1      42.478  27.737  27.943  1.00  0.00    -0.248 NA
ATOM     42  C   UNL A   1      41.589  25.688  27.420  1.00  0.00     0.031 C 
ATOM     43  C   UNL A   1      44.894  27.514  29.842  1.00  0.00     0.029 A 
ATOM     44  N   UNL A   1      46.351  26.095  28.888  1.00  0.00    -0.354 N 
ATOM     45  C   UNL A   1      41.108  27.852  27.956  1.00  0.00     0.074 A 
ATOM     46  C   UNL A   1      40.612  26.594  27.463  1.00  0.00     0.031 C 
ATOM     47  C   UNL A   1      46.133  27.978  30.095  1.00  0.00     0.029 A 
ATOM     48  C   UNL A   1      47.043  27.278  29.201  1.00  0.00     0.049 A 
ATOM     49  H   UNL A   1      46.750  25.216  28.693  1.00  0.00     0.167 HD
ATOM     50  C   UNL A   1      40.567  28.933  28.577  1.00  0.00     0.031 A 
ATOM     51  C   UNL A   1      47.796  27.880  28.230  1.00  0.00     0.031 A 
ATOM     52  C   UNL A   1      41.627  29.864  28.979  1.00  0.00     0.049 A 
ATOM     53  C   UNL A   1      47.221  29.212  27.786  1.00  0.00     0.074 A 
ATOM     54  C   UNL A   1      42.262  30.104  30.187  1.00  0.00     0.029 A 
ATOM     55  N   UNL A   1      42.456  30.392  27.995  1.00  0.00    -0.354 N 
ATOM     56  N   UNL A   1      45.993  29.604  28.010  1.00  0.00    -0.248 NA
ATOM     57  C   UNL A   1      47.993  30.209  27.061  1.00  0.00     0.031 C 
ATOM     58  C   UNL A   1      43.514  30.730  29.907  1.00  0.00     0.029 A 
ATOM     59  C   UNL A   1      43.620  30.905  28.538  1.00  0.00     0.049 A 
ATOM     60  H   UNL A   1      42.240  30.399  27.034  1.00  0.00     0.167 HD
ATOM     61  C   UNL A   1      45.804  30.874  27.523  1.00  0.00     0.074 A 
ATOM     62  C   UNL A   1      47.092  31.198  26.927  1.00  0.00     0.031 C 
ATOM     63  C   UNL A   1      44.608  31.534  27.657  1.00  0.00     0.031 A 
BRANCH  50  64
ATOM     64  C   UNL A   1      39.142  29.008  29.071  1.00  0.00    -0.014 A 
ATOM     65  C   UNL A   1      38.129  29.380  28.170  1.00  0.00     0.009 A 
ATOM     66  C   UNL A   1      38.728  28.797  30.399  1.00  0.00     0.009 A 
ATOM     67  C   UNL A   1      36.802  29.574  28.578  1.00  0.00     0.001 A 
ATOM     68  C   UNL A   1      37.406  29.000  30.820  1.00  0.00     0.001 A 
ATOM     69  C   UNL A   1      36.441  29.395  29.907  1.00  0.00     0.000 A 
ENDBRANCH  50  64
BRANCH  51  70
ATOM     70  C   UNL A   1      48.475  26.870  27.351  1.00  0.00    -0.014 A 
ATOM     71  C   UNL A   1      47.803  26.514  26.157  1.00  0.00     0.009 A 
ATOM     72  C   UNL A   1      49.864  26.694  27.407  1.00  0.00     0.009 A 
ATOM     73  C   UNL A   1      48.521  26.226  24.992  1.00  0.00     0.001 A 
ATOM     74  C   UNL A   1      50.572  26.358  26.244  1.00  0.00     0.001 A 
ATOM     75  C   UNL A   1      49.910  26.196  25.027  1.00  0.00     0.000 A 
ENDBRANCH  51  70
BRANCH  63  76
ATOM     76  C   UNL A   1      44.196  32.847  27.000  1.00  0.00    -0.014 A 
ATOM     77  C   UNL A   1      44.102  33.079  25.626  1.00  0.00     0.009 A 
ATOM     78  C   UNL A   1      43.824  33.940  27.825  1.00  0.00     0.009 A 
ATOM     79  C   UNL A   1      43.637  34.301  25.110  1.00  0.00     0.001 A 
ATOM     80  C   UNL A   1      43.325  35.144  27.323  1.00  0.00     0.001 A 
ATOM     81  C   UNL A   1      43.230  35.324  25.956  1.00  0.00     0.000 A 
ENDBRANCH  63  76
ENDBRANCH  37  38
ENDBRANCH  29  32
ENDBRANCH  27  28
ENDBRANCH  26  27
ENDBRANCH  25  26
ENDBRANCH   1  25
TORSDOF 18
ENDMDL
MODEL 2
REMARK VINA RESULT:     -10.9      4.239      9.427
REMARK SMILES CC[C@H](C)[C@H](NS(=O)(=O)c1ccc(C)cc1)C(=O)NCCCCCCNC(=O)c1ccc(-c2c3nc(c(-c4ccccc4)c4ccc([nH]4)c(-c4ccccc4)c4nc(c(-c5ccccc5)c5ccc2[nH]5)C=C4)C=C3)cc1
REMARK SMILES IDX 22 1 21 2 20 3 19 4 17 5 18 6 5 8 3 9 4 10 2 11 1 12 6 13
REMARK SMILES IDX 7 15 8 16 9 17 10 18 11 19 16 20 12 21 15 22 13 23 14 24
REMARK SMILES IDX 23 25 24 26 25 27 26 28 27 29 28 31 29 32 30 33 76 34 31 35
REMARK SMILES IDX 75 36 32 37 33 38 34 39 69 40 35 41 74 42 68 43 70 44 36 45
REMARK SMILES IDX 73 46 67 47 66 48 37 50 59 51 44 52 58 53 45 54 48 55 57 56
REMARK SMILES IDX 71 57 46 58 47 59 56 61 72 62 49 63 38 64 39 65 43 66 40 67
REMARK SMILES IDX 42 68 41 69 60 70 61 71 65 72 62 73 64 74 63 75 50 76 51 77
REMARK SMILES IDX 55 78 52 79 54 80 53 81
REMARK H PARENT 19 7 6 14 26 30 70 49 48 60
REMARK Flexibility Score: inf
ROOT
ATOM      1  C   UNL A   1      32.963  29.208  26.853  1.00  0.00     0.002 C 
ENDROOT
BRANCH   1   2
ATOM      2  C   UNL A   1      32.527  29.948  25.589  1.00  0.00     0.021 C 
BRANCH   2   3
ATOM      3  C   UNL A   1      31.081  29.764  25.150  1.00  0.00     0.116 C 
BRANCH   3   4
ATOM      4  N   UNL A   1      30.827  29.886  23.735  1.00  0.00    -0.355 N 
ATOM      5  C   UNL A   1      30.532  28.907  22.822  1.00  0.00     0.238 C 
ATOM      6  O   UNL A   1      30.069  29.284  21.741  1.00  0.00    -0.273 OA
ATOM      7  H   UNL A   1      30.869  30.801  23.375  1.00  0.00     0.163 HD
BRANCH   5   8
ATOM      8  C   UNL A   1      30.782  27.403  23.082  1.00  0.00     0.161 C 
BRANCH   8   9
ATOM      9  C   UNL A   1      29.888  26.784  24.202  1.00  0.00     0.013 C 
ATOM     10  C   UNL A   1      28.414  26.821  23.783  1.00  0.00     0.010 C 
BRANCH   9  11
ATOM     11  C   UNL A   1      30.319  25.384  24.695  1.00  0.00     0.002 C 
ATOM     12  C   UNL A   1      30.878  25.292  26.109  1.00  0.00     0.004 C 
ENDBRANCH   9  11
ENDBRANCH   8   9
BRANCH   8  13
ATOM     13  N   UNL A   1      32.219  27.121  23.261  1.00  0.00    -0.198 NA
ATOM     14  H   UNL A   1      32.323  26.759  24.209  1.00  0.00     0.142 HD
BRANCH  13  15
ATOM     15  S   UNL A   1      33.043  26.066  22.262  1.00  0.00     0.241 S 
ATOM     16  O   UNL A   1      32.005  25.395  21.503  1.00  0.00    -0.207 OA
ATOM     17  O   UNL A   1      34.088  26.817  21.611  1.00  0.00    -0.207 OA
BRANCH  15  18
ATOM     18  C   UNL A   1      33.801  24.837  23.286  1.00  0.00     0.082 A 
ATOM     19  C   UNL A   1      33.889  23.498  22.911  1.00  0.00     0.022 A 
ATOM     20  C   UNL A   1      34.285  25.252  24.532  1.00  0.00     0.022 A 
ATOM     21  C   UNL A   1      34.413  22.562  23.810  1.00  0.00     0.005 A 
ATOM     22  C   UNL A   1      34.832  24.320  25.414  1.00  0.00     0.005 A 
ATOM     23  C   UNL A   1      34.877  22.964  25.070  1.00  0.00    -0.051 A 
ATOM     24  C   UNL A   1      35.433  21.969  26.046  1.00  0.00     0.044 C 
ENDBRANCH  15  18
ENDBRANCH  13  15
ENDBRANCH   8  13
ENDBRANCH   5   8
ENDBRANCH   3   4
ENDBRANCH   2   3
ENDBRANCH   1   2
BRANCH   1  25
ATOM     25  C   UNL A   1      34.464  28.944  27.040  1.00  0.00     0.002 C 
BRANCH  25  26
ATOM     26  C   UNL A   1      35.195  29.757  28.105  1.00  0.00     0.021 C 
BRANCH  26  27
ATOM     27  C   UNL A   1      35.547  31.178  27.708  1.00  0.00     0.116 C 
BRANCH  27  28
ATOM     28  N   UNL A   1      34.566  32.174  28.114  1.00  0.00    -0.352 N 
ATOM     29  C   UNL A   1      34.577  33.049  29.187  1.00  0.00     0.251 C 
ATOM     30  H   UNL A   1      33.771  32.235  27.536  1.00  0.00     0.163 HD
ATOM     31  O   UNL A   1      33.607  33.773  29.391  1.00  0.00    -0.269 OA
BRANCH  29  32
ATOM     32  C   UNL A   1      35.826  33.259  29.963  1.00  0.00     0.039 A 
ATOM     33  C   UNL A   1      36.897  33.829  29.260  1.00  0.00     0.014 A 
ATOM     34  C   UNL A   1      36.058  32.550  31.132  1.00  0.00     0.014 A 
ATOM     35  C   UNL A   1      38.178  33.366  29.505  1.00  0.00     0.010 A 
ATOM     36  C   UNL A   1      37.284  31.962  31.276  1.00  0.00     0.010 A 
ATOM     37  C   UNL A   1      38.313  32.318  30.405  1.00  0.00    -0.014 A 
BRANCH  37  38
ATOM     38  C   UNL A   1      39.524  31.563  30.598  1.00  0.00     0.031 A 
ATOM     39  C   UNL A   1      39.601  30.279  29.905  1.00  0.00     0.074 A 
ATOM     40  C   UNL A   1      40.552  32.150  31.245  1.00  0.00     0.049 A 
ATOM     41  N   UNL A   1      40.388  29.326  30.235  1.00  0.00    -0.248 NA
ATOM     42  C   UNL A   1      38.708  29.936  28.796  1.00  0.00     0.031 C 
ATOM     43  C   UNL A   1      41.953  31.755  31.304  1.00  0.00     0.029 A 
ATOM     44  N   UNL A   1      40.448  33.167  32.192  1.00  0.00    -0.354 N 
ATOM     45  C   UNL A   1      40.375  28.430  29.192  1.00  0.00     0.074 A 
ATOM     46  C   UNL A   1      39.208  28.760  28.416  1.00  0.00     0.031 C 
ATOM     47  C   UNL A   1      42.511  32.300  32.401  1.00  0.00     0.029 A 
ATOM     48  C   UNL A   1      41.439  32.927  33.160  1.00  0.00     0.049 A 
ATOM     49  H   UNL A   1      39.804  33.912  32.184  1.00  0.00     0.167 HD
ATOM     50  C   UNL A   1      41.473  27.651  29.010  1.00  0.00     0.031 A 
ATOM     51  C   UNL A   1      41.055  32.555  34.420  1.00  0.00     0.031 A 
ATOM     52  C   UNL A   1      42.413  27.840  30.121  1.00  0.00     0.049 A 
ATOM     53  C   UNL A   1      41.437  31.124  34.747  1.00  0.00     0.074 A 
ATOM     54  C   UNL A   1      43.572  28.587  30.258  1.00  0.00     0.029 A 
ATOM     55  N   UNL A   1      41.981  27.557  31.412  1.00  0.00    -0.354 N 
ATOM     56  N   UNL A   1      41.766  30.220  33.861  1.00  0.00    -0.248 NA
ATOM     57  C   UNL A   1      41.485  30.605  36.106  1.00  0.00     0.031 C 
ATOM     58  C   UNL A   1      43.794  28.798  31.651  1.00  0.00     0.029 A 
ATOM     59  C   UNL A   1      42.797  28.149  32.358  1.00  0.00     0.049 A 
ATOM     60  H   UNL A   1      41.194  27.004  31.624  1.00  0.00     0.167 HD
ATOM     61  C   UNL A   1      42.102  29.043  34.485  1.00  0.00     0.074 A 
ATOM     62  C   UNL A   1      41.894  29.342  35.895  1.00  0.00     0.031 C 
ATOM     63  C   UNL A   1      42.517  27.939  33.782  1.00  0.00     0.031 A 
BRANCH  50  64
ATOM     64  C   UNL A   1      41.823  26.958  27.715  1.00  0.00    -0.014 A 
ATOM     65  C   UNL A   1      42.396  27.711  26.675  1.00  0.00     0.009 A 
ATOM     66  C   UNL A   1      41.564  25.607  27.417  1.00  0.00     0.009 A 
ATOM     67  C   UNL A   1      42.650  27.164  25.409  1.00  0.00     0.001 A 
ATOM     68  C   UNL A   1      41.804  25.053  26.151  1.00  0.00     0.001 A 
ATOM     69  C   UNL A   1      42.343  25.836  25.143  1.00  0.00     0.000 A 
ENDBRANCH  50  64
BRANCH  51  70
ATOM     70  C   UNL A   1      39.799  33.257  34.846  1.00  0.00    -0.014 A 
ATOM     71  C   UNL A   1      38.590  32.534  34.711  1.00  0.00     0.009 A 
ATOM     72  C   UNL A   1      39.847  34.299  35.781  1.00  0.00     0.009 A 
ATOM     73  C   UNL A   1      37.557  32.688  35.641  1.00  0.00     0.001 A 
ATOM     74  C   UNL A   1      38.785  34.479  36.679  1.00  0.00     0.001 A 
ATOM     75  C   UNL A   1      37.678  33.630  36.656  1.00  0.00     0.000 A 
ENDBRANCH  51  70
BRANCH  63  76
ATOM     76  C   UNL A   1      42.726  26.526  34.315  1.00  0.00    -0.014 A 
ATOM     77  C   UNL A   1      41.846  25.827  35.143  1.00  0.00     0.009 A 
ATOM     78  C   UNL A   1      43.884  25.808  33.920  1.00  0.00     0.009 A 
ATOM     79  C   UNL A   1      42.084  24.495  35.523  1.00  0.00     0.001 A 
ATOM     80  C   UNL A   1      44.112  24.473  34.262  1.00  0.00     0.001 A 
ATOM     81  C   UNL A   1      43.204  23.813  35.067  1.00  0.00     0.000 A 
ENDBRANCH  63  76
ENDBRANCH  37  38
ENDBRANCH  29  32
ENDBRANCH  27  28
ENDBRANCH  26  27
ENDBRANCH  25  26
ENDBRANCH   1  25
TORSDOF 18
ENDMDL
MODEL 3
REMARK VINA RESULT:     -10.9      1.685      2.067
REMARK SMILES CC[C@H](C)[C@H](NS(=O)(=O)c1ccc(C)cc1)C(=O)NCCCCCCNC(=O)c1ccc(-c2c3nc(c(-c4ccccc4)c4ccc([nH]4)c(-c4ccccc4)c4nc(c(-c5ccccc5)c5ccc2[nH]5)C=C4)C=C3)cc1
REMARK SMILES IDX 22 1 21 2 20 3 19 4 17 5 18 6 5 8 3 9 4 10 2 11 1 12 6 13
REMARK SMILES IDX 7 15 8 16 9 17 10 18 11 19 16 20 12 21 15 22 13 23 14 24
REMARK SMILES IDX 23 25 24 26 25 27 26 28 27 29 28 31 29 32 30 33 76 34 31 35
REMARK SMILES IDX 75 36 32 37 33 38 34 39 69 40 35 41 74 42 68 43 70 44 36 45
REMARK SMILES IDX 73 46 67 47 66 48 37 50 59 51 44 52 58 53 45 54 48 55 57 56
REMARK SMILES IDX 71 57 46 58 47 59 56 61 72 62 49 63 38 64 39 65 43 66 40 67
REMARK SMILES IDX 42 68 41 69 60 70 61 71 65 72 62 73 64 74 63 75 50 76 51 77
REMARK SMILES IDX 55 78 52 79 54 80 53 81
REMARK H PARENT 19 7 6 14 26 30 70 49 48 60
REMARK Flexibility Score: inf
ROOT
ATOM      1  C   UNL A   1      36.496  22.712  25.118  1.00  0.00     0.002 C 
ENDROOT
BRANCH   1   2
ATOM      2  C   UNL A   1      35.661  21.636  24.424  1.00  0.00     0.021 C 
BRANCH   2   3
ATOM      3  C   UNL A   1      34.285  21.353  25.008  1.00  0.00     0.116 C 
BRANCH   3   4
ATOM      4  N   UNL A   1      33.252  21.008  24.062  1.00  0.00    -0.355 N 
ATOM      5  C   UNL A   1      32.428  21.833  23.342  1.00  0.00     0.238 C 
ATOM      6  O   UNL A   1      31.833  21.321  22.388  1.00  0.00    -0.273 OA
ATOM      7  H   UNL A   1      33.121  20.044  23.911  1.00  0.00     0.163 HD
BRANCH   5   8
ATOM      8  C   UNL A   1      32.204  23.323  23.693  1.00  0.00     0.161 C 
BRANCH   8   9
ATOM      9  C   UNL A   1      30.893  23.609  24.490  1.00  0.00     0.013 C 
ATOM     10  C   UNL A   1      31.149  23.473  25.995  1.00  0.00     0.010 C 
BRANCH   9  11
ATOM     11  C   UNL A   1      30.180  24.934  24.138  1.00  0.00     0.002 C 
ATOM     12  C   UNL A   1      29.892  25.890  25.288  1.00  0.00     0.004 C 
ENDBRANCH   9  11
ENDBRANCH   8   9
BRANCH   8  13
ATOM     13  N   UNL A   1      32.364  24.184  22.506  1.00  0.00    -0.198 NA
ATOM     14  H   UNL A   1      31.488  24.696  22.404  1.00  0.00     0.142 HD
BRANCH  13  15
ATOM     15  S   UNL A   1      33.585  25.319  22.397  1.00  0.00     0.241 S 
ATOM     16  O   UNL A   1      34.806  24.566  22.615  1.00  0.00    -0.207 OA
ATOM     17  O   UNL A   1      33.369  26.068  21.183  1.00  0.00    -0.207 OA
BRANCH  15  18
ATOM     18  C   UNL A   1      33.416  26.425  23.767  1.00  0.00     0.082 A 
ATOM     19  C   UNL A   1      33.885  26.117  25.043  1.00  0.00     0.022 A 
ATOM     20  C   UNL A   1      32.745  27.632  23.537  1.00  0.00     0.022 A 
ATOM     21  C   UNL A   1      33.632  26.994  26.103  1.00  0.00     0.005 A 
ATOM     22  C   UNL A   1      32.519  28.516  24.592  1.00  0.00     0.005 A 
ATOM     23  C   UNL A   1      32.939  28.193  25.888  1.00  0.00    -0.051 A 
ATOM     24  C   UNL A   1      32.653  29.139  27.018  1.00  0.00     0.044 C 
ENDBRANCH  15  18
ENDBRANCH  13  15
ENDBRANCH   8  13
ENDBRANCH   5   8
ENDBRANCH   3   4
ENDBRANCH   2   3
ENDBRANCH   1   2
BRANCH   1  25
ATOM     25  C   UNL A   1      37.551  22.247  26.133  1.00  0.00     0.002 C 
BRANCH  25  26
ATOM     26  C   UNL A   1      39.004  22.629  25.864  1.00  0.00     0.021 C 
BRANCH  26  27
ATOM     27  C   UNL A   1      40.022  22.016  26.806  1.00  0.00     0.116 C 
BRANCH  27  28
ATOM     28  N   UNL A   1      40.877  21.009  26.192  1.00  0.00    -0.352 N 
ATOM     29  C   UNL A   1      42.257  20.948  26.104  1.00  0.00     0.251 C 
ATOM     30  H   UNL A   1      40.400  20.255  25.775  1.00  0.00     0.163 HD
ATOM     31  O   UNL A   1      42.786  20.034  25.479  1.00  0.00    -0.269 OA
BRANCH  29  32
ATOM     32  C   UNL A   1      43.097  21.858  26.925  1.00  0.00     0.039 A 
ATOM     33  C   UNL A   1      42.830  21.864  28.302  1.00  0.00     0.014 A 
ATOM     34  C   UNL A   1      43.763  22.923  26.339  1.00  0.00     0.014 A 
ATOM     35  C   UNL A   1      42.875  23.066  28.985  1.00  0.00     0.010 A 
ATOM     36  C   UNL A   1      43.655  24.142  26.949  1.00  0.00     0.010 A 
ATOM     37  C   UNL A   1      43.134  24.209  28.241  1.00  0.00    -0.014 A 
BRANCH  37  38
ATOM     38  C   UNL A   1      42.984  25.553  28.738  1.00  0.00     0.031 A 
ATOM     39  C   UNL A   1      41.805  26.282  28.277  1.00  0.00     0.074 A 
ATOM     40  C   UNL A   1      43.823  25.980  29.704  1.00  0.00     0.049 A 
ATOM     41  N   UNL A   1      41.693  27.558  28.292  1.00  0.00    -0.248 NA
ATOM     42  C   UNL A   1      40.655  25.607  27.673  1.00  0.00     0.031 C 
ATOM     43  C   UNL A   1      43.708  27.135  30.584  1.00  0.00     0.029 A 
ATOM     44  N   UNL A   1      45.116  25.511  29.930  1.00  0.00    -0.354 N 
ATOM     45  C   UNL A   1      40.365  27.835  28.065  1.00  0.00     0.074 A 
ATOM     46  C   UNL A   1      39.806  26.623  27.525  1.00  0.00     0.031 C 
ATOM     47  C   UNL A   1      44.934  27.459  31.036  1.00  0.00     0.029 A 
ATOM     48  C   UNL A   1      45.887  26.617  30.330  1.00  0.00     0.049 A 
ATOM     49  H   UNL A   1      45.428  24.583  29.829  1.00  0.00     0.167 HD
ATOM     50  C   UNL A   1      39.867  28.999  28.557  1.00  0.00     0.031 A 
ATOM     51  C   UNL A   1      46.862  27.080  29.488  1.00  0.00     0.031 A 
ATOM     52  C   UNL A   1      40.952  29.815  29.114  1.00  0.00     0.049 A 
ATOM     53  C   UNL A   1      46.540  28.449  28.920  1.00  0.00     0.074 A 
ATOM     54  C   UNL A   1      41.399  30.032  30.407  1.00  0.00     0.029 A 
ATOM     55  N   UNL A   1      41.993  30.196  28.274  1.00  0.00    -0.354 N 
ATOM     56  N   UNL A   1      45.351  28.994  28.919  1.00  0.00    -0.248 NA
ATOM     57  C   UNL A   1      47.542  29.314  28.315  1.00  0.00     0.031 C 
ATOM     58  C   UNL A   1      42.748  30.492  30.331  1.00  0.00     0.029 A 
ATOM     59  C   UNL A   1      43.104  30.591  28.998  1.00  0.00     0.049 A 
ATOM     60  H   UNL A   1      41.945  30.185  27.291  1.00  0.00     0.167 HD
ATOM     61  C   UNL A   1      45.407  30.255  28.376  1.00  0.00     0.074 A 
ATOM     62  C   UNL A   1      46.808  30.396  28.003  1.00  0.00     0.031 C 
ATOM     63  C   UNL A   1      44.297  31.057  28.285  1.00  0.00     0.031 A 
BRANCH  50  64
ATOM     64  C   UNL A   1      38.400  29.265  28.796  1.00  0.00    -0.014 A 
ATOM     65  C   UNL A   1      37.599  29.678  27.716  1.00  0.00     0.009 A 
ATOM     66  C   UNL A   1      37.752  29.200  30.044  1.00  0.00     0.009 A 
ATOM     67  C   UNL A   1      36.256  30.045  27.881  1.00  0.00     0.001 A 
ATOM     68  C   UNL A   1      36.413  29.577  30.221  1.00  0.00     0.001 A 
ATOM     69  C   UNL A   1      35.665  30.006  29.136  1.00  0.00     0.000 A 
ENDBRANCH  50  64
BRANCH  51  70
ATOM     70  C   UNL A   1      47.547  25.958  28.764  1.00  0.00    -0.014 A 
ATOM     71  C   UNL A   1      47.256  25.819  27.387  1.00  0.00     0.009 A 
ATOM     72  C   UNL A   1      48.757  25.434  29.241  1.00  0.00     0.009 A 
ATOM     73  C   UNL A   1      48.238  25.393  26.487  1.00  0.00     0.001 A 
ATOM     74  C   UNL A   1      49.718  24.964  28.336  1.00  0.00     0.001 A 
ATOM     75  C   UNL A   1      49.488  25.012  26.961  1.00  0.00     0.000 A 
ENDBRANCH  51  70
BRANCH  63  76
ATOM     76  C   UNL A   1      44.169  32.379  27.535  1.00  0.00    -0.014 A 
ATOM     77  C   UNL A   1      44.323  32.556  26.159  1.00  0.00     0.009 A 
ATOM     78  C   UNL A   1      43.818  33.548  28.259  1.00  0.00     0.009 A 
ATOM     79  C   UNL A   1      44.109  33.800  25.541  1.00  0.00     0.001 A 
ATOM     80  C   UNL A   1      43.567  34.780  27.651  1.00  0.00     0.001 A 
ATOM     81  C   UNL A   1      43.712  34.905  26.283  1.00  0.00     0.000 A 
ENDBRANCH  63  76
ENDBRANCH  37  38
ENDBRANCH  29  32
ENDBRANCH  27  28
ENDBRANCH  26  27
ENDBRANCH  25  26
ENDBRANCH   1  25
TORSDOF 18
ENDMDL
