MODEL 1
REMARK VINA RESULT:     -10.3      0.000      0.000
REMARK SMILES CC(C)(C[NH2+]CCc1cccnc1)C(=O)NCCCCCCNC(=O)c1ccc(-c2c3nc(c(-c4ccccc4)c4ccc([nH]4)c(-c4ccccc4)c4nc(c(-c5ccccc5)c5ccc2[nH]5)C=C4)C=C3)cc1
REMARK SMILES IDX 18 1 17 2 16 3 14 4 15 5 2 7 1 8 3 9 4 10 5 11 6 14 7 15
REMARK SMILES IDX 8 16 9 17 13 18 10 19 12 20 11 21 19 22 20 23 21 24 22 25
REMARK SMILES IDX 23 26 24 27 25 29 26 30 27 31 73 32 28 33 72 34 29 35 30 36
REMARK SMILES IDX 31 37 66 38 32 39 71 40 65 41 67 42 33 43 70 44 64 45 63 46
REMARK SMILES IDX 34 48 56 49 41 50 55 51 42 52 45 53 54 54 68 55 43 56 44 57
REMARK SMILES IDX 53 59 69 60 46 61 35 62 36 63 40 64 37 65 39 66 38 67 57 68
REMARK SMILES IDX 58 69 62 70 59 71 61 72 60 73 47 74 48 75 52 76 49 77 51 78
REMARK SMILES IDX 50 79
REMARK H PARENT 16 6 5 12 5 13 23 28 67 47 45 58
REMARK Flexibility Score: inf
ROOT
ATOM      1  C   UNL A   1      31.742  28.243  27.213  1.00  0.00     0.021 C 
ENDROOT
BRANCH   1   2
ATOM      2  C   UNL A   1      31.513  27.133  26.189  1.00  0.00     0.116 C 
BRANCH   2   3
ATOM      3  N   UNL A   1      31.258  25.864  26.830  1.00  0.00    -0.355 N 
ATOM      4  C   UNL A   1      31.770  24.624  26.619  1.00  0.00     0.231 C 
ATOM      5  O   UNL A   1      31.266  23.711  27.283  1.00  0.00    -0.274 OA
ATOM      6  H   UNL A   1      30.591  25.906  27.553  1.00  0.00     0.163 HD
BRANCH   4   7
ATOM      7  C   UNL A   1      32.948  24.359  25.657  1.00  0.00     0.092 C 
ATOM      8  C   UNL A   1      33.916  25.570  25.740  1.00  0.00     0.027 C 
ATOM      9  C   UNL A   1      32.426  24.319  24.209  1.00  0.00     0.027 C 
BRANCH   7  10
ATOM     10  C   UNL A   1      33.754  23.074  25.991  1.00  0.00     0.276 C 
BRANCH  10  11
ATOM     11  N   UNL A   1      33.011  21.846  25.716  1.00  0.00    -0.345 N 
ATOM     12  H   UNL A   1      32.027  22.093  25.609  1.00  0.00     0.346 HD
ATOM     13  H   UNL A   1      33.198  21.225  26.503  1.00  0.00     0.346 HD
BRANCH  11  14
ATOM     14  C   UNL A   1      33.423  21.110  24.521  1.00  0.00     0.265 C 
BRANCH  14  15
ATOM     15  C   UNL A   1      32.517  19.979  23.994  1.00  0.00     0.098 C 
BRANCH  15  16
ATOM     16  C   UNL A   1      32.905  18.541  24.230  1.00  0.00    -0.024 A 
ATOM     17  C   UNL A   1      33.531  17.711  23.300  1.00  0.00     0.007 A 
ATOM     18  C   UNL A   1      32.628  17.979  25.478  1.00  0.00     0.114 A 
ATOM     19  C   UNL A   1      33.801  16.381  23.620  1.00  0.00     0.020 A 
ATOM     20  N   UNL A   1      32.894  16.700  25.825  1.00  0.00    -0.264 NA
ATOM     21  C   UNL A   1      33.468  15.927  24.883  1.00  0.00     0.111 A 
ENDBRANCH  15  16
ENDBRANCH  14  15
ENDBRANCH  11  14
ENDBRANCH  10  11
ENDBRANCH   7  10
ENDBRANCH   4   7
ENDBRANCH   2   3
ENDBRANCH   1   2
BRANCH   1  22
ATOM     22  C   UNL A   1      32.546  29.431  26.674  1.00  0.00     0.002 C 
BRANCH  22  23
ATOM     23  C   UNL A   1      31.726  30.472  25.904  1.00  0.00     0.002 C 
BRANCH  23  24
ATOM     24  C   UNL A   1      31.453  31.770  26.667  1.00  0.00     0.021 C 
BRANCH  24  25
ATOM     25  C   UNL A   1      32.681  32.376  27.335  1.00  0.00     0.116 C 
BRANCH  25  26
ATOM     26  N   UNL A   1      32.477  33.774  27.680  1.00  0.00    -0.352 N 
ATOM     27  C   UNL A   1      33.165  34.557  28.569  1.00  0.00     0.251 C 
ATOM     28  H   UNL A   1      31.738  34.222  27.206  1.00  0.00     0.163 HD
ATOM     29  O   UNL A   1      32.723  35.656  28.900  1.00  0.00    -0.269 OA
BRANCH  27  30
ATOM     30  C   UNL A   1      34.434  34.071  29.144  1.00  0.00     0.039 A 
ATOM     31  C   UNL A   1      34.406  33.366  30.350  1.00  0.00     0.014 A 
ATOM     32  C   UNL A   1      35.649  34.312  28.498  1.00  0.00     0.014 A 
ATOM     33  C   UNL A   1      35.592  32.854  30.878  1.00  0.00     0.010 A 
ATOM     34  C   UNL A   1      36.818  33.736  28.983  1.00  0.00     0.010 A 
ATOM     35  C   UNL A   1      36.803  33.006  30.182  1.00  0.00    -0.014 A 
BRANCH  35  36
ATOM     36  C   UNL A   1      38.062  32.407  30.691  1.00  0.00     0.031 A 
ATOM     37  C   UNL A   1      38.583  31.126  30.100  1.00  0.00     0.074 A 
ATOM     38  C   UNL A   1      38.704  32.986  31.723  1.00  0.00     0.049 A 
ATOM     39  N   UNL A   1      39.635  30.427  30.446  1.00  0.00    -0.248 NA
ATOM     40  C   UNL A   1      37.810  30.540  28.993  1.00  0.00     0.031 C 
ATOM     41  C   UNL A   1      38.282  34.210  32.407  1.00  0.00     0.029 A 
ATOM     42  N   UNL A   1      39.849  32.616  32.383  1.00  0.00    -0.354 N 
ATOM     43  C   UNL A   1      39.640  29.316  29.611  1.00  0.00     0.074 A 
ATOM     44  C   UNL A   1      38.460  29.406  28.780  1.00  0.00     0.031 C 
ATOM     45  C   UNL A   1      39.172  34.507  33.367  1.00  0.00     0.029 A 
ATOM     46  C   UNL A   1      40.200  33.472  33.399  1.00  0.00     0.049 A 
ATOM     47  H   UNL A   1      40.370  31.814  32.150  1.00  0.00     0.167 HD
ATOM     48  C   UNL A   1      40.556  28.322  29.528  1.00  0.00     0.031 A 
ATOM     49  C   UNL A   1      41.228  33.424  34.267  1.00  0.00     0.031 A 
ATOM     50  C   UNL A   1      41.731  28.235  30.353  1.00  0.00     0.049 A 
ATOM     51  C   UNL A   1      42.213  32.292  34.175  1.00  0.00     0.074 A 
ATOM     52  C   UNL A   1      42.746  27.294  30.311  1.00  0.00     0.029 A 
ATOM     53  N   UNL A   1      42.046  29.118  31.374  1.00  0.00    -0.354 N 
ATOM     54  N   UNL A   1      42.242  31.287  33.334  1.00  0.00    -0.248 NA
ATOM     55  C   UNL A   1      43.315  32.295  35.148  1.00  0.00     0.031 C 
ATOM     56  C   UNL A   1      43.642  27.573  31.348  1.00  0.00     0.029 A 
ATOM     57  C   UNL A   1      43.224  28.727  31.990  1.00  0.00     0.049 A 
ATOM     58  H   UNL A   1      41.512  29.907  31.624  1.00  0.00     0.167 HD
ATOM     59  C   UNL A   1      43.379  30.556  33.655  1.00  0.00     0.074 A 
ATOM     60  C   UNL A   1      44.021  31.244  34.756  1.00  0.00     0.031 C 
ATOM     61  C   UNL A   1      43.850  29.420  33.087  1.00  0.00     0.031 A 
BRANCH  48  62
ATOM     62  C   UNL A   1      40.312  27.237  28.514  1.00  0.00    -0.014 A 
ATOM     63  C   UNL A   1      39.544  26.102  28.828  1.00  0.00     0.009 A 
ATOM     64  C   UNL A   1      40.826  27.367  27.215  1.00  0.00     0.009 A 
ATOM     65  C   UNL A   1      39.332  25.105  27.874  1.00  0.00     0.001 A 
ATOM     66  C   UNL A   1      40.584  26.384  26.254  1.00  0.00     0.001 A 
ATOM     67  C   UNL A   1      39.847  25.249  26.587  1.00  0.00     0.000 A 
ENDBRANCH  48  62
BRANCH  49  68
ATOM     68  C   UNL A   1      41.386  34.487  35.295  1.00  0.00    -0.014 A 
ATOM     69  C   UNL A   1      40.782  34.355  36.556  1.00  0.00     0.009 A 
ATOM     70  C   UNL A   1      42.135  35.642  35.020  1.00  0.00     0.009 A 
ATOM     71  C   UNL A   1      40.898  35.373  37.506  1.00  0.00     0.001 A 
ATOM     72  C   UNL A   1      42.276  36.642  35.984  1.00  0.00     0.001 A 
ATOM     73  C   UNL A   1      41.650  36.513  37.222  1.00  0.00     0.000 A 
ENDBRANCH  49  68
BRANCH  61  74
ATOM     74  C   UNL A   1      45.142  28.867  33.621  1.00  0.00    -0.014 A 
ATOM     75  C   UNL A   1      46.385  29.335  33.168  1.00  0.00     0.009 A 
ATOM     76  C   UNL A   1      45.112  27.888  34.628  1.00  0.00     0.009 A 
ATOM     77  C   UNL A   1      47.569  28.810  33.686  1.00  0.00     0.001 A 
ATOM     78  C   UNL A   1      46.297  27.389  35.168  1.00  0.00     0.001 A 
ATOM     79  C   UNL A   1      47.525  27.842  34.690  1.00  0.00     0.000 A 
ENDBRANCH  61  74
ENDBRANCH  35  36
ENDBRANCH  27  30
ENDBRANCH  25  26
ENDBRANCH  24  25
ENDBRANCH  23  24
ENDBRANCH  22  23
ENDBRANCH   1  22
TORSDOF 18
ENDMDL
MODEL 2
REMARK VINA RESULT:     -10.2      2.943      7.185
REMARK SMILES CC(C)(C[NH2+]CCc1cccnc1)C(=O)NCCCCCCNC(=O)c1ccc(-c2c3nc(c(-c4ccccc4)c4ccc([nH]4)c(-c4ccccc4)c4nc(c(-c5ccccc5)c5ccc2[nH]5)C=C4)C=C3)cc1
REMARK SMILES IDX 18 1 17 2 16 3 14 4 15 5 2 7 1 8 3 9 4 10 5 11 6 14 7 15
REMARK SMILES IDX 8 16 9 17 13 18 10 19 12 20 11 21 19 22 20 23 21 24 22 25
REMARK SMILES IDX 23 26 24 27 25 29 26 30 27 31 73 32 28 33 72 34 29 35 30 36
REMARK SMILES IDX 31 37 66 38 32 39 71 40 65 41 67 42 33 43 70 44 64 45 63 46
REMARK SMILES IDX 34 48 56 49 41 50 55 51 42 52 45 53 54 54 68 55 43 56 44 57
REMARK SMILES IDX 53 59 69 60 46 61 35 62 36 63 40 64 37 65 39 66 38 67 57 68
REMARK SMILES IDX 58 69 62 70 59 71 61 72 60 73 47 74 48 75 52 76 49 77 51 78
REMARK SMILES IDX 50 79
REMARK H PARENT 16 6 5 12 5 13 23 28 67 47 45 58
REMARK Flexibility Score: inf
ROOT
ATOM      1  C   UNL A   1      31.006  27.007  24.979  1.00  0.00     0.021 C 
ENDROOT
BRANCH   1   2
ATOM      2  C   UNL A   1      30.939  25.905  23.923  1.00  0.00     0.116 C 
BRANCH   2   3
ATOM      3  N   UNL A   1      32.044  25.991  22.996  1.00  0.00    -0.355 N 
ATOM      4  C   UNL A   1      33.223  25.321  22.928  1.00  0.00     0.231 C 
ATOM      5  O   UNL A   1      34.011  25.701  22.054  1.00  0.00    -0.274 OA
ATOM      6  H   UNL A   1      31.919  26.658  22.283  1.00  0.00     0.163 HD
BRANCH   4   7
ATOM      7  C   UNL A   1      33.554  24.118  23.837  1.00  0.00     0.092 C 
ATOM      8  C   UNL A   1      33.988  24.669  25.222  1.00  0.00     0.027 C 
ATOM      9  C   UNL A   1      34.773  23.368  23.267  1.00  0.00     0.027 C 
BRANCH   7  10
ATOM     10  C   UNL A   1      32.360  23.149  24.055  1.00  0.00     0.276 C 
BRANCH  10  11
ATOM     11  N   UNL A   1      32.532  22.282  25.219  1.00  0.00    -0.345 N 
ATOM     12  H   UNL A   1      31.870  22.585  25.935  1.00  0.00     0.346 HD
ATOM     13  H   UNL A   1      33.509  22.375  25.494  1.00  0.00     0.346 HD
BRANCH  11  14
ATOM     14  C   UNL A   1      32.316  20.855  24.984  1.00  0.00     0.265 C 
BRANCH  14  15
ATOM     15  C   UNL A   1      33.432  20.034  24.307  1.00  0.00     0.098 C 
BRANCH  15  16
ATOM     16  C   UNL A   1      33.612  18.580  24.665  1.00  0.00    -0.024 A 
ATOM     17  C   UNL A   1      34.707  17.792  24.312  1.00  0.00     0.007 A 
ATOM     18  C   UNL A   1      32.615  17.958  25.418  1.00  0.00     0.114 A 
ATOM     19  C   UNL A   1      34.741  16.443  24.664  1.00  0.00     0.020 A 
ATOM     20  N   UNL A   1      32.626  16.658  25.791  1.00  0.00    -0.264 NA
ATOM     21  C   UNL A   1      33.687  15.928  25.398  1.00  0.00     0.111 A 
ENDBRANCH  15  16
ENDBRANCH  14  15
ENDBRANCH  11  14
ENDBRANCH  10  11
ENDBRANCH   7  10
ENDBRANCH   4   7
ENDBRANCH   2   3
ENDBRANCH   1   2
BRANCH   1  22
ATOM     22  C   UNL A   1      31.244  28.407  24.402  1.00  0.00     0.002 C 
BRANCH  22  23
ATOM     23  C   UNL A   1      32.332  29.222  25.109  1.00  0.00     0.002 C 
BRANCH  23  24
ATOM     24  C   UNL A   1      33.449  28.392  25.745  1.00  0.00     0.021 C 
BRANCH  24  25
ATOM     25  C   UNL A   1      33.595  28.582  27.250  1.00  0.00     0.116 C 
BRANCH  25  26
ATOM     26  N   UNL A   1      33.588  29.989  27.622  1.00  0.00    -0.352 N 
ATOM     27  C   UNL A   1      34.550  30.719  28.267  1.00  0.00     0.251 C 
ATOM     28  H   UNL A   1      32.775  30.487  27.373  1.00  0.00     0.163 HD
ATOM     29  O   UNL A   1      34.293  31.842  28.698  1.00  0.00    -0.269 OA
BRANCH  27  30
ATOM     30  C   UNL A   1      35.896  30.147  28.463  1.00  0.00     0.039 A 
ATOM     31  C   UNL A   1      36.807  30.181  27.405  1.00  0.00     0.014 A 
ATOM     32  C   UNL A   1      36.258  29.576  29.686  1.00  0.00     0.014 A 
ATOM     33  C   UNL A   1      38.102  29.692  27.593  1.00  0.00     0.010 A 
ATOM     34  C   UNL A   1      37.570  29.162  29.896  1.00  0.00     0.010 A 
ATOM     35  C   UNL A   1      38.503  29.210  28.850  1.00  0.00    -0.014 A 
BRANCH  35  36
ATOM     36  C   UNL A   1      39.895  28.754  29.089  1.00  0.00     0.031 A 
ATOM     37  C   UNL A   1      40.901  29.685  29.707  1.00  0.00     0.074 A 
ATOM     38  C   UNL A   1      40.268  27.521  28.695  1.00  0.00     0.049 A 
ATOM     39  N   UNL A   1      42.173  29.484  29.947  1.00  0.00    -0.248 NA
ATOM     40  C   UNL A   1      40.423  31.025  30.085  1.00  0.00     0.031 C 
ATOM     41  C   UNL A   1      39.397  26.536  28.050  1.00  0.00     0.029 A 
ATOM     42  N   UNL A   1      41.483  26.887  28.775  1.00  0.00    -0.354 N 
ATOM     43  C   UNL A   1      42.646  30.673  30.488  1.00  0.00     0.074 A 
ATOM     44  C   UNL A   1      41.542  31.606  30.491  1.00  0.00     0.031 C 
ATOM     45  C   UNL A   1      40.096  25.413  27.823  1.00  0.00     0.029 A 
ATOM     46  C   UNL A   1      41.474  25.613  28.261  1.00  0.00     0.049 A 
ATOM     47  H   UNL A   1      42.284  27.306  29.163  1.00  0.00     0.167 HD
ATOM     48  C   UNL A   1      43.885  30.956  30.959  1.00  0.00     0.031 A 
ATOM     49  C   UNL A   1      42.465  24.711  28.145  1.00  0.00     0.031 A 
ATOM     50  C   UNL A   1      44.982  30.026  30.957  1.00  0.00     0.049 A 
ATOM     51  C   UNL A   1      43.839  25.061  28.646  1.00  0.00     0.074 A 
ATOM     52  C   UNL A   1      46.261  30.201  31.459  1.00  0.00     0.029 A 
ATOM     53  N   UNL A   1      44.933  28.749  30.422  1.00  0.00    -0.354 N 
ATOM     54  N   UNL A   1      44.253  26.165  29.218  1.00  0.00    -0.248 NA
ATOM     55  C   UNL A   1      44.880  24.034  28.494  1.00  0.00     0.031 C 
ATOM     56  C   UNL A   1      47.003  29.051  31.170  1.00  0.00     0.029 A 
ATOM     57  C   UNL A   1      46.167  28.134  30.553  1.00  0.00     0.049 A 
ATOM     58  H   UNL A   1      44.138  28.338  30.010  1.00  0.00     0.167 HD
ATOM     59  C   UNL A   1      45.592  25.955  29.522  1.00  0.00     0.074 A 
ATOM     60  C   UNL A   1      45.914  24.611  29.086  1.00  0.00     0.031 C 
ATOM     61  C   UNL A   1      46.474  26.798  30.113  1.00  0.00     0.031 A 
BRANCH  48  62
ATOM     62  C   UNL A   1      44.119  32.339  31.504  1.00  0.00    -0.014 A 
ATOM     63  C   UNL A   1      43.897  32.638  32.859  1.00  0.00     0.009 A 
ATOM     64  C   UNL A   1      44.603  33.350  30.659  1.00  0.00     0.009 A 
ATOM     65  C   UNL A   1      44.117  33.928  33.345  1.00  0.00     0.001 A 
ATOM     66  C   UNL A   1      44.854  34.630  31.156  1.00  0.00     0.001 A 
ATOM     67  C   UNL A   1      44.600  34.921  32.494  1.00  0.00     0.000 A 
ENDBRANCH  48  62
BRANCH  49  68
ATOM     68  C   UNL A   1      42.196  23.381  27.536  1.00  0.00    -0.014 A 
ATOM     69  C   UNL A   1      41.586  22.363  28.286  1.00  0.00     0.009 A 
ATOM     70  C   UNL A   1      42.556  23.118  26.204  1.00  0.00     0.009 A 
ATOM     71  C   UNL A   1      41.372  21.102  27.724  1.00  0.00     0.001 A 
ATOM     72  C   UNL A   1      42.310  21.867  25.636  1.00  0.00     0.001 A 
ATOM     73  C   UNL A   1      41.728  20.856  26.398  1.00  0.00     0.000 A 
ENDBRANCH  49  68
BRANCH  61  74
ATOM     74  C   UNL A   1      47.865  26.279  30.356  1.00  0.00    -0.014 A 
ATOM     75  C   UNL A   1      48.246  25.755  31.600  1.00  0.00     0.009 A 
ATOM     76  C   UNL A   1      48.797  26.278  29.305  1.00  0.00     0.009 A 
ATOM     77  C   UNL A   1      49.542  25.274  31.797  1.00  0.00     0.001 A 
ATOM     78  C   UNL A   1      50.080  25.766  29.494  1.00  0.00     0.001 A 
ATOM     79  C   UNL A   1      50.455  25.274  30.743  1.00  0.00     0.000 A 
ENDBRANCH  61  74
ENDBRANCH  35  36
ENDBRANCH  27  30
ENDBRANCH  25  26
ENDBRANCH  24  25
ENDBRANCH  23  24
ENDBRANCH  22  23
ENDBRANCH   1  22
TORSDOF 18
ENDMDL
MODEL 3
REMARK VINA RESULT:     -10.2      2.780      7.697
REMARK SMILES CC(C)(C[NH2+]CCc1cccnc1)C(=O)NCCCCCCNC(=O)c1ccc(-c2c3nc(c(-c4ccccc4)c4ccc([nH]4)c(-c4ccccc4)c4nc(c(-c5ccccc5)c5ccc2[nH]5)C=C4)C=C3)cc1
REMARK SMILES IDX 18 1 17 2 16 3 14 4 15 5 2 7 1 8 3 9 4 10 5 11 6 14 7 15
REMARK SMILES IDX 8 16 9 17 13 18 10 19 12 20 11 21 19 22 20 23 21 24 22 25
REMARK SMILES IDX 23 26 24 27 25 29 26 30 27 31 73 32 28 33 72 34 29 35 30 36
REMARK SMILES IDX 31 37 66 38 32 39 71 40 65 41 67 42 33 43 70 44 64 45 63 46
REMARK SMILES IDX 34 48 56 49 41 50 55 51 42 52 45 53 54 54 68 55 43 56 44 57
REMARK SMILES IDX 53 59 69 60 46 61 35 62 36 63 40 64 37 65 39 66 38 67 57 68
REMARK SMILES IDX 58 69 62 70 59 71 61 72 60 73 47 74 48 75 52 76 49 77 51 78
REMARK SMILES IDX 50 79
REMARK H PARENT 16 6 5 12 5 13 23 28 67 47 45 58
REMARK Flexibility Score: inf
ROOT
ATOM      1  C   UNL A   1      33.749  26.330  25.474  1.00  0.00     0.021 C 
ENDROOT
BRANCH   1   2
ATOM      2  C   UNL A   1      34.039  27.696  24.855  1.00  0.00     0.116 C 
BRANCH   2   3
ATOM      3  N   UNL A   1      34.432  28.659  25.859  1.00  0.00    -0.355 N 
ATOM      4  C   UNL A   1      33.751  29.669  26.460  1.00  0.00     0.231 C 
ATOM      5  O   UNL A   1      34.411  30.387  27.221  1.00  0.00    -0.274 OA
ATOM      6  H   UNL A   1      35.364  28.566  26.162  1.00  0.00     0.163 HD
BRANCH   4   7
ATOM      7  C   UNL A   1      32.236  29.888  26.264  1.00  0.00     0.092 C 
ATOM      8  C   UNL A   1      31.865  31.259  26.891  1.00  0.00     0.027 C 
ATOM      9  C   UNL A   1      31.460  28.822  27.062  1.00  0.00     0.027 C 
BRANCH   7  10
ATOM     10  C   UNL A   1      31.791  29.900  24.777  1.00  0.00     0.276 C 
BRANCH  10  11
ATOM     11  N   UNL A   1      30.542  29.177  24.547  1.00  0.00    -0.345 N 
ATOM     12  H   UNL A   1      29.820  29.862  24.324  1.00  0.00     0.346 HD
ATOM     13  H   UNL A   1      30.363  28.651  25.403  1.00  0.00     0.346 HD
BRANCH  11  14
ATOM     14  C   UNL A   1      30.571  28.188  23.470  1.00  0.00     0.265 C 
BRANCH  14  15
ATOM     15  C   UNL A   1      29.635  26.966  23.555  1.00  0.00     0.098 C 
BRANCH  15  16
ATOM     16  C   UNL A   1      30.090  25.725  24.281  1.00  0.00    -0.024 A 
ATOM     17  C   UNL A   1      30.099  25.558  25.666  1.00  0.00     0.007 A 
ATOM     18  C   UNL A   1      30.537  24.642  23.522  1.00  0.00     0.114 A 
ATOM     19  C   UNL A   1      30.586  24.377  26.225  1.00  0.00     0.020 A 
ATOM     20  N   UNL A   1      30.998  23.478  24.033  1.00  0.00    -0.264 NA
ATOM     21  C   UNL A   1      31.019  23.376  25.375  1.00  0.00     0.111 A 
ENDBRANCH  15  16
ENDBRANCH  14  15
ENDBRANCH  11  14
ENDBRANCH  10  11
ENDBRANCH   7  10
ENDBRANCH   4   7
ENDBRANCH   2   3
ENDBRANCH   1   2
BRANCH   1  22
ATOM     22  C   UNL A   1      34.529  25.178  24.829  1.00  0.00     0.002 C 
BRANCH  22  23
ATOM     23  C   UNL A   1      34.545  23.876  25.637  1.00  0.00     0.002 C 
BRANCH  23  24
ATOM     24  C   UNL A   1      35.915  23.479  26.193  1.00  0.00     0.021 C 
BRANCH  24  25
ATOM     25  C   UNL A   1      37.060  23.617  25.197  1.00  0.00     0.116 C 
BRANCH  25  26
ATOM     26  N   UNL A   1      38.155  22.709  25.501  1.00  0.00    -0.352 N 
ATOM     27  C   UNL A   1      39.353  22.970  26.112  1.00  0.00     0.251 C 
ATOM     28  H   UNL A   1      38.015  21.773  25.228  1.00  0.00     0.163 HD
ATOM     29  O   UNL A   1      40.255  22.134  26.093  1.00  0.00    -0.269 OA
BRANCH  27  30
ATOM     30  C   UNL A   1      39.568  24.269  26.780  1.00  0.00     0.039 A 
ATOM     31  C   UNL A   1      39.083  24.452  28.077  1.00  0.00     0.014 A 
ATOM     32  C   UNL A   1      40.243  25.304  26.127  1.00  0.00     0.014 A 
ATOM     33  C   UNL A   1      39.326  25.656  28.740  1.00  0.00     0.010 A 
ATOM     34  C   UNL A   1      40.552  26.472  26.816  1.00  0.00     0.010 A 
ATOM     35  C   UNL A   1      40.091  26.663  28.127  1.00  0.00    -0.014 A 
BRANCH  35  36
ATOM     36  C   UNL A   1      40.421  27.920  28.844  1.00  0.00     0.031 A 
ATOM     37  C   UNL A   1      41.747  28.069  29.538  1.00  0.00     0.074 A 
ATOM     38  C   UNL A   1      39.505  28.904  28.919  1.00  0.00     0.049 A 
ATOM     39  N   UNL A   1      42.194  29.070  30.255  1.00  0.00    -0.248 NA
ATOM     40  C   UNL A   1      42.684  26.939  29.434  1.00  0.00     0.031 C 
ATOM     41  C   UNL A   1      38.169  28.866  28.319  1.00  0.00     0.029 A 
ATOM     42  N   UNL A   1      39.556  30.127  29.537  1.00  0.00    -0.354 N 
ATOM     43  C   UNL A   1      43.453  28.684  30.697  1.00  0.00     0.074 A 
ATOM     44  C   UNL A   1      43.677  27.339  30.215  1.00  0.00     0.031 C 
ATOM     45  C   UNL A   1      37.541  30.026  28.571  1.00  0.00     0.029 A 
ATOM     46  C   UNL A   1      38.408  30.868  29.389  1.00  0.00     0.049 A 
ATOM     47  H   UNL A   1      40.341  30.445  30.039  1.00  0.00     0.167 HD
ATOM     48  C   UNL A   1      44.352  29.392  31.423  1.00  0.00     0.031 A 
ATOM     49  C   UNL A   1      38.085  32.084  29.867  1.00  0.00     0.031 A 
ATOM     50  C   UNL A   1      44.129  30.731  31.900  1.00  0.00     0.049 A 
ATOM     51  C   UNL A   1      39.088  32.837  30.696  1.00  0.00     0.074 A 
ATOM     52  C   UNL A   1      44.997  31.552  32.599  1.00  0.00     0.029 A 
ATOM     53  N   UNL A   1      42.951  31.442  31.734  1.00  0.00    -0.354 N 
ATOM     54  N   UNL A   1      40.301  32.486  31.047  1.00  0.00    -0.248 NA
ATOM     55  C   UNL A   1      38.678  34.161  31.187  1.00  0.00     0.031 C 
ATOM     56  C   UNL A   1      44.321  32.737  32.910  1.00  0.00     0.029 A 
ATOM     57  C   UNL A   1      43.058  32.681  32.344  1.00  0.00     0.049 A 
ATOM     58  H   UNL A   1      42.156  31.115  31.253  1.00  0.00     0.167 HD
ATOM     59  C   UNL A   1      40.810  33.555  31.772  1.00  0.00     0.074 A 
ATOM     60  C   UNL A   1      39.780  34.573  31.795  1.00  0.00     0.031 C 
ATOM     61  C   UNL A   1      42.024  33.684  32.362  1.00  0.00     0.031 A 
BRANCH  48  62
ATOM     62  C   UNL A   1      45.657  28.722  31.755  1.00  0.00    -0.014 A 
ATOM     63  C   UNL A   1      46.759  28.797  30.886  1.00  0.00     0.009 A 
ATOM     64  C   UNL A   1      45.800  28.035  32.970  1.00  0.00     0.009 A 
ATOM     65  C   UNL A   1      47.961  28.164  31.210  1.00  0.00     0.001 A 
ATOM     66  C   UNL A   1      47.014  27.433  33.307  1.00  0.00     0.001 A 
ATOM     67  C   UNL A   1      48.089  27.488  32.423  1.00  0.00     0.000 A 
ENDBRANCH  48  62
BRANCH  49  68
ATOM     68  C   UNL A   1      36.753  32.674  29.565  1.00  0.00    -0.014 A 
ATOM     69  C   UNL A   1      35.723  32.635  30.518  1.00  0.00     0.009 A 
ATOM     70  C   UNL A   1      36.501  33.272  28.320  1.00  0.00     0.009 A 
ATOM     71  C   UNL A   1      34.461  33.153  30.218  1.00  0.00     0.001 A 
ATOM     72  C   UNL A   1      35.248  33.819  28.036  1.00  0.00     0.001 A 
ATOM     73  C   UNL A   1      34.226  33.750  28.980  1.00  0.00     0.000 A 
ENDBRANCH  49  68
BRANCH  61  74
ATOM     74  C   UNL A   1      42.319  34.986  33.053  1.00  0.00    -0.014 A 
ATOM     75  C   UNL A   1      41.828  35.264  34.338  1.00  0.00     0.009 A 
ATOM     76  C   UNL A   1      43.139  35.935  32.421  1.00  0.00     0.009 A 
ATOM     77  C   UNL A   1      42.122  36.478  34.960  1.00  0.00     0.001 A 
ATOM     78  C   UNL A   1      43.460  37.133  33.058  1.00  0.00     0.001 A 
ATOM     79  C   UNL A   1      42.943  37.409  34.322  1.00  0.00     0.000 A 
ENDBRANCH  61  74
ENDBRANCH  35  36
ENDBRANCH  27  30
ENDBRANCH  25  26
ENDBRANCH  24  25
ENDBRANCH  23  24
ENDBRANCH  22  23
ENDBRANCH   1  22
TORSDOF 18
ENDMDL
