MODEL 1
REMARK VINA RESULT:     -10.8      0.000      0.000
REMARK SMILES CC[NH2+][C@@]1(C(=O)NCCCCCCNC(=O)c2ccc(-c3c4nc(c(-c5ccccc5)c5ccc([nH]5)c(-c5ccccc5)c5nc(c(-c6ccccc6)c6ccc3[nH]6)C=C5)C=C4)cc2)CC[C@@H]([NH+]2CCC(C)(CC)CC2)C1
REMARK SMILES IDX 10 1 9 2 8 3 7 4 5 5 6 6 4 8 65 9 77 10 66 11 67 12 3 13
REMARK SMILES IDX 2 16 1 17 68 18 69 19 76 20 70 22 75 23 71 24 72 25 73 26
REMARK SMILES IDX 74 27 11 28 12 29 13 30 14 31 15 32 16 34 17 35 18 36 64 37
REMARK SMILES IDX 19 38 63 39 20 40 21 41 22 42 57 43 23 44 62 45 56 46 58 47
REMARK SMILES IDX 24 48 61 49 55 50 54 51 25 53 47 54 32 55 46 56 33 57 36 58
REMARK SMILES IDX 45 59 59 60 34 61 35 62 44 64 60 65 37 66 26 67 27 68 31 69
REMARK SMILES IDX 28 70 30 71 29 72 48 73 49 74 53 75 50 76 52 77 51 78 38 79
REMARK SMILES IDX 39 80 43 81 40 82 42 83 41 84
REMARK H PARENT 7 7 3 14 3 15 68 21 14 33 58 52 36 63
REMARK Flexibility Score: inf
ROOT
ATOM      1  C   UNL A   1      37.452  22.196  24.791  1.00  0.00     0.002 C 
ENDROOT
BRANCH   1   2
ATOM      2  C   UNL A   1      36.458  23.293  24.396  1.00  0.00     0.021 C 
BRANCH   2   3
ATOM      3  C   UNL A   1      35.873  24.045  25.585  1.00  0.00     0.116 C 
BRANCH   3   4
ATOM      4  N   UNL A   1      35.402  23.179  26.632  1.00  0.00    -0.351 N 
ATOM      5  C   UNL A   1      34.281  22.425  26.724  1.00  0.00     0.281 C 
ATOM      6  O   UNL A   1      34.376  21.461  27.501  1.00  0.00    -0.268 OA
ATOM      7  H   UNL A   1      35.997  23.125  27.415  1.00  0.00     0.163 HD
BRANCH   5   8
ATOM      8  C   UNL A   1      32.939  22.663  25.924  1.00  0.00     0.181 C 
ATOM      9  C   UNL A   1      32.858  21.773  24.674  1.00  0.00     0.085 C 
ATOM     10  C   UNL A   1      32.621  24.072  25.405  1.00  0.00     0.144 C 
ATOM     11  C   UNL A   1      33.111  22.653  23.453  1.00  0.00     0.072 C 
ATOM     12  C   UNL A   1      32.876  24.112  23.888  1.00  0.00     0.191 C 
BRANCH   8  13
ATOM     13  N   UNL A   1      31.827  22.209  26.835  1.00  0.00    -0.334 N 
ATOM     14  H   UNL A   1      31.994  21.233  27.080  1.00  0.00     0.347 HD
ATOM     15  H   UNL A   1      31.842  22.832  27.644  1.00  0.00     0.347 HD
BRANCH  13  16
ATOM     16  C   UNL A   1      30.482  22.313  26.253  1.00  0.00     0.257 C 
ATOM     17  C   UNL A   1      29.550  22.968  27.263  1.00  0.00     0.071 C 
ENDBRANCH  13  16
ENDBRANCH   8  13
BRANCH  12  18
ATOM     18  N   UNL A   1      32.000  24.925  23.031  1.00  0.00    -0.332 N 
ATOM     19  C   UNL A   1      32.573  26.184  22.551  1.00  0.00     0.263 C 
ATOM     20  C   UNL A   1      30.608  25.110  23.421  1.00  0.00     0.263 C 
ATOM     21  H   UNL A   1      31.953  24.273  22.249  1.00  0.00     0.348 HD
ATOM     22  C   UNL A   1      32.426  27.389  23.492  1.00  0.00     0.068 C 
ATOM     23  C   UNL A   1      30.395  26.165  24.498  1.00  0.00     0.068 C 
ATOM     24  C   UNL A   1      31.054  27.535  24.207  1.00  0.00    -0.022 C 
ATOM     25  C   UNL A   1      31.300  28.221  25.577  1.00  0.00     0.012 C 
BRANCH  24  26
ATOM     26  C   UNL A   1      30.096  28.490  23.434  1.00  0.00     0.004 C 
ATOM     27  C   UNL A   1      30.679  29.339  22.317  1.00  0.00     0.004 C 
ENDBRANCH  24  26
ENDBRANCH  12  18
ENDBRANCH   5   8
ENDBRANCH   3   4
ENDBRANCH   2   3
ENDBRANCH   1   2
BRANCH   1  28
ATOM     28  C   UNL A   1      36.944  20.758  24.619  1.00  0.00     0.002 C 
BRANCH  28  29
ATOM     29  C   UNL A   1      37.933  19.657  25.018  1.00  0.00     0.021 C 
BRANCH  29  30
ATOM     30  C   UNL A   1      39.156  20.155  25.785  1.00  0.00     0.116 C 
BRANCH  30  31
ATOM     31  N   UNL A   1      40.165  19.116  25.916  1.00  0.00    -0.352 N 
ATOM     32  C   UNL A   1      41.528  19.223  26.039  1.00  0.00     0.251 C 
ATOM     33  H   UNL A   1      39.818  18.195  25.915  1.00  0.00     0.163 HD
ATOM     34  O   UNL A   1      42.242  18.243  25.863  1.00  0.00    -0.269 OA
BRANCH  32  35
ATOM     35  C   UNL A   1      42.135  20.523  26.387  1.00  0.00     0.039 A 
ATOM     36  C   UNL A   1      42.655  21.324  25.367  1.00  0.00     0.014 A 
ATOM     37  C   UNL A   1      42.222  20.932  27.721  1.00  0.00     0.014 A 
ATOM     38  C   UNL A   1      43.200  22.571  25.678  1.00  0.00     0.010 A 
ATOM     39  C   UNL A   1      42.714  22.197  28.025  1.00  0.00     0.010 A 
ATOM     40  C   UNL A   1      43.201  23.029  27.006  1.00  0.00    -0.014 A 
BRANCH  40  41
ATOM     41  C   UNL A   1      43.666  24.394  27.348  1.00  0.00     0.031 A 
ATOM     42  C   UNL A   1      42.685  25.448  27.775  1.00  0.00     0.074 A 
ATOM     43  C   UNL A   1      44.967  24.704  27.186  1.00  0.00     0.049 A 
ATOM     44  N   UNL A   1      42.894  26.716  28.023  1.00  0.00    -0.248 NA
ATOM     45  C   UNL A   1      41.283  25.027  27.922  1.00  0.00     0.031 C 
ATOM     46  C   UNL A   1      46.009  23.776  26.743  1.00  0.00     0.029 A 
ATOM     47  N   UNL A   1      45.630  25.892  27.361  1.00  0.00    -0.354 N 
ATOM     48  C   UNL A   1      41.652  27.247  28.342  1.00  0.00     0.074 A 
ATOM     49  C   UNL A   1      40.688  26.175  28.218  1.00  0.00     0.031 C 
ATOM     50  C   UNL A   1      47.184  24.425  26.695  1.00  0.00     0.029 A 
ATOM     51  C   UNL A   1      46.969  25.821  27.060  1.00  0.00     0.049 A 
ATOM     52  H   UNL A   1      45.190  26.715  27.672  1.00  0.00     0.167 HD
ATOM     53  C   UNL A   1      41.344  28.512  28.716  1.00  0.00     0.031 A 
ATOM     54  C   UNL A   1      47.914  26.778  27.059  1.00  0.00     0.031 A 
ATOM     55  C   UNL A   1      42.305  29.575  28.841  1.00  0.00     0.049 A 
ATOM     56  C   UNL A   1      47.540  28.182  27.439  1.00  0.00     0.074 A 
ATOM     57  C   UNL A   1      42.103  30.872  29.281  1.00  0.00     0.029 A 
ATOM     58  N   UNL A   1      43.648  29.467  28.516  1.00  0.00    -0.354 N 
ATOM     59  N   UNL A   1      46.373  28.652  27.808  1.00  0.00    -0.248 NA
ATOM     60  C   UNL A   1      48.612  29.186  27.400  1.00  0.00     0.031 C 
ATOM     61  C   UNL A   1      43.314  31.565  29.169  1.00  0.00     0.029 A 
ATOM     62  C   UNL A   1      44.279  30.684  28.707  1.00  0.00     0.049 A 
ATOM     63  H   UNL A   1      44.087  28.646  28.195  1.00  0.00     0.167 HD
ATOM     64  C   UNL A   1      46.572  30.002  28.057  1.00  0.00     0.074 A 
ATOM     65  C   UNL A   1      47.976  30.272  27.817  1.00  0.00     0.031 C 
ATOM     66  C   UNL A   1      45.672  30.938  28.447  1.00  0.00     0.031 A 
BRANCH  53  67
ATOM     67  C   UNL A   1      39.902  28.817  29.007  1.00  0.00    -0.014 A 
ATOM     68  C   UNL A   1      39.051  29.322  28.011  1.00  0.00     0.009 A 
ATOM     69  C   UNL A   1      39.376  28.557  30.282  1.00  0.00     0.009 A 
ATOM     70  C   UNL A   1      37.710  29.592  28.297  1.00  0.00     0.001 A 
ATOM     71  C   UNL A   1      38.030  28.804  30.558  1.00  0.00     0.001 A 
ATOM     72  C   UNL A   1      37.201  29.329  29.568  1.00  0.00     0.000 A 
ENDBRANCH  53  67
BRANCH  54  73
ATOM     73  C   UNL A   1      49.310  26.441  26.678  1.00  0.00    -0.014 A 
ATOM     74  C   UNL A   1      50.194  25.900  27.622  1.00  0.00     0.009 A 
ATOM     75  C   UNL A   1      49.762  26.652  25.366  1.00  0.00     0.009 A 
ATOM     76  C   UNL A   1      51.510  25.595  27.266  1.00  0.00     0.001 A 
ATOM     77  C   UNL A   1      51.071  26.322  25.006  1.00  0.00     0.001 A 
ATOM     78  C   UNL A   1      51.945  25.802  25.959  1.00  0.00     0.000 A 
ENDBRANCH  54  73
BRANCH  66  79
ATOM     79  C   UNL A   1      46.181  32.336  28.641  1.00  0.00    -0.014 A 
ATOM     80  C   UNL A   1      46.109  33.279  27.603  1.00  0.00     0.009 A 
ATOM     81  C   UNL A   1      46.700  32.727  29.884  1.00  0.00     0.009 A 
ATOM     82  C   UNL A   1      46.570  34.582  27.801  1.00  0.00     0.001 A 
ATOM     83  C   UNL A   1      47.137  34.037  30.087  1.00  0.00     0.001 A 
ATOM     84  C   UNL A   1      47.079  34.961  29.044  1.00  0.00     0.000 A 
ENDBRANCH  66  79
ENDBRANCH  40  41
ENDBRANCH  32  35
ENDBRANCH  30  31
ENDBRANCH  29  30
ENDBRANCH  28  29
ENDBRANCH   1  28
TORSDOF 17
ENDMDL
MODEL 2
REMARK VINA RESULT:     -10.7      2.949      7.542
REMARK SMILES CC[NH2+][C@@]1(C(=O)NCCCCCCNC(=O)c2ccc(-c3c4nc(c(-c5ccccc5)c5ccc([nH]5)c(-c5ccccc5)c5nc(c(-c6ccccc6)c6ccc3[nH]6)C=C5)C=C4)cc2)CC[C@@H]([NH+]2CCC(C)(CC)CC2)C1
REMARK SMILES IDX 10 1 9 2 8 3 7 4 5 5 6 6 4 8 65 9 77 10 66 11 67 12 3 13
REMARK SMILES IDX 2 16 1 17 68 18 69 19 76 20 70 22 75 23 71 24 72 25 73 26
REMARK SMILES IDX 74 27 11 28 12 29 13 30 14 31 15 32 16 34 17 35 18 36 64 37
REMARK SMILES IDX 19 38 63 39 20 40 21 41 22 42 57 43 23 44 62 45 56 46 58 47
REMARK SMILES IDX 24 48 61 49 55 50 54 51 25 53 47 54 32 55 46 56 33 57 36 58
REMARK SMILES IDX 45 59 59 60 34 61 35 62 44 64 60 65 37 66 26 67 27 68 31 69
REMARK SMILES IDX 28 70 30 71 29 72 48 73 49 74 53 75 50 76 52 77 51 78 38 79
REMARK SMILES IDX 39 80 43 81 40 82 42 83 41 84
REMARK H PARENT 7 7 3 14 3 15 68 21 14 33 58 52 36 63
REMARK Flexibility Score: inf
ROOT
ATOM      1  C   UNL A   1      33.741  27.050  23.010  1.00  0.00     0.002 C 
ENDROOT
BRANCH   1   2
ATOM      2  C   UNL A   1      32.547  27.120  22.051  1.00  0.00     0.021 C 
BRANCH   2   3
ATOM      3  C   UNL A   1      31.565  25.966  22.213  1.00  0.00     0.116 C 
BRANCH   3   4
ATOM      4  N   UNL A   1      30.656  26.141  23.313  1.00  0.00    -0.351 N 
ATOM      5  C   UNL A   1      30.631  25.575  24.543  1.00  0.00     0.281 C 
ATOM      6  O   UNL A   1      30.036  26.246  25.402  1.00  0.00    -0.268 OA
ATOM      7  H   UNL A   1      29.928  26.783  23.143  1.00  0.00     0.163 HD
BRANCH   5   8
ATOM      8  C   UNL A   1      31.301  24.200  24.941  1.00  0.00     0.181 C 
ATOM      9  C   UNL A   1      32.296  24.369  26.099  1.00  0.00     0.085 C 
ATOM     10  C   UNL A   1      32.088  23.419  23.880  1.00  0.00     0.144 C 
ATOM     11  C   UNL A   1      33.707  24.274  25.525  1.00  0.00     0.072 C 
ATOM     12  C   UNL A   1      33.593  23.591  24.149  1.00  0.00     0.191 C 
BRANCH   8  13
ATOM     13  N   UNL A   1      30.187  23.333  25.469  1.00  0.00    -0.334 N 
ATOM     14  H   UNL A   1      29.340  23.898  25.518  1.00  0.00     0.347 HD
ATOM     15  H   UNL A   1      30.104  22.544  24.826  1.00  0.00     0.347 HD
BRANCH  13  16
ATOM     16  C   UNL A   1      30.437  22.761  26.799  1.00  0.00     0.257 C 
ATOM     17  C   UNL A   1      29.121  22.673  27.560  1.00  0.00     0.071 C 
ENDBRANCH  13  16
ENDBRANCH   8  13
BRANCH  12  18
ATOM     18  N   UNL A   1      34.504  22.466  23.892  1.00  0.00    -0.332 N 
ATOM     19  C   UNL A   1      34.720  21.554  25.017  1.00  0.00     0.263 C 
ATOM     20  C   UNL A   1      35.755  22.719  23.188  1.00  0.00     0.263 C 
ATOM     21  H   UNL A   1      33.923  21.993  23.200  1.00  0.00     0.348 HD
ATOM     22  C   UNL A   1      35.828  21.957  26.002  1.00  0.00     0.068 C 
ATOM     23  C   UNL A   1      36.857  23.303  24.061  1.00  0.00     0.068 C 
ATOM     24  C   UNL A   1      37.129  22.526  25.372  1.00  0.00    -0.022 C 
ATOM     25  C   UNL A   1      37.747  23.534  26.378  1.00  0.00     0.012 C 
BRANCH  24  26
ATOM     26  C   UNL A   1      38.212  21.421  25.180  1.00  0.00     0.004 C 
ATOM     27  C   UNL A   1      37.745  20.004  24.897  1.00  0.00     0.004 C 
ENDBRANCH  24  26
ENDBRANCH  12  18
ENDBRANCH   5   8
ENDBRANCH   3   4
ENDBRANCH   2   3
ENDBRANCH   1   2
BRANCH   1  28
ATOM     28  C   UNL A   1      33.857  28.219  23.998  1.00  0.00     0.002 C 
BRANCH  28  29
ATOM     29  C   UNL A   1      33.290  27.959  25.398  1.00  0.00     0.021 C 
BRANCH  29  30
ATOM     30  C   UNL A   1      34.219  28.360  26.541  1.00  0.00     0.116 C 
BRANCH  30  31
ATOM     31  N   UNL A   1      33.941  29.709  27.008  1.00  0.00    -0.352 N 
ATOM     32  C   UNL A   1      34.633  30.493  27.897  1.00  0.00     0.251 C 
ATOM     33  H   UNL A   1      33.132  30.123  26.630  1.00  0.00     0.163 HD
ATOM     34  O   UNL A   1      34.108  31.490  28.379  1.00  0.00    -0.269 OA
BRANCH  32  35
ATOM     35  C   UNL A   1      36.015  30.134  28.273  1.00  0.00     0.039 A 
ATOM     36  C   UNL A   1      36.267  29.660  29.563  1.00  0.00     0.014 A 
ATOM     37  C   UNL A   1      37.064  30.298  27.363  1.00  0.00     0.014 A 
ATOM     38  C   UNL A   1      37.563  29.284  29.920  1.00  0.00     0.010 A 
ATOM     39  C   UNL A   1      38.344  29.872  27.700  1.00  0.00     0.010 A 
ATOM     40  C   UNL A   1      38.603  29.356  28.979  1.00  0.00    -0.014 A 
BRANCH  40  41
ATOM     41  C   UNL A   1      39.961  28.855  29.294  1.00  0.00     0.031 A 
ATOM     42  C   UNL A   1      40.967  29.749  29.960  1.00  0.00     0.074 A 
ATOM     43  C   UNL A   1      40.313  27.617  28.898  1.00  0.00     0.049 A 
ATOM     44  N   UNL A   1      42.227  29.516  30.228  1.00  0.00    -0.248 NA
ATOM     45  C   UNL A   1      40.504  31.088  30.357  1.00  0.00     0.031 C 
ATOM     46  C   UNL A   1      39.434  26.666  28.211  1.00  0.00     0.029 A 
ATOM     47  N   UNL A   1      41.507  26.951  29.001  1.00  0.00    -0.354 N 
ATOM     48  C   UNL A   1      42.709  30.680  30.811  1.00  0.00     0.074 A 
ATOM     49  C   UNL A   1      41.620  31.631  30.823  1.00  0.00     0.031 C 
ATOM     50  C   UNL A   1      40.116  25.535  27.968  1.00  0.00     0.029 A 
ATOM     51  C   UNL A   1      41.487  25.697  28.440  1.00  0.00     0.049 A 
ATOM     52  H   UNL A   1      42.303  27.335  29.435  1.00  0.00     0.167 HD
ATOM     53  C   UNL A   1      43.946  30.928  31.304  1.00  0.00     0.031 A 
ATOM     54  C   UNL A   1      42.466  24.785  28.305  1.00  0.00     0.031 A 
ATOM     55  C   UNL A   1      45.028  29.979  31.294  1.00  0.00     0.049 A 
ATOM     56  C   UNL A   1      43.840  25.100  28.823  1.00  0.00     0.074 A 
ATOM     57  C   UNL A   1      46.296  30.111  31.832  1.00  0.00     0.029 A 
ATOM     58  N   UNL A   1      44.970  28.724  30.707  1.00  0.00    -0.354 N 
ATOM     59  N   UNL A   1      44.261  26.179  29.438  1.00  0.00    -0.248 NA
ATOM     60  C   UNL A   1      44.873  24.073  28.627  1.00  0.00     0.031 C 
ATOM     61  C   UNL A   1      47.025  28.957  31.522  1.00  0.00     0.029 A 
ATOM     62  C   UNL A   1      46.193  28.088  30.834  1.00  0.00     0.049 A 
ATOM     63  H   UNL A   1      44.177  28.344  30.264  1.00  0.00     0.167 HD
ATOM     64  C   UNL A   1      45.603  25.957  29.713  1.00  0.00     0.074 A 
ATOM     65  C   UNL A   1      45.921  24.632  29.218  1.00  0.00     0.031 C 
ATOM     66  C   UNL A   1      46.495  26.777  30.320  1.00  0.00     0.031 A 
BRANCH  53  67
ATOM     67  C   UNL A   1      44.200  32.289  31.887  1.00  0.00    -0.014 A 
ATOM     68  C   UNL A   1      43.980  32.549  33.249  1.00  0.00     0.009 A 
ATOM     69  C   UNL A   1      44.706  33.315  31.074  1.00  0.00     0.009 A 
ATOM     70  C   UNL A   1      44.229  33.818  33.777  1.00  0.00     0.001 A 
ATOM     71  C   UNL A   1      44.978  34.575  31.608  1.00  0.00     0.001 A 
ATOM     72  C   UNL A   1      44.731  34.828  32.957  1.00  0.00     0.000 A 
ENDBRANCH  53  67
BRANCH  54  73
ATOM     73  C   UNL A   1      42.185  23.487  27.640  1.00  0.00    -0.014 A 
ATOM     74  C   UNL A   1      42.483  23.304  26.282  1.00  0.00     0.009 A 
ATOM     75  C   UNL A   1      41.625  22.422  28.363  1.00  0.00     0.009 A 
ATOM     76  C   UNL A   1      42.206  22.088  25.655  1.00  0.00     0.001 A 
ATOM     77  C   UNL A   1      41.373  21.198  27.739  1.00  0.00     0.001 A 
ATOM     78  C   UNL A   1      41.656  21.035  26.384  1.00  0.00     0.000 A 
ENDBRANCH  54  73
BRANCH  66  79
ATOM     79  C   UNL A   1      47.895  26.263  30.483  1.00  0.00    -0.014 A 
ATOM     80  C   UNL A   1      48.839  26.405  29.454  1.00  0.00     0.009 A 
ATOM     81  C   UNL A   1      48.287  25.667  31.691  1.00  0.00     0.009 A 
ATOM     82  C   UNL A   1      50.144  25.938  29.624  1.00  0.00     0.001 A 
ATOM     83  C   UNL A   1      49.598  25.223  31.869  1.00  0.00     0.001 A 
ATOM     84  C   UNL A   1      50.523  25.352  30.833  1.00  0.00     0.000 A 
ENDBRANCH  66  79
ENDBRANCH  40  41
ENDBRANCH  32  35
ENDBRANCH  30  31
ENDBRANCH  29  30
ENDBRANCH  28  29
ENDBRANCH   1  28
TORSDOF 17
ENDMDL
MODEL 3
REMARK VINA RESULT:     -10.6      1.849      6.126
REMARK SMILES CC[NH2+][C@@]1(C(=O)NCCCCCCNC(=O)c2ccc(-c3c4nc(c(-c5ccccc5)c5ccc([nH]5)c(-c5ccccc5)c5nc(c(-c6ccccc6)c6ccc3[nH]6)C=C5)C=C4)cc2)CC[C@@H]([NH+]2CCC(C)(CC)CC2)C1
REMARK SMILES IDX 10 1 9 2 8 3 7 4 5 5 6 6 4 8 65 9 77 10 66 11 67 12 3 13
REMARK SMILES IDX 2 16 1 17 68 18 69 19 76 20 70 22 75 23 71 24 72 25 73 26
REMARK SMILES IDX 74 27 11 28 12 29 13 30 14 31 15 32 16 34 17 35 18 36 64 37
REMARK SMILES IDX 19 38 63 39 20 40 21 41 22 42 57 43 23 44 62 45 56 46 58 47
REMARK SMILES IDX 24 48 61 49 55 50 54 51 25 53 47 54 32 55 46 56 33 57 36 58
REMARK SMILES IDX 45 59 59 60 34 61 35 62 44 64 60 65 37 66 26 67 27 68 31 69
REMARK SMILES IDX 28 70 30 71 29 72 48 73 49 74 53 75 50 76 52 77 51 78 38 79
REMARK SMILES IDX 39 80 43 81 40 82 42 83 41 84
REMARK H PARENT 7 7 3 14 3 15 68 21 14 33 58 52 36 63
REMARK Flexibility Score: inf
ROOT
ATOM      1  C   UNL A   1      38.328  23.671  25.824  1.00  0.00     0.002 C 
ENDROOT
BRANCH   1   2
ATOM      2  C   UNL A   1      37.075  23.079  25.169  1.00  0.00     0.021 C 
BRANCH   2   3
ATOM      3  C   UNL A   1      36.060  22.538  26.168  1.00  0.00     0.116 C 
BRANCH   3   4
ATOM      4  N   UNL A   1      35.617  21.204  25.866  1.00  0.00    -0.351 N 
ATOM      5  C   UNL A   1      34.531  20.760  25.190  1.00  0.00     0.281 C 
ATOM      6  O   UNL A   1      34.661  19.626  24.702  1.00  0.00    -0.268 OA
ATOM      7  H   UNL A   1      36.206  20.492  26.207  1.00  0.00     0.163 HD
BRANCH   5   8
ATOM      8  C   UNL A   1      33.188  21.564  24.972  1.00  0.00     0.181 C 
ATOM      9  C   UNL A   1      32.217  20.805  24.053  1.00  0.00     0.085 C 
ATOM     10  C   UNL A   1      33.252  22.974  24.369  1.00  0.00     0.144 C 
ATOM     11  C   UNL A   1      32.222  21.495  22.691  1.00  0.00     0.072 C 
ATOM     12  C   UNL A   1      32.798  22.909  22.900  1.00  0.00     0.191 C 
BRANCH   8  13
ATOM     13  N   UNL A   1      32.520  21.632  26.321  1.00  0.00    -0.334 N 
ATOM     14  H   UNL A   1      31.749  20.965  26.329  1.00  0.00     0.347 HD
ATOM     15  H   UNL A   1      33.240  21.419  27.012  1.00  0.00     0.347 HD
BRANCH  13  16
ATOM     16  C   UNL A   1      31.986  22.956  26.671  1.00  0.00     0.257 C 
ATOM     17  C   UNL A   1      30.467  22.880  26.737  1.00  0.00     0.071 C 
ENDBRANCH  13  16
ENDBRANCH   8  13
BRANCH  12  18
ATOM     18  N   UNL A   1      32.030  24.027  22.334  1.00  0.00    -0.332 N 
ATOM     19  C   UNL A   1      32.798  24.985  21.536  1.00  0.00     0.263 C 
ATOM     20  C   UNL A   1      31.065  24.719  23.179  1.00  0.00     0.263 C 
ATOM     21  H   UNL A   1      31.452  23.472  21.703  1.00  0.00     0.348 HD
ATOM     22  C   UNL A   1      33.475  26.118  22.322  1.00  0.00     0.068 C 
ATOM     23  C   UNL A   1      31.682  25.734  24.131  1.00  0.00     0.068 C 
ATOM     24  C   UNL A   1      32.637  26.755  23.465  1.00  0.00    -0.022 C 
ATOM     25  C   UNL A   1      33.619  27.243  24.563  1.00  0.00     0.012 C 
BRANCH  24  26
ATOM     26  C   UNL A   1      31.883  28.033  22.989  1.00  0.00     0.004 C 
ATOM     27  C   UNL A   1      30.524  28.330  23.596  1.00  0.00     0.004 C 
ENDBRANCH  24  26
ENDBRANCH  12  18
ENDBRANCH   5   8
ENDBRANCH   3   4
ENDBRANCH   2   3
ENDBRANCH   1   2
BRANCH   1  28
ATOM     28  C   UNL A   1      39.217  22.664  26.566  1.00  0.00     0.002 C 
BRANCH  28  29
ATOM     29  C   UNL A   1      39.572  21.395  25.782  1.00  0.00     0.021 C 
BRANCH  29  30
ATOM     30  C   UNL A   1      40.066  20.237  26.646  1.00  0.00     0.116 C 
BRANCH  30  31
ATOM     31  N   UNL A   1      41.300  19.669  26.124  1.00  0.00    -0.352 N 
ATOM     32  C   UNL A   1      42.488  20.281  25.816  1.00  0.00     0.251 C 
ATOM     33  H   UNL A   1      41.278  18.698  25.967  1.00  0.00     0.163 HD
ATOM     34  O   UNL A   1      43.323  19.699  25.133  1.00  0.00    -0.269 OA
BRANCH  32  35
ATOM     35  C   UNL A   1      42.764  21.645  26.309  1.00  0.00     0.039 A 
ATOM     36  C   UNL A   1      43.038  22.659  25.387  1.00  0.00     0.014 A 
ATOM     37  C   UNL A   1      42.784  21.913  27.681  1.00  0.00     0.014 A 
ATOM     38  C   UNL A   1      43.264  23.960  25.839  1.00  0.00     0.010 A 
ATOM     39  C   UNL A   1      42.955  23.220  28.128  1.00  0.00     0.010 A 
ATOM     40  C   UNL A   1      43.190  24.255  27.210  1.00  0.00    -0.014 A 
BRANCH  40  41
ATOM     41  C   UNL A   1      43.310  25.646  27.706  1.00  0.00     0.031 A 
ATOM     42  C   UNL A   1      44.651  26.204  28.089  1.00  0.00     0.074 A 
ATOM     43  C   UNL A   1      42.194  26.376  27.892  1.00  0.00     0.049 A 
ATOM     44  N   UNL A   1      44.938  27.362  28.628  1.00  0.00    -0.248 NA
ATOM     45  C   UNL A   1      45.819  25.340  27.859  1.00  0.00     0.031 C 
ATOM     46  C   UNL A   1      40.832  25.930  27.590  1.00  0.00     0.029 A 
ATOM     47  N   UNL A   1      42.027  27.640  28.396  1.00  0.00    -0.354 N 
ATOM     48  C   UNL A   1      46.314  27.361  28.811  1.00  0.00     0.074 A 
ATOM     49  C   UNL A   1      46.800  26.074  28.365  1.00  0.00     0.031 C 
ATOM     50  C   UNL A   1      39.970  26.912  27.900  1.00  0.00     0.029 A 
ATOM     51  C   UNL A   1      40.713  28.034  28.464  1.00  0.00     0.049 A 
ATOM     52  H   UNL A   1      42.777  28.210  28.682  1.00  0.00     0.167 HD
ATOM     53  C   UNL A   1      47.102  28.349  29.298  1.00  0.00     0.031 A 
ATOM     54  C   UNL A   1      40.165  29.166  28.942  1.00  0.00     0.031 A 
ATOM     55  C   UNL A   1      46.616  29.630  29.738  1.00  0.00     0.049 A 
ATOM     56  C   UNL A   1      41.057  30.231  29.513  1.00  0.00     0.074 A 
ATOM     57  C   UNL A   1      47.342  30.722  30.181  1.00  0.00     0.029 A 
ATOM     58  N   UNL A   1      45.278  29.986  29.802  1.00  0.00    -0.354 N 
ATOM     59  N   UNL A   1      42.364  30.243  29.613  1.00  0.00    -0.248 NA
ATOM     60  C   UNL A   1      40.398  31.434  30.038  1.00  0.00     0.031 C 
ATOM     61  C   UNL A   1      46.439  31.721  30.564  1.00  0.00     0.029 A 
ATOM     62  C   UNL A   1      45.154  31.267  30.313  1.00  0.00     0.049 A 
ATOM     63  H   UNL A   1      44.527  29.413  29.525  1.00  0.00     0.167 HD
ATOM     64  C   UNL A   1      42.685  31.459  30.200  1.00  0.00     0.074 A 
ATOM     65  C   UNL A   1      41.438  32.165  30.415  1.00  0.00     0.031 C 
ATOM     66  C   UNL A   1      43.904  31.946  30.535  1.00  0.00     0.031 A 
BRANCH  53  67
ATOM     67  C   UNL A   1      48.577  28.078  29.389  1.00  0.00    -0.014 A 
ATOM     68  C   UNL A   1      49.439  28.385  28.325  1.00  0.00     0.009 A 
ATOM     69  C   UNL A   1      49.118  27.548  30.570  1.00  0.00     0.009 A 
ATOM     70  C   UNL A   1      50.810  28.135  28.430  1.00  0.00     0.001 A 
ATOM     71  C   UNL A   1      50.491  27.322  30.682  1.00  0.00     0.001 A 
ATOM     72  C   UNL A   1      51.334  27.608  29.609  1.00  0.00     0.000 A 
ENDBRANCH  53  67
BRANCH  54  73
ATOM     73  C   UNL A   1      38.691  29.348  28.908  1.00  0.00    -0.014 A 
ATOM     74  C   UNL A   1      37.924  29.150  30.066  1.00  0.00     0.009 A 
ATOM     75  C   UNL A   1      38.045  29.728  27.722  1.00  0.00     0.009 A 
ATOM     76  C   UNL A   1      36.537  29.309  30.031  1.00  0.00     0.001 A 
ATOM     77  C   UNL A   1      36.660  29.911  27.697  1.00  0.00     0.001 A 
ATOM     78  C   UNL A   1      35.907  29.693  28.849  1.00  0.00     0.000 A 
ENDBRANCH  54  73
BRANCH  66  79
ATOM     79  C   UNL A   1      43.946  33.308  31.165  1.00  0.00    -0.014 A 
ATOM     80  C   UNL A   1      43.994  34.466  30.374  1.00  0.00     0.009 A 
ATOM     81  C   UNL A   1      43.896  33.436  32.561  1.00  0.00     0.009 A 
ATOM     82  C   UNL A   1      44.015  35.728  30.972  1.00  0.00     0.001 A 
ATOM     83  C   UNL A   1      43.892  34.698  33.156  1.00  0.00     0.001 A 
ATOM     84  C   UNL A   1      43.960  35.843  32.361  1.00  0.00     0.000 A 
ENDBRANCH  66  79
ENDBRANCH  40  41
ENDBRANCH  32  35
ENDBRANCH  30  31
ENDBRANCH  29  30
ENDBRANCH  28  29
ENDBRANCH   1  28
TORSDOF 17
ENDMDL
