MODEL 1
REMARK VINA RESULT:     -10.5      0.000      0.000
REMARK SMILES O=C(COCC(=O)N1CCC([NH+]2CCN(c3ccc(F)cc3)CC2)CC1)NCCCCCCNC(=O)c1ccc(-c2c3nc(c(-c4ccccc4)c4ccc([nH]4)c(-c4ccccc4)c4nc(c(-c5ccccc5)c5ccc2[nH]5)C=C4)C=C3)cc1
REMARK SMILES IDX 29 1 28 2 27 3 1 4 2 5 3 7 4 8 5 9 6 10 7 11 8 12 9 13 26 14
REMARK SMILES IDX 10 15 25 16 11 17 12 18 13 19 24 20 14 22 23 23 15 24 16 25
REMARK SMILES IDX 17 26 22 27 18 28 21 29 19 30 20 31 30 32 31 33 32 34 33 35
REMARK SMILES IDX 34 36 35 37 36 39 37 40 38 41 84 42 39 43 83 44 40 45 41 46
REMARK SMILES IDX 42 47 77 48 43 49 82 50 76 51 78 52 44 53 81 54 75 55 74 56
REMARK SMILES IDX 45 58 67 59 52 60 66 61 53 62 56 63 65 64 79 65 54 66 55 67
REMARK SMILES IDX 64 69 80 70 57 71 46 72 47 73 51 74 48 75 50 76 49 77 68 78
REMARK SMILES IDX 69 79 73 80 70 81 72 82 71 83 58 84 59 85 63 86 60 87 62 88
REMARK SMILES IDX 61 89
REMARK H PARENT 27 6 12 21 34 38 78 57 56 68
REMARK Flexibility Score: inf
ROOT
ATOM      1  C   UNL A   1      39.117  29.161  29.197  1.00  0.00     0.021 C 
ENDROOT
BRANCH   1   2
ATOM      2  C   UNL A   1      37.947  30.068  29.576  1.00  0.00     0.116 C 
BRANCH   2   3
ATOM      3  N   UNL A   1      36.982  30.158  28.504  1.00  0.00    -0.354 N 
ATOM      4  O   UNL A   1      35.333  31.183  29.737  1.00  0.00    -0.272 OA
ATOM      5  C   UNL A   1      35.731  30.708  28.680  1.00  0.00     0.246 C 
ATOM      6  H   UNL A   1      37.228  29.814  27.614  1.00  0.00     0.163 HD
BRANCH   5   7
ATOM      7  C   UNL A   1      34.833  30.590  27.446  1.00  0.00     0.260 C 
BRANCH   7   8
ATOM      8  O   UNL A   1      33.443  30.424  27.677  1.00  0.00    -0.362 OA
BRANCH   8   9
ATOM      9  C   UNL A   1      32.805  29.580  26.740  1.00  0.00     0.260 C 
BRANCH   9  10
ATOM     10  C   UNL A   1      32.274  28.177  27.090  1.00  0.00     0.248 C 
ATOM     11  O   UNL A   1      31.526  28.049  28.065  1.00  0.00    -0.272 OA
ATOM     12  N   UNL A   1      32.543  27.119  26.236  1.00  0.00    -0.340 N 
ATOM     13  C   UNL A   1      31.672  25.956  26.294  1.00  0.00     0.125 C 
ATOM     14  C   UNL A   1      33.609  27.048  25.236  1.00  0.00     0.125 C 
ATOM     15  C   UNL A   1      32.455  24.668  26.500  1.00  0.00     0.086 C 
ATOM     16  C   UNL A   1      34.438  25.766  25.421  1.00  0.00     0.086 C 
ATOM     17  C   UNL A   1      33.525  24.520  25.407  1.00  0.00     0.187 C 
BRANCH  17  18
ATOM     18  N   UNL A   1      34.227  23.230  25.365  1.00  0.00    -0.329 N 
ATOM     19  C   UNL A   1      34.280  22.360  26.556  1.00  0.00     0.284 C 
ATOM     20  C   UNL A   1      33.980  22.449  24.134  1.00  0.00     0.284 C 
ATOM     21  H   UNL A   1      35.175  23.605  25.361  1.00  0.00     0.348 HD
ATOM     22  C   UNL A   1      33.279  21.167  26.659  1.00  0.00     0.178 C 
ATOM     23  C   UNL A   1      32.857  21.399  24.241  1.00  0.00     0.178 C 
ATOM     24  N   UNL A   1      33.139  20.503  25.360  1.00  0.00    -0.360 N 
BRANCH  24  25
ATOM     25  C   UNL A   1      33.247  19.149  25.156  1.00  0.00     0.037 A 
ATOM     26  C   UNL A   1      33.983  18.646  24.068  1.00  0.00     0.029 A 
ATOM     27  C   UNL A   1      32.608  18.218  25.987  1.00  0.00     0.029 A 
ATOM     28  C   UNL A   1      34.058  17.280  23.794  1.00  0.00     0.041 A 
ATOM     29  C   UNL A   1      32.665  16.846  25.713  1.00  0.00     0.041 A 
ATOM     30  C   UNL A   1      33.386  16.391  24.617  1.00  0.00     0.123 A 
ATOM     31  F   UNL A   1      33.432  15.080  24.347  1.00  0.00    -0.207 F 
ENDBRANCH  24  25
ENDBRANCH  17  18
ENDBRANCH   9  10
ENDBRANCH   8   9
ENDBRANCH   7   8
ENDBRANCH   5   7
ENDBRANCH   2   3
ENDBRANCH   1   2
BRANCH   1  32
ATOM     32  C   UNL A   1      38.741  28.007  28.258  1.00  0.00     0.002 C 
BRANCH  32  33
ATOM     33  C   UNL A   1      39.897  27.085  27.854  1.00  0.00     0.002 C 
BRANCH  33  34
ATOM     34  C   UNL A   1      39.543  25.601  27.756  1.00  0.00     0.021 C 
BRANCH  34  35
ATOM     35  C   UNL A   1      39.712  24.995  26.368  1.00  0.00     0.116 C 
BRANCH  35  36
ATOM     36  N   UNL A   1      40.441  23.736  26.395  1.00  0.00    -0.352 N 
ATOM     37  C   UNL A   1      41.797  23.522  26.352  1.00  0.00     0.251 C 
ATOM     38  H   UNL A   1      39.885  22.925  26.454  1.00  0.00     0.163 HD
ATOM     39  O   UNL A   1      42.245  22.386  26.218  1.00  0.00    -0.269 OA
BRANCH  37  40
ATOM     40  C   UNL A   1      42.720  24.672  26.442  1.00  0.00     0.039 A 
ATOM     41  C   UNL A   1      43.190  25.072  27.695  1.00  0.00     0.014 A 
ATOM     42  C   UNL A   1      43.138  25.340  25.287  1.00  0.00     0.014 A 
ATOM     43  C   UNL A   1      44.135  26.098  27.785  1.00  0.00     0.010 A 
ATOM     44  C   UNL A   1      44.133  26.309  25.372  1.00  0.00     0.010 A 
ATOM     45  C   UNL A   1      44.642  26.699  26.621  1.00  0.00    -0.014 A 
BRANCH  45  46
ATOM     46  C   UNL A   1      45.702  27.738  26.678  1.00  0.00     0.031 A 
ATOM     47  C   UNL A   1      45.323  29.191  26.782  1.00  0.00     0.074 A 
ATOM     48  C   UNL A   1      46.998  27.386  26.551  1.00  0.00     0.049 A 
ATOM     49  N   UNL A   1      46.091  30.251  26.730  1.00  0.00    -0.248 NA
ATOM     50  C   UNL A   1      43.891  29.497  26.939  1.00  0.00     0.031 C 
ATOM     51  C   UNL A   1      47.499  26.015  26.416  1.00  0.00     0.029 A 
ATOM     52  N   UNL A   1      48.133  28.158  26.500  1.00  0.00    -0.354 N 
ATOM     53  C   UNL A   1      45.235  31.341  26.818  1.00  0.00     0.074 A 
ATOM     54  C   UNL A   1      43.889  30.821  26.890  1.00  0.00     0.031 C 
ATOM     55  C   UNL A   1      48.838  26.044  26.315  1.00  0.00     0.029 A 
ATOM     56  C   UNL A   1      49.288  27.432  26.327  1.00  0.00     0.049 A 
ATOM     57  H   UNL A   1      48.120  29.139  26.579  1.00  0.00     0.167 HD
ATOM     58  C   UNL A   1      45.544  32.659  26.848  1.00  0.00     0.031 A 
ATOM     59  C   UNL A   1      50.563  27.839  26.177  1.00  0.00     0.031 A 
ATOM     60  C   UNL A   1      46.885  33.176  26.805  1.00  0.00     0.049 A 
ATOM     61  C   UNL A   1      50.872  29.313  26.192  1.00  0.00     0.074 A 
ATOM     62  C   UNL A   1      47.299  34.494  26.905  1.00  0.00     0.029 A 
ATOM     63  N   UNL A   1      48.024  32.407  26.647  1.00  0.00    -0.354 N 
ATOM     64  N   UNL A   1      50.057  30.327  26.357  1.00  0.00    -0.248 NA
ATOM     65  C   UNL A   1      52.279  29.699  26.011  1.00  0.00     0.031 C 
ATOM     66  C   UNL A   1      48.687  34.527  26.746  1.00  0.00     0.029 A 
ATOM     67  C   UNL A   1      49.141  33.224  26.615  1.00  0.00     0.049 A 
ATOM     68  H   UNL A   1      48.039  31.426  26.569  1.00  0.00     0.167 HD
ATOM     69  C   UNL A   1      50.858  31.463  26.340  1.00  0.00     0.074 A 
ATOM     70  C   UNL A   1      52.222  31.014  26.163  1.00  0.00     0.031 C 
ATOM     71  C   UNL A   1      50.495  32.762  26.463  1.00  0.00     0.031 A 
BRANCH  58  72
ATOM     72  C   UNL A   1      44.414  33.647  26.924  1.00  0.00    -0.014 A 
ATOM     73  C   UNL A   1      43.939  34.120  28.156  1.00  0.00     0.009 A 
ATOM     74  C   UNL A   1      43.874  34.174  25.739  1.00  0.00     0.009 A 
ATOM     75  C   UNL A   1      42.931  35.086  28.200  1.00  0.00     0.001 A 
ATOM     76  C   UNL A   1      42.887  35.159  25.786  1.00  0.00     0.001 A 
ATOM     77  C   UNL A   1      42.412  35.610  27.017  1.00  0.00     0.000 A 
ENDBRANCH  58  72
BRANCH  59  78
ATOM     78  C   UNL A   1      51.660  26.851  25.986  1.00  0.00    -0.014 A 
ATOM     79  C   UNL A   1      52.377  26.359  27.088  1.00  0.00     0.009 A 
ATOM     80  C   UNL A   1      52.035  26.438  24.698  1.00  0.00     0.009 A 
ATOM     81  C   UNL A   1      53.474  25.514  26.903  1.00  0.00     0.001 A 
ATOM     82  C   UNL A   1      53.110  25.564  24.517  1.00  0.00     0.001 A 
ATOM     83  C   UNL A   1      53.838  25.116  25.618  1.00  0.00     0.000 A 
ENDBRANCH  59  78
BRANCH  71  84
ATOM     84  C   UNL A   1      51.589  33.792  26.477  1.00  0.00    -0.014 A 
ATOM     85  C   UNL A   1      52.126  34.310  25.288  1.00  0.00     0.009 A 
ATOM     86  C   UNL A   1      52.046  34.294  27.706  1.00  0.00     0.009 A 
ATOM     87  C   UNL A   1      53.120  35.291  25.333  1.00  0.00     0.001 A 
ATOM     88  C   UNL A   1      53.016  35.296  27.746  1.00  0.00     0.001 A 
ATOM     89  C   UNL A   1      53.557  35.787  26.560  1.00  0.00     0.000 A 
ENDBRANCH  71  84
ENDBRANCH  45  46
ENDBRANCH  37  40
ENDBRANCH  35  36
ENDBRANCH  34  35
ENDBRANCH  33  34
ENDBRANCH  32  33
ENDBRANCH   1  32
TORSDOF 18
ENDMDL
MODEL 2
REMARK VINA RESULT:     -10.3      3.660     10.038
REMARK SMILES O=C(COCC(=O)N1CCC([NH+]2CCN(c3ccc(F)cc3)CC2)CC1)NCCCCCCNC(=O)c1ccc(-c2c3nc(c(-c4ccccc4)c4ccc([nH]4)c(-c4ccccc4)c4nc(c(-c5ccccc5)c5ccc2[nH]5)C=C4)C=C3)cc1
REMARK SMILES IDX 29 1 28 2 27 3 1 4 2 5 3 7 4 8 5 9 6 10 7 11 8 12 9 13 26 14
REMARK SMILES IDX 10 15 25 16 11 17 12 18 13 19 24 20 14 22 23 23 15 24 16 25
REMARK SMILES IDX 17 26 22 27 18 28 21 29 19 30 20 31 30 32 31 33 32 34 33 35
REMARK SMILES IDX 34 36 35 37 36 39 37 40 38 41 84 42 39 43 83 44 40 45 41 46
REMARK SMILES IDX 42 47 77 48 43 49 82 50 76 51 78 52 44 53 81 54 75 55 74 56
REMARK SMILES IDX 45 58 67 59 52 60 66 61 53 62 56 63 65 64 79 65 54 66 55 67
REMARK SMILES IDX 64 69 80 70 57 71 46 72 47 73 51 74 48 75 50 76 49 77 68 78
REMARK SMILES IDX 69 79 73 80 70 81 72 82 71 83 58 84 59 85 63 86 60 87 62 88
REMARK SMILES IDX 61 89
REMARK H PARENT 27 6 12 21 34 38 78 57 56 68
REMARK Flexibility Score: inf
ROOT
ATOM      1  C   UNL A   1      40.528  34.782  29.857  1.00  0.00     0.021 C 
ENDROOT
BRANCH   1   2
ATOM      2  C   UNL A   1      39.118  34.724  29.271  1.00  0.00     0.116 C 
BRANCH   2   3
ATOM      3  N   UNL A   1      38.114  34.764  30.309  1.00  0.00    -0.354 N 
ATOM      4  O   UNL A   1      37.362  32.610  30.013  1.00  0.00    -0.272 OA
ATOM      5  C   UNL A   1      37.300  33.689  30.591  1.00  0.00     0.246 C 
ATOM      6  H   UNL A   1      38.009  35.589  30.836  1.00  0.00     0.163 HD
BRANCH   5   7
ATOM      7  C   UNL A   1      36.231  33.992  31.644  1.00  0.00     0.260 C 
BRANCH   7   8
ATOM      8  O   UNL A   1      34.885  34.041  31.197  1.00  0.00    -0.362 OA
BRANCH   8   9
ATOM      9  C   UNL A   1      34.753  34.268  29.809  1.00  0.00     0.260 C 
BRANCH   9  10
ATOM     10  C   UNL A   1      33.455  33.987  29.026  1.00  0.00     0.248 C 
ATOM     11  O   UNL A   1      32.476  34.717  29.214  1.00  0.00    -0.272 OA
ATOM     12  N   UNL A   1      33.456  33.010  28.044  1.00  0.00    -0.340 N 
ATOM     13  C   UNL A   1      32.433  33.078  27.012  1.00  0.00     0.125 C 
ATOM     14  C   UNL A   1      34.410  31.908  27.902  1.00  0.00     0.125 C 
ATOM     15  C   UNL A   1      31.663  31.772  26.889  1.00  0.00     0.086 C 
ATOM     16  C   UNL A   1      33.670  30.565  27.792  1.00  0.00     0.086 C 
ATOM     17  C   UNL A   1      32.634  30.606  26.647  1.00  0.00     0.187 C 
BRANCH  17  18
ATOM     18  N   UNL A   1      32.018  29.314  26.314  1.00  0.00    -0.329 N 
ATOM     19  C   UNL A   1      31.597  29.012  24.932  1.00  0.00     0.284 C 
ATOM     20  C   UNL A   1      32.679  28.151  26.945  1.00  0.00     0.284 C 
ATOM     21  H   UNL A   1      31.116  29.490  26.754  1.00  0.00     0.348 HD
ATOM     22  C   UNL A   1      32.538  28.152  24.031  1.00  0.00     0.178 C 
ATOM     23  C   UNL A   1      33.729  27.441  26.070  1.00  0.00     0.178 C 
ATOM     24  N   UNL A   1      33.117  27.049  24.803  1.00  0.00    -0.360 N 
BRANCH  24  25
ATOM     25  C   UNL A   1      33.117  25.733  24.409  1.00  0.00     0.037 A 
ATOM     26  C   UNL A   1      32.408  24.766  25.146  1.00  0.00     0.029 A 
ATOM     27  C   UNL A   1      33.843  25.290  23.295  1.00  0.00     0.029 A 
ATOM     28  C   UNL A   1      32.442  23.412  24.812  1.00  0.00     0.041 A 
ATOM     29  C   UNL A   1      33.894  23.930  22.960  1.00  0.00     0.041 A 
ATOM     30  C   UNL A   1      33.196  23.005  23.724  1.00  0.00     0.123 A 
ATOM     31  F   UNL A   1      33.254  21.704  23.412  1.00  0.00    -0.207 F 
ENDBRANCH  24  25
ENDBRANCH  17  18
ENDBRANCH   9  10
ENDBRANCH   8   9
ENDBRANCH   7   8
ENDBRANCH   5   7
ENDBRANCH   2   3
ENDBRANCH   1   2
BRANCH   1  32
ATOM     32  C   UNL A   1      41.562  35.453  28.944  1.00  0.00     0.002 C 
BRANCH  32  33
ATOM     33  C   UNL A   1      42.935  35.704  29.578  1.00  0.00     0.002 C 
BRANCH  33  34
ATOM     34  C   UNL A   1      43.603  37.022  29.186  1.00  0.00     0.021 C 
BRANCH  34  35
ATOM     35  C   UNL A   1      44.905  37.320  29.920  1.00  0.00     0.116 C 
BRANCH  35  36
ATOM     36  N   UNL A   1      46.047  37.392  29.020  1.00  0.00    -0.352 N 
ATOM     37  C   UNL A   1      46.667  36.380  28.328  1.00  0.00     0.251 C 
ATOM     38  H   UNL A   1      46.427  38.291  28.887  1.00  0.00     0.163 HD
ATOM     39  O   UNL A   1      47.724  36.585  27.738  1.00  0.00    -0.269 OA
BRANCH  37  40
ATOM     40  C   UNL A   1      46.068  35.029  28.319  1.00  0.00     0.039 A 
ATOM     41  C   UNL A   1      45.318  34.625  27.212  1.00  0.00     0.014 A 
ATOM     42  C   UNL A   1      46.266  34.156  29.392  1.00  0.00     0.014 A 
ATOM     43  C   UNL A   1      44.825  33.318  27.150  1.00  0.00     0.010 A 
ATOM     44  C   UNL A   1      45.838  32.836  29.296  1.00  0.00     0.010 A 
ATOM     45  C   UNL A   1      45.113  32.402  28.175  1.00  0.00    -0.014 A 
BRANCH  45  46
ATOM     46  C   UNL A   1      44.670  30.986  28.102  1.00  0.00     0.031 A 
ATOM     47  C   UNL A   1      45.559  29.954  27.462  1.00  0.00     0.074 A 
ATOM     48  C   UNL A   1      43.439  30.643  28.532  1.00  0.00     0.049 A 
ATOM     49  N   UNL A   1      45.308  28.696  27.200  1.00  0.00    -0.248 NA
ATOM     50  C   UNL A   1      46.898  30.399  27.037  1.00  0.00     0.031 C 
ATOM     51  C   UNL A   1      42.467  31.551  29.147  1.00  0.00     0.029 A 
ATOM     52  N   UNL A   1      42.786  29.434  28.502  1.00  0.00    -0.354 N 
ATOM     53  C   UNL A   1      46.441  28.212  26.556  1.00  0.00     0.074 A 
ATOM     54  C   UNL A   1      47.365  29.316  26.434  1.00  0.00     0.031 C 
ATOM     55  C   UNL A   1      41.353  30.864  29.451  1.00  0.00     0.029 A 
ATOM     56  C   UNL A   1      41.509  29.482  29.009  1.00  0.00     0.049 A 
ATOM     57  H   UNL A   1      43.195  28.611  28.151  1.00  0.00     0.167 HD
ATOM     58  C   UNL A   1      46.693  26.957  26.117  1.00  0.00     0.031 A 
ATOM     59  C   UNL A   1      40.563  28.527  29.091  1.00  0.00     0.031 A 
ATOM     60  C   UNL A   1      45.784  25.851  26.264  1.00  0.00     0.049 A 
ATOM     61  C   UNL A   1      40.866  27.145  28.573  1.00  0.00     0.074 A 
ATOM     62  C   UNL A   1      45.984  24.526  25.917  1.00  0.00     0.029 A 
ATOM     63  N   UNL A   1      44.510  25.940  26.797  1.00  0.00    -0.354 N 
ATOM     64  N   UNL A   1      41.972  26.686  28.040  1.00  0.00    -0.248 NA
ATOM     65  C   UNL A   1      39.792  26.147  28.678  1.00  0.00     0.031 C 
ATOM     66  C   UNL A   1      44.806  23.824  26.184  1.00  0.00     0.029 A 
ATOM     67  C   UNL A   1      43.898  24.699  26.760  1.00  0.00     0.049 A 
ATOM     68  H   UNL A   1      44.100  26.763  27.150  1.00  0.00     0.167 HD
ATOM     69  C   UNL A   1      41.740  25.340  27.786  1.00  0.00     0.074 A 
ATOM     70  C   UNL A   1      40.394  25.053  28.233  1.00  0.00     0.031 C 
ATOM     71  C   UNL A   1      42.568  24.422  27.231  1.00  0.00     0.031 A 
BRANCH  58  72
ATOM     72  C   UNL A   1      48.001  26.700  25.425  1.00  0.00    -0.014 A 
ATOM     73  C   UNL A   1      48.172  26.976  24.060  1.00  0.00     0.009 A 
ATOM     74  C   UNL A   1      49.103  26.252  26.171  1.00  0.00     0.009 A 
ATOM     75  C   UNL A   1      49.416  26.789  23.453  1.00  0.00     0.001 A 
ATOM     76  C   UNL A   1      50.352  26.093  25.568  1.00  0.00     0.001 A 
ATOM     77  C   UNL A   1      50.505  26.356  24.208  1.00  0.00     0.000 A 
ENDBRANCH  58  72
BRANCH  59  78
ATOM     78  C   UNL A   1      39.227  28.826  29.676  1.00  0.00    -0.014 A 
ATOM     79  C   UNL A   1      39.014  28.721  31.059  1.00  0.00     0.009 A 
ATOM     80  C   UNL A   1      38.144  29.162  28.849  1.00  0.00     0.009 A 
ATOM     81  C   UNL A   1      37.737  28.898  31.597  1.00  0.00     0.001 A 
ATOM     82  C   UNL A   1      36.875  29.375  29.394  1.00  0.00     0.001 A 
ATOM     83  C   UNL A   1      36.669  29.227  30.765  1.00  0.00     0.000 A 
ENDBRANCH  59  78
BRANCH  71  84
ATOM     84  C   UNL A   1      42.074  23.006  27.137  1.00  0.00    -0.014 A 
ATOM     85  C   UNL A   1      42.297  22.080  28.168  1.00  0.00     0.009 A 
ATOM     86  C   UNL A   1      41.321  22.613  26.019  1.00  0.00     0.009 A 
ATOM     87  C   UNL A   1      41.799  20.779  28.066  1.00  0.00     0.001 A 
ATOM     88  C   UNL A   1      40.797  21.323  25.936  1.00  0.00     0.001 A 
ATOM     89  C   UNL A   1      41.043  20.405  26.955  1.00  0.00     0.000 A 
ENDBRANCH  71  84
ENDBRANCH  45  46
ENDBRANCH  37  40
ENDBRANCH  35  36
ENDBRANCH  34  35
ENDBRANCH  33  34
ENDBRANCH  32  33
ENDBRANCH   1  32
TORSDOF 18
ENDMDL
MODEL 3
REMARK VINA RESULT:     -10.3      7.040     12.556
REMARK SMILES O=C(COCC(=O)N1CCC([NH+]2CCN(c3ccc(F)cc3)CC2)CC1)NCCCCCCNC(=O)c1ccc(-c2c3nc(c(-c4ccccc4)c4ccc([nH]4)c(-c4ccccc4)c4nc(c(-c5ccccc5)c5ccc2[nH]5)C=C4)C=C3)cc1
REMARK SMILES IDX 29 1 28 2 27 3 1 4 2 5 3 7 4 8 5 9 6 10 7 11 8 12 9 13 26 14
REMARK SMILES IDX 10 15 25 16 11 17 12 18 13 19 24 20 14 22 23 23 15 24 16 25
REMARK SMILES IDX 17 26 22 27 18 28 21 29 19 30 20 31 30 32 31 33 32 34 33 35
REMARK SMILES IDX 34 36 35 37 36 39 37 40 38 41 84 42 39 43 83 44 40 45 41 46
REMARK SMILES IDX 42 47 77 48 43 49 82 50 76 51 78 52 44 53 81 54 75 55 74 56
REMARK SMILES IDX 45 58 67 59 52 60 66 61 53 62 56 63 65 64 79 65 54 66 55 67
REMARK SMILES IDX 64 69 80 70 57 71 46 72 47 73 51 74 48 75 50 76 49 77 68 78
REMARK SMILES IDX 69 79 73 80 70 81 72 82 71 83 58 84 59 85 63 86 60 87 62 88
REMARK SMILES IDX 61 89
REMARK H PARENT 27 6 12 21 34 38 78 57 56 68
REMARK Flexibility Score: inf
ROOT
ATOM      1  C   UNL A   1      36.689  33.943  34.450  1.00  0.00     0.021 C 
ENDROOT
BRANCH   1   2
ATOM      2  C   UNL A   1      37.047  32.771  35.362  1.00  0.00     0.116 C 
BRANCH   2   3
ATOM      3  N   UNL A   1      37.753  31.739  34.639  1.00  0.00    -0.354 N 
ATOM      4  O   UNL A   1      39.810  32.127  35.592  1.00  0.00    -0.272 OA
ATOM      5  C   UNL A   1      39.100  31.506  34.810  1.00  0.00     0.246 C 
ATOM      6  H   UNL A   1      37.253  31.180  34.000  1.00  0.00     0.163 HD
BRANCH   5   7
ATOM      7  C   UNL A   1      39.664  30.450  33.857  1.00  0.00     0.260 C 
BRANCH   7   8
ATOM      8  O   UNL A   1      39.991  29.187  34.418  1.00  0.00    -0.362 OA
BRANCH   8   9
ATOM      9  C   UNL A   1      40.676  29.272  35.651  1.00  0.00     0.260 C 
BRANCH   9  10
ATOM     10  C   UNL A   1      42.145  28.846  35.832  1.00  0.00     0.248 C 
ATOM     11  O   UNL A   1      43.039  29.642  35.525  1.00  0.00    -0.272 OA
ATOM     12  N   UNL A   1      42.428  27.639  36.451  1.00  0.00    -0.340 N 
ATOM     13  C   UNL A   1      43.745  27.467  37.045  1.00  0.00     0.125 C 
ATOM     14  C   UNL A   1      41.523  26.499  36.607  1.00  0.00     0.125 C 
ATOM     15  C   UNL A   1      44.440  26.213  36.537  1.00  0.00     0.086 C 
ATOM     16  C   UNL A   1      42.182  25.211  36.087  1.00  0.00     0.086 C 
ATOM     17  C   UNL A   1      43.549  24.984  36.771  1.00  0.00     0.187 C 
BRANCH  17  18
ATOM     18  N   UNL A   1      44.171  23.679  36.508  1.00  0.00    -0.329 N 
ATOM     19  C   UNL A   1      44.170  23.101  35.150  1.00  0.00     0.284 C 
ATOM     20  C   UNL A   1      45.476  23.487  37.177  1.00  0.00     0.284 C 
ATOM     21  H   UNL A   1      43.456  23.108  36.958  1.00  0.00     0.348 HD
ATOM     22  C   UNL A   1      45.450  23.252  34.269  1.00  0.00     0.178 C 
ATOM     23  C   UNL A   1      46.708  23.818  36.313  1.00  0.00     0.178 C 
ATOM     24  N   UNL A   1      46.654  23.041  35.077  1.00  0.00    -0.360 N 
BRANCH  24  25
ATOM     25  C   UNL A   1      47.684  22.195  34.742  1.00  0.00     0.037 A 
ATOM     26  C   UNL A   1      47.426  20.856  34.398  1.00  0.00     0.029 A 
ATOM     27  C   UNL A   1      49.022  22.609  34.763  1.00  0.00     0.029 A 
ATOM     28  C   UNL A   1      48.453  19.954  34.118  1.00  0.00     0.041 A 
ATOM     29  C   UNL A   1      50.062  21.709  34.496  1.00  0.00     0.041 A 
ATOM     30  C   UNL A   1      49.767  20.389  34.181  1.00  0.00     0.123 A 
ATOM     31  F   UNL A   1      50.760  19.524  33.937  1.00  0.00    -0.207 F 
ENDBRANCH  24  25
ENDBRANCH  17  18
ENDBRANCH   9  10
ENDBRANCH   8   9
ENDBRANCH   7   8
ENDBRANCH   5   7
ENDBRANCH   2   3
ENDBRANCH   1   2
BRANCH   1  32
ATOM     32  C   UNL A   1      35.183  34.125  34.220  1.00  0.00     0.002 C 
BRANCH  32  33
ATOM     33  C   UNL A   1      34.779  35.417  33.501  1.00  0.00     0.002 C 
BRANCH  33  34
ATOM     34  C   UNL A   1      33.536  35.309  32.617  1.00  0.00     0.021 C 
BRANCH  34  35
ATOM     35  C   UNL A   1      33.630  36.050  31.289  1.00  0.00     0.116 C 
BRANCH  35  36
ATOM     36  N   UNL A   1      32.871  35.398  30.232  1.00  0.00    -0.352 N 
ATOM     37  C   UNL A   1      33.278  34.430  29.347  1.00  0.00     0.251 C 
ATOM     38  H   UNL A   1      31.935  35.690  30.140  1.00  0.00     0.163 HD
ATOM     39  O   UNL A   1      32.559  34.102  28.407  1.00  0.00    -0.269 OA
BRANCH  37  40
ATOM     40  C   UNL A   1      34.604  33.798  29.516  1.00  0.00     0.039 A 
ATOM     41  C   UNL A   1      35.659  34.199  28.693  1.00  0.00     0.014 A 
ATOM     42  C   UNL A   1      34.808  32.828  30.501  1.00  0.00     0.014 A 
ATOM     43  C   UNL A   1      36.938  33.676  28.904  1.00  0.00     0.010 A 
ATOM     44  C   UNL A   1      36.095  32.365  30.757  1.00  0.00     0.010 A 
ATOM     45  C   UNL A   1      37.174  32.784  29.962  1.00  0.00    -0.014 A 
BRANCH  45  46
ATOM     46  C   UNL A   1      38.536  32.271  30.261  1.00  0.00     0.031 A 
ATOM     47  C   UNL A   1      38.977  30.946  29.698  1.00  0.00     0.074 A 
ATOM     48  C   UNL A   1      39.342  32.949  31.103  1.00  0.00     0.049 A 
ATOM     49  N   UNL A   1      40.077  30.275  29.933  1.00  0.00    -0.248 NA
ATOM     50  C   UNL A   1      38.052  30.275  28.769  1.00  0.00     0.031 C 
ATOM     51  C   UNL A   1      39.024  34.230  31.739  1.00  0.00     0.029 A 
ATOM     52  N   UNL A   1      40.592  32.644  31.583  1.00  0.00    -0.354 N 
ATOM     53  C   UNL A   1      39.960  29.095  29.208  1.00  0.00     0.074 A 
ATOM     54  C   UNL A   1      38.672  29.124  28.554  1.00  0.00     0.031 C 
ATOM     55  C   UNL A   1      40.059  34.608  32.509  1.00  0.00     0.029 A 
ATOM     56  C   UNL A   1      41.090  33.576  32.462  1.00  0.00     0.049 A 
ATOM     57  H   UNL A   1      41.086  31.834  31.321  1.00  0.00     0.167 HD
ATOM     58  C   UNL A   1      40.853  28.084  29.087  1.00  0.00     0.031 A 
ATOM     59  C   UNL A   1      42.237  33.590  33.167  1.00  0.00     0.031 A 
ATOM     60  C   UNL A   1      42.146  28.069  29.715  1.00  0.00     0.049 A 
ATOM     61  C   UNL A   1      43.200  32.440  33.029  1.00  0.00     0.074 A 
ATOM     62  C   UNL A   1      43.148  27.121  29.591  1.00  0.00     0.029 A 
ATOM     63  N   UNL A   1      42.616  29.039  30.583  1.00  0.00    -0.354 N 
ATOM     64  N   UNL A   1      43.107  31.370  32.276  1.00  0.00    -0.248 NA
ATOM     65  C   UNL A   1      44.430  32.503  33.832  1.00  0.00     0.031 C 
ATOM     66  C   UNL A   1      44.201  27.488  30.433  1.00  0.00     0.029 A 
ATOM     67  C   UNL A   1      43.881  28.698  31.028  1.00  0.00     0.049 A 
ATOM     68  H   UNL A   1      42.123  29.850  30.845  1.00  0.00     0.167 HD
ATOM     69  C   UNL A   1      44.283  30.659  32.483  1.00  0.00     0.074 A 
ATOM     70  C   UNL A   1      45.077  31.422  33.421  1.00  0.00     0.031 C 
ATOM     71  C   UNL A   1      44.671  29.479  31.943  1.00  0.00     0.031 A 
BRANCH  58  72
ATOM     72  C   UNL A   1      40.466  26.897  28.250  1.00  0.00    -0.014 A 
ATOM     73  C   UNL A   1      39.625  25.893  28.751  1.00  0.00     0.009 A 
ATOM     74  C   UNL A   1      40.886  26.828  26.912  1.00  0.00     0.009 A 
ATOM     75  C   UNL A   1      39.229  24.832  27.934  1.00  0.00     0.001 A 
ATOM     76  C   UNL A   1      40.466  25.782  26.090  1.00  0.00     0.001 A 
ATOM     77  C   UNL A   1      39.642  24.782  26.603  1.00  0.00     0.000 A 
ENDBRANCH  58  72
BRANCH  59  78
ATOM     78  C   UNL A   1      42.555  34.720  34.083  1.00  0.00    -0.014 A 
ATOM     79  C   UNL A   1      43.277  35.832  33.621  1.00  0.00     0.009 A 
ATOM     80  C   UNL A   1      42.188  34.668  35.437  1.00  0.00     0.009 A 
ATOM     81  C   UNL A   1      43.667  36.842  34.503  1.00  0.00     0.001 A 
ATOM     82  C   UNL A   1      42.547  35.698  36.310  1.00  0.00     0.001 A 
ATOM     83  C   UNL A   1      43.301  36.776  35.846  1.00  0.00     0.000 A 
ENDBRANCH  59  78
BRANCH  71  84
ATOM     84  C   UNL A   1      46.038  28.967  32.296  1.00  0.00    -0.014 A 
ATOM     85  C   UNL A   1      47.171  29.322  31.548  1.00  0.00     0.009 A 
ATOM     86  C   UNL A   1      46.200  28.164  33.437  1.00  0.00     0.009 A 
ATOM     87  C   UNL A   1      48.435  28.857  31.919  1.00  0.00     0.001 A 
ATOM     88  C   UNL A   1      47.467  27.728  33.823  1.00  0.00     0.001 A 
ATOM     89  C   UNL A   1      48.582  28.068  33.059  1.00  0.00     0.000 A 
ENDBRANCH  71  84
ENDBRANCH  45  46
ENDBRANCH  37  40
ENDBRANCH  35  36
ENDBRANCH  34  35
ENDBRANCH  33  34
ENDBRANCH  32  33
ENDBRANCH   1  32
TORSDOF 18
ENDMDL
