MODEL 1
REMARK VINA RESULT:     -12.0      0.000      0.000
REMARK SMILES CC1=C(C)C[C@@H](C(=O)NCCCCCCNC(=O)c2ccc(-c3c4nc(c(-c5ccccc5)c5ccc([nH]5)c(-c5ccccc5)c5nc(c(-c6ccccc6)c6ccc3[nH]6)C=C5)C=C4)cc2)[C@@H](C(=O)N2CCN(c3cccc(C(F)(F)F)c3)CC2)C1
REMARK SMILES IDX 12 1 11 2 10 3 9 4 7 5 8 6 6 8 1 9 2 10 3 11 86 12 4 13 5 14
REMARK SMILES IDX 67 15 68 16 69 17 70 18 71 19 85 20 72 21 84 22 73 23 74 24
REMARK SMILES IDX 75 25 83 26 76 27 78 28 77 29 79 30 80 31 81 32 82 33 13 34
REMARK SMILES IDX 14 35 15 36 16 37 17 38 18 40 19 41 20 42 66 43 21 44 65 45
REMARK SMILES IDX 22 46 23 47 24 48 59 49 25 50 64 51 58 52 60 53 26 54 63 55
REMARK SMILES IDX 57 56 56 57 27 59 49 60 34 61 48 62 35 63 38 64 47 65 61 66
REMARK SMILES IDX 36 67 37 68 46 70 62 71 39 72 28 73 29 74 33 75 30 76 32 77
REMARK SMILES IDX 31 78 50 79 51 80 55 81 52 82 54 83 53 84 40 85 41 86 45 87
REMARK SMILES IDX 42 88 44 89 43 90
REMARK H PARENT 9 7 16 39 60 58 38 69
REMARK Flexibility Score: inf
ROOT
ATOM      1  C   UNL A   1      37.316  21.950  24.614  1.00  0.00     0.002 C 
ENDROOT
BRANCH   1   2
ATOM      2  C   UNL A   1      36.741  22.568  23.341  1.00  0.00     0.021 C 
BRANCH   2   3
ATOM      3  C   UNL A   1      35.357  23.175  23.548  1.00  0.00     0.116 C 
BRANCH   3   4
ATOM      4  N   UNL A   1      35.304  24.262  24.499  1.00  0.00    -0.356 N 
ATOM      5  C   UNL A   1      34.320  24.711  25.313  1.00  0.00     0.224 C 
ATOM      6  O   UNL A   1      34.583  25.678  26.038  1.00  0.00    -0.275 OA
ATOM      7  H   UNL A   1      36.144  24.773  24.568  1.00  0.00     0.163 HD
BRANCH   5   8
ATOM      8  C   UNL A   1      32.925  24.092  25.386  1.00  0.00     0.095 C 
ATOM      9  C   UNL A   1      32.147  20.673  22.679  1.00  0.00     0.039 C 
ATOM     10  C   UNL A   1      32.235  21.734  23.752  1.00  0.00    -0.074 C 
ATOM     11  C   UNL A   1      32.739  21.537  24.990  1.00  0.00    -0.074 C 
ATOM     12  C   UNL A   1      31.799  23.102  23.261  1.00  0.00     0.045 C 
ATOM     13  C   UNL A   1      33.285  20.233  25.520  1.00  0.00     0.039 C 
ATOM     14  C   UNL A   1      32.904  22.678  25.969  1.00  0.00     0.045 C 
ATOM     15  C   UNL A   1      32.005  24.318  24.188  1.00  0.00     0.095 C 
BRANCH  15  16
ATOM     16  C   UNL A   1      32.412  25.524  23.330  1.00  0.00     0.226 C 
ATOM     17  O   UNL A   1      33.381  25.551  22.581  1.00  0.00    -0.275 OA
ATOM     18  N   UNL A   1      31.512  26.558  23.308  1.00  0.00    -0.339 N 
ATOM     19  C   UNL A   1      31.304  27.242  22.031  1.00  0.00     0.141 C 
ATOM     20  C   UNL A   1      31.420  27.432  24.475  1.00  0.00     0.141 C 
ATOM     21  C   UNL A   1      29.926  27.908  22.006  1.00  0.00     0.138 C 
ATOM     22  C   UNL A   1      30.097  28.205  24.502  1.00  0.00     0.138 C 
ATOM     23  N   UNL A   1      29.780  28.769  23.184  1.00  0.00    -0.368 N 
BRANCH  23  24
ATOM     24  C   UNL A   1      29.478  30.096  23.007  1.00  0.00     0.037 A 
ATOM     25  C   UNL A   1      29.641  31.004  24.058  1.00  0.00     0.026 A 
ATOM     26  C   UNL A   1      28.958  30.565  21.797  1.00  0.00     0.039 A 
ATOM     27  C   UNL A   1      29.309  32.349  23.908  1.00  0.00     0.003 A 
ATOM     28  C   UNL A   1      28.589  31.908  21.635  1.00  0.00     0.058 A 
ATOM     29  C   UNL A   1      28.782  32.800  22.701  1.00  0.00     0.013 A 
BRANCH  28  30
ATOM     30  C   UNL A   1      27.979  32.392  20.346  1.00  0.00     0.416 C 
ATOM     31  F   UNL A   1      27.189  33.488  20.523  1.00  0.00    -0.166 F 
ATOM     32  F   UNL A   1      28.919  32.754  19.429  1.00  0.00    -0.166 F 
ATOM     33  F   UNL A   1      27.193  31.465  19.729  1.00  0.00    -0.166 F 
ENDBRANCH  28  30
ENDBRANCH  23  24
ENDBRANCH  15  16
ENDBRANCH   5   8
ENDBRANCH   3   4
ENDBRANCH   2   3
ENDBRANCH   1   2
BRANCH   1  34
ATOM     34  C   UNL A   1      36.880  20.496  24.802  1.00  0.00     0.002 C 
BRANCH  34  35
ATOM     35  C   UNL A   1      38.045  19.533  25.057  1.00  0.00     0.021 C 
BRANCH  35  36
ATOM     36  C   UNL A   1      39.212  20.175  25.798  1.00  0.00     0.116 C 
BRANCH  36  37
ATOM     37  N   UNL A   1      40.345  19.268  25.860  1.00  0.00    -0.352 N 
ATOM     38  C   UNL A   1      41.668  19.580  26.031  1.00  0.00     0.251 C 
ATOM     39  H   UNL A   1      40.135  18.310  25.765  1.00  0.00     0.163 HD
ATOM     40  O   UNL A   1      42.548  18.776  25.757  1.00  0.00    -0.269 OA
BRANCH  38  41
ATOM     41  C   UNL A   1      42.013  20.915  26.556  1.00  0.00     0.039 A 
ATOM     42  C   UNL A   1      42.416  21.911  25.668  1.00  0.00     0.014 A 
ATOM     43  C   UNL A   1      41.925  21.171  27.928  1.00  0.00     0.014 A 
ATOM     44  C   UNL A   1      42.699  23.186  26.156  1.00  0.00     0.010 A 
ATOM     45  C   UNL A   1      42.137  22.461  28.401  1.00  0.00     0.010 A 
ATOM     46  C   UNL A   1      42.539  23.476  27.522  1.00  0.00    -0.014 A 
BRANCH  46  47
ATOM     47  C   UNL A   1      42.801  24.837  28.048  1.00  0.00     0.031 A 
ATOM     48  C   UNL A   1      44.190  25.225  28.476  1.00  0.00     0.074 A 
ATOM     49  C   UNL A   1      41.780  25.703  28.188  1.00  0.00     0.049 A 
ATOM     50  N   UNL A   1      44.608  26.351  28.996  1.00  0.00    -0.248 NA
ATOM     51  C   UNL A   1      45.244  24.207  28.322  1.00  0.00     0.031 C 
ATOM     52  C   UNL A   1      40.381  25.429  27.849  1.00  0.00     0.029 A 
ATOM     53  N   UNL A   1      41.760  26.991  28.661  1.00  0.00    -0.354 N 
ATOM     54  C   UNL A   1      45.962  26.170  29.246  1.00  0.00     0.074 A 
ATOM     55  C   UNL A   1      46.287  24.814  28.868  1.00  0.00     0.031 C 
ATOM     56  C   UNL A   1      39.646  26.525  28.098  1.00  0.00     0.029 A 
ATOM     57  C   UNL A   1      40.510  27.561  28.655  1.00  0.00     0.049 A 
ATOM     58  H   UNL A   1      42.566  27.463  28.973  1.00  0.00     0.167 HD
ATOM     59  C   UNL A   1      46.859  27.062  29.729  1.00  0.00     0.031 A 
ATOM     60  C   UNL A   1      40.104  28.778  29.062  1.00  0.00     0.031 A 
ATOM     61  C   UNL A   1      46.534  28.415  30.093  1.00  0.00     0.049 A 
ATOM     62  C   UNL A   1      41.120  29.744  29.606  1.00  0.00     0.074 A 
ATOM     63  C   UNL A   1      47.385  29.415  30.531  1.00  0.00     0.029 A 
ATOM     64  N   UNL A   1      45.259  28.957  30.064  1.00  0.00    -0.354 N 
ATOM     65  N   UNL A   1      42.413  29.585  29.761  1.00  0.00    -0.248 NA
ATOM     66  C   UNL A   1      40.621  31.062  30.023  1.00  0.00     0.031 C 
ATOM     67  C   UNL A   1      46.614  30.543  30.828  1.00  0.00     0.029 A 
ATOM     68  C   UNL A   1      45.294  30.267  30.509  1.00  0.00     0.049 A 
ATOM     69  H   UNL A   1      44.449  28.480  29.772  1.00  0.00     0.167 HD
ATOM     70  C   UNL A   1      42.884  30.791  30.263  1.00  0.00     0.074 A 
ATOM     71  C   UNL A   1      41.743  31.676  30.368  1.00  0.00     0.031 C 
ATOM     72  C   UNL A   1      44.149  31.135  30.608  1.00  0.00     0.031 A 
BRANCH  59  73
ATOM     73  C   UNL A   1      48.279  26.600  29.904  1.00  0.00    -0.014 A 
ATOM     74  C   UNL A   1      48.695  25.945  31.074  1.00  0.00     0.009 A 
ATOM     75  C   UNL A   1      49.202  26.775  28.861  1.00  0.00     0.009 A 
ATOM     76  C   UNL A   1      50.013  25.501  31.206  1.00  0.00     0.001 A 
ATOM     77  C   UNL A   1      50.510  26.305  28.984  1.00  0.00     0.001 A 
ATOM     78  C   UNL A   1      50.916  25.675  30.159  1.00  0.00     0.000 A 
ENDBRANCH  59  73
BRANCH  60  79
ATOM     79  C   UNL A   1      38.669  29.157  28.973  1.00  0.00    -0.014 A 
ATOM     80  C   UNL A   1      38.143  29.706  27.793  1.00  0.00     0.009 A 
ATOM     81  C   UNL A   1      37.820  28.993  30.079  1.00  0.00     0.009 A 
ATOM     82  C   UNL A   1      36.809  30.115  27.734  1.00  0.00     0.001 A 
ATOM     83  C   UNL A   1      36.478  29.371  30.007  1.00  0.00     0.001 A 
ATOM     84  C   UNL A   1      35.977  29.944  28.839  1.00  0.00     0.000 A 
ENDBRANCH  60  79
BRANCH  72  85
ATOM     85  C   UNL A   1      44.373  32.539  31.096  1.00  0.00    -0.014 A 
ATOM     86  C   UNL A   1      44.704  33.576  30.211  1.00  0.00     0.009 A 
ATOM     87  C   UNL A   1      44.207  32.833  32.459  1.00  0.00     0.009 A 
ATOM     88  C   UNL A   1      44.901  34.874  30.689  1.00  0.00     0.001 A 
ATOM     89  C   UNL A   1      44.372  34.137  32.928  1.00  0.00     0.001 A 
ATOM     90  C   UNL A   1      44.729  35.153  32.045  1.00  0.00     0.000 A 
ENDBRANCH  72  85
ENDBRANCH  46  47
ENDBRANCH  38  41
ENDBRANCH  36  37
ENDBRANCH  35  36
ENDBRANCH  34  35
ENDBRANCH   1  34
TORSDOF 16
ENDMDL
MODEL 2
REMARK VINA RESULT:     -11.9      2.298      3.070
REMARK SMILES CC1=C(C)C[C@@H](C(=O)NCCCCCCNC(=O)c2ccc(-c3c4nc(c(-c5ccccc5)c5ccc([nH]5)c(-c5ccccc5)c5nc(c(-c6ccccc6)c6ccc3[nH]6)C=C5)C=C4)cc2)[C@@H](C(=O)N2CCN(c3cccc(C(F)(F)F)c3)CC2)C1
REMARK SMILES IDX 12 1 11 2 10 3 9 4 7 5 8 6 6 8 1 9 2 10 3 11 86 12 4 13 5 14
REMARK SMILES IDX 67 15 68 16 69 17 70 18 71 19 85 20 72 21 84 22 73 23 74 24
REMARK SMILES IDX 75 25 83 26 76 27 78 28 77 29 79 30 80 31 81 32 82 33 13 34
REMARK SMILES IDX 14 35 15 36 16 37 17 38 18 40 19 41 20 42 66 43 21 44 65 45
REMARK SMILES IDX 22 46 23 47 24 48 59 49 25 50 64 51 58 52 60 53 26 54 63 55
REMARK SMILES IDX 57 56 56 57 27 59 49 60 34 61 48 62 35 63 38 64 47 65 61 66
REMARK SMILES IDX 36 67 37 68 46 70 62 71 39 72 28 73 29 74 33 75 30 76 32 77
REMARK SMILES IDX 31 78 50 79 51 80 55 81 52 82 54 83 53 84 40 85 41 86 45 87
REMARK SMILES IDX 42 88 44 89 43 90
REMARK H PARENT 9 7 16 39 60 58 38 69
REMARK Flexibility Score: inf
ROOT
ATOM      1  C   UNL A   1      37.765  21.597  25.009  1.00  0.00     0.002 C 
ENDROOT
BRANCH   1   2
ATOM      2  C   UNL A   1      37.251  20.195  24.685  1.00  0.00     0.021 C 
BRANCH   2   3
ATOM      3  C   UNL A   1      35.789  19.993  25.072  1.00  0.00     0.116 C 
BRANCH   3   4
ATOM      4  N   UNL A   1      35.289  20.920  26.062  1.00  0.00    -0.356 N 
ATOM      5  C   UNL A   1      34.032  21.250  26.446  1.00  0.00     0.224 C 
ATOM      6  O   UNL A   1      33.919  22.089  27.347  1.00  0.00    -0.275 OA
ATOM      7  H   UNL A   1      35.995  21.404  26.550  1.00  0.00     0.163 HD
BRANCH   5   8
ATOM      8  C   UNL A   1      32.768  20.645  25.837  1.00  0.00     0.095 C 
ATOM      9  C   UNL A   1      33.371  17.642  22.637  1.00  0.00     0.039 C 
ATOM     10  C   UNL A   1      32.947  18.544  23.773  1.00  0.00    -0.074 C 
ATOM     11  C   UNL A   1      32.888  18.171  25.071  1.00  0.00    -0.074 C 
ATOM     12  C   UNL A   1      32.696  19.972  23.326  1.00  0.00     0.045 C 
ATOM     13  C   UNL A   1      33.220  16.799  25.609  1.00  0.00     0.039 C 
ATOM     14  C   UNL A   1      32.570  19.164  26.166  1.00  0.00     0.045 C 
ATOM     15  C   UNL A   1      32.432  21.046  24.402  1.00  0.00     0.095 C 
BRANCH  15  16
ATOM     16  C   UNL A   1      33.107  22.353  23.963  1.00  0.00     0.226 C 
ATOM     17  O   UNL A   1      34.239  22.432  23.503  1.00  0.00    -0.275 OA
ATOM     18  N   UNL A   1      32.295  23.457  23.953  1.00  0.00    -0.339 N 
ATOM     19  C   UNL A   1      32.462  24.405  22.851  1.00  0.00     0.141 C 
ATOM     20  C   UNL A   1      31.940  24.078  25.227  1.00  0.00     0.141 C 
ATOM     21  C   UNL A   1      31.172  25.201  22.637  1.00  0.00     0.138 C 
ATOM     22  C   UNL A   1      30.694  24.962  25.100  1.00  0.00     0.138 C 
ATOM     23  N   UNL A   1      30.762  25.813  23.905  1.00  0.00    -0.368 N 
BRANCH  23  24
ATOM     24  C   UNL A   1      30.581  27.172  23.962  1.00  0.00     0.037 A 
ATOM     25  C   UNL A   1      29.760  27.815  23.028  1.00  0.00     0.026 A 
ATOM     26  C   UNL A   1      31.243  27.952  24.914  1.00  0.00     0.039 A 
ATOM     27  C   UNL A   1      29.589  29.197  23.049  1.00  0.00     0.003 A 
ATOM     28  C   UNL A   1      31.108  29.349  24.933  1.00  0.00     0.058 A 
ATOM     29  C   UNL A   1      30.263  29.964  23.997  1.00  0.00     0.013 A 
BRANCH  28  30
ATOM     30  C   UNL A   1      31.868  30.185  25.928  1.00  0.00     0.416 C 
ATOM     31  F   UNL A   1      31.777  29.697  27.197  1.00  0.00    -0.166 F 
ATOM     32  F   UNL A   1      33.200  30.245  25.648  1.00  0.00    -0.166 F 
ATOM     33  F   UNL A   1      31.444  31.478  25.997  1.00  0.00    -0.166 F 
ENDBRANCH  28  30
ENDBRANCH  23  24
ENDBRANCH  15  16
ENDBRANCH   5   8
ENDBRANCH   3   4
ENDBRANCH   2   3
ENDBRANCH   1   2
BRANCH   1  34
ATOM     34  C   UNL A   1      38.995  21.570  25.918  1.00  0.00     0.002 C 
BRANCH  34  35
ATOM     35  C   UNL A   1      39.796  20.266  25.829  1.00  0.00     0.021 C 
BRANCH  35  36
ATOM     36  C   UNL A   1      41.004  20.232  26.758  1.00  0.00     0.116 C 
BRANCH  36  37
ATOM     37  N   UNL A   1      42.181  19.751  26.056  1.00  0.00    -0.352 N 
ATOM     38  C   UNL A   1      43.216  20.486  25.540  1.00  0.00     0.251 C 
ATOM     39  H   UNL A   1      42.241  18.775  25.935  1.00  0.00     0.163 HD
ATOM     40  O   UNL A   1      43.979  20.008  24.712  1.00  0.00    -0.269 OA
BRANCH  38  41
ATOM     41  C   UNL A   1      43.393  21.874  26.005  1.00  0.00     0.039 A 
ATOM     42  C   UNL A   1      43.285  22.918  25.087  1.00  0.00     0.014 A 
ATOM     43  C   UNL A   1      43.654  22.131  27.355  1.00  0.00     0.014 A 
ATOM     44  C   UNL A   1      43.407  24.233  25.533  1.00  0.00     0.010 A 
ATOM     45  C   UNL A   1      43.703  23.445  27.808  1.00  0.00     0.010 A 
ATOM     46  C   UNL A   1      43.593  24.507  26.899  1.00  0.00    -0.014 A 
BRANCH  46  47
ATOM     47  C   UNL A   1      43.687  25.902  27.392  1.00  0.00     0.031 A 
ATOM     48  C   UNL A   1      45.028  26.575  27.496  1.00  0.00     0.074 A 
ATOM     49  C   UNL A   1      42.572  26.542  27.792  1.00  0.00     0.049 A 
ATOM     50  N   UNL A   1      45.317  27.772  27.939  1.00  0.00    -0.248 NA
ATOM     51  C   UNL A   1      46.202  25.794  27.070  1.00  0.00     0.031 C 
ATOM     52  C   UNL A   1      41.219  25.980  27.779  1.00  0.00     0.029 A 
ATOM     53  N   UNL A   1      42.401  27.807  28.295  1.00  0.00    -0.354 N 
ATOM     54  C   UNL A   1      46.700  27.879  27.861  1.00  0.00     0.074 A 
ATOM     55  C   UNL A   1      47.197  26.612  27.376  1.00  0.00     0.031 C 
ATOM     56  C   UNL A   1      40.355  26.906  28.226  1.00  0.00     0.029 A 
ATOM     57  C   UNL A   1      41.095  28.107  28.598  1.00  0.00     0.049 A 
ATOM     58  H   UNL A   1      43.144  28.440  28.426  1.00  0.00     0.167 HD
ATOM     59  C   UNL A   1      47.483  28.945  28.149  1.00  0.00     0.031 A 
ATOM     60  C   UNL A   1      40.556  29.222  29.125  1.00  0.00     0.031 A 
ATOM     61  C   UNL A   1      46.983  30.209  28.620  1.00  0.00     0.049 A 
ATOM     62  C   UNL A   1      41.451  30.386  29.448  1.00  0.00     0.074 A 
ATOM     63  C   UNL A   1      47.690  31.370  28.879  1.00  0.00     0.029 A 
ATOM     64  N   UNL A   1      45.653  30.476  28.906  1.00  0.00    -0.354 N 
ATOM     65  N   UNL A   1      42.749  30.499  29.292  1.00  0.00    -0.248 NA
ATOM     66  C   UNL A   1      40.805  31.581  30.009  1.00  0.00     0.031 C 
ATOM     67  C   UNL A   1      46.796  32.321  29.381  1.00  0.00     0.029 A 
ATOM     68  C   UNL A   1      45.524  31.773  29.370  1.00  0.00     0.049 A 
ATOM     69  H   UNL A   1      44.913  29.837  28.795  1.00  0.00     0.167 HD
ATOM     70  C   UNL A   1      43.068  31.785  29.708  1.00  0.00     0.074 A 
ATOM     71  C   UNL A   1      41.827  32.419  30.103  1.00  0.00     0.031 C 
ATOM     72  C   UNL A   1      44.281  32.389  29.760  1.00  0.00     0.031 A 
BRANCH  59  73
ATOM     73  C   UNL A   1      48.969  28.788  27.975  1.00  0.00    -0.014 A 
ATOM     74  C   UNL A   1      49.778  28.301  29.013  1.00  0.00     0.009 A 
ATOM     75  C   UNL A   1      49.559  29.083  26.736  1.00  0.00     0.009 A 
ATOM     76  C   UNL A   1      51.153  28.139  28.822  1.00  0.00     0.001 A 
ATOM     77  C   UNL A   1      50.927  28.892  26.538  1.00  0.00     0.001 A 
ATOM     78  C   UNL A   1      51.724  28.428  27.584  1.00  0.00     0.000 A 
ENDBRANCH  59  73
BRANCH  60  79
ATOM     79  C   UNL A   1      39.093  29.296  29.385  1.00  0.00    -0.014 A 
ATOM     80  C   UNL A   1      38.205  29.704  28.377  1.00  0.00     0.009 A 
ATOM     81  C   UNL A   1      38.579  28.979  30.652  1.00  0.00     0.009 A 
ATOM     82  C   UNL A   1      36.840  29.829  28.643  1.00  0.00     0.001 A 
ATOM     83  C   UNL A   1      37.209  29.071  30.906  1.00  0.00     0.001 A 
ATOM     84  C   UNL A   1      36.343  29.510  29.905  1.00  0.00     0.000 A 
ENDBRANCH  60  79
BRANCH  72  85
ATOM     85  C   UNL A   1      44.320  33.817  30.225  1.00  0.00    -0.014 A 
ATOM     86  C   UNL A   1      44.507  34.141  31.577  1.00  0.00     0.009 A 
ATOM     87  C   UNL A   1      44.210  34.855  29.285  1.00  0.00     0.009 A 
ATOM     88  C   UNL A   1      44.545  35.476  31.983  1.00  0.00     0.001 A 
ATOM     89  C   UNL A   1      44.282  36.188  29.689  1.00  0.00     0.001 A 
ATOM     90  C   UNL A   1      44.439  36.498  31.039  1.00  0.00     0.000 A 
ENDBRANCH  72  85
ENDBRANCH  46  47
ENDBRANCH  38  41
ENDBRANCH  36  37
ENDBRANCH  35  36
ENDBRANCH  34  35
ENDBRANCH   1  34
TORSDOF 16
ENDMDL
MODEL 3
REMARK VINA RESULT:     -11.7      1.946      2.880
REMARK SMILES CC1=C(C)C[C@@H](C(=O)NCCCCCCNC(=O)c2ccc(-c3c4nc(c(-c5ccccc5)c5ccc([nH]5)c(-c5ccccc5)c5nc(c(-c6ccccc6)c6ccc3[nH]6)C=C5)C=C4)cc2)[C@@H](C(=O)N2CCN(c3cccc(C(F)(F)F)c3)CC2)C1
REMARK SMILES IDX 12 1 11 2 10 3 9 4 7 5 8 6 6 8 1 9 2 10 3 11 86 12 4 13 5 14
REMARK SMILES IDX 67 15 68 16 69 17 70 18 71 19 85 20 72 21 84 22 73 23 74 24
REMARK SMILES IDX 75 25 83 26 76 27 78 28 77 29 79 30 80 31 81 32 82 33 13 34
REMARK SMILES IDX 14 35 15 36 16 37 17 38 18 40 19 41 20 42 66 43 21 44 65 45
REMARK SMILES IDX 22 46 23 47 24 48 59 49 25 50 64 51 58 52 60 53 26 54 63 55
REMARK SMILES IDX 57 56 56 57 27 59 49 60 34 61 48 62 35 63 38 64 47 65 61 66
REMARK SMILES IDX 36 67 37 68 46 70 62 71 39 72 28 73 29 74 33 75 30 76 32 77
REMARK SMILES IDX 31 78 50 79 51 80 55 81 52 82 54 83 53 84 40 85 41 86 45 87
REMARK SMILES IDX 42 88 44 89 43 90
REMARK H PARENT 9 7 16 39 60 58 38 69
REMARK Flexibility Score: inf
ROOT
ATOM      1  C   UNL A   1      40.038  22.480  27.115  1.00  0.00     0.002 C 
ENDROOT
BRANCH   1   2
ATOM      2  C   UNL A   1      39.709  23.833  26.486  1.00  0.00     0.021 C 
BRANCH   2   3
ATOM      3  C   UNL A   1      38.210  24.062  26.317  1.00  0.00     0.116 C 
BRANCH   3   4
ATOM      4  N   UNL A   1      37.686  23.716  25.015  1.00  0.00    -0.356 N 
ATOM      5  C   UNL A   1      36.608  22.990  24.633  1.00  0.00     0.224 C 
ATOM      6  O   UNL A   1      36.407  22.875  23.417  1.00  0.00    -0.275 OA
ATOM      7  H   UNL A   1      38.211  24.076  24.263  1.00  0.00     0.163 HD
BRANCH   5   8
ATOM      8  C   UNL A   1      35.640  22.322  25.608  1.00  0.00     0.095 C 
ATOM      9  C   UNL A   1      32.318  20.010  23.807  1.00  0.00     0.039 C 
ATOM     10  C   UNL A   1      33.426  20.641  24.619  1.00  0.00    -0.074 C 
ATOM     11  C   UNL A   1      34.612  20.053  24.890  1.00  0.00    -0.074 C 
ATOM     12  C   UNL A   1      33.120  22.073  25.015  1.00  0.00     0.045 C 
ATOM     13  C   UNL A   1      35.032  18.672  24.446  1.00  0.00     0.039 C 
ATOM     14  C   UNL A   1      35.718  20.794  25.608  1.00  0.00     0.045 C 
ATOM     15  C   UNL A   1      34.230  22.905  25.691  1.00  0.00     0.095 C 
BRANCH  15  16
ATOM     16  C   UNL A   1      34.139  24.348  25.178  1.00  0.00     0.226 C 
ATOM     17  O   UNL A   1      35.102  25.080  24.980  1.00  0.00    -0.275 OA
ATOM     18  N   UNL A   1      32.891  24.750  24.775  1.00  0.00    -0.339 N 
ATOM     19  C   UNL A   1      32.809  25.591  23.581  1.00  0.00     0.141 C 
ATOM     20  C   UNL A   1      31.891  25.058  25.794  1.00  0.00     0.141 C 
ATOM     21  C   UNL A   1      31.429  25.457  22.933  1.00  0.00     0.138 C 
ATOM     22  C   UNL A   1      30.469  25.022  25.223  1.00  0.00     0.138 C 
ATOM     23  N   UNL A   1      30.393  25.725  23.936  1.00  0.00    -0.368 N 
BRANCH  23  24
ATOM     24  C   UNL A   1      29.467  26.708  23.691  1.00  0.00     0.037 A 
ATOM     25  C   UNL A   1      28.116  26.495  23.985  1.00  0.00     0.026 A 
ATOM     26  C   UNL A   1      29.836  27.921  23.101  1.00  0.00     0.039 A 
ATOM     27  C   UNL A   1      27.156  27.468  23.714  1.00  0.00     0.003 A 
ATOM     28  C   UNL A   1      28.882  28.901  22.793  1.00  0.00     0.058 A 
ATOM     29  C   UNL A   1      27.537  28.668  23.117  1.00  0.00     0.013 A 
BRANCH  28  30
ATOM     30  C   UNL A   1      29.283  30.180  22.108  1.00  0.00     0.416 C 
ATOM     31  F   UNL A   1      29.367  31.231  22.972  1.00  0.00    -0.166 F 
ATOM     32  F   UNL A   1      30.504  30.090  21.510  1.00  0.00    -0.166 F 
ATOM     33  F   UNL A   1      28.418  30.574  21.130  1.00  0.00    -0.166 F 
ENDBRANCH  28  30
ENDBRANCH  23  24
ENDBRANCH  15  16
ENDBRANCH   5   8
ENDBRANCH   3   4
ENDBRANCH   2   3
ENDBRANCH   1   2
BRANCH   1  34
ATOM     34  C   UNL A   1      39.688  21.311  26.193  1.00  0.00     0.002 C 
BRANCH  34  35
ATOM     35  C   UNL A   1      40.519  20.050  26.457  1.00  0.00     0.021 C 
BRANCH  35  36
ATOM     36  C   UNL A   1      41.896  20.343  27.041  1.00  0.00     0.116 C 
BRANCH  36  37
ATOM     37  N   UNL A   1      42.940  20.034  26.080  1.00  0.00    -0.352 N 
ATOM     38  C   UNL A   1      43.744  20.907  25.396  1.00  0.00     0.251 C 
ATOM     39  H   UNL A   1      43.087  19.077  25.896  1.00  0.00     0.163 HD
ATOM     40  O   UNL A   1      44.359  20.552  24.400  1.00  0.00    -0.269 OA
BRANCH  38  41
ATOM     41  C   UNL A   1      43.854  22.293  25.887  1.00  0.00     0.039 A 
ATOM     42  C   UNL A   1      43.417  23.339  25.076  1.00  0.00     0.014 A 
ATOM     43  C   UNL A   1      44.381  22.545  27.158  1.00  0.00     0.014 A 
ATOM     44  C   UNL A   1      43.478  24.647  25.556  1.00  0.00     0.010 A 
ATOM     45  C   UNL A   1      44.373  23.841  27.662  1.00  0.00     0.010 A 
ATOM     46  C   UNL A   1      43.934  24.904  26.860  1.00  0.00    -0.014 A 
BRANCH  46  47
ATOM     47  C   UNL A   1      43.970  26.286  27.397  1.00  0.00     0.031 A 
ATOM     48  C   UNL A   1      45.283  27.005  27.541  1.00  0.00     0.074 A 
ATOM     49  C   UNL A   1      42.826  26.872  27.800  1.00  0.00     0.049 A 
ATOM     50  N   UNL A   1      45.520  28.197  28.025  1.00  0.00    -0.248 NA
ATOM     51  C   UNL A   1      46.491  26.281  27.109  1.00  0.00     0.031 C 
ATOM     52  C   UNL A   1      41.495  26.260  27.750  1.00  0.00     0.029 A 
ATOM     53  N   UNL A   1      42.601  28.113  28.340  1.00  0.00    -0.354 N 
ATOM     54  C   UNL A   1      46.899  28.357  27.971  1.00  0.00     0.074 A 
ATOM     55  C   UNL A   1      47.450  27.125  27.455  1.00  0.00     0.031 C 
ATOM     56  C   UNL A   1      40.591  27.139  28.213  1.00  0.00     0.029 A 
ATOM     57  C   UNL A   1      41.280  28.355  28.632  1.00  0.00     0.049 A 
ATOM     58  H   UNL A   1      43.318  28.768  28.501  1.00  0.00     0.167 HD
ATOM     59  C   UNL A   1      47.638  29.442  28.303  1.00  0.00     0.031 A 
ATOM     60  C   UNL A   1      40.693  29.432  29.186  1.00  0.00     0.031 A 
ATOM     61  C   UNL A   1      47.085  30.671  28.806  1.00  0.00     0.049 A 
ATOM     62  C   UNL A   1      41.540  30.617  29.558  1.00  0.00     0.074 A 
ATOM     63  C   UNL A   1      47.745  31.849  29.110  1.00  0.00     0.029 A 
ATOM     64  N   UNL A   1      45.742  30.880  29.080  1.00  0.00    -0.354 N 
ATOM     65  N   UNL A   1      42.834  30.783  29.424  1.00  0.00    -0.248 NA
ATOM     66  C   UNL A   1      40.842  31.769  30.146  1.00  0.00     0.031 C 
ATOM     67  C   UNL A   1      46.809  32.750  29.629  1.00  0.00     0.029 A 
ATOM     68  C   UNL A   1      45.558  32.156  29.582  1.00  0.00     0.049 A 
ATOM     69  H   UNL A   1      45.028  30.218  28.939  1.00  0.00     0.167 HD
ATOM     70  C   UNL A   1      43.099  32.067  29.884  1.00  0.00     0.074 A 
ATOM     71  C   UNL A   1      41.830  32.641  30.280  1.00  0.00     0.031 C 
ATOM     72  C   UNL A   1      44.288  32.713  29.972  1.00  0.00     0.031 A 
BRANCH  59  73
ATOM     73  C   UNL A   1      49.131  29.346  28.146  1.00  0.00    -0.014 A 
ATOM     74  C   UNL A   1      49.782  29.870  27.019  1.00  0.00     0.009 A 
ATOM     75  C   UNL A   1      49.903  28.770  29.168  1.00  0.00     0.009 A 
ATOM     76  C   UNL A   1      51.171  29.793  26.904  1.00  0.00     0.001 A 
ATOM     77  C   UNL A   1      51.293  28.721  29.064  1.00  0.00     0.001 A 
ATOM     78  C   UNL A   1      51.926  29.226  27.929  1.00  0.00     0.000 A 
ENDBRANCH  59  73
BRANCH  60  79
ATOM     79  C   UNL A   1      39.225  29.443  29.426  1.00  0.00    -0.014 A 
ATOM     80  C   UNL A   1      38.697  29.039  30.663  1.00  0.00     0.009 A 
ATOM     81  C   UNL A   1      38.341  29.838  28.409  1.00  0.00     0.009 A 
ATOM     82  C   UNL A   1      37.316  28.994  30.863  1.00  0.00     0.001 A 
ATOM     83  C   UNL A   1      36.961  29.826  28.624  1.00  0.00     0.001 A 
ATOM     84  C   UNL A   1      36.450  29.391  29.846  1.00  0.00     0.000 A 
ENDBRANCH  60  79
BRANCH  72  85
ATOM     85  C   UNL A   1      44.268  34.127  30.481  1.00  0.00    -0.014 A 
ATOM     86  C   UNL A   1      44.424  34.415  31.846  1.00  0.00     0.009 A 
ATOM     87  C   UNL A   1      44.132  35.188  29.572  1.00  0.00     0.009 A 
ATOM     88  C   UNL A   1      44.406  35.737  32.294  1.00  0.00     0.001 A 
ATOM     89  C   UNL A   1      44.148  36.510  30.019  1.00  0.00     0.001 A 
ATOM     90  C   UNL A   1      44.275  36.783  31.379  1.00  0.00     0.000 A 
ENDBRANCH  72  85
ENDBRANCH  46  47
ENDBRANCH  38  41
ENDBRANCH  36  37
ENDBRANCH  35  36
ENDBRANCH  34  35
ENDBRANCH   1  34
TORSDOF 16
ENDMDL
