MODEL 1
REMARK VINA RESULT:     -10.4      0.000      0.000
REMARK SMILES C[C@H](O)C[C@@H](Cc1cccc(Br)c1)C(=O)NCCCCCCNC(=O)c1ccc(-c2c3nc(c(-c4ccccc4)c4ccc([nH]4)c(-c4ccccc4)c4nc(c(-c5ccccc5)c5ccc2[nH]5)C=C4)C=C3)cc1
REMARK SMILES IDX 19 1 18 2 17 3 16 4 14 5 15 6 5 8 4 9 2 10 1 11 3 12 6 14
REMARK SMILES IDX 7 15 8 16 13 17 9 18 11 19 10 20 12 21 20 22 21 23 22 24
REMARK SMILES IDX 23 25 24 26 25 28 26 29 27 30 73 31 28 32 72 33 29 34 30 35
REMARK SMILES IDX 31 36 66 37 32 38 71 39 65 40 67 41 33 42 70 43 64 44 63 45
REMARK SMILES IDX 34 47 56 48 41 49 55 50 42 51 45 52 54 53 68 54 43 55 44 56
REMARK SMILES IDX 53 58 69 59 46 60 35 61 36 62 40 63 37 64 39 65 38 66 57 67
REMARK SMILES IDX 58 68 62 69 59 70 61 71 60 72 47 73 48 74 52 75 49 76 51 77
REMARK SMILES IDX 50 78
REMARK H PARENT 16 7 3 13 23 27 67 46 45 57
REMARK Flexibility Score: inf
ROOT
ATOM      1  C   UNL A   1      32.365  29.874  26.362  1.00  0.00     0.002 C 
ENDROOT
BRANCH   1   2
ATOM      2  C   UNL A   1      31.766  28.884  27.361  1.00  0.00     0.021 C 
BRANCH   2   3
ATOM      3  C   UNL A   1      32.104  27.420  27.112  1.00  0.00     0.116 C 
BRANCH   3   4
ATOM      4  N   UNL A   1      31.053  26.658  26.486  1.00  0.00    -0.356 N 
ATOM      5  C   UNL A   1      30.826  26.434  25.163  1.00  0.00     0.223 C 
ATOM      6  O   UNL A   1      29.978  25.581  24.876  1.00  0.00    -0.275 OA
ATOM      7  H   UNL A   1      30.410  26.240  27.103  1.00  0.00     0.163 HD
BRANCH   5   8
ATOM      8  C   UNL A   1      31.545  27.198  24.040  1.00  0.00     0.085 C 
BRANCH   8   9
ATOM      9  C   UNL A   1      32.966  26.666  23.779  1.00  0.00     0.045 C 
BRANCH   9  10
ATOM     10  C   UNL A   1      33.060  25.621  22.659  1.00  0.00     0.112 C 
ATOM     11  C   UNL A   1      33.672  24.325  23.182  1.00  0.00     0.038 C 
BRANCH  10  12
ATOM     12  O   UNL A   1      33.890  26.108  21.611  1.00  0.00    -0.393 OA
ATOM     13  H   UNL A   1      34.700  25.577  21.567  1.00  0.00     0.210 HD
ENDBRANCH  10  12
ENDBRANCH   9  10
ENDBRANCH   8   9
BRANCH   8  14
ATOM     14  C   UNL A   1      30.645  27.570  22.835  1.00  0.00     0.049 C 
BRANCH  14  15
ATOM     15  C   UNL A   1      29.451  28.492  22.964  1.00  0.00    -0.046 A 
ATOM     16  C   UNL A   1      28.136  28.028  23.125  1.00  0.00     0.004 A 
ATOM     17  C   UNL A   1      29.643  29.881  22.858  1.00  0.00     0.019 A 
ATOM     18  C   UNL A   1      27.070  28.916  23.303  1.00  0.00     0.001 A 
ATOM     19  C   UNL A   1      28.570  30.765  22.993  1.00  0.00     0.018 A 
ATOM     20  C   UNL A   1      27.287  30.288  23.242  1.00  0.00     0.016 A 
ATOM     21  Br  UNL A   1      28.859  32.626  22.833  1.00  0.00    -0.051 Br
ENDBRANCH  14  15
ENDBRANCH   8  14
ENDBRANCH   5   8
ENDBRANCH   3   4
ENDBRANCH   2   3
ENDBRANCH   1   2
BRANCH   1  22
ATOM     22  C   UNL A   1      31.396  30.902  25.766  1.00  0.00     0.002 C 
BRANCH  22  23
ATOM     23  C   UNL A   1      31.204  32.200  26.556  1.00  0.00     0.021 C 
BRANCH  23  24
ATOM     24  C   UNL A   1      32.457  32.763  27.223  1.00  0.00     0.116 C 
BRANCH  24  25
ATOM     25  N   UNL A   1      32.298  34.147  27.632  1.00  0.00    -0.352 N 
ATOM     26  C   UNL A   1      32.993  34.889  28.553  1.00  0.00     0.251 C 
ATOM     27  H   UNL A   1      31.574  34.633  27.174  1.00  0.00     0.163 HD
ATOM     28  O   UNL A   1      32.587  36.004  28.867  1.00  0.00    -0.269 OA
BRANCH  26  29
ATOM     29  C   UNL A   1      34.220  34.357  29.189  1.00  0.00     0.039 A 
ATOM     30  C   UNL A   1      34.108  33.716  30.427  1.00  0.00     0.014 A 
ATOM     31  C   UNL A   1      35.478  34.523  28.605  1.00  0.00     0.014 A 
ATOM     32  C   UNL A   1      35.244  33.194  31.050  1.00  0.00     0.010 A 
ATOM     33  C   UNL A   1      36.602  33.946  29.196  1.00  0.00     0.010 A 
ATOM     34  C   UNL A   1      36.498  33.277  30.426  1.00  0.00    -0.014 A 
BRANCH  34  35
ATOM     35  C   UNL A   1      37.708  32.672  31.040  1.00  0.00     0.031 A 
ATOM     36  C   UNL A   1      38.345  31.453  30.426  1.00  0.00     0.074 A 
ATOM     37  C   UNL A   1      38.198  33.178  32.189  1.00  0.00     0.049 A 
ATOM     38  N   UNL A   1      39.357  30.744  30.859  1.00  0.00    -0.248 NA
ATOM     39  C   UNL A   1      37.753  30.952  29.175  1.00  0.00     0.031 C 
ATOM     40  C   UNL A   1      37.660  34.338  32.905  1.00  0.00     0.029 A 
ATOM     41  N   UNL A   1      39.258  32.774  32.964  1.00  0.00    -0.354 N 
ATOM     42  C   UNL A   1      39.504  29.703  29.952  1.00  0.00     0.074 A 
ATOM     43  C   UNL A   1      38.459  29.851  28.963  1.00  0.00     0.031 C 
ATOM     44  C   UNL A   1      38.404  34.564  34.000  1.00  0.00     0.029 A 
ATOM     45  C   UNL A   1      39.443  33.542  34.089  1.00  0.00     0.049 A 
ATOM     46  H   UNL A   1      39.831  32.007  32.736  1.00  0.00     0.167 HD
ATOM     47  C   UNL A   1      40.433  28.717  29.937  1.00  0.00     0.031 A 
ATOM     48  C   UNL A   1      40.340  33.431  35.087  1.00  0.00     0.031 A 
ATOM     49  C   UNL A   1      41.492  28.584  30.901  1.00  0.00     0.049 A 
ATOM     50  C   UNL A   1      41.353  32.319  35.047  1.00  0.00     0.074 A 
ATOM     51  C   UNL A   1      42.528  27.665  30.920  1.00  0.00     0.029 A 
ATOM     52  N   UNL A   1      41.649  29.389  32.018  1.00  0.00    -0.354 N 
ATOM     53  N   UNL A   1      41.527  31.391  34.139  1.00  0.00    -0.248 NA
ATOM     54  C   UNL A   1      42.298  32.245  36.172  1.00  0.00     0.031 C 
ATOM     55  C   UNL A   1      43.280  27.878  32.079  1.00  0.00     0.029 A 
ATOM     56  C   UNL A   1      42.745  28.966  32.750  1.00  0.00     0.049 A 
ATOM     57  H   UNL A   1      41.068  30.146  32.255  1.00  0.00     0.167 HD
ATOM     58  C   UNL A   1      42.621  30.647  34.562  1.00  0.00     0.074 A 
ATOM     59  C   UNL A   1      43.078  31.239  35.802  1.00  0.00     0.031 C 
ATOM     60  C   UNL A   1      43.196  29.570  33.976  1.00  0.00     0.031 A 
BRANCH  47  61
ATOM     61  C   UNL A   1      40.346  27.687  28.845  1.00  0.00    -0.014 A 
ATOM     62  C   UNL A   1      39.598  26.510  29.007  1.00  0.00     0.009 A 
ATOM     63  C   UNL A   1      40.966  27.932  27.609  1.00  0.00     0.009 A 
ATOM     64  C   UNL A   1      39.496  25.588  27.963  1.00  0.00     0.001 A 
ATOM     65  C   UNL A   1      40.840  27.022  26.558  1.00  0.00     0.001 A 
ATOM     66  C   UNL A   1      40.111  25.847  26.739  1.00  0.00     0.000 A 
ENDBRANCH  47  61
BRANCH  48  67
ATOM     67  C   UNL A   1      40.335  34.398  36.217  1.00  0.00    -0.014 A 
ATOM     68  C   UNL A   1      39.547  34.160  37.355  1.00  0.00     0.009 A 
ATOM     69  C   UNL A   1      41.086  35.582  36.149  1.00  0.00     0.009 A 
ATOM     70  C   UNL A   1      39.483  35.104  38.382  1.00  0.00     0.001 A 
ATOM     71  C   UNL A   1      41.045  36.509  37.192  1.00  0.00     0.001 A 
ATOM     72  C   UNL A   1      40.233  36.276  38.301  1.00  0.00     0.000 A 
ENDBRANCH  48  67
BRANCH  60  73
ATOM     73  C   UNL A   1      44.411  28.990  34.640  1.00  0.00    -0.014 A 
ATOM     74  C   UNL A   1      45.692  29.516  34.411  1.00  0.00     0.009 A 
ATOM     75  C   UNL A   1      44.265  27.926  35.545  1.00  0.00     0.009 A 
ATOM     76  C   UNL A   1      46.805  28.969  35.051  1.00  0.00     0.001 A 
ATOM     77  C   UNL A   1      45.375  27.400  36.207  1.00  0.00     0.001 A 
ATOM     78  C   UNL A   1      46.645  27.916  35.952  1.00  0.00     0.000 A 
ENDBRANCH  60  73
ENDBRANCH  34  35
ENDBRANCH  26  29
ENDBRANCH  24  25
ENDBRANCH  23  24
ENDBRANCH  22  23
ENDBRANCH   1  22
TORSDOF 18
ENDMDL
MODEL 2
REMARK VINA RESULT:     -10.4      5.915     10.505
REMARK SMILES C[C@H](O)C[C@@H](Cc1cccc(Br)c1)C(=O)NCCCCCCNC(=O)c1ccc(-c2c3nc(c(-c4ccccc4)c4ccc([nH]4)c(-c4ccccc4)c4nc(c(-c5ccccc5)c5ccc2[nH]5)C=C4)C=C3)cc1
REMARK SMILES IDX 19 1 18 2 17 3 16 4 14 5 15 6 5 8 4 9 2 10 1 11 3 12 6 14
REMARK SMILES IDX 7 15 8 16 13 17 9 18 11 19 10 20 12 21 20 22 21 23 22 24
REMARK SMILES IDX 23 25 24 26 25 28 26 29 27 30 73 31 28 32 72 33 29 34 30 35
REMARK SMILES IDX 31 36 66 37 32 38 71 39 65 40 67 41 33 42 70 43 64 44 63 45
REMARK SMILES IDX 34 47 56 48 41 49 55 50 42 51 45 52 54 53 68 54 43 55 44 56
REMARK SMILES IDX 53 58 69 59 46 60 35 61 36 62 40 63 37 64 39 65 38 66 57 67
REMARK SMILES IDX 58 68 62 69 59 70 61 71 60 72 47 73 48 74 52 75 49 76 51 77
REMARK SMILES IDX 50 78
REMARK H PARENT 16 7 3 13 23 27 67 46 45 57
REMARK Flexibility Score: inf
ROOT
ATOM      1  C   UNL A   1      37.050  22.051  24.434  1.00  0.00     0.002 C 
ENDROOT
BRANCH   1   2
ATOM      2  C   UNL A   1      36.315  22.755  23.294  1.00  0.00     0.021 C 
BRANCH   2   3
ATOM      3  C   UNL A   1      35.004  23.427  23.678  1.00  0.00     0.116 C 
BRANCH   3   4
ATOM      4  N   UNL A   1      33.845  22.930  22.980  1.00  0.00    -0.356 N 
ATOM      5  C   UNL A   1      32.773  22.250  23.469  1.00  0.00     0.223 C 
ATOM      6  O   UNL A   1      31.807  22.105  22.712  1.00  0.00    -0.275 OA
ATOM      7  H   UNL A   1      33.826  23.109  22.012  1.00  0.00     0.163 HD
BRANCH   5   8
ATOM      8  C   UNL A   1      32.728  21.647  24.882  1.00  0.00     0.085 C 
BRANCH   8   9
ATOM      9  C   UNL A   1      32.348  22.685  25.955  1.00  0.00     0.045 C 
BRANCH   9  10
ATOM     10  C   UNL A   1      33.360  22.815  27.103  1.00  0.00     0.112 C 
ATOM     11  C   UNL A   1      34.297  21.612  27.132  1.00  0.00     0.038 C 
BRANCH  10  12
ATOM     12  O   UNL A   1      32.675  22.870  28.348  1.00  0.00    -0.393 OA
ATOM     13  H   UNL A   1      33.204  23.375  28.985  1.00  0.00     0.210 HD
ENDBRANCH  10  12
ENDBRANCH   9  10
ENDBRANCH   8   9
BRANCH   8  14
ATOM     14  C   UNL A   1      32.116  20.226  24.958  1.00  0.00     0.049 C 
BRANCH  14  15
ATOM     15  C   UNL A   1      32.751  19.029  24.280  1.00  0.00    -0.046 A 
ATOM     16  C   UNL A   1      32.418  18.616  22.981  1.00  0.00     0.004 A 
ATOM     17  C   UNL A   1      33.675  18.247  24.996  1.00  0.00     0.019 A 
ATOM     18  C   UNL A   1      33.074  17.542  22.371  1.00  0.00     0.001 A 
ATOM     19  C   UNL A   1      34.297  17.148  24.399  1.00  0.00     0.018 A 
ATOM     20  C   UNL A   1      34.020  16.808  23.078  1.00  0.00     0.016 A 
ATOM     21  Br  UNL A   1      35.525  16.109  25.391  1.00  0.00    -0.051 Br
ENDBRANCH  14  15
ENDBRANCH   8  14
ENDBRANCH   5   8
ENDBRANCH   3   4
ENDBRANCH   2   3
ENDBRANCH   1   2
BRANCH   1  22
ATOM     22  C   UNL A   1      36.687  20.580  24.666  1.00  0.00     0.002 C 
BRANCH  22  23
ATOM     23  C   UNL A   1      37.855  19.613  24.885  1.00  0.00     0.021 C 
BRANCH  23  24
ATOM     24  C   UNL A   1      38.999  20.138  25.749  1.00  0.00     0.116 C 
BRANCH  24  25
ATOM     25  N   UNL A   1      40.122  19.220  25.807  1.00  0.00    -0.352 N 
ATOM     26  C   UNL A   1      41.443  19.446  26.100  1.00  0.00     0.251 C 
ATOM     27  H   UNL A   1      39.900  18.282  25.603  1.00  0.00     0.163 HD
ATOM     28  O   UNL A   1      42.265  18.550  25.932  1.00  0.00    -0.269 OA
BRANCH  26  29
ATOM     29  C   UNL A   1      41.896  20.763  26.602  1.00  0.00     0.039 A 
ATOM     30  C   UNL A   1      42.375  21.701  25.681  1.00  0.00     0.014 A 
ATOM     31  C   UNL A   1      41.900  21.065  27.966  1.00  0.00     0.014 A 
ATOM     32  C   UNL A   1      42.802  22.957  26.119  1.00  0.00     0.010 A 
ATOM     33  C   UNL A   1      42.265  22.341  28.396  1.00  0.00     0.010 A 
ATOM     34  C   UNL A   1      42.723  23.300  27.478  1.00  0.00    -0.014 A 
BRANCH  34  35
ATOM     35  C   UNL A   1      43.110  24.652  27.957  1.00  0.00     0.031 A 
ATOM     36  C   UNL A   1      42.056  25.689  28.242  1.00  0.00     0.074 A 
ATOM     37  C   UNL A   1      44.414  24.970  28.075  1.00  0.00     0.049 A 
ATOM     38  N   UNL A   1      42.205  26.941  28.596  1.00  0.00    -0.248 NA
ATOM     39  C   UNL A   1      40.653  25.272  28.088  1.00  0.00     0.031 C 
ATOM     40  C   UNL A   1      45.538  24.069  27.804  1.00  0.00     0.029 A 
ATOM     41  N   UNL A   1      45.018  26.148  28.445  1.00  0.00    -0.354 N 
ATOM     42  C   UNL A   1      40.922  27.466  28.678  1.00  0.00     0.074 A 
ATOM     43  C   UNL A   1      40.007  26.409  28.306  1.00  0.00     0.031 C 
ATOM     44  C   UNL A   1      46.690  24.719  28.036  1.00  0.00     0.029 A 
ATOM     45  C   UNL A   1      46.391  26.092  28.430  1.00  0.00     0.049 A 
ATOM     46  H   UNL A   1      44.514  26.955  28.697  1.00  0.00     0.167 HD
ATOM     47  C   UNL A   1      40.537  28.713  29.041  1.00  0.00     0.031 A 
ATOM     48  C   UNL A   1      47.309  27.043  28.693  1.00  0.00     0.031 A 
ATOM     49  C   UNL A   1      41.442  29.758  29.440  1.00  0.00     0.049 A 
ATOM     50  C   UNL A   1      46.850  28.421  29.083  1.00  0.00     0.074 A 
ATOM     51  C   UNL A   1      41.140  31.027  29.903  1.00  0.00     0.029 A 
ATOM     52  N   UNL A   1      42.823  29.656  29.421  1.00  0.00    -0.354 N 
ATOM     53  N   UNL A   1      45.631  28.876  29.234  1.00  0.00    -0.248 NA
ATOM     54  C   UNL A   1      47.901  29.417  29.346  1.00  0.00     0.031 C 
ATOM     55  C   UNL A   1      42.340  31.714  30.110  1.00  0.00     0.029 A 
ATOM     56  C   UNL A   1      43.388  30.852  29.831  1.00  0.00     0.049 A 
ATOM     57  H   UNL A   1      43.328  28.855  29.154  1.00  0.00     0.167 HD
ATOM     58  C   UNL A   1      45.767  30.196  29.643  1.00  0.00     0.074 A 
ATOM     59  C   UNL A   1      47.187  30.466  29.730  1.00  0.00     0.031 C 
ATOM     60  C   UNL A   1      44.801  31.104  29.924  1.00  0.00     0.031 A 
BRANCH  47  61
ATOM     61  C   UNL A   1      39.068  29.030  29.016  1.00  0.00    -0.014 A 
ATOM     62  C   UNL A   1      38.261  28.851  30.150  1.00  0.00     0.009 A 
ATOM     63  C   UNL A   1      38.497  29.582  27.858  1.00  0.00     0.009 A 
ATOM     64  C   UNL A   1      36.907  29.193  30.116  1.00  0.00     0.001 A 
ATOM     65  C   UNL A   1      37.151  29.949  27.835  1.00  0.00     0.001 A 
ATOM     66  C   UNL A   1      36.355  29.746  28.962  1.00  0.00     0.000 A 
ENDBRANCH  47  61
BRANCH  48  67
ATOM     67  C   UNL A   1      48.760  26.734  28.602  1.00  0.00    -0.014 A 
ATOM     68  C   UNL A   1      49.455  26.924  27.396  1.00  0.00     0.009 A 
ATOM     69  C   UNL A   1      49.452  26.213  29.707  1.00  0.00     0.009 A 
ATOM     70  C   UNL A   1      50.799  26.563  27.288  1.00  0.00     0.001 A 
ATOM     71  C   UNL A   1      50.804  25.883  29.605  1.00  0.00     0.001 A 
ATOM     72  C   UNL A   1      51.474  26.046  28.393  1.00  0.00     0.000 A 
ENDBRANCH  48  67
BRANCH  60  73
ATOM     73  C   UNL A   1      45.245  32.459  30.396  1.00  0.00    -0.014 A 
ATOM     74  C   UNL A   1      45.470  32.722  31.756  1.00  0.00     0.009 A 
ATOM     75  C   UNL A   1      45.483  33.476  29.458  1.00  0.00     0.009 A 
ATOM     76  C   UNL A   1      45.896  33.985  32.169  1.00  0.00     0.001 A 
ATOM     77  C   UNL A   1      45.936  34.729  29.871  1.00  0.00     0.001 A 
ATOM     78  C   UNL A   1      46.133  34.985  31.227  1.00  0.00     0.000 A 
ENDBRANCH  60  73
ENDBRANCH  34  35
ENDBRANCH  26  29
ENDBRANCH  24  25
ENDBRANCH  23  24
ENDBRANCH  22  23
ENDBRANCH   1  22
TORSDOF 18
ENDMDL
MODEL 3
REMARK VINA RESULT:     -10.4      5.318     10.013
REMARK SMILES C[C@H](O)C[C@@H](Cc1cccc(Br)c1)C(=O)NCCCCCCNC(=O)c1ccc(-c2c3nc(c(-c4ccccc4)c4ccc([nH]4)c(-c4ccccc4)c4nc(c(-c5ccccc5)c5ccc2[nH]5)C=C4)C=C3)cc1
REMARK SMILES IDX 19 1 18 2 17 3 16 4 14 5 15 6 5 8 4 9 2 10 1 11 3 12 6 14
REMARK SMILES IDX 7 15 8 16 13 17 9 18 11 19 10 20 12 21 20 22 21 23 22 24
REMARK SMILES IDX 23 25 24 26 25 28 26 29 27 30 73 31 28 32 72 33 29 34 30 35
REMARK SMILES IDX 31 36 66 37 32 38 71 39 65 40 67 41 33 42 70 43 64 44 63 45
REMARK SMILES IDX 34 47 56 48 41 49 55 50 42 51 45 52 54 53 68 54 43 55 44 56
REMARK SMILES IDX 53 58 69 59 46 60 35 61 36 62 40 63 37 64 39 65 38 66 57 67
REMARK SMILES IDX 58 68 62 69 59 70 61 71 60 72 47 73 48 74 52 75 49 76 51 77
REMARK SMILES IDX 50 78
REMARK H PARENT 16 7 3 13 23 27 67 46 45 57
REMARK Flexibility Score: inf
ROOT
ATOM      1  C   UNL A   1      37.247  22.152  24.551  1.00  0.00     0.002 C 
ENDROOT
BRANCH   1   2
ATOM      2  C   UNL A   1      36.568  22.851  23.375  1.00  0.00     0.021 C 
BRANCH   2   3
ATOM      3  C   UNL A   1      35.379  23.731  23.736  1.00  0.00     0.116 C 
BRANCH   3   4
ATOM      4  N   UNL A   1      34.143  23.368  23.088  1.00  0.00    -0.356 N 
ATOM      5  C   UNL A   1      33.132  22.579  23.545  1.00  0.00     0.223 C 
ATOM      6  O   UNL A   1      32.083  22.577  22.891  1.00  0.00    -0.275 OA
ATOM      7  H   UNL A   1      34.011  23.745  22.188  1.00  0.00     0.163 HD
BRANCH   5   8
ATOM      8  C   UNL A   1      33.251  21.694  24.795  1.00  0.00     0.085 C 
BRANCH   8   9
ATOM      9  C   UNL A   1      33.315  22.515  26.097  1.00  0.00     0.045 C 
BRANCH   9  10
ATOM     10  C   UNL A   1      31.987  23.168  26.505  1.00  0.00     0.112 C 
ATOM     11  C   UNL A   1      32.093  24.688  26.436  1.00  0.00     0.038 C 
BRANCH  10  12
ATOM     12  O   UNL A   1      31.662  22.810  27.842  1.00  0.00    -0.393 OA
ATOM     13  H   UNL A   1      31.447  21.865  27.880  1.00  0.00     0.210 HD
ENDBRANCH  10  12
ENDBRANCH   9  10
ENDBRANCH   8   9
BRANCH   8  14
ATOM     14  C   UNL A   1      32.390  20.407  24.757  1.00  0.00     0.049 C 
BRANCH  14  15
ATOM     15  C   UNL A   1      32.894  19.107  24.165  1.00  0.00    -0.046 A 
ATOM     16  C   UNL A   1      32.466  18.611  22.924  1.00  0.00     0.004 A 
ATOM     17  C   UNL A   1      33.789  18.316  24.909  1.00  0.00     0.019 A 
ATOM     18  C   UNL A   1      33.005  17.437  22.386  1.00  0.00     0.001 A 
ATOM     19  C   UNL A   1      34.292  17.122  24.388  1.00  0.00     0.018 A 
ATOM     20  C   UNL A   1      33.924  16.693  23.117  1.00  0.00     0.016 A 
ATOM     21  Br  UNL A   1      35.482  16.075  25.418  1.00  0.00    -0.051 Br
ENDBRANCH  14  15
ENDBRANCH   8  14
ENDBRANCH   5   8
ENDBRANCH   3   4
ENDBRANCH   2   3
ENDBRANCH   1   2
BRANCH   1  22
ATOM     22  C   UNL A   1      36.890  20.675  24.757  1.00  0.00     0.002 C 
BRANCH  22  23
ATOM     23  C   UNL A   1      38.063  19.697  24.871  1.00  0.00     0.021 C 
BRANCH  23  24
ATOM     24  C   UNL A   1      39.047  19.968  26.006  1.00  0.00     0.116 C 
BRANCH  24  25
ATOM     25  N   UNL A   1      40.273  19.200  25.878  1.00  0.00    -0.352 N 
ATOM     26  C   UNL A   1      41.582  19.580  26.032  1.00  0.00     0.251 C 
ATOM     27  H   UNL A   1      40.145  18.252  25.644  1.00  0.00     0.163 HD
ATOM     28  O   UNL A   1      42.481  18.807  25.715  1.00  0.00    -0.269 OA
BRANCH  26  29
ATOM     29  C   UNL A   1      41.928  20.920  26.559  1.00  0.00     0.039 A 
ATOM     30  C   UNL A   1      42.325  21.912  25.656  1.00  0.00     0.014 A 
ATOM     31  C   UNL A   1      41.912  21.195  27.929  1.00  0.00     0.014 A 
ATOM     32  C   UNL A   1      42.650  23.190  26.118  1.00  0.00     0.010 A 
ATOM     33  C   UNL A   1      42.174  22.487  28.383  1.00  0.00     0.010 A 
ATOM     34  C   UNL A   1      42.548  23.498  27.484  1.00  0.00    -0.014 A 
BRANCH  34  35
ATOM     35  C   UNL A   1      42.825  24.868  27.989  1.00  0.00     0.031 A 
ATOM     36  C   UNL A   1      44.218  25.257  28.408  1.00  0.00     0.074 A 
ATOM     37  C   UNL A   1      41.811  25.744  28.133  1.00  0.00     0.049 A 
ATOM     38  N   UNL A   1      44.636  26.378  28.941  1.00  0.00    -0.248 NA
ATOM     39  C   UNL A   1      45.274  24.248  28.228  1.00  0.00     0.031 C 
ATOM     40  C   UNL A   1      40.410  25.486  27.792  1.00  0.00     0.029 A 
ATOM     41  N   UNL A   1      41.802  27.030  28.615  1.00  0.00    -0.354 N 
ATOM     42  C   UNL A   1      45.992  26.199  29.183  1.00  0.00     0.074 A 
ATOM     43  C   UNL A   1      46.322  24.851  28.771  1.00  0.00     0.031 C 
ATOM     44  C   UNL A   1      39.683  26.584  28.056  1.00  0.00     0.029 A 
ATOM     45  C   UNL A   1      40.555  27.608  28.624  1.00  0.00     0.049 A 
ATOM     46  H   UNL A   1      42.612  27.495  28.926  1.00  0.00     0.167 HD
ATOM     47  C   UNL A   1      46.886  27.080  29.693  1.00  0.00     0.031 A 
ATOM     48  C   UNL A   1      40.154  28.820  29.051  1.00  0.00     0.031 A 
ATOM     49  C   UNL A   1      46.569  28.429  30.076  1.00  0.00     0.049 A 
ATOM     50  C   UNL A   1      41.169  29.773  29.622  1.00  0.00     0.074 A 
ATOM     51  C   UNL A   1      47.425  29.420  30.524  1.00  0.00     0.029 A 
ATOM     52  N   UNL A   1      45.296  28.976  30.058  1.00  0.00    -0.354 N 
ATOM     53  N   UNL A   1      42.462  29.614  29.768  1.00  0.00    -0.248 NA
ATOM     54  C   UNL A   1      40.667  31.076  30.082  1.00  0.00     0.031 C 
ATOM     55  C   UNL A   1      46.662  30.550  30.833  1.00  0.00     0.029 A 
ATOM     56  C   UNL A   1      45.340  30.281  30.520  1.00  0.00     0.049 A 
ATOM     57  H   UNL A   1      44.483  28.508  29.762  1.00  0.00     0.167 HD
ATOM     58  C   UNL A   1      42.931  30.808  30.301  1.00  0.00     0.074 A 
ATOM     59  C   UNL A   1      41.788  31.685  30.440  1.00  0.00     0.031 C 
ATOM     60  C   UNL A   1      44.197  31.147  30.644  1.00  0.00     0.031 A 
BRANCH  47  61
ATOM     61  C   UNL A   1      48.303  26.613  29.880  1.00  0.00    -0.014 A 
ATOM     62  C   UNL A   1      48.699  25.925  31.038  1.00  0.00     0.009 A 
ATOM     63  C   UNL A   1      49.239  26.805  28.851  1.00  0.00     0.009 A 
ATOM     64  C   UNL A   1      50.011  25.462  31.171  1.00  0.00     0.001 A 
ATOM     65  C   UNL A   1      50.541  26.318  28.975  1.00  0.00     0.001 A 
ATOM     66  C   UNL A   1      50.927  25.654  30.138  1.00  0.00     0.000 A 
ENDBRANCH  47  61
BRANCH  48  67
ATOM     67  C   UNL A   1      38.725  29.217  28.959  1.00  0.00    -0.014 A 
ATOM     68  C   UNL A   1      37.867  29.057  30.059  1.00  0.00     0.009 A 
ATOM     69  C   UNL A   1      38.199  29.724  27.759  1.00  0.00     0.009 A 
ATOM     70  C   UNL A   1      36.508  29.358  29.949  1.00  0.00     0.001 A 
ATOM     71  C   UNL A   1      36.846  30.054  27.661  1.00  0.00     0.001 A 
ATOM     72  C   UNL A   1      35.999  29.859  28.752  1.00  0.00     0.000 A 
ENDBRANCH  48  67
BRANCH  60  73
ATOM     73  C   UNL A   1      44.423  32.540  31.158  1.00  0.00    -0.014 A 
ATOM     74  C   UNL A   1      44.687  33.607  30.286  1.00  0.00     0.009 A 
ATOM     75  C   UNL A   1      44.326  32.795  32.535  1.00  0.00     0.009 A 
ATOM     76  C   UNL A   1      44.880  34.896  30.786  1.00  0.00     0.001 A 
ATOM     77  C   UNL A   1      44.490  34.089  33.030  1.00  0.00     0.001 A 
ATOM     78  C   UNL A   1      44.776  35.136  32.156  1.00  0.00     0.000 A 
ENDBRANCH  60  73
ENDBRANCH  34  35
ENDBRANCH  26  29
ENDBRANCH  24  25
ENDBRANCH  23  24
ENDBRANCH  22  23
ENDBRANCH   1  22
TORSDOF 18
ENDMDL
