MODEL 1
REMARK VINA RESULT:     -11.1      0.000      0.000
REMARK SMILES CCC(=O)N1CCc2cc(C(=O)NC3(C(=O)NCCCCCCNC(=O)c4ccc(-c5c6nc(c(-c7ccccc7)c7ccc([nH]7)c(-c7ccccc7)c7nc(c(-c8ccccc8)c8ccc5[nH]8)C=C7)C=C6)cc4)CCCC3)ccc21
REMARK SMILES IDX 19 1 18 2 17 3 15 4 16 5 14 7 75 8 78 9 76 10 77 11 13 12
REMARK SMILES IDX 11 13 12 14 10 16 5 17 6 18 81 19 7 20 8 21 80 22 9 23 79 24
REMARK SMILES IDX 3 25 4 26 2 27 1 28 20 29 21 30 22 31 23 32 24 33 25 34
REMARK SMILES IDX 26 36 27 37 28 38 74 39 29 40 73 41 30 42 31 43 32 44 67 45
REMARK SMILES IDX 33 46 72 47 66 48 68 49 34 50 71 51 65 52 64 53 35 55 57 56
REMARK SMILES IDX 42 57 56 58 43 59 46 60 55 61 69 62 44 63 45 64 54 66 70 67
REMARK SMILES IDX 47 68 36 69 37 70 41 71 38 72 40 73 39 74 58 75 59 76 63 77
REMARK SMILES IDX 60 78 62 79 61 80 48 81 49 82 53 83 50 84 52 85 51 86
REMARK H PARENT 17 6 13 15 24 35 68 54 46 65
REMARK Flexibility Score: inf
ROOT
ATOM      1  C   UNL A   1      37.040  21.936  24.452  1.00  0.00     0.021 C 
ENDROOT
BRANCH   1   2
ATOM      2  C   UNL A   1      35.815  21.042  24.621  1.00  0.00     0.116 C 
BRANCH   2   3
ATOM      3  N   UNL A   1      35.326  21.083  25.976  1.00  0.00    -0.354 N 
ATOM      4  C   UNL A   1      34.334  21.785  26.574  1.00  0.00     0.245 C 
ATOM      5  O   UNL A   1      34.282  21.639  27.804  1.00  0.00    -0.272 OA
ATOM      6  H   UNL A   1      35.808  20.480  26.587  1.00  0.00     0.163 HD
BRANCH   4   7
ATOM      7  C   UNL A   1      33.344  22.759  25.838  1.00  0.00     0.119 C 
ATOM      8  C   UNL A   1      33.065  22.548  24.338  1.00  0.00     0.038 C 
ATOM      9  C   UNL A   1      33.906  24.196  25.915  1.00  0.00     0.038 C 
ATOM     10  C   UNL A   1      33.660  23.718  23.555  1.00  0.00     0.003 C 
ATOM     11  C   UNL A   1      34.456  24.547  24.542  1.00  0.00     0.003 C 
BRANCH   7  12
ATOM     12  N   UNL A   1      32.093  22.697  26.661  1.00  0.00    -0.338 N 
ATOM     13  C   UNL A   1      30.956  23.468  26.767  1.00  0.00     0.252 C 
ATOM     14  O   UNL A   1      30.050  23.080  27.504  1.00  0.00    -0.269 OA
ATOM     15  H   UNL A   1      32.081  21.923  27.269  1.00  0.00     0.164 HD
BRANCH  13  16
ATOM     16  C   UNL A   1      30.819  24.793  26.112  1.00  0.00     0.040 A 
ATOM     17  N   UNL A   1      31.603  28.433  24.273  1.00  0.00    -0.312 N 
ATOM     18  C   UNL A   1      31.906  29.295  25.430  1.00  0.00     0.130 C 
ATOM     19  C   UNL A   1      31.111  27.212  24.759  1.00  0.00     0.047 A 
ATOM     20  C   UNL A   1      31.747  28.455  26.701  1.00  0.00     0.059 C 
ATOM     21  C   UNL A   1      31.316  27.139  26.140  1.00  0.00    -0.022 A 
ATOM     22  C   UNL A   1      30.575  26.132  24.095  1.00  0.00     0.027 A 
ATOM     23  C   UNL A   1      31.194  25.935  26.829  1.00  0.00     0.019 A 
ATOM     24  C   UNL A   1      30.378  24.938  24.794  1.00  0.00     0.016 A 
BRANCH  17  25
ATOM     25  C   UNL A   1      31.942  28.851  23.003  1.00  0.00     0.226 C 
ATOM     26  O   UNL A   1      31.094  29.370  22.267  1.00  0.00    -0.275 OA
BRANCH  25  27
ATOM     27  C   UNL A   1      33.337  28.632  22.442  1.00  0.00     0.097 C 
ATOM     28  C   UNL A   1      33.700  27.210  22.043  1.00  0.00     0.014 C 
ENDBRANCH  25  27
ENDBRANCH  17  25
ENDBRANCH  13  16
ENDBRANCH   7  12
ENDBRANCH   4   7
ENDBRANCH   2   3
ENDBRANCH   1   2
BRANCH   1  29
ATOM     29  C   UNL A   1      37.629  22.432  25.775  1.00  0.00     0.002 C 
BRANCH  29  30
ATOM     30  C   UNL A   1      39.008  21.860  26.125  1.00  0.00     0.002 C 
BRANCH  30  31
ATOM     31  C   UNL A   1      39.339  20.515  25.474  1.00  0.00     0.021 C 
BRANCH  31  32
ATOM     32  C   UNL A   1      39.964  19.495  26.419  1.00  0.00     0.116 C 
BRANCH  32  33
ATOM     33  N   UNL A   1      41.268  19.051  25.953  1.00  0.00    -0.352 N 
ATOM     34  C   UNL A   1      42.418  19.774  25.777  1.00  0.00     0.251 C 
ATOM     35  H   UNL A   1      41.334  18.094  25.734  1.00  0.00     0.163 HD
ATOM     36  O   UNL A   1      43.369  19.289  25.167  1.00  0.00    -0.269 OA
BRANCH  34  37
ATOM     37  C   UNL A   1      42.507  21.146  26.312  1.00  0.00     0.039 A 
ATOM     38  C   UNL A   1      42.398  21.348  27.689  1.00  0.00     0.014 A 
ATOM     39  C   UNL A   1      42.696  22.231  25.451  1.00  0.00     0.014 A 
ATOM     40  C   UNL A   1      42.537  22.635  28.210  1.00  0.00     0.010 A 
ATOM     41  C   UNL A   1      42.912  23.499  25.977  1.00  0.00     0.010 A 
ATOM     42  C   UNL A   1      42.828  23.716  27.361  1.00  0.00    -0.014 A 
BRANCH  42  43
ATOM     43  C   UNL A   1      43.043  25.082  27.897  1.00  0.00     0.031 A 
ATOM     44  C   UNL A   1      44.424  25.523  28.299  1.00  0.00     0.074 A 
ATOM     45  C   UNL A   1      41.990  25.899  28.088  1.00  0.00     0.049 A 
ATOM     46  N   UNL A   1      44.803  26.646  28.852  1.00  0.00    -0.248 NA
ATOM     47  C   UNL A   1      45.518  24.565  28.074  1.00  0.00     0.031 C 
ATOM     48  C   UNL A   1      40.598  25.577  27.764  1.00  0.00     0.029 A 
ATOM     49  N   UNL A   1      41.925  27.167  28.608  1.00  0.00    -0.354 N 
ATOM     50  C   UNL A   1      46.171  26.522  29.057  1.00  0.00     0.074 A 
ATOM     51  C   UNL A   1      46.546  25.195  28.620  1.00  0.00     0.031 C 
ATOM     52  C   UNL A   1      39.823  26.634  28.062  1.00  0.00     0.029 A 
ATOM     53  C   UNL A   1      40.653  27.684  28.643  1.00  0.00     0.049 A 
ATOM     54  H   UNL A   1      42.716  27.659  28.926  1.00  0.00     0.167 HD
ATOM     55  C   UNL A   1      47.043  27.437  29.547  1.00  0.00     0.031 A 
ATOM     56  C   UNL A   1      40.204  28.868  29.100  1.00  0.00     0.031 A 
ATOM     57  C   UNL A   1      46.667  28.756  29.979  1.00  0.00     0.049 A 
ATOM     58  C   UNL A   1      41.185  29.848  29.680  1.00  0.00     0.074 A 
ATOM     59  C   UNL A   1      47.481  29.776  30.441  1.00  0.00     0.029 A 
ATOM     60  N   UNL A   1      45.367  29.236  30.010  1.00  0.00    -0.354 N 
ATOM     61  N   UNL A   1      42.487  29.744  29.803  1.00  0.00    -0.248 NA
ATOM     62  C   UNL A   1      40.634  31.117  30.178  1.00  0.00     0.031 C 
ATOM     63  C   UNL A   1      46.665  30.850  30.813  1.00  0.00     0.029 A 
ATOM     64  C   UNL A   1      45.352  30.525  30.515  1.00  0.00     0.049 A 
ATOM     65  H   UNL A   1      44.572  28.734  29.716  1.00  0.00     0.167 HD
ATOM     66  C   UNL A   1      42.913  30.943  30.357  1.00  0.00     0.074 A 
ATOM     67  C   UNL A   1      41.733  31.765  30.536  1.00  0.00     0.031 C 
ATOM     68  C   UNL A   1      44.170  31.332  30.685  1.00  0.00     0.031 A 
BRANCH  55  69
ATOM     69  C   UNL A   1      48.486  27.026  29.660  1.00  0.00    -0.014 A 
ATOM     70  C   UNL A   1      49.400  27.269  28.622  1.00  0.00     0.009 A 
ATOM     71  C   UNL A   1      48.945  26.406  30.834  1.00  0.00     0.009 A 
ATOM     72  C   UNL A   1      50.729  26.858  28.738  1.00  0.00     0.001 A 
ATOM     73  C   UNL A   1      50.282  26.028  30.961  1.00  0.00     0.001 A 
ATOM     74  C   UNL A   1      51.170  26.242  29.908  1.00  0.00     0.000 A 
ENDBRANCH  55  69
BRANCH  56  75
ATOM     75  C   UNL A   1      38.758  29.202  29.015  1.00  0.00    -0.014 A 
ATOM     76  C   UNL A   1      38.219  29.727  27.830  1.00  0.00     0.009 A 
ATOM     77  C   UNL A   1      37.909  29.009  30.117  1.00  0.00     0.009 A 
ATOM     78  C   UNL A   1      36.869  30.079  27.760  1.00  0.00     0.001 A 
ATOM     79  C   UNL A   1      36.553  29.333  30.033  1.00  0.00     0.001 A 
ATOM     80  C   UNL A   1      36.037  29.879  28.859  1.00  0.00     0.000 A 
ENDBRANCH  56  75
BRANCH  68  81
ATOM     81  C   UNL A   1      44.344  32.723  31.228  1.00  0.00    -0.014 A 
ATOM     82  C   UNL A   1      44.531  33.825  30.380  1.00  0.00     0.009 A 
ATOM     83  C   UNL A   1      44.267  32.937  32.614  1.00  0.00     0.009 A 
ATOM     84  C   UNL A   1      44.669  35.109  30.911  1.00  0.00     0.001 A 
ATOM     85  C   UNL A   1      44.373  34.225  33.140  1.00  0.00     0.001 A 
ATOM     86  C   UNL A   1      44.582  35.308  32.289  1.00  0.00     0.000 A 
ENDBRANCH  68  81
ENDBRANCH  42  43
ENDBRANCH  34  37
ENDBRANCH  32  33
ENDBRANCH  31  32
ENDBRANCH  30  31
ENDBRANCH  29  30
ENDBRANCH   1  29
TORSDOF 17
ENDMDL
MODEL 2
REMARK VINA RESULT:     -10.8      1.530      5.889
REMARK SMILES CCC(=O)N1CCc2cc(C(=O)NC3(C(=O)NCCCCCCNC(=O)c4ccc(-c5c6nc(c(-c7ccccc7)c7ccc([nH]7)c(-c7ccccc7)c7nc(c(-c8ccccc8)c8ccc5[nH]8)C=C7)C=C6)cc4)CCCC3)ccc21
REMARK SMILES IDX 19 1 18 2 17 3 15 4 16 5 14 7 75 8 78 9 76 10 77 11 13 12
REMARK SMILES IDX 11 13 12 14 10 16 5 17 6 18 81 19 7 20 8 21 80 22 9 23 79 24
REMARK SMILES IDX 3 25 4 26 2 27 1 28 20 29 21 30 22 31 23 32 24 33 25 34
REMARK SMILES IDX 26 36 27 37 28 38 74 39 29 40 73 41 30 42 31 43 32 44 67 45
REMARK SMILES IDX 33 46 72 47 66 48 68 49 34 50 71 51 65 52 64 53 35 55 57 56
REMARK SMILES IDX 42 57 56 58 43 59 46 60 55 61 69 62 44 63 45 64 54 66 70 67
REMARK SMILES IDX 47 68 36 69 37 70 41 71 38 72 40 73 39 74 58 75 59 76 63 77
REMARK SMILES IDX 60 78 62 79 61 80 48 81 49 82 53 83 50 84 52 85 51 86
REMARK H PARENT 17 6 13 15 24 35 68 54 46 65
REMARK Flexibility Score: inf
ROOT
ATOM      1  C   UNL A   1      37.012  22.363  24.383  1.00  0.00     0.021 C 
ENDROOT
BRANCH   1   2
ATOM      2  C   UNL A   1      35.893  21.337  24.539  1.00  0.00     0.116 C 
BRANCH   2   3
ATOM      3  N   UNL A   1      35.404  21.307  25.895  1.00  0.00    -0.354 N 
ATOM      4  C   UNL A   1      34.396  21.959  26.522  1.00  0.00     0.245 C 
ATOM      5  O   UNL A   1      34.347  21.758  27.745  1.00  0.00    -0.272 OA
ATOM      6  H   UNL A   1      35.900  20.690  26.480  1.00  0.00     0.163 HD
BRANCH   4   7
ATOM      7  C   UNL A   1      33.382  22.940  25.828  1.00  0.00     0.119 C 
ATOM      8  C   UNL A   1      33.084  22.769  24.326  1.00  0.00     0.038 C 
ATOM      9  C   UNL A   1      33.926  24.382  25.938  1.00  0.00     0.038 C 
ATOM     10  C   UNL A   1      33.653  23.968  23.570  1.00  0.00     0.003 C 
ATOM     11  C   UNL A   1      34.452  24.779  24.568  1.00  0.00     0.003 C 
BRANCH   7  12
ATOM     12  N   UNL A   1      32.144  22.838  26.666  1.00  0.00    -0.338 N 
ATOM     13  C   UNL A   1      30.986  23.575  26.791  1.00  0.00     0.252 C 
ATOM     14  O   UNL A   1      30.102  23.158  27.537  1.00  0.00    -0.269 OA
ATOM     15  H   UNL A   1      32.162  22.061  27.270  1.00  0.00     0.164 HD
BRANCH  13  16
ATOM     16  C   UNL A   1      30.803  24.899  26.144  1.00  0.00     0.040 A 
ATOM     17  N   UNL A   1      31.454  28.539  24.253  1.00  0.00    -0.312 N 
ATOM     18  C   UNL A   1      31.830  29.403  25.388  1.00  0.00     0.130 C 
ATOM     19  C   UNL A   1      30.999  27.316  24.772  1.00  0.00     0.047 A 
ATOM     20  C   UNL A   1      31.757  28.564  26.667  1.00  0.00     0.059 C 
ATOM     21  C   UNL A   1      31.294  27.246  26.137  1.00  0.00    -0.022 A 
ATOM     22  C   UNL A   1      30.423  26.235  24.146  1.00  0.00     0.027 A 
ATOM     23  C   UNL A   1      31.221  26.043  26.834  1.00  0.00     0.019 A 
ATOM     24  C   UNL A   1      30.277  25.041  24.858  1.00  0.00     0.016 A 
BRANCH  17  25
ATOM     25  C   UNL A   1      31.708  28.956  22.964  1.00  0.00     0.226 C 
ATOM     26  O   UNL A   1      30.784  29.339  22.236  1.00  0.00    -0.275 OA
BRANCH  25  27
ATOM     27  C   UNL A   1      33.106  28.898  22.372  1.00  0.00     0.097 C 
ATOM     28  C   UNL A   1      33.762  27.528  22.293  1.00  0.00     0.014 C 
ENDBRANCH  25  27
ENDBRANCH  17  25
ENDBRANCH  13  16
ENDBRANCH   7  12
ENDBRANCH   4   7
ENDBRANCH   2   3
ENDBRANCH   1   2
BRANCH   1  29
ATOM     29  C   UNL A   1      37.528  22.922  25.711  1.00  0.00     0.002 C 
BRANCH  29  30
ATOM     30  C   UNL A   1      38.997  22.609  26.019  1.00  0.00     0.002 C 
BRANCH  30  31
ATOM     31  C   UNL A   1      39.269  21.189  26.522  1.00  0.00     0.021 C 
BRANCH  31  32
ATOM     32  C   UNL A   1      39.359  20.137  25.423  1.00  0.00     0.116 C 
BRANCH  32  33
ATOM     33  N   UNL A   1      40.297  19.079  25.760  1.00  0.00    -0.352 N 
ATOM     34  C   UNL A   1      41.621  19.168  26.099  1.00  0.00     0.251 C 
ATOM     35  H   UNL A   1      39.927  18.166  25.743  1.00  0.00     0.163 HD
ATOM     36  O   UNL A   1      42.321  18.159  26.139  1.00  0.00    -0.269 OA
BRANCH  34  37
ATOM     37  C   UNL A   1      42.209  20.487  26.405  1.00  0.00     0.039 A 
ATOM     38  C   UNL A   1      42.672  21.284  25.356  1.00  0.00     0.014 A 
ATOM     39  C   UNL A   1      42.304  20.932  27.726  1.00  0.00     0.014 A 
ATOM     40  C   UNL A   1      43.178  22.556  25.628  1.00  0.00     0.010 A 
ATOM     41  C   UNL A   1      42.735  22.227  27.988  1.00  0.00     0.010 A 
ATOM     42  C   UNL A   1      43.183  23.049  26.943  1.00  0.00    -0.014 A 
BRANCH  42  43
ATOM     43  C   UNL A   1      43.657  24.421  27.251  1.00  0.00     0.031 A 
ATOM     44  C   UNL A   1      42.675  25.478  27.677  1.00  0.00     0.074 A 
ATOM     45  C   UNL A   1      44.955  24.734  27.078  1.00  0.00     0.049 A 
ATOM     46  N   UNL A   1      42.881  26.747  27.919  1.00  0.00    -0.248 NA
ATOM     47  C   UNL A   1      41.272  25.058  27.825  1.00  0.00     0.031 C 
ATOM     48  C   UNL A   1      46.001  23.806  26.642  1.00  0.00     0.029 A 
ATOM     49  N   UNL A   1      45.616  25.925  27.243  1.00  0.00    -0.354 N 
ATOM     50  C   UNL A   1      41.636  27.278  28.229  1.00  0.00     0.074 A 
ATOM     51  C   UNL A   1      40.673  26.208  28.091  1.00  0.00     0.031 C 
ATOM     52  C   UNL A   1      47.176  24.454  26.608  1.00  0.00     0.029 A 
ATOM     53  C   UNL A   1      46.960  25.852  26.968  1.00  0.00     0.049 A 
ATOM     54  H   UNL A   1      45.170  26.753  27.532  1.00  0.00     0.167 HD
ATOM     55  C   UNL A   1      41.323  28.539  28.613  1.00  0.00     0.031 A 
ATOM     56  C   UNL A   1      47.910  26.805  26.993  1.00  0.00     0.031 A 
ATOM     57  C   UNL A   1      42.283  29.601  28.751  1.00  0.00     0.049 A 
ATOM     58  C   UNL A   1      47.528  28.208  27.380  1.00  0.00     0.074 A 
ATOM     59  C   UNL A   1      42.077  30.899  29.184  1.00  0.00     0.029 A 
ATOM     60  N   UNL A   1      43.632  29.489  28.450  1.00  0.00    -0.354 N 
ATOM     61  N   UNL A   1      46.358  28.680  27.738  1.00  0.00    -0.248 NA
ATOM     62  C   UNL A   1      48.605  29.209  27.373  1.00  0.00     0.031 C 
ATOM     63  C   UNL A   1      43.289  31.590  29.083  1.00  0.00     0.029 A 
ATOM     64  C   UNL A   1      44.264  30.704  28.655  1.00  0.00     0.049 A 
ATOM     65  H   UNL A   1      44.075  28.666  28.136  1.00  0.00     0.167 HD
ATOM     66  C   UNL A   1      46.564  30.020  28.033  1.00  0.00     0.074 A 
ATOM     67  C   UNL A   1      47.973  30.284  27.824  1.00  0.00     0.031 C 
ATOM     68  C   UNL A   1      45.668  30.950  28.446  1.00  0.00     0.031 A 
BRANCH  55  69
ATOM     69  C   UNL A   1      39.873  28.839  28.888  1.00  0.00    -0.014 A 
ATOM     70  C   UNL A   1      39.323  28.679  30.170  1.00  0.00     0.009 A 
ATOM     71  C   UNL A   1      39.051  29.312  27.853  1.00  0.00     0.009 A 
ATOM     72  C   UNL A   1      37.971  28.940  30.398  1.00  0.00     0.001 A 
ATOM     73  C   UNL A   1      37.707  29.605  28.093  1.00  0.00     0.001 A 
ATOM     74  C   UNL A   1      37.165  29.407  29.361  1.00  0.00     0.000 A 
ENDBRANCH  55  69
BRANCH  56  75
ATOM     75  C   UNL A   1      49.318  26.468  26.658  1.00  0.00    -0.014 A 
ATOM     76  C   UNL A   1      49.800  26.646  25.352  1.00  0.00     0.009 A 
ATOM     77  C   UNL A   1      50.187  25.957  27.636  1.00  0.00     0.009 A 
ATOM     78  C   UNL A   1      51.111  26.293  25.025  1.00  0.00     0.001 A 
ATOM     79  C   UNL A   1      51.507  25.634  27.313  1.00  0.00     0.001 A 
ATOM     80  C   UNL A   1      51.964  25.791  26.006  1.00  0.00     0.000 A 
ENDBRANCH  56  75
BRANCH  68  81
ATOM     81  C   UNL A   1      46.188  32.329  28.743  1.00  0.00    -0.014 A 
ATOM     82  C   UNL A   1      46.198  33.337  27.767  1.00  0.00     0.009 A 
ATOM     83  C   UNL A   1      46.630  32.634  30.040  1.00  0.00     0.009 A 
ATOM     84  C   UNL A   1      46.668  34.615  28.077  1.00  0.00     0.001 A 
ATOM     85  C   UNL A   1      47.070  33.920  30.356  1.00  0.00     0.001 A 
ATOM     86  C   UNL A   1      47.097  34.907  29.372  1.00  0.00     0.000 A 
ENDBRANCH  68  81
ENDBRANCH  42  43
ENDBRANCH  34  37
ENDBRANCH  32  33
ENDBRANCH  31  32
ENDBRANCH  30  31
ENDBRANCH  29  30
ENDBRANCH   1  29
TORSDOF 17
ENDMDL
MODEL 3
REMARK VINA RESULT:     -10.7      5.167     11.337
REMARK SMILES CCC(=O)N1CCc2cc(C(=O)NC3(C(=O)NCCCCCCNC(=O)c4ccc(-c5c6nc(c(-c7ccccc7)c7ccc([nH]7)c(-c7ccccc7)c7nc(c(-c8ccccc8)c8ccc5[nH]8)C=C7)C=C6)cc4)CCCC3)ccc21
REMARK SMILES IDX 19 1 18 2 17 3 15 4 16 5 14 7 75 8 78 9 76 10 77 11 13 12
REMARK SMILES IDX 11 13 12 14 10 16 5 17 6 18 81 19 7 20 8 21 80 22 9 23 79 24
REMARK SMILES IDX 3 25 4 26 2 27 1 28 20 29 21 30 22 31 23 32 24 33 25 34
REMARK SMILES IDX 26 36 27 37 28 38 74 39 29 40 73 41 30 42 31 43 32 44 67 45
REMARK SMILES IDX 33 46 72 47 66 48 68 49 34 50 71 51 65 52 64 53 35 55 57 56
REMARK SMILES IDX 42 57 56 58 43 59 46 60 55 61 69 62 44 63 45 64 54 66 70 67
REMARK SMILES IDX 47 68 36 69 37 70 41 71 38 72 40 73 39 74 58 75 59 76 63 77
REMARK SMILES IDX 60 78 62 79 61 80 48 81 49 82 53 83 50 84 52 85 51 86
REMARK H PARENT 17 6 13 15 24 35 68 54 46 65
REMARK Flexibility Score: inf
ROOT
ATOM      1  C   UNL A   1      46.670  27.292  31.367  1.00  0.00     0.021 C 
ENDROOT
BRANCH   1   2
ATOM      2  C   UNL A   1      46.393  27.166  29.872  1.00  0.00     0.116 C 
BRANCH   2   3
ATOM      3  N   UNL A   1      47.564  26.713  29.165  1.00  0.00    -0.354 N 
ATOM      4  C   UNL A   1      47.733  25.940  28.066  1.00  0.00     0.245 C 
ATOM      5  O   UNL A   1      48.916  25.666  27.816  1.00  0.00    -0.272 OA
ATOM      6  H   UNL A   1      48.410  27.029  29.559  1.00  0.00     0.163 HD
BRANCH   4   7
ATOM      7  C   UNL A   1      46.570  25.363  27.179  1.00  0.00     0.119 C 
ATOM      8  C   UNL A   1      45.203  26.073  27.183  1.00  0.00     0.038 C 
ATOM      9  C   UNL A   1      46.246  23.927  27.650  1.00  0.00     0.038 C 
ATOM     10  C   UNL A   1      44.175  25.163  27.853  1.00  0.00     0.003 C 
ATOM     11  C   UNL A   1      44.936  23.983  28.421  1.00  0.00     0.003 C 
BRANCH   7  12
ATOM     12  N   UNL A   1      47.164  25.285  25.805  1.00  0.00    -0.338 N 
ATOM     13  C   UNL A   1      46.861  24.599  24.649  1.00  0.00     0.252 C 
ATOM     14  O   UNL A   1      47.522  24.832  23.638  1.00  0.00    -0.269 OA
ATOM     15  H   UNL A   1      47.956  25.859  25.705  1.00  0.00     0.164 HD
BRANCH  13  16
ATOM     16  C   UNL A   1      45.842  23.519  24.598  1.00  0.00     0.040 A 
ATOM     17  N   UNL A   1      43.352  20.337  25.554  1.00  0.00    -0.312 N 
ATOM     18  C   UNL A   1      44.249  19.183  25.351  1.00  0.00     0.130 C 
ATOM     19  C   UNL A   1      44.001  21.481  25.064  1.00  0.00     0.047 A 
ATOM     20  C   UNL A   1      45.600  19.713  24.864  1.00  0.00     0.059 C 
ATOM     21  C   UNL A   1      45.340  21.184  24.795  1.00  0.00    -0.022 A 
ATOM     22  C   UNL A   1      43.548  22.770  24.906  1.00  0.00     0.027 A 
ATOM     23  C   UNL A   1      46.278  22.189  24.580  1.00  0.00     0.019 A 
ATOM     24  C   UNL A   1      44.470  23.780  24.616  1.00  0.00     0.016 A 
BRANCH  17  25
ATOM     25  C   UNL A   1      42.177  20.172  26.256  1.00  0.00     0.226 C 
ATOM     26  O   UNL A   1      41.355  19.315  25.908  1.00  0.00    -0.275 OA
BRANCH  25  27
ATOM     27  C   UNL A   1      41.819  21.071  27.427  1.00  0.00     0.097 C 
ATOM     28  C   UNL A   1      40.528  21.867  27.311  1.00  0.00     0.014 C 
ENDBRANCH  25  27
ENDBRANCH  17  25
ENDBRANCH  13  16
ENDBRANCH   7  12
ENDBRANCH   4   7
ENDBRANCH   2   3
ENDBRANCH   1   2
BRANCH   1  29
ATOM     29  C   UNL A   1      46.831  25.947  32.081  1.00  0.00     0.002 C 
BRANCH  29  30
ATOM     30  C   UNL A   1      48.276  25.562  32.419  1.00  0.00     0.002 C 
BRANCH  30  31
ATOM     31  C   UNL A   1      48.595  25.477  33.913  1.00  0.00     0.021 C 
BRANCH  31  32
ATOM     32  C   UNL A   1      47.609  24.641  34.721  1.00  0.00     0.116 C 
BRANCH  32  33
ATOM     33  N   UNL A   1      47.491  25.114  36.091  1.00  0.00    -0.352 N 
ATOM     34  C   UNL A   1      46.725  26.132  36.595  1.00  0.00     0.251 C 
ATOM     35  H   UNL A   1      48.041  24.633  36.752  1.00  0.00     0.163 HD
ATOM     36  O   UNL A   1      46.912  26.541  37.739  1.00  0.00    -0.269 OA
BRANCH  34  37
ATOM     37  C   UNL A   1      45.681  26.746  35.752  1.00  0.00     0.039 A 
ATOM     38  C   UNL A   1      44.434  26.126  35.656  1.00  0.00     0.014 A 
ATOM     39  C   UNL A   1      45.938  27.931  35.057  1.00  0.00     0.014 A 
ATOM     40  C   UNL A   1      43.422  26.728  34.906  1.00  0.00     0.010 A 
ATOM     41  C   UNL A   1      44.907  28.568  34.377  1.00  0.00     0.010 A 
ATOM     42  C   UNL A   1      43.641  27.970  34.288  1.00  0.00    -0.014 A 
BRANCH  42  43
ATOM     43  C   UNL A   1      42.562  28.660  33.540  1.00  0.00     0.031 A 
ATOM     44  C   UNL A   1      41.694  29.673  34.236  1.00  0.00     0.074 A 
ATOM     45  C   UNL A   1      42.317  28.326  32.259  1.00  0.00     0.049 A 
ATOM     46  N   UNL A   1      40.659  30.328  33.776  1.00  0.00    -0.248 NA
ATOM     47  C   UNL A   1      42.016  29.969  35.641  1.00  0.00     0.031 C 
ATOM     48  C   UNL A   1      43.070  27.338  31.482  1.00  0.00     0.029 A 
ATOM     49  N   UNL A   1      41.360  28.776  31.385  1.00  0.00    -0.354 N 
ATOM     50  C   UNL A   1      40.198  31.097  34.836  1.00  0.00     0.074 A 
ATOM     51  C   UNL A   1      41.030  30.786  35.977  1.00  0.00     0.031 C 
ATOM     52  C   UNL A   1      42.567  27.284  30.238  1.00  0.00     0.029 A 
ATOM     53  C   UNL A   1      41.428  28.191  30.144  1.00  0.00     0.049 A 
ATOM     54  H   UNL A   1      40.689  29.455  31.625  1.00  0.00     0.167 HD
ATOM     55  C   UNL A   1      39.183  31.995  34.856  1.00  0.00     0.031 A 
ATOM     56  C   UNL A   1      40.653  28.359  29.056  1.00  0.00     0.031 A 
ATOM     57  C   UNL A   1      38.358  32.302  33.719  1.00  0.00     0.049 A 
ATOM     58  C   UNL A   1      39.507  29.330  29.117  1.00  0.00     0.074 A 
ATOM     59  C   UNL A   1      37.340  33.234  33.620  1.00  0.00     0.029 A 
ATOM     60  N   UNL A   1      38.451  31.678  32.484  1.00  0.00    -0.354 N 
ATOM     61  N   UNL A   1      39.126  30.101  30.107  1.00  0.00    -0.248 NA
ATOM     62  C   UNL A   1      38.686  29.458  27.904  1.00  0.00     0.031 C 
ATOM     63  C   UNL A   1      36.774  33.129  32.345  1.00  0.00     0.029 A 
ATOM     64  C   UNL A   1      37.486  32.181  31.628  1.00  0.00     0.049 A 
ATOM     65  H   UNL A   1      39.107  30.981  32.251  1.00  0.00     0.167 HD
ATOM     66  C   UNL A   1      38.047  30.831  29.626  1.00  0.00     0.074 A 
ATOM     67  C   UNL A   1      37.842  30.419  28.252  1.00  0.00     0.031 C 
ATOM     68  C   UNL A   1      37.296  31.763  30.262  1.00  0.00     0.031 A 
BRANCH  55  69
ATOM     69  C   UNL A   1      38.901  32.691  36.160  1.00  0.00    -0.014 A 
ATOM     70  C   UNL A   1      39.588  33.858  36.532  1.00  0.00     0.009 A 
ATOM     71  C   UNL A   1      37.914  32.185  37.021  1.00  0.00     0.009 A 
ATOM     72  C   UNL A   1      39.328  34.474  37.757  1.00  0.00     0.001 A 
ATOM     73  C   UNL A   1      37.631  32.824  38.229  1.00  0.00     0.001 A 
ATOM     74  C   UNL A   1      38.347  33.959  38.602  1.00  0.00     0.000 A 
ENDBRANCH  55  69
BRANCH  56  75
ATOM     75  C   UNL A   1      40.943  27.604  27.809  1.00  0.00    -0.014 A 
ATOM     76  C   UNL A   1      40.380  26.335  27.599  1.00  0.00     0.009 A 
ATOM     77  C   UNL A   1      41.788  28.140  26.824  1.00  0.00     0.009 A 
ATOM     78  C   UNL A   1      40.681  25.607  26.446  1.00  0.00     0.001 A 
ATOM     79  C   UNL A   1      42.062  27.423  25.657  1.00  0.00     0.001 A 
ATOM     80  C   UNL A   1      41.518  26.153  25.475  1.00  0.00     0.000 A 
ENDBRANCH  56  75
BRANCH  68  81
ATOM     81  C   UNL A   1      36.211  32.436  29.469  1.00  0.00    -0.014 A 
ATOM     82  C   UNL A   1      36.389  33.713  28.917  1.00  0.00     0.009 A 
ATOM     83  C   UNL A   1      35.008  31.753  29.228  1.00  0.00     0.009 A 
ATOM     84  C   UNL A   1      35.371  34.306  28.166  1.00  0.00     0.001 A 
ATOM     85  C   UNL A   1      34.005  32.334  28.451  1.00  0.00     0.001 A 
ATOM     86  C   UNL A   1      34.184  33.614  27.928  1.00  0.00     0.000 A 
ENDBRANCH  68  81
ENDBRANCH  42  43
ENDBRANCH  34  37
ENDBRANCH  32  33
ENDBRANCH  31  32
ENDBRANCH  30  31
ENDBRANCH  29  30
ENDBRANCH   1  29
TORSDOF 17
ENDMDL
