MODEL 1
REMARK VINA RESULT:     -10.1      0.000      0.000
REMARK SMILES O=C(NCCCCCCNC(=O)c1sccc1NS(=O)(=O)N1CCCC1)c1ccc(-c2c3nc(c(-c4ccccc4)c4ccc([nH]4)c(-c4ccccc4)c4nc(c(-c5ccccc5)c5ccc2[nH]5)C=C4)C=C3)cc1
REMARK SMILES IDX 7 1 6 2 5 3 4 4 3 5 1 6 2 7 27 9 28 10 74 11 29 12 73 13
REMARK SMILES IDX 30 14 31 15 32 16 67 17 33 18 72 19 66 20 68 21 34 22 71 23
REMARK SMILES IDX 65 24 64 25 35 27 57 28 42 29 56 30 43 31 46 32 55 33 69 34
REMARK SMILES IDX 44 35 45 36 54 38 70 39 47 40 36 41 37 42 41 43 38 44 40 45
REMARK SMILES IDX 39 46 58 47 59 48 63 49 60 50 62 51 61 52 48 53 49 54 53 55
REMARK SMILES IDX 50 56 52 57 51 58 8 59 9 60 10 61 11 62 12 64 13 65 14 66
REMARK SMILES IDX 17 67 15 68 16 69 18 70 19 72 20 73 21 74 22 75 23 76 26 77
REMARK SMILES IDX 24 78 25 79
REMARK H PARENT 3 8 68 26 46 37 10 63 18 71
REMARK Flexibility Score: inf
ROOT
ATOM      1  C   UNL A   1      36.610  22.048  24.672  1.00  0.00     0.002 C 
ENDROOT
BRANCH   1   2
ATOM      2  C   UNL A   1      36.492  20.551  24.975  1.00  0.00     0.002 C 
BRANCH   2   3
ATOM      3  C   UNL A   1      37.793  19.753  24.856  1.00  0.00     0.021 C 
BRANCH   3   4
ATOM      4  C   UNL A   1      38.936  20.258  25.727  1.00  0.00     0.116 C 
BRANCH   4   5
ATOM      5  N   UNL A   1      40.033  19.308  25.804  1.00  0.00    -0.352 N 
ATOM      6  O   UNL A   1      42.180  18.634  25.959  1.00  0.00    -0.269 OA
ATOM      7  C   UNL A   1      41.351  19.524  26.116  1.00  0.00     0.251 C 
ATOM      8  H   UNL A   1      39.795  18.373  25.604  1.00  0.00     0.163 HD
BRANCH   7   9
ATOM      9  C   UNL A   1      41.775  20.845  26.622  1.00  0.00     0.039 A 
ATOM     10  C   UNL A   1      41.776  21.119  27.993  1.00  0.00     0.014 A 
ATOM     11  C   UNL A   1      42.187  21.819  25.709  1.00  0.00     0.014 A 
ATOM     12  C   UNL A   1      42.063  22.404  28.442  1.00  0.00     0.010 A 
ATOM     13  C   UNL A   1      42.555  23.084  26.168  1.00  0.00     0.010 A 
ATOM     14  C   UNL A   1      42.470  23.395  27.535  1.00  0.00    -0.014 A 
BRANCH  14  15
ATOM     15  C   UNL A   1      42.854  24.739  28.030  1.00  0.00     0.031 A 
ATOM     16  C   UNL A   1      41.814  25.787  28.307  1.00  0.00     0.074 A 
ATOM     17  C   UNL A   1      44.159  25.017  28.212  1.00  0.00     0.049 A 
ATOM     18  N   UNL A   1      41.976  27.028  28.688  1.00  0.00    -0.248 NA
ATOM     19  C   UNL A   1      40.409  25.392  28.124  1.00  0.00     0.031 C 
ATOM     20  C   UNL A   1      45.262  24.080  27.984  1.00  0.00     0.029 A 
ATOM     21  N   UNL A   1      44.779  26.167  28.629  1.00  0.00    -0.354 N 
ATOM     22  C   UNL A   1      40.700  27.571  28.768  1.00  0.00     0.074 A 
ATOM     23  C   UNL A   1      39.776  26.531  28.369  1.00  0.00     0.031 C 
ATOM     24  C   UNL A   1      46.420  24.684  28.287  1.00  0.00     0.029 A 
ATOM     25  C   UNL A   1      46.148  26.066  28.663  1.00  0.00     0.049 A 
ATOM     26  H   UNL A   1      44.291  26.984  28.879  1.00  0.00     0.167 HD
ATOM     27  C   UNL A   1      40.334  28.822  29.141  1.00  0.00     0.031 A 
ATOM     28  C   UNL A   1      47.087  26.990  28.936  1.00  0.00     0.031 A 
ATOM     29  C   UNL A   1      41.261  29.857  29.523  1.00  0.00     0.049 A 
ATOM     30  C   UNL A   1      46.659  28.385  29.288  1.00  0.00     0.074 A 
ATOM     31  C   UNL A   1      40.989  31.146  29.944  1.00  0.00     0.029 A 
ATOM     32  N   UNL A   1      42.642  29.722  29.517  1.00  0.00    -0.354 N 
ATOM     33  N   UNL A   1      45.448  28.874  29.391  1.00  0.00    -0.248 NA
ATOM     34  C   UNL A   1      47.728  29.352  29.566  1.00  0.00     0.031 C 
ATOM     35  C   UNL A   1      42.205  31.812  30.130  1.00  0.00     0.029 A 
ATOM     36  C   UNL A   1      43.235  30.915  29.898  1.00  0.00     0.049 A 
ATOM     37  H   UNL A   1      43.129  28.900  29.279  1.00  0.00     0.167 HD
ATOM     38  C   UNL A   1      45.606  30.198  29.777  1.00  0.00     0.074 A 
ATOM     39  C   UNL A   1      47.032  30.430  29.898  1.00  0.00     0.031 C 
ATOM     40  C   UNL A   1      44.656  31.135  30.014  1.00  0.00     0.031 A 
BRANCH  27  41
ATOM     41  C   UNL A   1      38.866  29.152  29.110  1.00  0.00    -0.014 A 
ATOM     42  C   UNL A   1      38.066  29.067  30.261  1.00  0.00     0.009 A 
ATOM     43  C   UNL A   1      38.275  29.578  27.909  1.00  0.00     0.009 A 
ATOM     44  C   UNL A   1      36.700  29.356  30.200  1.00  0.00     0.001 A 
ATOM     45  C   UNL A   1      36.917  29.899  27.858  1.00  0.00     0.001 A 
ATOM     46  C   UNL A   1      36.128  29.775  29.000  1.00  0.00     0.000 A 
ENDBRANCH  27  41
BRANCH  28  47
ATOM     47  C   UNL A   1      48.523  26.617  28.868  1.00  0.00    -0.014 A 
ATOM     48  C   UNL A   1      49.169  26.053  29.977  1.00  0.00     0.009 A 
ATOM     49  C   UNL A   1      49.248  26.799  27.678  1.00  0.00     0.009 A 
ATOM     50  C   UNL A   1      50.516  25.693  29.902  1.00  0.00     0.001 A 
ATOM     51  C   UNL A   1      50.586  26.408  27.597  1.00  0.00     0.001 A 
ATOM     52  C   UNL A   1      51.221  25.864  28.710  1.00  0.00     0.000 A 
ENDBRANCH  28  47
BRANCH  40  53
ATOM     53  C   UNL A   1      45.120  32.486  30.480  1.00  0.00    -0.014 A 
ATOM     54  C   UNL A   1      45.364  33.533  29.578  1.00  0.00     0.009 A 
ATOM     55  C   UNL A   1      45.272  32.725  31.856  1.00  0.00     0.009 A 
ATOM     56  C   UNL A   1      45.778  34.783  30.043  1.00  0.00     0.001 A 
ATOM     57  C   UNL A   1      45.656  33.984  32.320  1.00  0.00     0.001 A 
ATOM     58  C   UNL A   1      45.917  35.009  31.413  1.00  0.00     0.000 A 
ENDBRANCH  40  53
ENDBRANCH  14  15
ENDBRANCH   7   9
ENDBRANCH   4   5
ENDBRANCH   3   4
ENDBRANCH   2   3
ENDBRANCH   1   2
BRANCH   1  59
ATOM     59  C   UNL A   1      35.917  22.976  25.670  1.00  0.00     0.021 C 
BRANCH  59  60
ATOM     60  C   UNL A   1      35.255  24.200  25.050  1.00  0.00     0.116 C 
BRANCH  60  61
ATOM     61  N   UNL A   1      34.946  24.010  23.639  1.00  0.00    -0.351 N 
ATOM     62  C   UNL A   1      33.809  23.472  23.073  1.00  0.00     0.263 C 
ATOM     63  H   UNL A   1      35.641  24.305  23.006  1.00  0.00     0.163 HD
ATOM     64  O   UNL A   1      33.815  23.253  21.863  1.00  0.00    -0.268 OA
BRANCH  62  65
ATOM     65  C   UNL A   1      32.683  23.218  23.943  1.00  0.00     0.116 A 
ATOM     66  S   UNL A   1      32.479  21.651  24.593  1.00  0.00    -0.136 S 
ATOM     67  C   UNL A   1      31.685  24.093  24.348  1.00  0.00     0.073 A 
ATOM     68  C   UNL A   1      31.208  22.181  25.599  1.00  0.00     0.068 A 
ATOM     69  C   UNL A   1      30.923  23.515  25.407  1.00  0.00     0.039 A 
BRANCH  67  70
ATOM     70  N   UNL A   1      31.504  25.361  23.775  1.00  0.00    -0.269 N 
ATOM     71  H   UNL A   1      30.858  25.390  23.033  1.00  0.00     0.181 HD
BRANCH  70  72
ATOM     72  S   UNL A   1      32.199  26.815  24.143  1.00  0.00     0.301 S 
ATOM     73  O   UNL A   1      33.486  26.879  23.491  1.00  0.00    -0.189 OA
ATOM     74  O   UNL A   1      31.187  27.811  23.862  1.00  0.00    -0.189 OA
BRANCH  72  75
ATOM     75  N   UNL A   1      32.447  26.789  25.806  1.00  0.00    -0.185 NA
ATOM     76  C   UNL A   1      31.341  27.260  26.677  1.00  0.00     0.104 C 
ATOM     77  C   UNL A   1      33.683  27.520  26.229  1.00  0.00     0.104 C 
ATOM     78  C   UNL A   1      31.760  28.634  27.141  1.00  0.00     0.018 C 
ATOM     79  C   UNL A   1      33.251  28.474  27.338  1.00  0.00     0.018 C 
ENDBRANCH  72  75
ENDBRANCH  70  72
ENDBRANCH  67  70
ENDBRANCH  62  65
ENDBRANCH  60  61
ENDBRANCH  59  60
ENDBRANCH   1  59
TORSDOF 16
ENDMDL
MODEL 2
REMARK VINA RESULT:      -9.9      4.945      9.634
REMARK SMILES O=C(NCCCCCCNC(=O)c1sccc1NS(=O)(=O)N1CCCC1)c1ccc(-c2c3nc(c(-c4ccccc4)c4ccc([nH]4)c(-c4ccccc4)c4nc(c(-c5ccccc5)c5ccc2[nH]5)C=C4)C=C3)cc1
REMARK SMILES IDX 7 1 6 2 5 3 4 4 3 5 1 6 2 7 27 9 28 10 74 11 29 12 73 13
REMARK SMILES IDX 30 14 31 15 32 16 67 17 33 18 72 19 66 20 68 21 34 22 71 23
REMARK SMILES IDX 65 24 64 25 35 27 57 28 42 29 56 30 43 31 46 32 55 33 69 34
REMARK SMILES IDX 44 35 45 36 54 38 70 39 47 40 36 41 37 42 41 43 38 44 40 45
REMARK SMILES IDX 39 46 58 47 59 48 63 49 60 50 62 51 61 52 48 53 49 54 53 55
REMARK SMILES IDX 50 56 52 57 51 58 8 59 9 60 10 61 11 62 12 64 13 65 14 66
REMARK SMILES IDX 17 67 15 68 16 69 18 70 19 72 20 73 21 74 22 75 23 76 26 77
REMARK SMILES IDX 24 78 25 79
REMARK H PARENT 3 8 68 26 46 37 10 63 18 71
REMARK Flexibility Score: inf
ROOT
ATOM      1  C   UNL A   1      32.627  30.025  27.139  1.00  0.00     0.002 C 
ENDROOT
BRANCH   1   2
ATOM      2  C   UNL A   1      31.452  30.722  26.447  1.00  0.00     0.002 C 
BRANCH   2   3
ATOM      3  C   UNL A   1      31.390  32.240  26.627  1.00  0.00     0.021 C 
BRANCH   3   4
ATOM      4  C   UNL A   1      32.637  32.863  27.242  1.00  0.00     0.116 C 
BRANCH   4   5
ATOM      5  N   UNL A   1      32.409  34.225  27.694  1.00  0.00    -0.352 N 
ATOM      6  O   UNL A   1      32.579  36.005  29.068  1.00  0.00    -0.269 OA
ATOM      7  C   UNL A   1      33.021  34.920  28.705  1.00  0.00     0.251 C 
ATOM      8  H   UNL A   1      31.714  34.721  27.202  1.00  0.00     0.163 HD
BRANCH   7   9
ATOM      9  C   UNL A   1      34.206  34.346  29.374  1.00  0.00     0.039 A 
ATOM     10  C   UNL A   1      35.489  34.549  28.856  1.00  0.00     0.014 A 
ATOM     11  C   UNL A   1      34.028  33.601  30.543  1.00  0.00     0.014 A 
ATOM     12  C   UNL A   1      36.577  33.902  29.431  1.00  0.00     0.010 A 
ATOM     13  C   UNL A   1      35.133  33.020  31.166  1.00  0.00     0.010 A 
ATOM     14  C   UNL A   1      36.412  33.143  30.600  1.00  0.00    -0.014 A 
BRANCH  14  15
ATOM     15  C   UNL A   1      37.591  32.524  31.253  1.00  0.00     0.031 A 
ATOM     16  C   UNL A   1      38.283  31.341  30.638  1.00  0.00     0.074 A 
ATOM     17  C   UNL A   1      38.024  33.028  32.425  1.00  0.00     0.049 A 
ATOM     18  N   UNL A   1      39.289  30.643  31.101  1.00  0.00    -0.248 NA
ATOM     19  C   UNL A   1      37.776  30.878  29.339  1.00  0.00     0.031 C 
ATOM     20  C   UNL A   1      37.440  34.178  33.118  1.00  0.00     0.029 A 
ATOM     21  N   UNL A   1      39.056  32.637  33.239  1.00  0.00    -0.354 N 
ATOM     22  C   UNL A   1      39.520  29.644  30.164  1.00  0.00     0.074 A 
ATOM     23  C   UNL A   1      38.532  29.811  29.121  1.00  0.00     0.031 C 
ATOM     24  C   UNL A   1      38.136  34.415  34.239  1.00  0.00     0.029 A 
ATOM     25  C   UNL A   1      39.169  33.396  34.378  1.00  0.00     0.049 A 
ATOM     26  H   UNL A   1      39.658  31.887  33.028  1.00  0.00     0.167 HD
ATOM     27  C   UNL A   1      40.471  28.678  30.175  1.00  0.00     0.031 A 
ATOM     28  C   UNL A   1      39.990  33.270  35.436  1.00  0.00     0.031 A 
ATOM     29  C   UNL A   1      41.442  28.509  31.225  1.00  0.00     0.049 A 
ATOM     30  C   UNL A   1      40.995  32.155  35.452  1.00  0.00     0.074 A 
ATOM     31  C   UNL A   1      42.463  27.580  31.315  1.00  0.00     0.029 A 
ATOM     32  N   UNL A   1      41.504  29.282  32.376  1.00  0.00    -0.354 N 
ATOM     33  N   UNL A   1      41.224  31.238  34.544  1.00  0.00    -0.248 NA
ATOM     34  C   UNL A   1      41.858  32.062  36.637  1.00  0.00     0.031 C 
ATOM     35  C   UNL A   1      43.101  27.747  32.549  1.00  0.00     0.029 A 
ATOM     36  C   UNL A   1      42.527  28.830  33.195  1.00  0.00     0.049 A 
ATOM     37  H   UNL A   1      40.910  30.040  32.580  1.00  0.00     0.167 HD
ATOM     38  C   UNL A   1      42.277  30.477  35.032  1.00  0.00     0.074 A 
ATOM     39  C   UNL A   1      42.648  31.048  36.312  1.00  0.00     0.031 C 
ATOM     40  C   UNL A   1      42.885  29.405  34.467  1.00  0.00     0.031 A 
BRANCH  27  41
ATOM     41  C   UNL A   1      40.475  27.698  29.032  1.00  0.00    -0.014 A 
ATOM     42  C   UNL A   1      41.235  27.921  27.872  1.00  0.00     0.009 A 
ATOM     43  C   UNL A   1      39.720  26.517  29.126  1.00  0.00     0.009 A 
ATOM     44  C   UNL A   1      41.202  27.007  26.815  1.00  0.00     0.001 A 
ATOM     45  C   UNL A   1      39.716  25.590  28.082  1.00  0.00     0.001 A 
ATOM     46  C   UNL A   1      40.446  25.841  26.923  1.00  0.00     0.000 A 
ENDBRANCH  27  41
BRANCH  28  47
ATOM     47  C   UNL A   1      39.877  34.223  36.569  1.00  0.00    -0.014 A 
ATOM     48  C   UNL A   1      40.567  35.444  36.548  1.00  0.00     0.009 A 
ATOM     49  C   UNL A   1      39.052  33.927  37.667  1.00  0.00     0.009 A 
ATOM     50  C   UNL A   1      40.446  36.341  37.612  1.00  0.00     0.001 A 
ATOM     51  C   UNL A   1      38.908  34.840  38.713  1.00  0.00     0.001 A 
ATOM     52  C   UNL A   1      39.611  36.042  38.689  1.00  0.00     0.000 A 
ENDBRANCH  28  47
BRANCH  40  53
ATOM     53  C   UNL A   1      44.052  28.808  35.203  1.00  0.00    -0.014 A 
ATOM     54  C   UNL A   1      45.361  29.271  35.008  1.00  0.00     0.009 A 
ATOM     55  C   UNL A   1      43.824  27.791  36.145  1.00  0.00     0.009 A 
ATOM     56  C   UNL A   1      46.423  28.707  35.719  1.00  0.00     0.001 A 
ATOM     57  C   UNL A   1      44.882  27.252  36.877  1.00  0.00     0.001 A 
ATOM     58  C   UNL A   1      46.181  27.704  36.658  1.00  0.00     0.000 A 
ENDBRANCH  40  53
ENDBRANCH  14  15
ENDBRANCH   7   9
ENDBRANCH   4   5
ENDBRANCH   3   4
ENDBRANCH   2   3
ENDBRANCH   1   2
BRANCH   1  59
ATOM     59  C   UNL A   1      32.351  28.602  27.627  1.00  0.00     0.021 C 
BRANCH  59  60
ATOM     60  C   UNL A   1      32.125  27.580  26.519  1.00  0.00     0.116 C 
BRANCH  60  61
ATOM     61  N   UNL A   1      31.117  26.591  26.873  1.00  0.00    -0.351 N 
ATOM     62  C   UNL A   1      30.503  25.660  26.061  1.00  0.00     0.263 C 
ATOM     63  H   UNL A   1      30.837  26.585  27.818  1.00  0.00     0.163 HD
ATOM     64  O   UNL A   1      29.559  25.023  26.523  1.00  0.00    -0.268 OA
BRANCH  62  65
ATOM     65  C   UNL A   1      31.026  25.489  24.723  1.00  0.00     0.116 A 
ATOM     66  S   UNL A   1      32.257  24.334  24.460  1.00  0.00    -0.136 S 
ATOM     67  C   UNL A   1      30.672  26.160  23.562  1.00  0.00     0.073 A 
ATOM     68  C   UNL A   1      32.160  24.544  22.771  1.00  0.00     0.068 A 
ATOM     69  C   UNL A   1      31.238  25.508  22.425  1.00  0.00     0.039 A 
BRANCH  67  70
ATOM     70  N   UNL A   1      29.856  27.301  23.559  1.00  0.00    -0.269 N 
ATOM     71  H   UNL A   1      28.949  27.160  23.914  1.00  0.00     0.181 HD
BRANCH  70  72
ATOM     72  S   UNL A   1      30.170  28.846  23.059  1.00  0.00     0.301 S 
ATOM     73  O   UNL A   1      31.309  29.336  23.798  1.00  0.00    -0.189 OA
ATOM     74  O   UNL A   1      30.207  28.786  21.614  1.00  0.00    -0.189 OA
BRANCH  72  75
ATOM     75  N   UNL A   1      28.821  29.746  23.502  1.00  0.00    -0.185 NA
ATOM     76  C   UNL A   1      27.655  29.741  22.584  1.00  0.00     0.104 C 
ATOM     77  C   UNL A   1      29.142  31.179  23.800  1.00  0.00     0.104 C 
ATOM     78  C   UNL A   1      27.695  31.078  21.884  1.00  0.00     0.018 C 
ATOM     79  C   UNL A   1      28.159  32.010  22.982  1.00  0.00     0.018 C 
ENDBRANCH  72  75
ENDBRANCH  70  72
ENDBRANCH  67  70
ENDBRANCH  62  65
ENDBRANCH  60  61
ENDBRANCH  59  60
ENDBRANCH   1  59
TORSDOF 16
ENDMDL
MODEL 3
REMARK VINA RESULT:      -9.9      4.378      9.116
REMARK SMILES O=C(NCCCCCCNC(=O)c1sccc1NS(=O)(=O)N1CCCC1)c1ccc(-c2c3nc(c(-c4ccccc4)c4ccc([nH]4)c(-c4ccccc4)c4nc(c(-c5ccccc5)c5ccc2[nH]5)C=C4)C=C3)cc1
REMARK SMILES IDX 7 1 6 2 5 3 4 4 3 5 1 6 2 7 27 9 28 10 74 11 29 12 73 13
REMARK SMILES IDX 30 14 31 15 32 16 67 17 33 18 72 19 66 20 68 21 34 22 71 23
REMARK SMILES IDX 65 24 64 25 35 27 57 28 42 29 56 30 43 31 46 32 55 33 69 34
REMARK SMILES IDX 44 35 45 36 54 38 70 39 47 40 36 41 37 42 41 43 38 44 40 45
REMARK SMILES IDX 39 46 58 47 59 48 63 49 60 50 62 51 61 52 48 53 49 54 53 55
REMARK SMILES IDX 50 56 52 57 51 58 8 59 9 60 10 61 11 62 12 64 13 65 14 66
REMARK SMILES IDX 17 67 15 68 16 69 18 70 19 72 20 73 21 74 22 75 23 76 26 77
REMARK SMILES IDX 24 78 25 79
REMARK H PARENT 3 8 68 26 46 37 10 63 18 71
REMARK Flexibility Score: inf
ROOT
ATOM      1  C   UNL A   1      33.002  30.206  27.542  1.00  0.00     0.002 C 
ENDROOT
BRANCH   1   2
ATOM      2  C   UNL A   1      31.713  30.669  26.856  1.00  0.00     0.002 C 
BRANCH   2   3
ATOM      3  C   UNL A   1      31.533  32.186  26.753  1.00  0.00     0.021 C 
BRANCH   3   4
ATOM      4  C   UNL A   1      32.794  33.000  27.017  1.00  0.00     0.116 C 
BRANCH   4   5
ATOM      5  N   UNL A   1      32.526  34.194  27.799  1.00  0.00    -0.352 N 
ATOM      6  O   UNL A   1      32.692  35.596  29.559  1.00  0.00    -0.269 OA
ATOM      7  C   UNL A   1      33.163  34.661  28.920  1.00  0.00     0.251 C 
ATOM      8  H   UNL A   1      31.779  34.750  27.478  1.00  0.00     0.163 HD
BRANCH   7   9
ATOM      9  C   UNL A   1      34.414  34.018  29.372  1.00  0.00     0.039 A 
ATOM     10  C   UNL A   1      34.397  33.051  30.381  1.00  0.00     0.014 A 
ATOM     11  C   UNL A   1      35.619  34.383  28.766  1.00  0.00     0.014 A 
ATOM     12  C   UNL A   1      35.594  32.545  30.875  1.00  0.00     0.010 A 
ATOM     13  C   UNL A   1      36.813  33.812  29.207  1.00  0.00     0.010 A 
ATOM     14  C   UNL A   1      36.814  32.910  30.283  1.00  0.00    -0.014 A 
BRANCH  14  15
ATOM     15  C   UNL A   1      38.080  32.303  30.761  1.00  0.00     0.031 A 
ATOM     16  C   UNL A   1      38.623  31.052  30.131  1.00  0.00     0.074 A 
ATOM     17  C   UNL A   1      38.731  32.881  31.788  1.00  0.00     0.049 A 
ATOM     18  N   UNL A   1      39.683  30.357  30.459  1.00  0.00    -0.248 NA
ATOM     19  C   UNL A   1      37.876  30.506  28.988  1.00  0.00     0.031 C 
ATOM     20  C   UNL A   1      38.308  34.101  32.478  1.00  0.00     0.029 A 
ATOM     21  N   UNL A   1      39.888  32.520  32.431  1.00  0.00    -0.354 N 
ATOM     22  C   UNL A   1      39.717  29.280  29.583  1.00  0.00     0.074 A 
ATOM     23  C   UNL A   1      38.557  29.399  28.726  1.00  0.00     0.031 C 
ATOM     24  C   UNL A   1      39.203  34.401  33.429  1.00  0.00     0.029 A 
ATOM     25  C   UNL A   1      40.223  33.360  33.463  1.00  0.00     0.049 A 
ATOM     26  H   UNL A   1      40.425  31.735  32.177  1.00  0.00     0.167 HD
ATOM     27  C   UNL A   1      40.634  28.285  29.501  1.00  0.00     0.031 A 
ATOM     28  C   UNL A   1      41.222  33.289  34.360  1.00  0.00     0.031 A 
ATOM     29  C   UNL A   1      41.778  28.165  30.368  1.00  0.00     0.049 A 
ATOM     30  C   UNL A   1      42.190  32.144  34.286  1.00  0.00     0.074 A 
ATOM     31  C   UNL A   1      42.780  27.211  30.347  1.00  0.00     0.029 A 
ATOM     32  N   UNL A   1      42.067  29.023  31.419  1.00  0.00    -0.354 N 
ATOM     33  N   UNL A   1      42.230  31.152  33.432  1.00  0.00    -0.248 NA
ATOM     34  C   UNL A   1      43.255  32.114  35.298  1.00  0.00     0.031 C 
ATOM     35  C   UNL A   1      43.637  27.451  31.426  1.00  0.00     0.029 A 
ATOM     36  C   UNL A   1      43.214  28.601  32.073  1.00  0.00     0.049 A 
ATOM     37  H   UNL A   1      41.536  29.815  31.664  1.00  0.00     0.167 HD
ATOM     38  C   UNL A   1      43.339  30.395  33.781  1.00  0.00     0.074 A 
ATOM     39  C   UNL A   1      43.951  31.051  34.921  1.00  0.00     0.031 C 
ATOM     40  C   UNL A   1      43.812  29.262  33.207  1.00  0.00     0.031 A 
BRANCH  27  41
ATOM     41  C   UNL A   1      40.408  27.219  28.462  1.00  0.00    -0.014 A 
ATOM     42  C   UNL A   1      39.606  26.096  28.722  1.00  0.00     0.009 A 
ATOM     43  C   UNL A   1      40.991  27.351  27.191  1.00  0.00     0.009 A 
ATOM     44  C   UNL A   1      39.431  25.108  27.749  1.00  0.00     0.001 A 
ATOM     45  C   UNL A   1      40.787  26.379  26.210  1.00  0.00     0.001 A 
ATOM     46  C   UNL A   1      40.019  25.253  26.493  1.00  0.00     0.000 A 
ENDBRANCH  27  41
BRANCH  28  47
ATOM     47  C   UNL A   1      41.339  34.331  35.412  1.00  0.00    -0.014 A 
ATOM     48  C   UNL A   1      42.098  35.489  35.190  1.00  0.00     0.009 A 
ATOM     49  C   UNL A   1      40.664  34.184  36.635  1.00  0.00     0.009 A 
ATOM     50  C   UNL A   1      42.193  36.471  36.179  1.00  0.00     0.001 A 
ATOM     51  C   UNL A   1      40.735  35.182  37.608  1.00  0.00     0.001 A 
ATOM     52  C   UNL A   1      41.506  36.321  37.383  1.00  0.00     0.000 A 
ENDBRANCH  28  47
BRANCH  40  53
ATOM     53  C   UNL A   1      45.081  28.683  33.765  1.00  0.00    -0.014 A 
ATOM     54  C   UNL A   1      45.065  27.707  34.773  1.00  0.00     0.009 A 
ATOM     55  C   UNL A   1      46.316  29.092  33.236  1.00  0.00     0.009 A 
ATOM     56  C   UNL A   1      46.261  27.176  35.260  1.00  0.00     0.001 A 
ATOM     57  C   UNL A   1      47.508  28.537  33.702  1.00  0.00     0.001 A 
ATOM     58  C   UNL A   1      47.481  27.586  34.720  1.00  0.00     0.000 A 
ENDBRANCH  40  53
ENDBRANCH  14  15
ENDBRANCH   7   9
ENDBRANCH   4   5
ENDBRANCH   3   4
ENDBRANCH   2   3
ENDBRANCH   1   2
BRANCH   1  59
ATOM     59  C   UNL A   1      34.148  29.832  26.603  1.00  0.00     0.021 C 
BRANCH  59  60
ATOM     60  C   UNL A   1      33.926  28.555  25.800  1.00  0.00     0.116 C 
BRANCH  60  61
ATOM     61  N   UNL A   1      33.945  28.791  24.364  1.00  0.00    -0.351 N 
ATOM     62  C   UNL A   1      33.206  28.169  23.380  1.00  0.00     0.263 C 
ATOM     63  H   UNL A   1      34.568  29.489  24.054  1.00  0.00     0.163 HD
ATOM     64  O   UNL A   1      33.490  28.404  22.207  1.00  0.00    -0.268 OA
BRANCH  62  65
ATOM     65  C   UNL A   1      32.135  27.292  23.800  1.00  0.00     0.116 A 
ATOM     66  S   UNL A   1      32.450  25.619  23.951  1.00  0.00    -0.136 S 
ATOM     67  C   UNL A   1      30.821  27.612  24.108  1.00  0.00     0.073 A 
ATOM     68  C   UNL A   1      30.920  25.345  24.652  1.00  0.00     0.068 A 
ATOM     69  C   UNL A   1      30.175  26.501  24.726  1.00  0.00     0.039 A 
BRANCH  67  70
ATOM     70  N   UNL A   1      30.263  28.872  23.843  1.00  0.00    -0.269 N 
ATOM     71  H   UNL A   1      30.606  29.602  24.407  1.00  0.00     0.181 HD
BRANCH  70  72
ATOM     72  S   UNL A   1      29.123  29.332  22.737  1.00  0.00     0.301 S 
ATOM     73  O   UNL A   1      29.795  29.648  21.500  1.00  0.00    -0.189 OA
ATOM     74  O   UNL A   1      28.108  28.300  22.775  1.00  0.00    -0.189 OA
BRANCH  72  75
ATOM     75  N   UNL A   1      28.443  30.743  23.349  1.00  0.00    -0.185 NA
ATOM     76  C   UNL A   1      27.543  31.518  22.460  1.00  0.00     0.104 C 
ATOM     77  C   UNL A   1      29.462  31.700  23.888  1.00  0.00     0.104 C 
ATOM     78  C   UNL A   1      28.359  32.703  22.003  1.00  0.00     0.018 C 
ATOM     79  C   UNL A   1      29.158  33.048  23.241  1.00  0.00     0.018 C 
ENDBRANCH  72  75
ENDBRANCH  70  72
ENDBRANCH  67  70
ENDBRANCH  62  65
ENDBRANCH  60  61
ENDBRANCH  59  60
ENDBRANCH   1  59
TORSDOF 16
ENDMDL
