MODEL 1
REMARK VINA RESULT:     -10.7      0.000      0.000
REMARK SMILES CCOC(=O)C1=NN(c2ccc(C)cc2Cl)[C@@](C)(C(=O)NCCCCCCNC(=O)c2ccc(-c3c4nc(c(-c5ccccc5)c5ccc([nH]5)c(-c5ccccc5)c5nc(c(-c6ccccc6)c6ccc3[nH]6)C=C5)C=C4)cc2)C1
REMARK SMILES IDX 24 1 23 2 22 3 21 4 19 5 20 6 17 8 6 9 7 10 79 11 8 12 18 13
REMARK SMILES IDX 4 14 5 15 3 16 2 17 1 18 9 19 10 20 15 21 11 22 14 23 16 24
REMARK SMILES IDX 12 25 13 26 25 27 26 28 27 29 28 30 29 31 30 33 31 34 32 35
REMARK SMILES IDX 78 36 33 37 77 38 34 39 35 40 36 41 71 42 37 43 76 44 70 45
REMARK SMILES IDX 72 46 38 47 75 48 69 49 68 50 39 52 61 53 46 54 60 55 47 56
REMARK SMILES IDX 50 57 59 58 73 59 48 60 49 61 58 63 74 64 51 65 40 66 41 67
REMARK SMILES IDX 45 68 42 69 44 70 43 71 62 72 63 73 67 74 64 75 66 76 65 77
REMARK SMILES IDX 52 78 53 79 57 80 54 81 56 82 55 83
REMARK H PARENT 21 7 28 32 72 51 50 62
REMARK Flexibility Score: inf
ROOT
ATOM      1  C   UNL A   1      34.008  26.116  25.077  1.00  0.00     0.002 C 
ENDROOT
BRANCH   1   2
ATOM      2  C   UNL A   1      33.573  25.001  26.031  1.00  0.00     0.021 C 
BRANCH   2   3
ATOM      3  C   UNL A   1      34.656  23.988  26.401  1.00  0.00     0.116 C 
BRANCH   3   4
ATOM      4  N   UNL A   1      34.091  22.722  26.816  1.00  0.00    -0.354 N 
ATOM      5  C   UNL A   1      33.862  21.549  26.167  1.00  0.00     0.248 C 
ATOM      6  O   UNL A   1      33.303  20.688  26.861  1.00  0.00    -0.272 OA
ATOM      7  H   UNL A   1      33.818  22.706  27.762  1.00  0.00     0.163 HD
BRANCH   5   8
ATOM      8  C   UNL A   1      34.284  21.249  24.694  1.00  0.00     0.144 C 
ATOM      9  C   UNL A   1      33.098  19.389  23.971  1.00  0.00     0.149 C 
ATOM     10  N   UNL A   1      32.444  20.385  23.461  1.00  0.00    -0.169 NA
ATOM     11  C   UNL A   1      34.432  19.707  24.550  1.00  0.00     0.106 C 
ATOM     12  N   UNL A   1      33.182  21.506  23.732  1.00  0.00    -0.248 N 
ATOM     13  C   UNL A   1      35.629  21.865  24.315  1.00  0.00     0.048 C 
BRANCH   9  14
ATOM     14  C   UNL A   1      32.621  17.963  23.941  1.00  0.00     0.354 C 
ATOM     15  O   UNL A   1      32.714  17.279  22.939  1.00  0.00    -0.245 OA
BRANCH  14  16
ATOM     16  O   UNL A   1      32.047  17.639  25.116  1.00  0.00    -0.461 OA
BRANCH  16  17
ATOM     17  C   UNL A   1      32.795  16.733  25.935  1.00  0.00     0.230 C 
ATOM     18  C   UNL A   1      32.443  15.294  25.603  1.00  0.00     0.049 C 
ENDBRANCH  16  17
ENDBRANCH  14  16
ENDBRANCH   9  14
BRANCH  12  19
ATOM     19  C   UNL A   1      32.685  22.735  23.317  1.00  0.00     0.079 A 
ATOM     20  C   UNL A   1      33.294  23.400  22.240  1.00  0.00     0.030 A 
ATOM     21  C   UNL A   1      31.552  23.351  23.890  1.00  0.00     0.066 A 
ATOM     22  C   UNL A   1      32.833  24.639  21.775  1.00  0.00     0.006 A 
ATOM     23  C   UNL A   1      31.086  24.591  23.423  1.00  0.00     0.026 A 
ATOM     24  Cl  UNL A   1      30.724  22.682  25.259  1.00  0.00    -0.082 Cl
ATOM     25  C   UNL A   1      31.723  25.244  22.363  1.00  0.00    -0.049 A 
ATOM     26  C   UNL A   1      31.233  26.583  21.898  1.00  0.00     0.044 C 
ENDBRANCH  12  19
ENDBRANCH   5   8
ENDBRANCH   3   4
ENDBRANCH   2   3
ENDBRANCH   1   2
BRANCH   1  27
ATOM     27  C   UNL A   1      33.105  27.351  25.033  1.00  0.00     0.002 C 
BRANCH  27  28
ATOM     28  C   UNL A   1      32.647  27.901  26.389  1.00  0.00     0.021 C 
BRANCH  28  29
ATOM     29  C   UNL A   1      33.751  28.392  27.325  1.00  0.00     0.116 C 
BRANCH  29  30
ATOM     30  N   UNL A   1      33.605  29.785  27.703  1.00  0.00    -0.352 N 
ATOM     31  C   UNL A   1      34.535  30.638  28.240  1.00  0.00     0.251 C 
ATOM     32  H   UNL A   1      32.713  30.172  27.552  1.00  0.00     0.163 HD
ATOM     33  O   UNL A   1      34.201  31.770  28.580  1.00  0.00    -0.269 OA
BRANCH  31  34
ATOM     34  C   UNL A   1      35.936  30.201  28.449  1.00  0.00     0.039 A 
ATOM     35  C   UNL A   1      36.287  29.702  29.708  1.00  0.00     0.014 A 
ATOM     36  C   UNL A   1      36.910  30.331  27.454  1.00  0.00     0.014 A 
ATOM     37  C   UNL A   1      37.600  29.293  29.959  1.00  0.00     0.010 A 
ATOM     38  C   UNL A   1      38.218  29.902  27.697  1.00  0.00     0.010 A 
ATOM     39  C   UNL A   1      38.571  29.381  28.951  1.00  0.00    -0.014 A 
BRANCH  39  40
ATOM     40  C   UNL A   1      39.961  28.940  29.209  1.00  0.00     0.031 A 
ATOM     41  C   UNL A   1      40.425  27.588  28.753  1.00  0.00     0.074 A 
ATOM     42  C   UNL A   1      40.805  29.749  29.876  1.00  0.00     0.049 A 
ATOM     43  N   UNL A   1      41.586  27.010  28.943  1.00  0.00    -0.248 NA
ATOM     44  C   UNL A   1      39.460  26.777  27.996  1.00  0.00     0.031 C 
ATOM     45  C   UNL A   1      40.478  31.078  30.391  1.00  0.00     0.029 A 
ATOM     46  N   UNL A   1      42.116  29.561  30.234  1.00  0.00    -0.354 N 
ATOM     47  C   UNL A   1      41.480  25.757  28.357  1.00  0.00     0.074 A 
ATOM     48  C   UNL A   1      40.148  25.662  27.797  1.00  0.00     0.031 C 
ATOM     49  C   UNL A   1      41.566  31.593  30.990  1.00  0.00     0.029 A 
ATOM     50  C   UNL A   1      42.657  30.626  30.908  1.00  0.00     0.049 A 
ATOM     51  H   UNL A   1      42.620  28.741  30.026  1.00  0.00     0.167 HD
ATOM     52  C   UNL A   1      42.404  24.770  28.297  1.00  0.00     0.031 A 
ATOM     53  C   UNL A   1      43.895  30.806  31.402  1.00  0.00     0.031 A 
ATOM     54  C   UNL A   1      43.738  24.857  28.823  1.00  0.00     0.049 A 
ATOM     55  C   UNL A   1      44.928  29.731  31.244  1.00  0.00     0.074 A 
ATOM     56  C   UNL A   1      44.737  23.897  28.817  1.00  0.00     0.029 A 
ATOM     57  N   UNL A   1      44.268  25.981  29.435  1.00  0.00    -0.354 N 
ATOM     58  N   UNL A   1      44.804  28.543  30.707  1.00  0.00    -0.248 NA
ATOM     59  C   UNL A   1      46.273  30.027  31.759  1.00  0.00     0.031 C 
ATOM     60  C   UNL A   1      45.877  24.446  29.418  1.00  0.00     0.029 A 
ATOM     61  C   UNL A   1      45.584  25.746  29.794  1.00  0.00     0.049 A 
ATOM     62  H   UNL A   1      43.781  26.822  29.589  1.00  0.00     0.167 HD
ATOM     63  C   UNL A   1      46.053  27.950  30.819  1.00  0.00     0.074 A 
ATOM     64  C   UNL A   1      46.924  28.909  31.466  1.00  0.00     0.031 C 
ATOM     65  C   UNL A   1      46.439  26.712  30.425  1.00  0.00     0.031 A 
BRANCH  52  66
ATOM     66  C   UNL A   1      41.983  23.491  27.643  1.00  0.00    -0.014 A 
ATOM     67  C   UNL A   1      41.304  22.504  28.371  1.00  0.00     0.009 A 
ATOM     68  C   UNL A   1      42.256  23.278  26.284  1.00  0.00     0.009 A 
ATOM     69  C   UNL A   1      40.921  21.314  27.751  1.00  0.00     0.001 A 
ATOM     70  C   UNL A   1      41.866  22.090  25.665  1.00  0.00     0.001 A 
ATOM     71  C   UNL A   1      41.202  21.107  26.400  1.00  0.00     0.000 A 
ENDBRANCH  52  66
BRANCH  53  72
ATOM     72  C   UNL A   1      44.233  32.073  32.089  1.00  0.00    -0.014 A 
ATOM     73  C   UNL A   1      44.058  32.191  33.475  1.00  0.00     0.009 A 
ATOM     74  C   UNL A   1      44.733  33.161  31.361  1.00  0.00     0.009 A 
ATOM     75  C   UNL A   1      44.370  33.389  34.121  1.00  0.00     0.001 A 
ATOM     76  C   UNL A   1      45.047  34.354  32.011  1.00  0.00     0.001 A 
ATOM     77  C   UNL A   1      44.864  34.468  33.389  1.00  0.00     0.000 A 
ENDBRANCH  53  72
BRANCH  65  78
ATOM     78  C   UNL A   1      47.865  26.337  30.678  1.00  0.00    -0.014 A 
ATOM     79  C   UNL A   1      48.251  25.808  31.918  1.00  0.00     0.009 A 
ATOM     80  C   UNL A   1      48.825  26.498  29.668  1.00  0.00     0.009 A 
ATOM     81  C   UNL A   1      49.582  25.456  32.147  1.00  0.00     0.001 A 
ATOM     82  C   UNL A   1      50.155  26.142  29.902  1.00  0.00     0.001 A 
ATOM     83  C   UNL A   1      50.532  25.625  31.140  1.00  0.00     0.000 A 
ENDBRANCH  65  78
ENDBRANCH  39  40
ENDBRANCH  31  34
ENDBRANCH  29  30
ENDBRANCH  28  29
ENDBRANCH  27  28
ENDBRANCH   1  27
TORSDOF 17
ENDMDL
MODEL 2
REMARK VINA RESULT:     -10.6      2.467      7.585
REMARK SMILES CCOC(=O)C1=NN(c2ccc(C)cc2Cl)[C@@](C)(C(=O)NCCCCCCNC(=O)c2ccc(-c3c4nc(c(-c5ccccc5)c5ccc([nH]5)c(-c5ccccc5)c5nc(c(-c6ccccc6)c6ccc3[nH]6)C=C5)C=C4)cc2)C1
REMARK SMILES IDX 24 1 23 2 22 3 21 4 19 5 20 6 17 8 6 9 7 10 79 11 8 12 18 13
REMARK SMILES IDX 4 14 5 15 3 16 2 17 1 18 9 19 10 20 15 21 11 22 14 23 16 24
REMARK SMILES IDX 12 25 13 26 25 27 26 28 27 29 28 30 29 31 30 33 31 34 32 35
REMARK SMILES IDX 78 36 33 37 77 38 34 39 35 40 36 41 71 42 37 43 76 44 70 45
REMARK SMILES IDX 72 46 38 47 75 48 69 49 68 50 39 52 61 53 46 54 60 55 47 56
REMARK SMILES IDX 50 57 59 58 73 59 48 60 49 61 58 63 74 64 51 65 40 66 41 67
REMARK SMILES IDX 45 68 42 69 44 70 43 71 62 72 63 73 67 74 64 75 66 76 65 77
REMARK SMILES IDX 52 78 53 79 57 80 54 81 56 82 55 83
REMARK H PARENT 21 7 28 32 72 51 50 62
REMARK Flexibility Score: inf
ROOT
ATOM      1  C   UNL A   1      36.457  22.187  23.919  1.00  0.00     0.002 C 
ENDROOT
BRANCH   1   2
ATOM      2  C   UNL A   1      36.486  23.456  24.775  1.00  0.00     0.021 C 
BRANCH   2   3
ATOM      3  C   UNL A   1      35.131  23.926  25.304  1.00  0.00     0.116 C 
BRANCH   3   4
ATOM      4  N   UNL A   1      34.735  25.190  24.722  1.00  0.00    -0.354 N 
ATOM      5  C   UNL A   1      33.547  25.849  24.650  1.00  0.00     0.248 C 
ATOM      6  O   UNL A   1      33.595  26.910  24.011  1.00  0.00    -0.272 OA
ATOM      7  H   UNL A   1      35.477  25.673  24.291  1.00  0.00     0.163 HD
BRANCH   5   8
ATOM      8  C   UNL A   1      32.223  25.376  25.329  1.00  0.00     0.144 C 
ATOM      9  C   UNL A   1      30.448  26.081  24.012  1.00  0.00     0.149 C 
ATOM     10  N   UNL A   1      30.592  24.835  23.686  1.00  0.00    -0.169 NA
ATOM     11  C   UNL A   1      31.194  26.536  25.217  1.00  0.00     0.106 C 
ATOM     12  N   UNL A   1      31.533  24.324  24.540  1.00  0.00    -0.248 N 
ATOM     13  C   UNL A   1      32.387  25.065  26.815  1.00  0.00     0.048 C 
BRANCH   9  14
ATOM     14  C   UNL A   1      29.534  27.039  23.298  1.00  0.00     0.354 C 
ATOM     15  O   UNL A   1      28.335  27.054  23.506  1.00  0.00    -0.245 OA
BRANCH  14  16
ATOM     16  O   UNL A   1      30.228  27.763  22.399  1.00  0.00    -0.461 OA
BRANCH  16  17
ATOM     17  C   UNL A   1      29.960  29.170  22.407  1.00  0.00     0.230 C 
ATOM     18  C   UNL A   1      30.234  29.761  23.778  1.00  0.00     0.049 C 
ENDBRANCH  16  17
ENDBRANCH  14  16
ENDBRANCH   9  14
BRANCH  12  19
ATOM     19  C   UNL A   1      31.906  22.994  24.385  1.00  0.00     0.079 A 
ATOM     20  C   UNL A   1      31.583  22.065  25.388  1.00  0.00     0.030 A 
ATOM     21  C   UNL A   1      32.560  22.496  23.239  1.00  0.00     0.066 A 
ATOM     22  C   UNL A   1      31.928  20.711  25.285  1.00  0.00     0.006 A 
ATOM     23  C   UNL A   1      32.904  21.139  23.132  1.00  0.00     0.026 A 
ATOM     24  Cl  UNL A   1      33.072  23.526  21.941  1.00  0.00    -0.082 Cl
ATOM     25  C   UNL A   1      32.591  20.236  24.154  1.00  0.00    -0.049 A 
ATOM     26  C   UNL A   1      32.994  18.797  24.039  1.00  0.00     0.044 C 
ENDBRANCH  12  19
ENDBRANCH   5   8
ENDBRANCH   3   4
ENDBRANCH   2   3
ENDBRANCH   1   2
BRANCH   1  27
ATOM     27  C   UNL A   1      36.390  20.864  24.685  1.00  0.00     0.002 C 
BRANCH  27  28
ATOM     28  C   UNL A   1      37.665  20.011  24.674  1.00  0.00     0.021 C 
BRANCH  28  29
ATOM     29  C   UNL A   1      38.681  20.304  25.778  1.00  0.00     0.116 C 
BRANCH  29  30
ATOM     30  N   UNL A   1      39.807  19.390  25.777  1.00  0.00    -0.352 N 
ATOM     31  C   UNL A   1      41.118  19.632  26.103  1.00  0.00     0.251 C 
ATOM     32  H   UNL A   1      39.603  18.468  25.503  1.00  0.00     0.163 HD
ATOM     33  O   UNL A   1      41.957  18.748  25.956  1.00  0.00    -0.269 OA
BRANCH  31  34
ATOM     34  C   UNL A   1      41.544  20.962  26.601  1.00  0.00     0.039 A 
ATOM     35  C   UNL A   1      41.419  21.220  27.971  1.00  0.00     0.014 A 
ATOM     36  C   UNL A   1      41.999  21.966  25.741  1.00  0.00     0.014 A 
ATOM     37  C   UNL A   1      41.792  22.465  28.486  1.00  0.00     0.010 A 
ATOM     38  C   UNL A   1      42.392  23.203  26.258  1.00  0.00     0.010 A 
ATOM     39  C   UNL A   1      42.290  23.461  27.634  1.00  0.00    -0.014 A 
BRANCH  39  40
ATOM     40  C   UNL A   1      42.695  24.778  28.176  1.00  0.00     0.031 A 
ATOM     41  C   UNL A   1      41.669  25.842  28.433  1.00  0.00     0.074 A 
ATOM     42  C   UNL A   1      43.996  25.029  28.417  1.00  0.00     0.049 A 
ATOM     43  N   UNL A   1      41.846  27.072  28.847  1.00  0.00    -0.248 NA
ATOM     44  C   UNL A   1      40.265  25.482  28.183  1.00  0.00     0.031 C 
ATOM     45  C   UNL A   1      45.097  24.092  28.194  1.00  0.00     0.029 A 
ATOM     46  N   UNL A   1      44.606  26.156  28.905  1.00  0.00    -0.354 N 
ATOM     47  C   UNL A   1      40.582  27.642  28.878  1.00  0.00     0.074 A 
ATOM     48  C   UNL A   1      39.646  26.622  28.451  1.00  0.00     0.031 C 
ATOM     49  C   UNL A   1      46.250  24.681  28.556  1.00  0.00     0.029 A 
ATOM     50  C   UNL A   1      45.966  26.034  29.025  1.00  0.00     0.049 A 
ATOM     51  H   UNL A   1      44.114  26.974  29.146  1.00  0.00     0.167 HD
ATOM     52  C   UNL A   1      40.230  28.903  29.222  1.00  0.00     0.031 A 
ATOM     53  C   UNL A   1      46.884  26.913  29.466  1.00  0.00     0.031 A 
ATOM     54  C   UNL A   1      41.141  29.918  29.674  1.00  0.00     0.049 A 
ATOM     55  C   UNL A   1      46.457  28.275  29.925  1.00  0.00     0.074 A 
ATOM     56  C   UNL A   1      40.869  31.229  30.031  1.00  0.00     0.029 A 
ATOM     57  N   UNL A   1      42.501  29.729  29.849  1.00  0.00    -0.354 N 
ATOM     58  N   UNL A   1      45.260  28.805  29.927  1.00  0.00    -0.248 NA
ATOM     59  C   UNL A   1      47.512  29.156  30.449  1.00  0.00     0.031 C 
ATOM     60  C   UNL A   1      42.068  31.831  30.433  1.00  0.00     0.029 A 
ATOM     61  C   UNL A   1      43.081  30.893  30.326  1.00  0.00     0.049 A 
ATOM     62  H   UNL A   1      42.983  28.892  29.663  1.00  0.00     0.167 HD
ATOM     63  C   UNL A   1      45.415  30.080  30.449  1.00  0.00     0.074 A 
ATOM     64  C   UNL A   1      46.819  30.244  30.763  1.00  0.00     0.031 C 
ATOM     65  C   UNL A   1      44.474  31.035  30.643  1.00  0.00     0.031 A 
BRANCH  52  66
ATOM     66  C   UNL A   1      38.780  29.254  29.104  1.00  0.00    -0.014 A 
ATOM     67  C   UNL A   1      38.256  29.734  27.895  1.00  0.00     0.009 A 
ATOM     68  C   UNL A   1      37.928  29.090  30.206  1.00  0.00     0.009 A 
ATOM     69  C   UNL A   1      36.902  30.062  27.798  1.00  0.00     0.001 A 
ATOM     70  C   UNL A   1      36.575  29.414  30.104  1.00  0.00     0.001 A 
ATOM     71  C   UNL A   1      36.064  29.903  28.902  1.00  0.00     0.000 A 
ENDBRANCH  52  66
BRANCH  53  72
ATOM     72  C   UNL A   1      48.311  26.524  29.506  1.00  0.00    -0.014 A 
ATOM     73  C   UNL A   1      48.819  25.820  30.608  1.00  0.00     0.009 A 
ATOM     74  C   UNL A   1      49.164  26.851  28.444  1.00  0.00     0.009 A 
ATOM     75  C   UNL A   1      50.167  25.460  30.648  1.00  0.00     0.001 A 
ATOM     76  C   UNL A   1      50.510  26.484  28.487  1.00  0.00     0.001 A 
ATOM     77  C   UNL A   1      51.010  25.791  29.589  1.00  0.00     0.000 A 
ENDBRANCH  53  72
BRANCH  65  78
ATOM     78  C   UNL A   1      44.938  32.332  31.229  1.00  0.00    -0.014 A 
ATOM     79  C   UNL A   1      44.944  32.521  32.618  1.00  0.00     0.009 A 
ATOM     80  C   UNL A   1      45.387  33.363  30.391  1.00  0.00     0.009 A 
ATOM     81  C   UNL A   1      45.381  33.731  33.160  1.00  0.00     0.001 A 
ATOM     82  C   UNL A   1      45.826  34.570  30.937  1.00  0.00     0.001 A 
ATOM     83  C   UNL A   1      45.819  34.754  32.319  1.00  0.00     0.000 A 
ENDBRANCH  65  78
ENDBRANCH  39  40
ENDBRANCH  31  34
ENDBRANCH  29  30
ENDBRANCH  28  29
ENDBRANCH  27  28
ENDBRANCH   1  27
TORSDOF 17
ENDMDL
MODEL 3
REMARK VINA RESULT:     -10.5      2.922      7.409
REMARK SMILES CCOC(=O)C1=NN(c2ccc(C)cc2Cl)[C@@](C)(C(=O)NCCCCCCNC(=O)c2ccc(-c3c4nc(c(-c5ccccc5)c5ccc([nH]5)c(-c5ccccc5)c5nc(c(-c6ccccc6)c6ccc3[nH]6)C=C5)C=C4)cc2)C1
REMARK SMILES IDX 24 1 23 2 22 3 21 4 19 5 20 6 17 8 6 9 7 10 79 11 8 12 18 13
REMARK SMILES IDX 4 14 5 15 3 16 2 17 1 18 9 19 10 20 15 21 11 22 14 23 16 24
REMARK SMILES IDX 12 25 13 26 25 27 26 28 27 29 28 30 29 31 30 33 31 34 32 35
REMARK SMILES IDX 78 36 33 37 77 38 34 39 35 40 36 41 71 42 37 43 76 44 70 45
REMARK SMILES IDX 72 46 38 47 75 48 69 49 68 50 39 52 61 53 46 54 60 55 47 56
REMARK SMILES IDX 50 57 59 58 73 59 48 60 49 61 58 63 74 64 51 65 40 66 41 67
REMARK SMILES IDX 45 68 42 69 44 70 43 71 62 72 63 73 67 74 64 75 66 76 65 77
REMARK SMILES IDX 52 78 53 79 57 80 54 81 56 82 55 83
REMARK H PARENT 21 7 28 32 72 51 50 62
REMARK Flexibility Score: inf
ROOT
ATOM      1  C   UNL A   1      30.796  30.358  25.027  1.00  0.00     0.002 C 
ENDROOT
BRANCH   1   2
ATOM      2  C   UNL A   1      30.262  30.200  23.601  1.00  0.00     0.021 C 
BRANCH   2   3
ATOM      3  C   UNL A   1      29.516  28.896  23.317  1.00  0.00     0.116 C 
BRANCH   3   4
ATOM      4  N   UNL A   1      30.205  28.085  22.336  1.00  0.00    -0.354 N 
ATOM      5  C   UNL A   1      30.835  26.881  22.401  1.00  0.00     0.248 C 
ATOM      6  O   UNL A   1      31.361  26.526  21.337  1.00  0.00    -0.272 OA
ATOM      7  H   UNL A   1      30.219  28.486  21.436  1.00  0.00     0.163 HD
BRANCH   5   8
ATOM      8  C   UNL A   1      30.884  25.969  23.668  1.00  0.00     0.144 C 
ATOM      9  C   UNL A   1      32.303  24.189  23.217  1.00  0.00     0.149 C 
ATOM     10  N   UNL A   1      33.041  24.998  23.910  1.00  0.00    -0.169 NA
ATOM     11  C   UNL A   1      30.845  24.491  23.187  1.00  0.00     0.106 C 
ATOM     12  N   UNL A   1      32.213  26.003  24.332  1.00  0.00    -0.248 N 
ATOM     13  C   UNL A   1      29.691  26.169  24.600  1.00  0.00     0.048 C 
BRANCH   9  14
ATOM     14  C   UNL A   1      32.821  22.958  22.525  1.00  0.00     0.354 C 
ATOM     15  O   UNL A   1      33.560  23.030  21.561  1.00  0.00    -0.245 OA
BRANCH  14  16
ATOM     16  O   UNL A   1      32.290  21.852  23.081  1.00  0.00    -0.461 OA
BRANCH  16  17
ATOM     17  C   UNL A   1      33.148  21.150  23.989  1.00  0.00     0.230 C 
ATOM     18  C   UNL A   1      32.353  20.163  24.825  1.00  0.00     0.049 C 
ENDBRANCH  16  17
ENDBRANCH  14  16
ENDBRANCH   9  14
BRANCH  12  19
ATOM     19  C   UNL A   1      32.764  27.037  25.079  1.00  0.00     0.079 A 
ATOM     20  C   UNL A   1      32.499  27.112  26.456  1.00  0.00     0.030 A 
ATOM     21  C   UNL A   1      33.631  28.011  24.541  1.00  0.00     0.066 A 
ATOM     22  C   UNL A   1      33.031  28.129  27.261  1.00  0.00     0.006 A 
ATOM     23  C   UNL A   1      34.168  29.029  25.347  1.00  0.00     0.026 A 
ATOM     24  Cl  UNL A   1      34.011  28.084  22.851  1.00  0.00    -0.082 Cl
ATOM     25  C   UNL A   1      33.872  29.095  26.712  1.00  0.00    -0.049 A 
ATOM     26  C   UNL A   1      34.427  30.206  27.551  1.00  0.00     0.044 C 
ENDBRANCH  12  19
ENDBRANCH   5   8
ENDBRANCH   3   4
ENDBRANCH   2   3
ENDBRANCH   1   2
BRANCH   1  27
ATOM     27  C   UNL A   1      30.709  31.764  25.623  1.00  0.00     0.002 C 
BRANCH  27  28
ATOM     28  C   UNL A   1      31.416  31.974  26.968  1.00  0.00     0.021 C 
BRANCH  28  29
ATOM     29  C   UNL A   1      32.588  32.956  26.967  1.00  0.00     0.116 C 
BRANCH  29  30
ATOM     30  N   UNL A   1      32.368  34.109  27.819  1.00  0.00    -0.352 N 
ATOM     31  C   UNL A   1      33.152  34.596  28.834  1.00  0.00     0.251 C 
ATOM     32  H   UNL A   1      31.542  34.613  27.643  1.00  0.00     0.163 HD
ATOM     33  O   UNL A   1      32.757  35.543  29.510  1.00  0.00    -0.269 OA
BRANCH  31  34
ATOM     34  C   UNL A   1      34.459  33.973  29.151  1.00  0.00     0.039 A 
ATOM     35  C   UNL A   1      34.546  33.178  30.299  1.00  0.00     0.014 A 
ATOM     36  C   UNL A   1      35.600  34.208  28.378  1.00  0.00     0.014 A 
ATOM     37  C   UNL A   1      35.760  32.582  30.649  1.00  0.00     0.010 A 
ATOM     38  C   UNL A   1      36.810  33.596  28.715  1.00  0.00     0.010 A 
ATOM     39  C   UNL A   1      36.898  32.780  29.853  1.00  0.00    -0.014 A 
BRANCH  39  40
ATOM     40  C   UNL A   1      38.186  32.143  30.214  1.00  0.00     0.031 A 
ATOM     41  C   UNL A   1      39.126  32.819  31.168  1.00  0.00     0.074 A 
ATOM     42  C   UNL A   1      38.523  30.961  29.665  1.00  0.00     0.049 A 
ATOM     43  N   UNL A   1      40.320  32.441  31.552  1.00  0.00    -0.248 NA
ATOM     44  C   UNL A   1      38.672  34.087  31.758  1.00  0.00     0.031 C 
ATOM     45  C   UNL A   1      37.712  30.206  28.710  1.00  0.00     0.029 A 
ATOM     46  N   UNL A   1      39.645  30.192  29.836  1.00  0.00    -0.354 N 
ATOM     47  C   UNL A   1      40.773  33.438  32.403  1.00  0.00     0.074 A 
ATOM     48  C   UNL A   1      39.723  34.433  32.488  1.00  0.00     0.031 C 
ATOM     49  C   UNL A   1      38.360  29.074  28.388  1.00  0.00     0.029 A 
ATOM     50  C   UNL A   1      39.630  29.031  29.106  1.00  0.00     0.049 A 
ATOM     51  H   UNL A   1      40.390  30.448  30.427  1.00  0.00     0.167 HD
ATOM     52  C   UNL A   1      41.959  33.525  33.051  1.00  0.00     0.031 A 
ATOM     53  C   UNL A   1      40.538  28.041  29.025  1.00  0.00     0.031 A 
ATOM     54  C   UNL A   1      42.999  32.536  33.000  1.00  0.00     0.049 A 
ATOM     55  C   UNL A   1      41.805  28.120  29.821  1.00  0.00     0.074 A 
ATOM     56  C   UNL A   1      44.240  32.551  33.616  1.00  0.00     0.029 A 
ATOM     57  N   UNL A   1      42.912  31.342  32.305  1.00  0.00    -0.354 N 
ATOM     58  N   UNL A   1      42.227  29.081  30.604  1.00  0.00    -0.248 NA
ATOM     59  C   UNL A   1      42.718  26.971  29.724  1.00  0.00     0.031 C 
ATOM     60  C   UNL A   1      44.901  31.357  33.300  1.00  0.00     0.029 A 
ATOM     61  C   UNL A   1      44.069  30.603  32.490  1.00  0.00     0.049 A 
ATOM     62  H   UNL A   1      42.142  31.060  31.761  1.00  0.00     0.167 HD
ATOM     63  C   UNL A   1      43.453  28.656  31.092  1.00  0.00     0.074 A 
ATOM     64  C   UNL A   1      43.706  27.346  30.527  1.00  0.00     0.031 C 
ATOM     65  C   UNL A   1      44.299  29.301  31.931  1.00  0.00     0.031 A 
BRANCH  52  66
ATOM     66  C   UNL A   1      42.193  34.758  33.865  1.00  0.00    -0.014 A 
ATOM     67  C   UNL A   1      41.853  34.793  35.226  1.00  0.00     0.009 A 
ATOM     68  C   UNL A   1      42.770  35.890  33.271  1.00  0.00     0.009 A 
ATOM     69  C   UNL A   1      42.072  35.951  35.974  1.00  0.00     0.001 A 
ATOM     70  C   UNL A   1      42.992  37.044  34.024  1.00  0.00     0.001 A 
ATOM     71  C   UNL A   1      42.640  37.075  35.373  1.00  0.00     0.000 A 
ENDBRANCH  52  66
BRANCH  53  72
ATOM     72  C   UNL A   1      40.271  26.873  28.156  1.00  0.00    -0.014 A 
ATOM     73  C   UNL A   1      40.791  26.828  26.855  1.00  0.00     0.009 A 
ATOM     74  C   UNL A   1      39.501  25.802  28.629  1.00  0.00     0.009 A 
ATOM     75  C   UNL A   1      40.533  25.730  26.034  1.00  0.00     0.001 A 
ATOM     76  C   UNL A   1      39.249  24.703  27.806  1.00  0.00     0.001 A 
ATOM     77  C   UNL A   1      39.764  24.669  26.510  1.00  0.00     0.000 A 
ENDBRANCH  53  72
BRANCH  65  78
ATOM     78  C   UNL A   1      45.567  28.591  32.289  1.00  0.00    -0.014 A 
ATOM     79  C   UNL A   1      46.729  28.784  31.528  1.00  0.00     0.009 A 
ATOM     80  C   UNL A   1      45.606  27.738  33.402  1.00  0.00     0.009 A 
ATOM     81  C   UNL A   1      47.909  28.122  31.869  1.00  0.00     0.001 A 
ATOM     82  C   UNL A   1      46.790  27.080  33.740  1.00  0.00     0.001 A 
ATOM     83  C   UNL A   1      47.938  27.271  32.972  1.00  0.00     0.000 A 
ENDBRANCH  65  78
ENDBRANCH  39  40
ENDBRANCH  31  34
ENDBRANCH  29  30
ENDBRANCH  28  29
ENDBRANCH  27  28
ENDBRANCH   1  27
TORSDOF 17
ENDMDL
