MODEL 1
REMARK VINA RESULT:     -11.4      0.000      0.000
REMARK SMILES COc1ccc([N+](=O)[O-])cc1C(=O)N[C@@H](Cc1c[nH]c2ccccc12)C(=O)NCCCCCCNC(=O)c1ccc(-c2c3nc(c(-c4ccccc4)c4ccc([nH]4)c(-c4ccccc4)c4nc(c(-c5ccccc5)c5ccc2[nH]5)C=C4)C=C3)cc1
REMARK SMILES IDX 31 1 30 2 29 3 28 4 26 5 27 6 15 8 14 9 12 10 13 11 11 13
REMARK SMILES IDX 3 14 4 15 5 16 10 17 6 18 2 19 1 20 7 21 8 22 9 23 16 24
REMARK SMILES IDX 17 25 18 26 25 27 19 28 20 29 24 30 21 32 23 33 22 34 32 35
REMARK SMILES IDX 33 36 34 37 35 38 36 39 37 41 38 42 39 43 85 44 40 45 84 46
REMARK SMILES IDX 41 47 42 48 43 49 78 50 44 51 83 52 77 53 79 54 45 55 82 56
REMARK SMILES IDX 76 57 75 58 46 60 68 61 53 62 67 63 54 64 57 65 66 66 80 67
REMARK SMILES IDX 55 68 56 69 65 71 81 72 58 73 47 74 48 75 52 76 49 77 51 78
REMARK SMILES IDX 50 79 69 80 70 81 74 82 71 83 73 84 72 85 59 86 60 87 64 88
REMARK SMILES IDX 61 89 63 90 62 91
REMARK H PARENT 28 7 14 12 19 31 35 40 79 59 57 70
REMARK Flexibility Score: inf
ROOT
ATOM      1  C   UNL A   1      36.550  22.572  23.524  1.00  0.00     0.002 C 
ENDROOT
BRANCH   1   2
ATOM      2  C   UNL A   1      35.566  23.721  23.736  1.00  0.00     0.021 C 
BRANCH   2   3
ATOM      3  C   UNL A   1      35.049  23.909  25.167  1.00  0.00     0.116 C 
BRANCH   3   4
ATOM      4  N   UNL A   1      34.133  25.023  25.296  1.00  0.00    -0.354 N 
ATOM      5  C   UNL A   1      32.770  24.970  25.448  1.00  0.00     0.242 C 
ATOM      6  O   UNL A   1      32.336  25.578  26.435  1.00  0.00    -0.273 OA
ATOM      7  H   UNL A   1      34.534  25.922  25.271  1.00  0.00     0.163 HD
BRANCH   5   8
ATOM      8  C   UNL A   1      31.783  24.329  24.405  1.00  0.00     0.176 C 
BRANCH   8   9
ATOM      9  N   UNL A   1      32.025  24.955  23.098  1.00  0.00    -0.340 N 
ATOM     10  C   UNL A   1      31.682  26.132  22.499  1.00  0.00     0.255 C 
ATOM     11  O   UNL A   1      31.909  26.224  21.289  1.00  0.00    -0.269 OA
ATOM     12  H   UNL A   1      32.568  24.383  22.508  1.00  0.00     0.164 HD
BRANCH  10  13
ATOM     13  C   UNL A   1      31.127  27.334  23.174  1.00  0.00     0.088 A 
ATOM     14  C   UNL A   1      31.876  28.201  23.979  1.00  0.00     0.132 A 
ATOM     15  C   UNL A   1      31.342  29.420  24.428  1.00  0.00     0.054 A 
ATOM     16  C   UNL A   1      30.101  29.855  23.972  1.00  0.00     0.089 A 
ATOM     17  C   UNL A   1      29.861  27.771  22.733  1.00  0.00     0.103 A 
ATOM     18  C   UNL A   1      29.374  29.037  23.101  1.00  0.00     0.270 A 
BRANCH  14  19
ATOM     19  O   UNL A   1      33.174  27.962  24.328  1.00  0.00    -0.496 OA
ATOM     20  C   UNL A   1      33.558  28.795  25.424  1.00  0.00     0.278 C 
ENDBRANCH  14  19
BRANCH  18  21
ATOM     21  N   UNL A   1      28.137  29.554  22.496  1.00  0.00     0.062 N 
ATOM     22  O   UNL A   1      28.159  29.826  21.287  1.00  0.00    -0.258 OA
ATOM     23  O   UNL A   1      27.142  29.667  23.224  1.00  0.00    -0.258 OA
ENDBRANCH  18  21
ENDBRANCH  10  13
ENDBRANCH   8   9
BRANCH   8  24
ATOM     24  C   UNL A   1      31.568  22.776  24.395  1.00  0.00     0.072 C 
BRANCH  24  25
ATOM     25  C   UNL A   1      32.565  21.837  23.703  1.00  0.00    -0.020 A 
ATOM     26  C   UNL A   1      32.620  21.643  22.334  1.00  0.00     0.087 A 
ATOM     27  C   UNL A   1      33.017  20.524  24.083  1.00  0.00     0.003 A 
ATOM     28  N   UNL A   1      31.810  20.499  22.255  1.00  0.00    -0.361 N 
ATOM     29  C   UNL A   1      32.281  19.676  23.254  1.00  0.00     0.046 A 
ATOM     30  C   UNL A   1      34.158  19.951  24.682  1.00  0.00     0.010 A 
ATOM     31  H   UNL A   1      31.073  20.325  21.627  1.00  0.00     0.166 HD
ATOM     32  C   UNL A   1      32.296  18.290  23.287  1.00  0.00     0.026 A 
ATOM     33  C   UNL A   1      34.356  18.560  24.543  1.00  0.00     0.001 A 
ATOM     34  C   UNL A   1      33.404  17.743  23.919  1.00  0.00     0.002 A 
ENDBRANCH  24  25
ENDBRANCH   8  24
ENDBRANCH   5   8
ENDBRANCH   3   4
ENDBRANCH   2   3
ENDBRANCH   1   2
BRANCH   1  35
ATOM     35  C   UNL A   1      37.371  22.189  24.760  1.00  0.00     0.002 C 
BRANCH  35  36
ATOM     36  C   UNL A   1      37.953  20.770  24.758  1.00  0.00     0.021 C 
BRANCH  36  37
ATOM     37  C   UNL A   1      38.583  20.336  26.078  1.00  0.00     0.116 C 
BRANCH  37  38
ATOM     38  N   UNL A   1      39.749  19.496  25.859  1.00  0.00    -0.352 N 
ATOM     39  C   UNL A   1      41.078  19.834  25.867  1.00  0.00     0.251 C 
ATOM     40  H   UNL A   1      39.557  18.547  25.681  1.00  0.00     0.163 HD
ATOM     41  O   UNL A   1      41.909  19.082  25.377  1.00  0.00    -0.269 OA
BRANCH  39  42
ATOM     42  C   UNL A   1      41.502  21.112  26.475  1.00  0.00     0.039 A 
ATOM     43  C   UNL A   1      41.918  22.155  25.645  1.00  0.00     0.014 A 
ATOM     44  C   UNL A   1      41.520  21.264  27.865  1.00  0.00     0.014 A 
ATOM     45  C   UNL A   1      42.309  23.369  26.210  1.00  0.00     0.010 A 
ATOM     46  C   UNL A   1      41.837  22.498  28.422  1.00  0.00     0.010 A 
ATOM     47  C   UNL A   1      42.247  23.558  27.600  1.00  0.00    -0.014 A 
BRANCH  47  48
ATOM     48  C   UNL A   1      42.616  24.857  28.214  1.00  0.00     0.031 A 
ATOM     49  C   UNL A   1      41.573  25.924  28.409  1.00  0.00     0.074 A 
ATOM     50  C   UNL A   1      43.899  25.094  28.542  1.00  0.00     0.049 A 
ATOM     51  N   UNL A   1      41.711  27.133  28.889  1.00  0.00    -0.248 NA
ATOM     52  C   UNL A   1      40.201  25.599  27.987  1.00  0.00     0.031 C 
ATOM     53  C   UNL A   1      45.008  24.152  28.365  1.00  0.00     0.029 A 
ATOM     54  N   UNL A   1      44.491  26.203  29.093  1.00  0.00    -0.354 N 
ATOM     55  C   UNL A   1      40.453  27.715  28.813  1.00  0.00     0.074 A 
ATOM     56  C   UNL A   1      39.575  26.748  28.192  1.00  0.00     0.031 C 
ATOM     57  C   UNL A   1      46.137  24.712  28.826  1.00  0.00     0.029 A 
ATOM     58  C   UNL A   1      45.842  26.064  29.291  1.00  0.00     0.049 A 
ATOM     59  H   UNL A   1      43.992  27.019  29.325  1.00  0.00     0.167 HD
ATOM     60  C   UNL A   1      40.057  28.938  29.240  1.00  0.00     0.031 A 
ATOM     61  C   UNL A   1      46.745  26.931  29.784  1.00  0.00     0.031 A 
ATOM     62  C   UNL A   1      40.932  29.896  29.862  1.00  0.00     0.049 A 
ATOM     63  C   UNL A   1      46.285  28.290  30.231  1.00  0.00     0.074 A 
ATOM     64  C   UNL A   1      40.619  31.140  30.380  1.00  0.00     0.029 A 
ATOM     65  N   UNL A   1      42.295  29.718  30.042  1.00  0.00    -0.354 N 
ATOM     66  N   UNL A   1      45.077  28.798  30.220  1.00  0.00    -0.248 NA
ATOM     67  C   UNL A   1      47.314  29.192  30.768  1.00  0.00     0.031 C 
ATOM     68  C   UNL A   1      41.802  31.740  30.819  1.00  0.00     0.029 A 
ATOM     69  C   UNL A   1      42.843  30.842  30.637  1.00  0.00     0.049 A 
ATOM     70  H   UNL A   1      42.799  28.912  29.786  1.00  0.00     0.167 HD
ATOM     71  C   UNL A   1      45.193  30.066  30.776  1.00  0.00     0.074 A 
ATOM     72  C   UNL A   1      46.588  30.240  31.128  1.00  0.00     0.031 C 
ATOM     73  C   UNL A   1      44.233  31.001  30.977  1.00  0.00     0.031 A 
BRANCH  60  74
ATOM     74  C   UNL A   1      38.614  29.311  29.036  1.00  0.00    -0.014 A 
ATOM     75  C   UNL A   1      38.141  29.748  27.787  1.00  0.00     0.009 A 
ATOM     76  C   UNL A   1      37.706  29.191  30.099  1.00  0.00     0.009 A 
ATOM     77  C   UNL A   1      36.799  30.094  27.619  1.00  0.00     0.001 A 
ATOM     78  C   UNL A   1      36.357  29.508  29.919  1.00  0.00     0.001 A 
ATOM     79  C   UNL A   1      35.908  29.969  28.684  1.00  0.00     0.000 A 
ENDBRANCH  60  74
BRANCH  61  80
ATOM     80  C   UNL A   1      48.175  26.537  29.893  1.00  0.00    -0.014 A 
ATOM     81  C   UNL A   1      49.078  26.830  28.859  1.00  0.00     0.009 A 
ATOM     82  C   UNL A   1      48.644  25.862  31.031  1.00  0.00     0.009 A 
ATOM     83  C   UNL A   1      50.412  26.428  28.949  1.00  0.00     0.001 A 
ATOM     84  C   UNL A   1      49.987  25.489  31.132  1.00  0.00     0.001 A 
ATOM     85  C   UNL A   1      50.866  25.763  30.086  1.00  0.00     0.000 A 
ENDBRANCH  61  80
BRANCH  73  86
ATOM     86  C   UNL A   1      44.651  32.283  31.642  1.00  0.00    -0.014 A 
ATOM     87  C   UNL A   1      45.058  33.398  30.892  1.00  0.00     0.009 A 
ATOM     88  C   UNL A   1      44.597  32.387  33.040  1.00  0.00     0.009 A 
ATOM     89  C   UNL A   1      45.436  34.579  31.533  1.00  0.00     0.001 A 
ATOM     90  C   UNL A   1      44.945  33.580  33.677  1.00  0.00     0.001 A 
ATOM     91  C   UNL A   1      45.374  34.670  32.923  1.00  0.00     0.000 A 
ENDBRANCH  73  86
ENDBRANCH  47  48
ENDBRANCH  39  42
ENDBRANCH  37  38
ENDBRANCH  36  37
ENDBRANCH  35  36
ENDBRANCH   1  35
TORSDOF 19
ENDMDL
MODEL 2
REMARK VINA RESULT:     -11.2      1.555      7.370
REMARK SMILES COc1ccc([N+](=O)[O-])cc1C(=O)N[C@@H](Cc1c[nH]c2ccccc12)C(=O)NCCCCCCNC(=O)c1ccc(-c2c3nc(c(-c4ccccc4)c4ccc([nH]4)c(-c4ccccc4)c4nc(c(-c5ccccc5)c5ccc2[nH]5)C=C4)C=C3)cc1
REMARK SMILES IDX 31 1 30 2 29 3 28 4 26 5 27 6 15 8 14 9 12 10 13 11 11 13
REMARK SMILES IDX 3 14 4 15 5 16 10 17 6 18 2 19 1 20 7 21 8 22 9 23 16 24
REMARK SMILES IDX 17 25 18 26 25 27 19 28 20 29 24 30 21 32 23 33 22 34 32 35
REMARK SMILES IDX 33 36 34 37 35 38 36 39 37 41 38 42 39 43 85 44 40 45 84 46
REMARK SMILES IDX 41 47 42 48 43 49 78 50 44 51 83 52 77 53 79 54 45 55 82 56
REMARK SMILES IDX 76 57 75 58 46 60 68 61 53 62 67 63 54 64 57 65 66 66 80 67
REMARK SMILES IDX 55 68 56 69 65 71 81 72 58 73 47 74 48 75 52 76 49 77 51 78
REMARK SMILES IDX 50 79 69 80 70 81 74 82 71 83 73 84 72 85 59 86 60 87 64 88
REMARK SMILES IDX 61 89 63 90 62 91
REMARK H PARENT 28 7 14 12 19 31 35 40 79 59 57 70
REMARK Flexibility Score: inf
ROOT
ATOM      1  C   UNL A   1      35.907  21.727  25.138  1.00  0.00     0.002 C 
ENDROOT
BRANCH   1   2
ATOM      2  C   UNL A   1      35.216  23.022  24.713  1.00  0.00     0.021 C 
BRANCH   2   3
ATOM      3  C   UNL A   1      34.693  23.910  25.848  1.00  0.00     0.116 C 
BRANCH   3   4
ATOM      4  N   UNL A   1      34.510  25.290  25.449  1.00  0.00    -0.354 N 
ATOM      5  C   UNL A   1      33.545  26.163  25.882  1.00  0.00     0.242 C 
ATOM      6  O   UNL A   1      33.978  27.226  26.345  1.00  0.00    -0.273 OA
ATOM      7  H   UNL A   1      35.152  25.641  24.791  1.00  0.00     0.163 HD
BRANCH   5   8
ATOM      8  C   UNL A   1      31.999  25.943  25.693  1.00  0.00     0.176 C 
BRANCH   8   9
ATOM      9  N   UNL A   1      31.564  24.897  26.629  1.00  0.00    -0.340 N 
ATOM     10  C   UNL A   1      31.200  23.585  26.529  1.00  0.00     0.255 C 
ATOM     11  O   UNL A   1      30.696  23.074  27.532  1.00  0.00    -0.269 OA
ATOM     12  H   UNL A   1      31.525  25.223  27.557  1.00  0.00     0.164 HD
BRANCH  10  13
ATOM     13  C   UNL A   1      31.415  22.700  25.355  1.00  0.00     0.088 A 
ATOM     14  C   UNL A   1      31.482  23.149  24.031  1.00  0.00     0.132 A 
ATOM     15  C   UNL A   1      31.879  22.293  22.991  1.00  0.00     0.054 A 
ATOM     16  C   UNL A   1      32.342  21.010  23.274  1.00  0.00     0.089 A 
ATOM     17  C   UNL A   1      31.865  21.392  25.633  1.00  0.00     0.103 A 
ATOM     18  C   UNL A   1      32.359  20.573  24.602  1.00  0.00     0.270 A 
BRANCH  14  19
ATOM     19  O   UNL A   1      31.234  24.442  23.668  1.00  0.00    -0.496 OA
ATOM     20  C   UNL A   1      31.951  24.771  22.475  1.00  0.00     0.278 C 
ENDBRANCH  14  19
BRANCH  18  21
ATOM     21  N   UNL A   1      32.987  19.283  24.925  1.00  0.00     0.062 N 
ATOM     22  O   UNL A   1      34.023  18.981  24.315  1.00  0.00    -0.258 OA
ATOM     23  O   UNL A   1      32.457  18.586  25.799  1.00  0.00    -0.258 OA
ENDBRANCH  18  21
ENDBRANCH  10  13
ENDBRANCH   8   9
BRANCH   8  24
ATOM     24  C   UNL A   1      31.050  27.185  25.562  1.00  0.00     0.072 C 
BRANCH  24  25
ATOM     25  C   UNL A   1      30.714  27.791  24.193  1.00  0.00    -0.020 A 
ATOM     26  C   UNL A   1      31.633  28.453  23.396  1.00  0.00     0.087 A 
ATOM     27  C   UNL A   1      29.552  28.524  23.765  1.00  0.00     0.003 A 
ATOM     28  N   UNL A   1      31.356  29.766  23.810  1.00  0.00    -0.361 N 
ATOM     29  C   UNL A   1      29.981  29.852  23.782  1.00  0.00     0.046 A 
ATOM     30  C   UNL A   1      28.382  28.272  23.019  1.00  0.00     0.010 A 
ATOM     31  H   UNL A   1      31.999  30.466  24.063  1.00  0.00     0.166 HD
ATOM     32  C   UNL A   1      29.197  30.965  23.523  1.00  0.00     0.026 A 
ATOM     33  C   UNL A   1      27.662  29.377  22.516  1.00  0.00     0.001 A 
ATOM     34  C   UNL A   1      28.027  30.693  22.826  1.00  0.00     0.002 A 
ENDBRANCH  24  25
ENDBRANCH   8  24
ENDBRANCH   5   8
ENDBRANCH   3   4
ENDBRANCH   2   3
ENDBRANCH   1   2
BRANCH   1  35
ATOM     35  C   UNL A   1      37.012  21.246  24.192  1.00  0.00     0.002 C 
BRANCH  35  36
ATOM     36  C   UNL A   1      37.810  20.025  24.668  1.00  0.00     0.021 C 
BRANCH  36  37
ATOM     37  C   UNL A   1      38.700  20.278  25.881  1.00  0.00     0.116 C 
BRANCH  37  38
ATOM     38  N   UNL A   1      39.861  19.403  25.879  1.00  0.00    -0.352 N 
ATOM     39  C   UNL A   1      41.188  19.718  26.023  1.00  0.00     0.251 C 
ATOM     40  H   UNL A   1      39.666  18.446  25.757  1.00  0.00     0.163 HD
ATOM     41  O   UNL A   1      42.052  18.913  25.704  1.00  0.00    -0.269 OA
BRANCH  39  42
ATOM     42  C   UNL A   1      41.569  21.036  26.571  1.00  0.00     0.039 A 
ATOM     43  C   UNL A   1      42.008  22.034  25.699  1.00  0.00     0.014 A 
ATOM     44  C   UNL A   1      41.524  21.271  27.949  1.00  0.00     0.014 A 
ATOM     45  C   UNL A   1      42.359  23.285  26.206  1.00  0.00     0.010 A 
ATOM     46  C   UNL A   1      41.802  22.540  28.444  1.00  0.00     0.010 A 
ATOM     47  C   UNL A   1      42.234  23.555  27.578  1.00  0.00    -0.014 A 
BRANCH  47  48
ATOM     48  C   UNL A   1      42.559  24.894  28.128  1.00  0.00     0.031 A 
ATOM     49  C   UNL A   1      43.967  25.216  28.550  1.00  0.00     0.074 A 
ATOM     50  C   UNL A   1      41.576  25.798  28.298  1.00  0.00     0.049 A 
ATOM     51  N   UNL A   1      44.436  26.313  29.087  1.00  0.00    -0.248 NA
ATOM     52  C   UNL A   1      44.975  24.159  28.367  1.00  0.00     0.031 C 
ATOM     53  C   UNL A   1      40.165  25.589  27.963  1.00  0.00     0.029 A 
ATOM     54  N   UNL A   1      41.613  27.075  28.798  1.00  0.00    -0.354 N 
ATOM     55  C   UNL A   1      45.784  26.073  29.319  1.00  0.00     0.074 A 
ATOM     56  C   UNL A   1      46.047  24.710  28.915  1.00  0.00     0.031 C 
ATOM     57  C   UNL A   1      39.479  26.709  28.238  1.00  0.00     0.029 A 
ATOM     58  C   UNL A   1      40.389  27.697  28.808  1.00  0.00     0.049 A 
ATOM     59  H   UNL A   1      42.439  27.504  29.119  1.00  0.00     0.167 HD
ATOM     60  C   UNL A   1      46.724  26.918  29.807  1.00  0.00     0.031 A 
ATOM     61  C   UNL A   1      40.037  28.923  29.236  1.00  0.00     0.031 A 
ATOM     62  C   UNL A   1      46.459  28.274  30.204  1.00  0.00     0.049 A 
ATOM     63  C   UNL A   1      41.094  29.834  29.794  1.00  0.00     0.074 A 
ATOM     64  C   UNL A   1      47.351  29.230  30.658  1.00  0.00     0.029 A 
ATOM     65  N   UNL A   1      45.205  28.867  30.201  1.00  0.00    -0.354 N 
ATOM     66  N   UNL A   1      42.379  29.618  29.937  1.00  0.00    -0.248 NA
ATOM     67  C   UNL A   1      40.654  31.164  30.238  1.00  0.00     0.031 C 
ATOM     68  C   UNL A   1      46.629  30.380  30.987  1.00  0.00     0.029 A 
ATOM     69  C   UNL A   1      45.295  30.165  30.674  1.00  0.00     0.049 A 
ATOM     70  H   UNL A   1      44.374  28.429  29.906  1.00  0.00     0.167 HD
ATOM     71  C   UNL A   1      42.906  30.792  30.460  1.00  0.00     0.074 A 
ATOM     72  C   UNL A   1      41.803  31.722  30.589  1.00  0.00     0.031 C 
ATOM     73  C   UNL A   1      44.187  31.076  30.800  1.00  0.00     0.031 A 
BRANCH  60  74
ATOM     74  C   UNL A   1      48.125  26.390  29.948  1.00  0.00    -0.014 A 
ATOM     75  C   UNL A   1      48.565  25.793  31.142  1.00  0.00     0.009 A 
ATOM     76  C   UNL A   1      49.009  26.458  28.861  1.00  0.00     0.009 A 
ATOM     77  C   UNL A   1      49.872  25.313  31.255  1.00  0.00     0.001 A 
ATOM     78  C   UNL A   1      50.305  25.948  28.966  1.00  0.00     0.001 A 
ATOM     79  C   UNL A   1      50.738  25.386  30.165  1.00  0.00     0.000 A 
ENDBRANCH  60  74
BRANCH  61  80
ATOM     80  C   UNL A   1      38.621  29.368  29.143  1.00  0.00    -0.014 A 
ATOM     81  C   UNL A   1      37.748  29.203  30.231  1.00  0.00     0.009 A 
ATOM     82  C   UNL A   1      38.133  29.954  27.965  1.00  0.00     0.009 A 
ATOM     83  C   UNL A   1      36.410  29.589  30.128  1.00  0.00     0.001 A 
ATOM     84  C   UNL A   1      36.802  30.369  27.878  1.00  0.00     0.001 A 
ATOM     85  C   UNL A   1      35.940  30.176  28.956  1.00  0.00     0.000 A 
ENDBRANCH  61  80
BRANCH  73  86
ATOM     86  C   UNL A   1      44.471  32.461  31.311  1.00  0.00    -0.014 A 
ATOM     87  C   UNL A   1      44.431  32.757  32.683  1.00  0.00     0.009 A 
ATOM     88  C   UNL A   1      44.824  33.474  30.407  1.00  0.00     0.009 A 
ATOM     89  C   UNL A   1      44.704  34.051  33.133  1.00  0.00     0.001 A 
ATOM     90  C   UNL A   1      45.129  34.757  30.862  1.00  0.00     0.001 A 
ATOM     91  C   UNL A   1      45.058  35.047  32.223  1.00  0.00     0.000 A 
ENDBRANCH  73  86
ENDBRANCH  47  48
ENDBRANCH  39  42
ENDBRANCH  37  38
ENDBRANCH  36  37
ENDBRANCH  35  36
ENDBRANCH   1  35
TORSDOF 19
ENDMDL
MODEL 3
REMARK VINA RESULT:     -11.2      0.603      5.617
REMARK SMILES COc1ccc([N+](=O)[O-])cc1C(=O)N[C@@H](Cc1c[nH]c2ccccc12)C(=O)NCCCCCCNC(=O)c1ccc(-c2c3nc(c(-c4ccccc4)c4ccc([nH]4)c(-c4ccccc4)c4nc(c(-c5ccccc5)c5ccc2[nH]5)C=C4)C=C3)cc1
REMARK SMILES IDX 31 1 30 2 29 3 28 4 26 5 27 6 15 8 14 9 12 10 13 11 11 13
REMARK SMILES IDX 3 14 4 15 5 16 10 17 6 18 2 19 1 20 7 21 8 22 9 23 16 24
REMARK SMILES IDX 17 25 18 26 25 27 19 28 20 29 24 30 21 32 23 33 22 34 32 35
REMARK SMILES IDX 33 36 34 37 35 38 36 39 37 41 38 42 39 43 85 44 40 45 84 46
REMARK SMILES IDX 41 47 42 48 43 49 78 50 44 51 83 52 77 53 79 54 45 55 82 56
REMARK SMILES IDX 76 57 75 58 46 60 68 61 53 62 67 63 54 64 57 65 66 66 80 67
REMARK SMILES IDX 55 68 56 69 65 71 81 72 58 73 47 74 48 75 52 76 49 77 51 78
REMARK SMILES IDX 50 79 69 80 70 81 74 82 71 83 73 84 72 85 59 86 60 87 64 88
REMARK SMILES IDX 61 89 63 90 62 91
REMARK H PARENT 28 7 14 12 19 31 35 40 79 59 57 70
REMARK Flexibility Score: inf
ROOT
ATOM      1  C   UNL A   1      35.972  22.220  24.593  1.00  0.00     0.002 C 
ENDROOT
BRANCH   1   2
ATOM      2  C   UNL A   1      35.800  23.048  25.865  1.00  0.00     0.021 C 
BRANCH   2   3
ATOM      3  C   UNL A   1      34.412  23.002  26.515  1.00  0.00     0.116 C 
BRANCH   3   4
ATOM      4  N   UNL A   1      33.691  24.252  26.400  1.00  0.00    -0.354 N 
ATOM      5  C   UNL A   1      32.381  24.430  26.038  1.00  0.00     0.242 C 
ATOM      6  O   UNL A   1      31.702  25.075  26.848  1.00  0.00    -0.273 OA
ATOM      7  H   UNL A   1      34.201  25.069  26.606  1.00  0.00     0.163 HD
BRANCH   5   8
ATOM      8  C   UNL A   1      31.776  23.998  24.652  1.00  0.00     0.176 C 
BRANCH   8   9
ATOM      9  N   UNL A   1      32.496  24.715  23.591  1.00  0.00    -0.340 N 
ATOM     10  C   UNL A   1      32.459  25.972  23.061  1.00  0.00     0.255 C 
ATOM     11  O   UNL A   1      33.098  26.152  22.020  1.00  0.00    -0.269 OA
ATOM     12  H   UNL A   1      33.173  24.148  23.155  1.00  0.00     0.164 HD
BRANCH  10  13
ATOM     13  C   UNL A   1      31.782  27.156  23.650  1.00  0.00     0.088 A 
ATOM     14  C   UNL A   1      32.340  27.969  24.643  1.00  0.00     0.132 A 
ATOM     15  C   UNL A   1      31.734  29.180  25.018  1.00  0.00     0.054 A 
ATOM     16  C   UNL A   1      30.633  29.662  24.315  1.00  0.00     0.089 A 
ATOM     17  C   UNL A   1      30.653  27.640  22.956  1.00  0.00     0.103 A 
ATOM     18  C   UNL A   1      30.112  28.900  23.265  1.00  0.00     0.270 A 
BRANCH  14  19
ATOM     19  O   UNL A   1      33.523  27.685  25.263  1.00  0.00    -0.496 OA
ATOM     20  C   UNL A   1      33.520  28.194  26.599  1.00  0.00     0.278 C 
ENDBRANCH  14  19
BRANCH  18  21
ATOM     21  N   UNL A   1      29.050  29.471  22.423  1.00  0.00     0.062 N 
ATOM     22  O   UNL A   1      27.912  29.551  22.908  1.00  0.00    -0.258 OA
ATOM     23  O   UNL A   1      29.359  29.858  21.288  1.00  0.00    -0.258 OA
ENDBRANCH  18  21
ENDBRANCH  10  13
ENDBRANCH   8   9
BRANCH   8  24
ATOM     24  C   UNL A   1      31.474  22.484  24.376  1.00  0.00     0.072 C 
BRANCH  24  25
ATOM     25  C   UNL A   1      32.496  21.582  23.672  1.00  0.00    -0.020 A 
ATOM     26  C   UNL A   1      32.654  21.522  22.297  1.00  0.00     0.087 A 
ATOM     27  C   UNL A   1      32.878  20.223  23.950  1.00  0.00     0.003 A 
ATOM     28  N   UNL A   1      31.821  20.422  22.042  1.00  0.00    -0.361 N 
ATOM     29  C   UNL A   1      32.187  19.487  22.986  1.00  0.00     0.046 A 
ATOM     30  C   UNL A   1      33.951  19.553  24.573  1.00  0.00     0.010 A 
ATOM     31  H   UNL A   1      31.130  20.337  21.346  1.00  0.00     0.166 HD
ATOM     32  C   UNL A   1      32.160  18.106  22.880  1.00  0.00     0.026 A 
ATOM     33  C   UNL A   1      34.120  18.176  24.310  1.00  0.00     0.001 A 
ATOM     34  C   UNL A   1      33.198  17.459  23.536  1.00  0.00     0.002 A 
ENDBRANCH  24  25
ENDBRANCH   8  24
ENDBRANCH   5   8
ENDBRANCH   3   4
ENDBRANCH   2   3
ENDBRANCH   1   2
BRANCH   1  35
ATOM     35  C   UNL A   1      37.422  21.859  24.250  1.00  0.00     0.002 C 
BRANCH  35  36
ATOM     36  C   UNL A   1      37.851  20.429  24.598  1.00  0.00     0.021 C 
BRANCH  36  37
ATOM     37  C   UNL A   1      38.503  20.274  25.970  1.00  0.00     0.116 C 
BRANCH  37  38
ATOM     38  N   UNL A   1      39.669  19.408  25.908  1.00  0.00    -0.352 N 
ATOM     39  C   UNL A   1      40.999  19.732  25.999  1.00  0.00     0.251 C 
ATOM     40  H   UNL A   1      39.476  18.451  25.784  1.00  0.00     0.163 HD
ATOM     41  O   UNL A   1      41.854  18.938  25.634  1.00  0.00    -0.269 OA
BRANCH  39  42
ATOM     42  C   UNL A   1      41.393  21.048  26.545  1.00  0.00     0.039 A 
ATOM     43  C   UNL A   1      41.870  22.029  25.674  1.00  0.00     0.014 A 
ATOM     44  C   UNL A   1      41.322  21.295  27.919  1.00  0.00     0.014 A 
ATOM     45  C   UNL A   1      42.235  23.278  26.180  1.00  0.00     0.010 A 
ATOM     46  C   UNL A   1      41.613  22.563  28.410  1.00  0.00     0.010 A 
ATOM     47  C   UNL A   1      42.084  23.562  27.546  1.00  0.00    -0.014 A 
BRANCH  47  48
ATOM     48  C   UNL A   1      42.423  24.899  28.093  1.00  0.00     0.031 A 
ATOM     49  C   UNL A   1      43.835  25.210  28.507  1.00  0.00     0.074 A 
ATOM     50  C   UNL A   1      41.448  25.811  28.266  1.00  0.00     0.049 A 
ATOM     51  N   UNL A   1      44.316  26.304  29.040  1.00  0.00    -0.248 NA
ATOM     52  C   UNL A   1      44.834  24.145  28.320  1.00  0.00     0.031 C 
ATOM     53  C   UNL A   1      40.034  25.613  27.939  1.00  0.00     0.029 A 
ATOM     54  N   UNL A   1      41.498  27.088  28.764  1.00  0.00    -0.354 N 
ATOM     55  C   UNL A   1      45.663  26.053  29.265  1.00  0.00     0.074 A 
ATOM     56  C   UNL A   1      45.913  24.687  28.862  1.00  0.00     0.031 C 
ATOM     57  C   UNL A   1      39.358  26.738  28.216  1.00  0.00     0.029 A 
ATOM     58  C   UNL A   1      40.279  27.720  28.780  1.00  0.00     0.049 A 
ATOM     59  H   UNL A   1      42.329  27.511  29.080  1.00  0.00     0.167 HD
ATOM     60  C   UNL A   1      46.612  26.891  29.746  1.00  0.00     0.031 A 
ATOM     61  C   UNL A   1      39.939  28.950  29.208  1.00  0.00     0.031 A 
ATOM     62  C   UNL A   1      46.360  28.250  30.143  1.00  0.00     0.049 A 
ATOM     63  C   UNL A   1      41.007  29.853  29.759  1.00  0.00     0.074 A 
ATOM     64  C   UNL A   1      47.263  29.199  30.591  1.00  0.00     0.029 A 
ATOM     65  N   UNL A   1      45.112  28.853  30.146  1.00  0.00    -0.354 N 
ATOM     66  N   UNL A   1      42.291  29.626  29.896  1.00  0.00    -0.248 NA
ATOM     67  C   UNL A   1      40.579  31.187  30.203  1.00  0.00     0.031 C 
ATOM     68  C   UNL A   1      46.551  30.356  30.922  1.00  0.00     0.029 A 
ATOM     69  C   UNL A   1      45.214  30.150  30.616  1.00  0.00     0.049 A 
ATOM     70  H   UNL A   1      44.275  28.421  29.856  1.00  0.00     0.167 HD
ATOM     71  C   UNL A   1      42.829  30.797  30.414  1.00  0.00     0.074 A 
ATOM     72  C   UNL A   1      41.734  31.736  30.548  1.00  0.00     0.031 C 
ATOM     73  C   UNL A   1      44.114  31.071  30.747  1.00  0.00     0.031 A 
BRANCH  60  74
ATOM     74  C   UNL A   1      48.010  26.352  29.881  1.00  0.00    -0.014 A 
ATOM     75  C   UNL A   1      48.444  25.731  31.065  1.00  0.00     0.009 A 
ATOM     76  C   UNL A   1      48.897  26.434  28.797  1.00  0.00     0.009 A 
ATOM     77  C   UNL A   1      49.747  25.241  31.172  1.00  0.00     0.001 A 
ATOM     78  C   UNL A   1      50.190  25.914  28.896  1.00  0.00     0.001 A 
ATOM     79  C   UNL A   1      50.617  25.329  30.086  1.00  0.00     0.000 A 
ENDBRANCH  60  74
BRANCH  61  80
ATOM     80  C   UNL A   1      38.526  29.405  29.122  1.00  0.00    -0.014 A 
ATOM     81  C   UNL A   1      38.033  29.986  27.943  1.00  0.00     0.009 A 
ATOM     82  C   UNL A   1      37.663  29.265  30.221  1.00  0.00     0.009 A 
ATOM     83  C   UNL A   1      36.716  30.445  27.877  1.00  0.00     0.001 A 
ATOM     84  C   UNL A   1      36.337  29.696  30.141  1.00  0.00     0.001 A 
ATOM     85  C   UNL A   1      35.868  30.295  28.973  1.00  0.00     0.000 A 
ENDBRANCH  61  80
BRANCH  73  86
ATOM     86  C   UNL A   1      44.413  32.454  31.255  1.00  0.00    -0.014 A 
ATOM     87  C   UNL A   1      44.392  32.750  32.627  1.00  0.00     0.009 A 
ATOM     88  C   UNL A   1      44.759  33.465  30.346  1.00  0.00     0.009 A 
ATOM     89  C   UNL A   1      44.678  34.043  33.074  1.00  0.00     0.001 A 
ATOM     90  C   UNL A   1      45.076  34.747  30.798  1.00  0.00     0.001 A 
ATOM     91  C   UNL A   1      45.024  35.037  32.160  1.00  0.00     0.000 A 
ENDBRANCH  73  86
ENDBRANCH  47  48
ENDBRANCH  39  42
ENDBRANCH  37  38
ENDBRANCH  36  37
ENDBRANCH  35  36
ENDBRANCH   1  35
TORSDOF 19
ENDMDL
