MODEL 1
REMARK VINA RESULT:     -12.9      0.000      0.000
REMARK SMILES Cc1cccc(OC2(C(=O)NCCCCCCNC(=O)c3ccc(-c4c5nc(c(-c6ccccc6)c6ccc([nH]6)c(-c6ccccc6)c6nc(c(-c7ccccc7)c7ccc4[nH]7)C=C6)C=C5)cc3)CCN(C(=O)c3cnc[nH]c3=O)CC2)c1
REMARK SMILES IDX 14 1 13 2 12 3 11 4 9 5 10 6 8 8 69 9 82 10 70 11 81 12
REMARK SMILES IDX 71 13 72 14 73 15 7 16 6 17 1 18 2 19 3 20 83 21 4 22 5 23
REMARK SMILES IDX 74 24 75 25 79 26 76 27 78 28 80 29 77 30 15 32 16 33 17 34
REMARK SMILES IDX 18 35 19 36 20 38 21 39 22 40 68 41 23 42 67 43 24 44 25 45
REMARK SMILES IDX 26 46 61 47 27 48 66 49 60 50 62 51 28 52 65 53 59 54 58 55
REMARK SMILES IDX 29 57 51 58 36 59 50 60 37 61 40 62 49 63 63 64 38 65 39 66
REMARK SMILES IDX 48 68 64 69 41 70 30 71 31 72 35 73 32 74 34 75 33 76 52 77
REMARK SMILES IDX 53 78 57 79 54 80 56 81 55 82 42 83 43 84 47 85 44 86 46 87
REMARK SMILES IDX 45 88
REMARK H PARENT 11 7 78 31 18 37 62 56 40 67
REMARK Flexibility Score: inf
ROOT
ATOM      1  C   UNL A   1      31.750  29.996  26.081  1.00  0.00     0.002 C 
ENDROOT
BRANCH   1   2
ATOM      2  C   UNL A   1      32.591  28.721  25.998  1.00  0.00     0.021 C 
BRANCH   2   3
ATOM      3  C   UNL A   1      32.305  27.625  27.038  1.00  0.00     0.116 C 
BRANCH   3   4
ATOM      4  N   UNL A   1      31.038  26.944  26.843  1.00  0.00    -0.353 N 
ATOM      5  C   UNL A   1      30.661  25.837  26.134  1.00  0.00     0.264 C 
ATOM      6  O   UNL A   1      29.508  25.454  26.372  1.00  0.00    -0.270 OA
ATOM      7  H   UNL A   1      30.292  27.370  27.322  1.00  0.00     0.163 HD
BRANCH   5   8
ATOM      8  C   UNL A   1      31.587  25.053  25.139  1.00  0.00     0.190 C 
ATOM      9  C   UNL A   1      33.068  25.147  25.532  1.00  0.00     0.080 C 
ATOM     10  C   UNL A   1      31.139  23.565  25.117  1.00  0.00     0.080 C 
ATOM     11  C   UNL A   1      33.989  24.192  24.795  1.00  0.00     0.124 C 
ATOM     12  C   UNL A   1      32.115  22.711  24.293  1.00  0.00     0.124 C 
ATOM     13  N   UNL A   1      33.445  22.854  24.872  1.00  0.00    -0.338 N 
ATOM     14  C   UNL A   1      33.973  21.949  25.775  1.00  0.00     0.261 C 
ATOM     15  O   UNL A   1      34.535  22.279  26.816  1.00  0.00    -0.269 OA
BRANCH   8  16
ATOM     16  O   UNL A   1      31.203  25.501  23.821  1.00  0.00    -0.477 OA
BRANCH  16  17
ATOM     17  C   UNL A   1      30.784  26.693  23.342  1.00  0.00     0.121 A 
ATOM     18  C   UNL A   1      27.886  29.143  23.126  1.00  0.00     0.044 C 
ATOM     19  C   UNL A   1      29.266  28.567  22.998  1.00  0.00    -0.047 A 
ATOM     20  C   UNL A   1      30.328  29.364  22.569  1.00  0.00     0.003 A 
ATOM     21  C   UNL A   1      29.503  27.226  23.343  1.00  0.00     0.049 A 
ATOM     22  C   UNL A   1      31.609  28.828  22.500  1.00  0.00     0.004 A 
ATOM     23  C   UNL A   1      31.831  27.507  22.895  1.00  0.00     0.046 A 
ENDBRANCH  16  17
ENDBRANCH   8  16
BRANCH  14  24
ATOM     24  C   UNL A   1      33.857  20.533  25.387  1.00  0.00     0.123 A 
ATOM     25  C   UNL A   1      32.671  19.911  25.415  1.00  0.00     0.132 A 
ATOM     26  C   UNL A   1      35.033  19.731  24.999  1.00  0.00     0.263 A 
ATOM     27  N   UNL A   1      32.460  18.597  25.066  1.00  0.00    -0.246 NA
ATOM     28  N   UNL A   1      34.764  18.433  24.671  1.00  0.00    -0.312 N 
ATOM     29  O   UNL A   1      36.177  20.171  24.976  1.00  0.00    -0.269 OA
ATOM     30  C   UNL A   1      33.502  17.922  24.716  1.00  0.00     0.199 A 
ATOM     31  H   UNL A   1      35.506  17.848  24.392  1.00  0.00     0.171 HD
ENDBRANCH  14  24
ENDBRANCH   5   8
ENDBRANCH   3   4
ENDBRANCH   2   3
ENDBRANCH   1   2
BRANCH   1  32
ATOM     32  C   UNL A   1      32.341  31.164  26.876  1.00  0.00     0.002 C 
BRANCH  32  33
ATOM     33  C   UNL A   1      33.692  30.907  27.539  1.00  0.00     0.021 C 
BRANCH  33  34
ATOM     34  C   UNL A   1      34.540  32.152  27.750  1.00  0.00     0.116 C 
BRANCH  34  35
ATOM     35  N   UNL A   1      33.811  33.226  28.401  1.00  0.00    -0.352 N 
ATOM     36  C   UNL A   1      34.027  33.879  29.605  1.00  0.00     0.251 C 
ATOM     37  H   UNL A   1      33.027  33.548  27.900  1.00  0.00     0.163 HD
ATOM     38  O   UNL A   1      33.195  34.655  30.014  1.00  0.00    -0.269 OA
BRANCH  36  39
ATOM     39  C   UNL A   1      35.347  33.769  30.292  1.00  0.00     0.039 A 
ATOM     40  C   UNL A   1      36.462  34.227  29.571  1.00  0.00     0.014 A 
ATOM     41  C   UNL A   1      35.531  33.022  31.446  1.00  0.00     0.014 A 
ATOM     42  C   UNL A   1      37.718  33.694  29.838  1.00  0.00     0.010 A 
ATOM     43  C   UNL A   1      36.743  32.405  31.644  1.00  0.00     0.010 A 
ATOM     44  C   UNL A   1      37.812  32.688  30.790  1.00  0.00    -0.014 A 
BRANCH  44  45
ATOM     45  C   UNL A   1      38.950  31.801  30.934  1.00  0.00     0.031 A 
ATOM     46  C   UNL A   1      38.934  30.490  30.270  1.00  0.00     0.074 A 
ATOM     47  C   UNL A   1      40.072  32.289  31.502  1.00  0.00     0.049 A 
ATOM     48  N   UNL A   1      39.774  29.546  30.510  1.00  0.00    -0.248 NA
ATOM     49  C   UNL A   1      37.909  30.120  29.299  1.00  0.00     0.031 C 
ATOM     50  C   UNL A   1      41.433  31.773  31.394  1.00  0.00     0.029 A 
ATOM     51  N   UNL A   1      40.150  33.264  32.498  1.00  0.00    -0.354 N 
ATOM     52  C   UNL A   1      39.611  28.598  29.529  1.00  0.00     0.074 A 
ATOM     53  C   UNL A   1      38.376  28.945  28.869  1.00  0.00     0.031 C 
ATOM     54  C   UNL A   1      42.155  32.234  32.429  1.00  0.00     0.029 A 
ATOM     55  C   UNL A   1      41.229  32.906  33.327  1.00  0.00     0.049 A 
ATOM     56  H   UNL A   1      39.565  34.049  32.599  1.00  0.00     0.167 HD
ATOM     57  C   UNL A   1      40.624  27.721  29.293  1.00  0.00     0.031 A 
ATOM     58  C   UNL A   1      41.012  32.531  34.624  1.00  0.00     0.031 A 
ATOM     59  C   UNL A   1      41.686  27.856  30.290  1.00  0.00     0.049 A 
ATOM     60  C   UNL A   1      41.451  31.114  34.926  1.00  0.00     0.074 A 
ATOM     61  C   UNL A   1      42.930  28.468  30.279  1.00  0.00     0.029 A 
ATOM     62  N   UNL A   1      41.390  27.594  31.622  1.00  0.00    -0.354 N 
ATOM     63  N   UNL A   1      41.607  30.184  34.023  1.00  0.00    -0.248 NA
ATOM     64  C   UNL A   1      41.740  30.631  36.272  1.00  0.00     0.031 C 
ATOM     65  C   UNL A   1      43.352  28.628  31.627  1.00  0.00     0.029 A 
ATOM     66  C   UNL A   1      42.380  28.084  32.449  1.00  0.00     0.049 A 
ATOM     67  H   UNL A   1      40.582  27.124  31.934  1.00  0.00     0.167 HD
ATOM     68  C   UNL A   1      42.029  29.023  34.619  1.00  0.00     0.074 A 
ATOM     69  C   UNL A   1      42.095  29.356  36.031  1.00  0.00     0.031 C 
ATOM     70  C   UNL A   1      42.284  27.893  33.893  1.00  0.00     0.031 A 
BRANCH  57  71
ATOM     71  C   UNL A   1      40.779  26.947  28.004  1.00  0.00    -0.014 A 
ATOM     72  C   UNL A   1      40.105  25.722  27.850  1.00  0.00     0.009 A 
ATOM     73  C   UNL A   1      41.616  27.321  26.939  1.00  0.00     0.009 A 
ATOM     74  C   UNL A   1      40.319  24.887  26.745  1.00  0.00     0.001 A 
ATOM     75  C   UNL A   1      41.860  26.480  25.845  1.00  0.00     0.001 A 
ATOM     76  C   UNL A   1      41.216  25.256  25.752  1.00  0.00     0.000 A 
ENDBRANCH  57  71
BRANCH  58  77
ATOM     77  C   UNL A   1      39.840  33.215  35.244  1.00  0.00    -0.014 A 
ATOM     78  C   UNL A   1      38.624  32.506  35.324  1.00  0.00     0.009 A 
ATOM     79  C   UNL A   1      40.020  34.328  36.078  1.00  0.00     0.009 A 
ATOM     80  C   UNL A   1      37.673  32.818  36.301  1.00  0.00     0.001 A 
ATOM     81  C   UNL A   1      39.055  34.649  37.043  1.00  0.00     0.001 A 
ATOM     82  C   UNL A   1      37.906  33.871  37.182  1.00  0.00     0.000 A 
ENDBRANCH  58  77
BRANCH  70  83
ATOM     83  C   UNL A   1      42.523  26.493  34.423  1.00  0.00    -0.014 A 
ATOM     84  C   UNL A   1      41.646  25.785  35.251  1.00  0.00     0.009 A 
ATOM     85  C   UNL A   1      43.654  25.777  33.960  1.00  0.00     0.009 A 
ATOM     86  C   UNL A   1      41.899  24.453  35.618  1.00  0.00     0.001 A 
ATOM     87  C   UNL A   1      43.886  24.438  34.280  1.00  0.00     0.001 A 
ATOM     88  C   UNL A   1      43.008  23.776  35.122  1.00  0.00     0.000 A 
ENDBRANCH  70  83
ENDBRANCH  44  45
ENDBRANCH  36  39
ENDBRANCH  34  35
ENDBRANCH  33  34
ENDBRANCH  32  33
ENDBRANCH   1  32
TORSDOF 16
ENDMDL
MODEL 2
REMARK VINA RESULT:     -12.9      4.056      9.845
REMARK SMILES Cc1cccc(OC2(C(=O)NCCCCCCNC(=O)c3ccc(-c4c5nc(c(-c6ccccc6)c6ccc([nH]6)c(-c6ccccc6)c6nc(c(-c7ccccc7)c7ccc4[nH]7)C=C6)C=C5)cc3)CCN(C(=O)c3cnc[nH]c3=O)CC2)c1
REMARK SMILES IDX 14 1 13 2 12 3 11 4 9 5 10 6 8 8 69 9 82 10 70 11 81 12
REMARK SMILES IDX 71 13 72 14 73 15 7 16 6 17 1 18 2 19 3 20 83 21 4 22 5 23
REMARK SMILES IDX 74 24 75 25 79 26 76 27 78 28 80 29 77 30 15 32 16 33 17 34
REMARK SMILES IDX 18 35 19 36 20 38 21 39 22 40 68 41 23 42 67 43 24 44 25 45
REMARK SMILES IDX 26 46 61 47 27 48 66 49 60 50 62 51 28 52 65 53 59 54 58 55
REMARK SMILES IDX 29 57 51 58 36 59 50 60 37 61 40 62 49 63 63 64 38 65 39 66
REMARK SMILES IDX 48 68 64 69 41 70 30 71 31 72 35 73 32 74 34 75 33 76 52 77
REMARK SMILES IDX 53 78 57 79 54 80 56 81 55 82 42 83 43 84 47 85 44 86 46 87
REMARK SMILES IDX 45 88
REMARK H PARENT 11 7 78 31 18 37 62 56 40 67
REMARK Flexibility Score: inf
ROOT
ATOM      1  C   UNL A   1      39.000  23.247  26.372  1.00  0.00     0.002 C 
ENDROOT
BRANCH   1   2
ATOM      2  C   UNL A   1      37.622  23.864  26.123  1.00  0.00     0.021 C 
BRANCH   2   3
ATOM      3  C   UNL A   1      36.460  22.894  25.852  1.00  0.00     0.116 C 
BRANCH   3   4
ATOM      4  N   UNL A   1      35.509  22.795  26.945  1.00  0.00    -0.353 N 
ATOM      5  C   UNL A   1      34.143  22.800  27.011  1.00  0.00     0.264 C 
ATOM      6  O   UNL A   1      33.690  22.497  28.123  1.00  0.00    -0.270 OA
ATOM      7  H   UNL A   1      35.939  22.706  27.826  1.00  0.00     0.163 HD
BRANCH   5   8
ATOM      8  C   UNL A   1      33.189  23.099  25.801  1.00  0.00     0.190 C 
ATOM      9  C   UNL A   1      31.710  23.056  26.207  1.00  0.00     0.080 C 
ATOM     10  C   UNL A   1      33.541  24.501  25.231  1.00  0.00     0.080 C 
ATOM     11  C   UNL A   1      30.745  23.608  25.174  1.00  0.00     0.124 C 
ATOM     12  C   UNL A   1      32.529  24.924  24.154  1.00  0.00     0.124 C 
ATOM     13  N   UNL A   1      31.200  24.915  24.751  1.00  0.00    -0.338 N 
ATOM     14  C   UNL A   1      30.596  26.050  25.259  1.00  0.00     0.261 C 
ATOM     15  O   UNL A   1      30.034  26.089  26.351  1.00  0.00    -0.269 OA
BRANCH   8  16
ATOM     16  O   UNL A   1      33.630  22.225  24.739  1.00  0.00    -0.477 OA
BRANCH  16  17
ATOM     17  C   UNL A   1      33.311  20.955  24.403  1.00  0.00     0.121 A 
ATOM     18  C   UNL A   1      32.869  17.395  25.659  1.00  0.00     0.044 C 
ATOM     19  C   UNL A   1      32.844  18.590  24.750  1.00  0.00    -0.047 A 
ATOM     20  C   UNL A   1      32.227  18.515  23.501  1.00  0.00     0.003 A 
ATOM     21  C   UNL A   1      33.414  19.804  25.169  1.00  0.00     0.049 A 
ATOM     22  C   UNL A   1      32.171  19.644  22.690  1.00  0.00     0.004 A 
ATOM     23  C   UNL A   1      32.700  20.854  23.147  1.00  0.00     0.046 A 
ENDBRANCH  16  17
ENDBRANCH   8  16
BRANCH  14  24
ATOM     24  C   UNL A   1      30.628  27.228  24.376  1.00  0.00     0.123 A 
ATOM     25  C   UNL A   1      29.927  27.247  23.236  1.00  0.00     0.132 A 
ATOM     26  C   UNL A   1      31.460  28.408  24.680  1.00  0.00     0.263 A 
ATOM     27  N   UNL A   1      29.887  28.300  22.351  1.00  0.00    -0.246 NA
ATOM     28  N   UNL A   1      31.387  29.418  23.763  1.00  0.00    -0.312 N 
ATOM     29  O   UNL A   1      32.180  28.496  25.669  1.00  0.00    -0.269 OA
ATOM     30  C   UNL A   1      30.612  29.326  22.647  1.00  0.00     0.199 A 
ATOM     31  H   UNL A   1      31.911  30.238  23.915  1.00  0.00     0.171 HD
ENDBRANCH  14  24
ENDBRANCH   5   8
ENDBRANCH   3   4
ENDBRANCH   2   3
ENDBRANCH   1   2
BRANCH   1  32
ATOM     32  C   UNL A   1      39.141  21.744  26.115  1.00  0.00     0.002 C 
BRANCH  32  33
ATOM     33  C   UNL A   1      40.487  21.124  26.486  1.00  0.00     0.021 C 
BRANCH  33  34
ATOM     34  C   UNL A   1      41.696  21.966  26.111  1.00  0.00     0.116 C 
BRANCH  34  35
ATOM     35  N   UNL A   1      42.711  21.210  25.400  1.00  0.00    -0.352 N 
ATOM     36  C   UNL A   1      43.990  21.556  24.991  1.00  0.00     0.251 C 
ATOM     37  H   UNL A   1      42.446  20.291  25.169  1.00  0.00     0.163 HD
ATOM     38  O   UNL A   1      44.608  20.798  24.279  1.00  0.00    -0.269 OA
BRANCH  36  39
ATOM     39  C   UNL A   1      44.665  22.753  25.571  1.00  0.00     0.039 A 
ATOM     40  C   UNL A   1      44.932  22.709  26.949  1.00  0.00     0.014 A 
ATOM     41  C   UNL A   1      44.786  23.951  24.883  1.00  0.00     0.014 A 
ATOM     42  C   UNL A   1      45.024  23.895  27.669  1.00  0.00     0.010 A 
ATOM     43  C   UNL A   1      44.762  25.125  25.598  1.00  0.00     0.010 A 
ATOM     44  C   UNL A   1      44.805  25.087  26.994  1.00  0.00    -0.014 A 
BRANCH  44  45
ATOM     45  C   UNL A   1      44.520  26.353  27.640  1.00  0.00     0.031 A 
ATOM     46  C   UNL A   1      43.145  26.873  27.638  1.00  0.00     0.074 A 
ATOM     47  C   UNL A   1      45.483  26.914  28.400  1.00  0.00     0.049 A 
ATOM     48  N   UNL A   1      42.823  28.072  27.976  1.00  0.00    -0.248 NA
ATOM     49  C   UNL A   1      42.009  26.073  27.193  1.00  0.00     0.031 C 
ATOM     50  C   UNL A   1      45.332  27.916  29.450  1.00  0.00     0.029 A 
ATOM     51  N   UNL A   1      46.862  26.826  28.202  1.00  0.00    -0.354 N 
ATOM     52  C   UNL A   1      41.455  28.104  28.103  1.00  0.00     0.074 A 
ATOM     53  C   UNL A   1      40.990  26.877  27.505  1.00  0.00     0.031 C 
ATOM     54  C   UNL A   1      46.512  28.530  29.636  1.00  0.00     0.029 A 
ATOM     55  C   UNL A   1      47.402  28.068  28.583  1.00  0.00     0.049 A 
ATOM     56  H   UNL A   1      47.359  26.047  27.862  1.00  0.00     0.167 HD
ATOM     57  C   UNL A   1      40.892  29.098  28.842  1.00  0.00     0.031 A 
ATOM     58  C   UNL A   1      47.980  28.888  27.654  1.00  0.00     0.031 A 
ATOM     59  C   UNL A   1      41.889  30.090  29.247  1.00  0.00     0.049 A 
ATOM     60  C   UNL A   1      47.286  30.226  27.511  1.00  0.00     0.074 A 
ATOM     61  C   UNL A   1      42.569  30.326  30.431  1.00  0.00     0.029 A 
ATOM     62  N   UNL A   1      42.553  30.811  28.262  1.00  0.00    -0.354 N 
ATOM     63  N   UNL A   1      46.051  30.455  27.867  1.00  0.00    -0.248 NA
ATOM     64  C   UNL A   1      47.927  31.409  26.948  1.00  0.00     0.031 C 
ATOM     65  C   UNL A   1      43.690  31.150  30.136  1.00  0.00     0.029 A 
ATOM     66  C   UNL A   1      43.667  31.437  28.782  1.00  0.00     0.049 A 
ATOM     67  H   UNL A   1      42.268  30.866  27.321  1.00  0.00     0.167 HD
ATOM     68  C   UNL A   1      45.733  31.767  27.626  1.00  0.00     0.074 A 
ATOM     69  C   UNL A   1      46.944  32.322  27.047  1.00  0.00     0.031 C 
ATOM     70  C   UNL A   1      44.499  32.275  27.924  1.00  0.00     0.031 A 
BRANCH  57  71
ATOM     71  C   UNL A   1      39.503  29.020  29.431  1.00  0.00    -0.014 A 
ATOM     72  C   UNL A   1      38.401  29.430  28.659  1.00  0.00     0.009 A 
ATOM     73  C   UNL A   1      39.210  28.623  30.748  1.00  0.00     0.009 A 
ATOM     74  C   UNL A   1      37.108  29.520  29.191  1.00  0.00     0.001 A 
ATOM     75  C   UNL A   1      37.927  28.738  31.299  1.00  0.00     0.001 A 
ATOM     76  C   UNL A   1      36.875  29.196  30.521  1.00  0.00     0.000 A 
ENDBRANCH  57  71
BRANCH  58  77
ATOM     77  C   UNL A   1      48.638  28.142  26.542  1.00  0.00    -0.014 A 
ATOM     78  C   UNL A   1      49.758  27.341  26.852  1.00  0.00     0.009 A 
ATOM     79  C   UNL A   1      47.958  27.901  25.340  1.00  0.00     0.009 A 
ATOM     80  C   UNL A   1      50.103  26.249  26.050  1.00  0.00     0.001 A 
ATOM     81  C   UNL A   1      48.321  26.816  24.529  1.00  0.00     0.001 A 
ATOM     82  C   UNL A   1      49.363  25.968  24.906  1.00  0.00     0.000 A 
ENDBRANCH  58  77
BRANCH  70  83
ATOM     83  C   UNL A   1      43.931  33.616  27.505  1.00  0.00    -0.014 A 
ATOM     84  C   UNL A   1      43.707  34.020  26.185  1.00  0.00     0.009 A 
ATOM     85  C   UNL A   1      43.467  34.500  28.511  1.00  0.00     0.009 A 
ATOM     86  C   UNL A   1      43.085  35.243  25.887  1.00  0.00     0.001 A 
ATOM     87  C   UNL A   1      42.803  35.693  28.223  1.00  0.00     0.001 A 
ATOM     88  C   UNL A   1      42.621  36.071  26.904  1.00  0.00     0.000 A 
ENDBRANCH  70  83
ENDBRANCH  44  45
ENDBRANCH  36  39
ENDBRANCH  34  35
ENDBRANCH  33  34
ENDBRANCH  32  33
ENDBRANCH   1  32
TORSDOF 16
ENDMDL
MODEL 3
REMARK VINA RESULT:     -12.5      1.548      2.354
REMARK SMILES Cc1cccc(OC2(C(=O)NCCCCCCNC(=O)c3ccc(-c4c5nc(c(-c6ccccc6)c6ccc([nH]6)c(-c6ccccc6)c6nc(c(-c7ccccc7)c7ccc4[nH]7)C=C6)C=C5)cc3)CCN(C(=O)c3cnc[nH]c3=O)CC2)c1
REMARK SMILES IDX 14 1 13 2 12 3 11 4 9 5 10 6 8 8 69 9 82 10 70 11 81 12
REMARK SMILES IDX 71 13 72 14 73 15 7 16 6 17 1 18 2 19 3 20 83 21 4 22 5 23
REMARK SMILES IDX 74 24 75 25 79 26 76 27 78 28 80 29 77 30 15 32 16 33 17 34
REMARK SMILES IDX 18 35 19 36 20 38 21 39 22 40 68 41 23 42 67 43 24 44 25 45
REMARK SMILES IDX 26 46 61 47 27 48 66 49 60 50 62 51 28 52 65 53 59 54 58 55
REMARK SMILES IDX 29 57 51 58 36 59 50 60 37 61 40 62 49 63 63 64 38 65 39 66
REMARK SMILES IDX 48 68 64 69 41 70 30 71 31 72 35 73 32 74 34 75 33 76 52 77
REMARK SMILES IDX 53 78 57 79 54 80 56 81 55 82 42 83 43 84 47 85 44 86 46 87
REMARK SMILES IDX 45 88
REMARK H PARENT 11 7 78 31 18 37 62 56 40 67
REMARK Flexibility Score: inf
ROOT
ATOM      1  C   UNL A   1      33.477  31.181  27.617  1.00  0.00     0.002 C 
ENDROOT
BRANCH   1   2
ATOM      2  C   UNL A   1      34.396  29.990  27.338  1.00  0.00     0.021 C 
BRANCH   2   3
ATOM      3  C   UNL A   1      33.824  28.851  26.478  1.00  0.00     0.116 C 
BRANCH   3   4
ATOM      4  N   UNL A   1      34.298  28.854  25.106  1.00  0.00    -0.353 N 
ATOM      5  C   UNL A   1      33.927  28.178  23.978  1.00  0.00     0.264 C 
ATOM      6  O   UNL A   1      34.454  28.599  22.939  1.00  0.00    -0.270 OA
ATOM      7  H   UNL A   1      35.048  29.474  24.957  1.00  0.00     0.163 HD
BRANCH   5   8
ATOM      8  C   UNL A   1      32.887  27.003  23.939  1.00  0.00     0.190 C 
ATOM      9  C   UNL A   1      32.772  26.379  22.542  1.00  0.00     0.080 C 
ATOM     10  C   UNL A   1      33.325  25.923  24.967  1.00  0.00     0.080 C 
ATOM     11  C   UNL A   1      32.009  25.068  22.486  1.00  0.00     0.124 C 
ATOM     12  C   UNL A   1      32.442  24.670  24.854  1.00  0.00     0.124 C 
ATOM     13  N   UNL A   1      32.536  24.169  23.489  1.00  0.00    -0.338 N 
ATOM     14  C   UNL A   1      33.402  23.158  23.117  1.00  0.00     0.261 C 
ATOM     15  O   UNL A   1      34.122  23.212  22.123  1.00  0.00    -0.269 OA
BRANCH   8  16
ATOM     16  O   UNL A   1      31.689  27.530  24.551  1.00  0.00    -0.477 OA
BRANCH  16  17
ATOM     17  C   UNL A   1      30.547  28.042  24.042  1.00  0.00     0.121 A 
ATOM     18  C   UNL A   1      29.025  30.763  21.867  1.00  0.00     0.044 C 
ATOM     19  C   UNL A   1      29.150  29.522  22.703  1.00  0.00    -0.047 A 
ATOM     20  C   UNL A   1      28.079  28.634  22.816  1.00  0.00     0.003 A 
ATOM     21  C   UNL A   1      30.362  29.231  23.353  1.00  0.00     0.049 A 
ATOM     22  C   UNL A   1      28.227  27.466  23.556  1.00  0.00     0.004 A 
ATOM     23  C   UNL A   1      29.455  27.172  24.152  1.00  0.00     0.046 A 
ENDBRANCH  16  17
ENDBRANCH   8  16
BRANCH  14  24
ATOM     24  C   UNL A   1      33.383  21.964  23.979  1.00  0.00     0.123 A 
ATOM     25  C   UNL A   1      32.317  21.153  24.000  1.00  0.00     0.132 A 
ATOM     26  C   UNL A   1      34.502  21.635  24.883  1.00  0.00     0.263 A 
ATOM     27  N   UNL A   1      32.206  20.013  24.763  1.00  0.00    -0.246 NA
ATOM     28  N   UNL A   1      34.333  20.499  25.622  1.00  0.00    -0.312 N 
ATOM     29  O   UNL A   1      35.513  22.320  24.989  1.00  0.00    -0.269 OA
ATOM     30  C   UNL A   1      33.204  19.741  25.534  1.00  0.00     0.199 A 
ATOM     31  H   UNL A   1      35.049  20.219  26.237  1.00  0.00     0.171 HD
ENDBRANCH  14  24
ENDBRANCH   5   8
ENDBRANCH   3   4
ENDBRANCH   2   3
ENDBRANCH   1   2
BRANCH   1  32
ATOM     32  C   UNL A   1      34.122  32.570  27.601  1.00  0.00     0.002 C 
BRANCH  32  33
ATOM     33  C   UNL A   1      33.304  33.696  28.230  1.00  0.00     0.021 C 
BRANCH  33  34
ATOM     34  C   UNL A   1      34.089  34.967  28.512  1.00  0.00     0.116 C 
BRANCH  34  35
ATOM     35  N   UNL A   1      34.422  35.124  29.917  1.00  0.00    -0.352 N 
ATOM     36  C   UNL A   1      35.145  34.316  30.781  1.00  0.00     0.251 C 
ATOM     37  H   UNL A   1      34.073  35.948  30.327  1.00  0.00     0.163 HD
ATOM     38  O   UNL A   1      35.170  34.586  31.960  1.00  0.00    -0.269 OA
BRANCH  36  39
ATOM     39  C   UNL A   1      36.030  33.244  30.241  1.00  0.00     0.039 A 
ATOM     40  C   UNL A   1      35.860  31.963  30.792  1.00  0.00     0.014 A 
ATOM     41  C   UNL A   1      37.138  33.513  29.452  1.00  0.00     0.014 A 
ATOM     42  C   UNL A   1      36.925  31.070  30.795  1.00  0.00     0.010 A 
ATOM     43  C   UNL A   1      38.231  32.685  29.548  1.00  0.00     0.010 A 
ATOM     44  C   UNL A   1      38.141  31.502  30.285  1.00  0.00    -0.014 A 
BRANCH  44  45
ATOM     45  C   UNL A   1      39.411  30.845  30.527  1.00  0.00     0.031 A 
ATOM     46  C   UNL A   1      39.709  29.576  29.847  1.00  0.00     0.074 A 
ATOM     47  C   UNL A   1      40.361  31.519  31.207  1.00  0.00     0.049 A 
ATOM     48  N   UNL A   1      40.689  28.802  30.155  1.00  0.00    -0.248 NA
ATOM     49  C   UNL A   1      38.869  29.048  28.777  1.00  0.00     0.031 C 
ATOM     50  C   UNL A   1      41.800  31.276  31.224  1.00  0.00     0.029 A 
ATOM     51  N   UNL A   1      40.157  32.460  32.218  1.00  0.00    -0.354 N 
ATOM     52  C   UNL A   1      40.803  27.872  29.151  1.00  0.00     0.074 A 
ATOM     53  C   UNL A   1      39.591  27.997  28.379  1.00  0.00     0.031 C 
ATOM     54  C   UNL A   1      42.321  31.834  32.329  1.00  0.00     0.029 A 
ATOM     55  C   UNL A   1      41.204  32.288  33.142  1.00  0.00     0.049 A 
ATOM     56  H   UNL A   1      39.425  33.116  32.272  1.00  0.00     0.167 HD
ATOM     57  C   UNL A   1      41.984  27.212  29.002  1.00  0.00     0.031 A 
ATOM     58  C   UNL A   1      40.944  31.838  34.407  1.00  0.00     0.031 A 
ATOM     59  C   UNL A   1      42.904  27.516  30.099  1.00  0.00     0.049 A 
ATOM     60  C   UNL A   1      41.618  30.522  34.732  1.00  0.00     0.074 A 
ATOM     61  C   UNL A   1      44.002  28.353  30.215  1.00  0.00     0.029 A 
ATOM     62  N   UNL A   1      42.542  27.160  31.392  1.00  0.00    -0.354 N 
ATOM     63  N   UNL A   1      42.034  29.668  33.836  1.00  0.00    -0.248 NA
ATOM     64  C   UNL A   1      41.870  30.062  36.094  1.00  0.00     0.031 C 
ATOM     65  C   UNL A   1      44.259  28.549  31.600  1.00  0.00     0.029 A 
ATOM     66  C   UNL A   1      43.338  27.804  32.317  1.00  0.00     0.049 A 
ATOM     67  H   UNL A   1      41.815  26.535  31.619  1.00  0.00     0.167 HD
ATOM     68  C   UNL A   1      42.615  28.591  34.455  1.00  0.00     0.074 A 
ATOM     69  C   UNL A   1      42.485  28.886  35.871  1.00  0.00     0.031 C 
ATOM     70  C   UNL A   1      43.149  27.554  33.743  1.00  0.00     0.031 A 
BRANCH  57  71
ATOM     71  C   UNL A   1      42.403  26.523  27.725  1.00  0.00    -0.014 A 
ATOM     72  C   UNL A   1      42.511  27.272  26.539  1.00  0.00     0.009 A 
ATOM     73  C   UNL A   1      42.638  25.143  27.597  1.00  0.00     0.009 A 
ATOM     74  C   UNL A   1      42.752  26.672  25.296  1.00  0.00     0.001 A 
ATOM     75  C   UNL A   1      42.850  24.529  26.355  1.00  0.00     0.001 A 
ATOM     76  C   UNL A   1      42.898  25.295  25.200  1.00  0.00     0.000 A 
ENDBRANCH  57  71
BRANCH  58  77
ATOM     77  C   UNL A   1      39.611  32.267  34.920  1.00  0.00    -0.014 A 
ATOM     78  C   UNL A   1      39.495  33.564  35.464  1.00  0.00     0.009 A 
ATOM     79  C   UNL A   1      38.442  31.605  34.518  1.00  0.00     0.009 A 
ATOM     80  C   UNL A   1      38.265  34.229  35.479  1.00  0.00     0.001 A 
ATOM     81  C   UNL A   1      37.208  32.269  34.554  1.00  0.00     0.001 A 
ATOM     82  C   UNL A   1      37.127  33.591  34.993  1.00  0.00     0.000 A 
ENDBRANCH  58  77
BRANCH  70  83
ATOM     83  C   UNL A   1      43.603  26.209  34.275  1.00  0.00    -0.014 A 
ATOM     84  C   UNL A   1      44.935  25.802  34.405  1.00  0.00     0.009 A 
ATOM     85  C   UNL A   1      42.630  25.325  34.803  1.00  0.00     0.009 A 
ATOM     86  C   UNL A   1      45.272  24.575  34.999  1.00  0.00     0.001 A 
ATOM     87  C   UNL A   1      42.960  24.127  35.439  1.00  0.00     0.001 A 
ATOM     88  C   UNL A   1      44.288  23.747  35.529  1.00  0.00     0.000 A 
ENDBRANCH  70  83
ENDBRANCH  44  45
ENDBRANCH  36  39
ENDBRANCH  34  35
ENDBRANCH  33  34
ENDBRANCH  32  33
ENDBRANCH   1  32
TORSDOF 16
ENDMDL
