MODEL 1
REMARK VINA RESULT:     -10.8      0.000      0.000
REMARK SMILES C[NH2+][C@]1(C(=O)NCCCCCCNC(=O)c2ccc(-c3c4nc(c(-c5ccccc5)c5ccc([nH]5)c(-c5ccccc5)c5nc(c(-c6ccccc6)c6ccc3[nH]6)C=C5)C=C4)cc2)CCC[C@H]1CCOC1C[C@@H](C)C[C@H](C)C1
REMARK SMILES IDX 8 1 7 2 6 3 4 4 5 5 3 7 64 8 67 9 65 10 66 11 2 12 1 13
REMARK SMILES IDX 68 16 69 17 70 18 71 19 72 20 78 21 73 22 76 23 74 24 75 25
REMARK SMILES IDX 77 26 9 27 10 28 11 29 12 30 13 31 14 32 15 34 16 35 17 36
REMARK SMILES IDX 63 37 18 38 62 39 19 40 20 41 21 42 56 43 22 44 61 45 55 46
REMARK SMILES IDX 57 47 23 48 60 49 54 50 53 51 24 53 46 54 31 55 45 56 32 57
REMARK SMILES IDX 35 58 44 59 58 60 33 61 34 62 43 64 59 65 36 66 25 67 26 68
REMARK SMILES IDX 30 69 27 70 29 71 28 72 47 73 48 74 52 75 49 76 51 77 50 78
REMARK SMILES IDX 37 79 38 80 42 81 39 82 41 83 40 84
REMARK H PARENT 6 6 2 14 2 15 13 33 57 52 35 63
REMARK Flexibility Score: inf
ROOT
ATOM      1  C   UNL A   1      39.499  23.306  26.504  1.00  0.00     0.021 C 
ENDROOT
BRANCH   1   2
ATOM      2  C   UNL A   1      38.044  23.739  26.370  1.00  0.00     0.116 C 
BRANCH   2   3
ATOM      3  N   UNL A   1      37.517  23.397  25.066  1.00  0.00    -0.351 N 
ATOM      4  C   UNL A   1      36.364  22.879  24.579  1.00  0.00     0.281 C 
ATOM      5  O   UNL A   1      36.353  22.801  23.336  1.00  0.00    -0.268 OA
ATOM      6  H   UNL A   1      38.163  23.590  24.347  1.00  0.00     0.163 HD
BRANCH   4   7
ATOM      7  C   UNL A   1      35.056  22.408  25.401  1.00  0.00     0.178 C 
ATOM      8  C   UNL A   1      35.101  23.117  26.774  1.00  0.00     0.079 C 
ATOM      9  C   UNL A   1      33.263  22.368  24.960  1.00  0.00     0.063 C 
ATOM     10  C   UNL A   1      33.945  22.638  27.584  1.00  0.00     0.008 C 
ATOM     11  C   UNL A   1      32.857  22.219  26.612  1.00  0.00     0.011 C 
BRANCH   7  12
ATOM     12  N   UNL A   1      35.349  20.904  25.610  1.00  0.00    -0.336 N 
ATOM     13  C   UNL A   1      36.542  20.352  24.974  1.00  0.00     0.331 C 
ATOM     14  H   UNL A   1      35.439  20.748  26.615  1.00  0.00     0.346 HD
ATOM     15  H   UNL A   1      34.570  20.423  25.161  1.00  0.00     0.346 HD
ENDBRANCH   7  12
BRANCH   9  16
ATOM     16  C   UNL A   1      32.050  22.907  23.311  1.00  0.00     0.039 C 
BRANCH  16  17
ATOM     17  C   UNL A   1      30.778  24.013  23.207  1.00  0.00     0.161 C 
BRANCH  17  18
ATOM     18  O   UNL A   1      31.314  25.286  23.057  1.00  0.00    -0.378 OA
BRANCH  18  19
ATOM     19  C   UNL A   1      30.534  25.878  24.064  1.00  0.00     0.118 C 
ATOM     20  C   UNL A   1      31.834  26.067  25.509  1.00  0.00     0.035 C 
ATOM     21  C   UNL A   1      29.833  27.475  23.169  1.00  0.00     0.035 C 
ATOM     22  C   UNL A   1      32.251  27.830  26.192  1.00  0.00    -0.011 C 
ATOM     23  C   UNL A   1      30.386  29.216  23.732  1.00  0.00    -0.011 C 
ATOM     24  C   UNL A   1      33.767  27.948  26.469  1.00  0.00     0.008 C 
ATOM     25  C   UNL A   1      31.640  29.371  25.199  1.00  0.00     0.006 C 
ATOM     26  C   UNL A   1      29.325  30.312  23.474  1.00  0.00     0.008 C 
ENDBRANCH  18  19
ENDBRANCH  17  18
ENDBRANCH  16  17
ENDBRANCH   9  16
ENDBRANCH   4   7
ENDBRANCH   2   3
ENDBRANCH   1   2
BRANCH   1  27
ATOM     27  C   UNL A   1      39.716  21.793  26.376  1.00  0.00     0.002 C 
BRANCH  27  28
ATOM     28  C   UNL A   1      41.180  21.336  26.319  1.00  0.00     0.002 C 
BRANCH  28  29
ATOM     29  C   UNL A   1      41.400  19.866  25.954  1.00  0.00     0.021 C 
BRANCH  29  30
ATOM     30  C   UNL A   1      42.777  19.314  26.302  1.00  0.00     0.116 C 
BRANCH  30  31
ATOM     31  N   UNL A   1      43.555  18.964  25.128  1.00  0.00    -0.352 N 
ATOM     32  C   UNL A   1      44.366  19.769  24.367  1.00  0.00     0.251 C 
ATOM     33  H   UNL A   1      43.494  18.026  24.839  1.00  0.00     0.163 HD
ATOM     34  O   UNL A   1      44.853  19.356  23.322  1.00  0.00    -0.269 OA
BRANCH  32  35
ATOM     35  C   UNL A   1      44.624  21.154  24.810  1.00  0.00     0.039 A 
ATOM     36  C   UNL A   1      44.122  22.208  24.042  1.00  0.00     0.014 A 
ATOM     37  C   UNL A   1      45.343  21.410  25.981  1.00  0.00     0.014 A 
ATOM     38  C   UNL A   1      44.300  23.521  24.477  1.00  0.00     0.010 A 
ATOM     39  C   UNL A   1      45.455  22.714  26.450  1.00  0.00     0.010 A 
ATOM     40  C   UNL A   1      44.943  23.781  25.699  1.00  0.00    -0.014 A 
BRANCH  40  41
ATOM     41  C   UNL A   1      45.101  25.170  26.197  1.00  0.00     0.031 A 
ATOM     42  C   UNL A   1      46.448  25.834  26.161  1.00  0.00     0.074 A 
ATOM     43  C   UNL A   1      44.041  25.810  26.726  1.00  0.00     0.049 A 
ATOM     44  N   UNL A   1      46.794  27.022  26.585  1.00  0.00    -0.248 NA
ATOM     45  C   UNL A   1      47.560  25.050  25.597  1.00  0.00     0.031 C 
ATOM     46  C   UNL A   1      42.690  25.258  26.850  1.00  0.00     0.029 A 
ATOM     47  N   UNL A   1      43.937  27.069  27.262  1.00  0.00    -0.354 N 
ATOM     48  C   UNL A   1      48.160  27.121  26.355  1.00  0.00     0.074 A 
ATOM     49  C   UNL A   1      48.591  25.857  25.803  1.00  0.00     0.031 C 
ATOM     50  C   UNL A   1      41.887  26.184  27.398  1.00  0.00     0.029 A 
ATOM     51  C   UNL A   1      42.671  27.377  27.699  1.00  0.00     0.049 A 
ATOM     52  H   UNL A   1      44.696  27.692  27.328  1.00  0.00     0.167 HD
ATOM     53  C   UNL A   1      48.980  28.179  26.562  1.00  0.00     0.031 A 
ATOM     54  C   UNL A   1      42.198  28.495  28.280  1.00  0.00     0.031 A 
ATOM     55  C   UNL A   1      48.547  29.440  27.103  1.00  0.00     0.049 A 
ATOM     56  C   UNL A   1      43.132  29.649  28.517  1.00  0.00     0.074 A 
ATOM     57  C   UNL A   1      49.288  30.592  27.303  1.00  0.00     0.029 A 
ATOM     58  N   UNL A   1      47.257  29.712  27.532  1.00  0.00    -0.354 N 
ATOM     59  N   UNL A   1      44.407  29.752  28.229  1.00  0.00    -0.248 NA
ATOM     60  C   UNL A   1      42.557  30.846  29.147  1.00  0.00     0.031 C 
ATOM     61  C   UNL A   1      48.458  31.545  27.903  1.00  0.00     0.029 A 
ATOM     62  C   UNL A   1      47.187  31.006  28.020  1.00  0.00     0.049 A 
ATOM     63  H   UNL A   1      46.503  29.080  27.495  1.00  0.00     0.167 HD
ATOM     64  C   UNL A   1      44.780  31.032  28.617  1.00  0.00     0.074 A 
ATOM     65  C   UNL A   1      43.592  31.673  29.144  1.00  0.00     0.031 C 
ATOM     66  C   UNL A   1      45.996  31.626  28.542  1.00  0.00     0.031 A 
BRANCH  53  67
ATOM     67  C   UNL A   1      50.432  28.009  26.212  1.00  0.00    -0.014 A 
ATOM     68  C   UNL A   1      51.360  27.542  27.157  1.00  0.00     0.009 A 
ATOM     69  C   UNL A   1      50.875  28.292  24.911  1.00  0.00     0.009 A 
ATOM     70  C   UNL A   1      52.707  27.400  26.817  1.00  0.00     0.001 A 
ATOM     71  C   UNL A   1      52.216  28.118  24.564  1.00  0.00     0.001 A 
ATOM     72  C   UNL A   1      53.133  27.683  25.520  1.00  0.00     0.000 A 
ENDBRANCH  53  67
BRANCH  54  73
ATOM     73  C   UNL A   1      40.764  28.585  28.665  1.00  0.00    -0.014 A 
ATOM     74  C   UNL A   1      39.818  29.106  27.769  1.00  0.00     0.009 A 
ATOM     75  C   UNL A   1      40.337  28.159  29.932  1.00  0.00     0.009 A 
ATOM     76  C   UNL A   1      38.477  29.222  28.144  1.00  0.00     0.001 A 
ATOM     77  C   UNL A   1      38.990  28.249  30.293  1.00  0.00     0.001 A 
ATOM     78  C   UNL A   1      38.064  28.790  29.403  1.00  0.00     0.000 A 
ENDBRANCH  54  73
BRANCH  66  79
ATOM     79  C   UNL A   1      46.094  33.051  29.009  1.00  0.00    -0.014 A 
ATOM     80  C   UNL A   1      46.551  33.367  30.297  1.00  0.00     0.009 A 
ATOM     81  C   UNL A   1      45.761  34.092  28.130  1.00  0.00     0.009 A 
ATOM     82  C   UNL A   1      46.641  34.700  30.706  1.00  0.00     0.001 A 
ATOM     83  C   UNL A   1      45.881  35.424  28.530  1.00  0.00     0.001 A 
ATOM     84  C   UNL A   1      46.311  35.726  29.821  1.00  0.00     0.000 A 
ENDBRANCH  66  79
ENDBRANCH  40  41
ENDBRANCH  32  35
ENDBRANCH  30  31
ENDBRANCH  29  30
ENDBRANCH  28  29
ENDBRANCH  27  28
ENDBRANCH   1  27
TORSDOF 18
ENDMDL
MODEL 2
REMARK VINA RESULT:     -10.8      6.121     12.651
REMARK SMILES C[NH2+][C@]1(C(=O)NCCCCCCNC(=O)c2ccc(-c3c4nc(c(-c5ccccc5)c5ccc([nH]5)c(-c5ccccc5)c5nc(c(-c6ccccc6)c6ccc3[nH]6)C=C5)C=C4)cc2)CCC[C@H]1CCOC1C[C@@H](C)C[C@H](C)C1
REMARK SMILES IDX 8 1 7 2 6 3 4 4 5 5 3 7 64 8 67 9 65 10 66 11 2 12 1 13
REMARK SMILES IDX 68 16 69 17 70 18 71 19 72 20 78 21 73 22 76 23 74 24 75 25
REMARK SMILES IDX 77 26 9 27 10 28 11 29 12 30 13 31 14 32 15 34 16 35 17 36
REMARK SMILES IDX 63 37 18 38 62 39 19 40 20 41 21 42 56 43 22 44 61 45 55 46
REMARK SMILES IDX 57 47 23 48 60 49 54 50 53 51 24 53 46 54 31 55 45 56 32 57
REMARK SMILES IDX 35 58 44 59 58 60 33 61 34 62 43 64 59 65 36 66 25 67 26 68
REMARK SMILES IDX 30 69 27 70 29 71 28 72 47 73 48 74 52 75 49 76 51 77 50 78
REMARK SMILES IDX 37 79 38 80 42 81 39 82 41 83 40 84
REMARK H PARENT 6 6 2 14 2 15 13 33 57 52 35 63
REMARK Flexibility Score: inf
ROOT
ATOM      1  C   UNL A   1      35.904  34.957  33.128  1.00  0.00     0.021 C 
ENDROOT
BRANCH   1   2
ATOM      2  C   UNL A   1      36.537  33.670  33.645  1.00  0.00     0.116 C 
BRANCH   2   3
ATOM      3  N   UNL A   1      36.423  33.577  35.086  1.00  0.00    -0.351 N 
ATOM      4  C   UNL A   1      37.271  33.394  36.126  1.00  0.00     0.281 C 
ATOM      5  O   UNL A   1      36.698  33.425  37.232  1.00  0.00    -0.268 OA
ATOM      6  H   UNL A   1      35.490  33.669  35.387  1.00  0.00     0.163 HD
BRANCH   4   7
ATOM      7  C   UNL A   1      38.872  33.183  36.085  1.00  0.00     0.178 C 
ATOM      8  C   UNL A   1      39.341  32.975  37.544  1.00  0.00     0.079 C 
ATOM      9  C   UNL A   1      39.950  32.063  35.089  1.00  0.00     0.063 C 
ATOM     10  C   UNL A   1      40.827  32.857  37.543  1.00  0.00     0.008 C 
ATOM     11  C   UNL A   1      41.235  32.322  36.183  1.00  0.00     0.011 C 
BRANCH   7  12
ATOM     12  N   UNL A   1      39.352  34.572  35.604  1.00  0.00    -0.336 N 
ATOM     13  C   UNL A   1      39.392  35.652  36.586  1.00  0.00     0.331 C 
ATOM     14  H   UNL A   1      40.298  34.458  35.238  1.00  0.00     0.346 HD
ATOM     15  H   UNL A   1      38.652  34.867  34.923  1.00  0.00     0.346 HD
ENDBRANCH   7  12
BRANCH   9  16
ATOM     16  C   UNL A   1      39.700  30.553  33.626  1.00  0.00     0.039 C 
BRANCH  16  17
ATOM     17  C   UNL A   1      40.809  29.442  33.004  1.00  0.00     0.161 C 
BRANCH  17  18
ATOM     18  O   UNL A   1      40.595  28.215  33.621  1.00  0.00    -0.378 OA
BRANCH  18  19
ATOM     19  C   UNL A   1      41.770  28.245  34.388  1.00  0.00     0.118 C 
ATOM     20  C   UNL A   1      41.100  27.748  36.154  1.00  0.00     0.035 C 
ATOM     21  C   UNL A   1      42.943  27.017  33.409  1.00  0.00     0.035 C 
ATOM     22  C   UNL A   1      41.776  26.149  37.014  1.00  0.00    -0.011 C 
ATOM     23  C   UNL A   1      43.466  25.353  34.192  1.00  0.00    -0.011 C 
ATOM     24  C   UNL A   1      40.624  25.400  37.721  1.00  0.00     0.008 C 
ATOM     25  C   UNL A   1      42.823  24.910  35.964  1.00  0.00     0.006 C 
ATOM     26  C   UNL A   1      44.839  24.843  33.693  1.00  0.00     0.008 C 
ENDBRANCH  18  19
ENDBRANCH  17  18
ENDBRANCH  16  17
ENDBRANCH   9  16
ENDBRANCH   4   7
ENDBRANCH   2   3
ENDBRANCH   1   2
BRANCH   1  27
ATOM     27  C   UNL A   1      34.504  35.234  33.687  1.00  0.00     0.002 C 
BRANCH  27  28
ATOM     28  C   UNL A   1      33.340  34.971  32.721  1.00  0.00     0.002 C 
BRANCH  28  29
ATOM     29  C   UNL A   1      32.881  36.174  31.895  1.00  0.00     0.021 C 
BRANCH  29  30
ATOM     30  C   UNL A   1      33.472  36.258  30.493  1.00  0.00     0.116 C 
BRANCH  30  31
ATOM     31  N   UNL A   1      32.781  35.408  29.541  1.00  0.00    -0.352 N 
ATOM     32  C   UNL A   1      33.262  34.318  28.860  1.00  0.00     0.251 C 
ATOM     33  H   UNL A   1      31.844  35.645  29.358  1.00  0.00     0.163 HD
ATOM     34  O   UNL A   1      32.593  33.783  27.984  1.00  0.00    -0.269 OA
BRANCH  32  35
ATOM     35  C   UNL A   1      34.612  33.810  29.176  1.00  0.00     0.039 A 
ATOM     36  C   UNL A   1      34.756  32.889  30.217  1.00  0.00     0.014 A 
ATOM     37  C   UNL A   1      35.725  34.227  28.440  1.00  0.00     0.014 A 
ATOM     38  C   UNL A   1      36.012  32.350  30.489  1.00  0.00     0.010 A 
ATOM     39  C   UNL A   1      36.962  33.634  28.664  1.00  0.00     0.010 A 
ATOM     40  C   UNL A   1      37.119  32.697  29.696  1.00  0.00    -0.014 A 
BRANCH  40  41
ATOM     41  C   UNL A   1      38.453  32.097  29.943  1.00  0.00     0.031 A 
ATOM     42  C   UNL A   1      39.491  32.863  30.715  1.00  0.00     0.074 A 
ATOM     43  C   UNL A   1      38.744  30.887  29.430  1.00  0.00     0.049 A 
ATOM     44  N   UNL A   1      40.723  32.526  31.000  1.00  0.00    -0.248 NA
ATOM     45  C   UNL A   1      39.101  34.193  31.213  1.00  0.00     0.031 C 
ATOM     46  C   UNL A   1      37.834  30.062  28.632  1.00  0.00     0.029 A 
ATOM     47  N   UNL A   1      39.893  30.141  29.501  1.00  0.00    -0.354 N 
ATOM     48  C   UNL A   1      41.257  33.605  31.692  1.00  0.00     0.074 A 
ATOM     49  C   UNL A   1      40.237  34.628  31.740  1.00  0.00     0.031 C 
ATOM     50  C   UNL A   1      38.450  28.911  28.315  1.00  0.00     0.029 A 
ATOM     51  C   UNL A   1      39.806  28.934  28.850  1.00  0.00     0.049 A 
ATOM     52  H   UNL A   1      40.703  30.441  29.975  1.00  0.00     0.167 HD
ATOM     53  C   UNL A   1      42.482  33.726  32.258  1.00  0.00     0.031 A 
ATOM     54  C   UNL A   1      40.721  27.958  28.699  1.00  0.00     0.031 A 
ATOM     55  C   UNL A   1      43.493  32.704  32.217  1.00  0.00     0.049 A 
ATOM     56  C   UNL A   1      42.079  28.124  29.321  1.00  0.00     0.074 A 
ATOM     57  C   UNL A   1      44.746  32.707  32.805  1.00  0.00     0.029 A 
ATOM     58  N   UNL A   1      43.366  31.496  31.548  1.00  0.00    -0.354 N 
ATOM     59  N   UNL A   1      42.546  29.121  30.032  1.00  0.00    -0.248 NA
ATOM     60  C   UNL A   1      43.032  27.021  29.130  1.00  0.00     0.031 C 
ATOM     61  C   UNL A   1      45.398  31.523  32.445  1.00  0.00     0.029 A 
ATOM     62  C   UNL A   1      44.528  30.757  31.687  1.00  0.00     0.049 A 
ATOM     63  H   UNL A   1      42.567  31.208  31.049  1.00  0.00     0.167 HD
ATOM     64  C   UNL A   1      43.835  28.756  30.396  1.00  0.00     0.074 A 
ATOM     65  C   UNL A   1      44.069  27.438  29.842  1.00  0.00     0.031 C 
ATOM     66  C   UNL A   1      44.744  29.448  31.126  1.00  0.00     0.031 A 
BRANCH  53  67
ATOM     67  C   UNL A   1      42.795  35.018  32.961  1.00  0.00    -0.014 A 
ATOM     68  C   UNL A   1      42.523  35.188  34.328  1.00  0.00     0.009 A 
ATOM     69  C   UNL A   1      43.400  36.069  32.255  1.00  0.00     0.009 A 
ATOM     70  C   UNL A   1      42.812  36.398  34.963  1.00  0.00     0.001 A 
ATOM     71  C   UNL A   1      43.717  37.267  32.899  1.00  0.00     0.001 A 
ATOM     72  C   UNL A   1      43.413  37.434  34.250  1.00  0.00     0.000 A 
ENDBRANCH  53  67
BRANCH  54  73
ATOM     73  C   UNL A   1      40.377  26.727  27.939  1.00  0.00    -0.014 A 
ATOM     74  C   UNL A   1      39.656  25.690  28.551  1.00  0.00     0.009 A 
ATOM     75  C   UNL A   1      40.775  26.579  26.602  1.00  0.00     0.009 A 
ATOM     76  C   UNL A   1      39.363  24.520  27.846  1.00  0.00     0.001 A 
ATOM     77  C   UNL A   1      40.456  25.419  25.891  1.00  0.00     0.001 A 
ATOM     78  C   UNL A   1      39.759  24.387  26.517  1.00  0.00     0.000 A 
ENDBRANCH  54  73
BRANCH  66  79
ATOM     79  C   UNL A   1      46.061  28.778  31.396  1.00  0.00    -0.014 A 
ATOM     80  C   UNL A   1      46.272  28.022  32.558  1.00  0.00     0.009 A 
ATOM     81  C   UNL A   1      47.093  28.874  30.450  1.00  0.00     0.009 A 
ATOM     82  C   UNL A   1      47.504  27.403  32.783  1.00  0.00     0.001 A 
ATOM     83  C   UNL A   1      48.312  28.229  30.662  1.00  0.00     0.001 A 
ATOM     84  C   UNL A   1      48.520  27.502  31.833  1.00  0.00     0.000 A 
ENDBRANCH  66  79
ENDBRANCH  40  41
ENDBRANCH  32  35
ENDBRANCH  30  31
ENDBRANCH  29  30
ENDBRANCH  28  29
ENDBRANCH  27  28
ENDBRANCH   1  27
TORSDOF 18
ENDMDL
MODEL 3
REMARK VINA RESULT:     -10.5      3.320      6.149
REMARK SMILES C[NH2+][C@]1(C(=O)NCCCCCCNC(=O)c2ccc(-c3c4nc(c(-c5ccccc5)c5ccc([nH]5)c(-c5ccccc5)c5nc(c(-c6ccccc6)c6ccc3[nH]6)C=C5)C=C4)cc2)CCC[C@H]1CCOC1C[C@@H](C)C[C@H](C)C1
REMARK SMILES IDX 8 1 7 2 6 3 4 4 5 5 3 7 64 8 67 9 65 10 66 11 2 12 1 13
REMARK SMILES IDX 68 16 69 17 70 18 71 19 72 20 78 21 73 22 76 23 74 24 75 25
REMARK SMILES IDX 77 26 9 27 10 28 11 29 12 30 13 31 14 32 15 34 16 35 17 36
REMARK SMILES IDX 63 37 18 38 62 39 19 40 20 41 21 42 56 43 22 44 61 45 55 46
REMARK SMILES IDX 57 47 23 48 60 49 54 50 53 51 24 53 46 54 31 55 45 56 32 57
REMARK SMILES IDX 35 58 44 59 58 60 33 61 34 62 43 64 59 65 36 66 25 67 26 68
REMARK SMILES IDX 30 69 27 70 29 71 28 72 47 73 48 74 52 75 49 76 51 77 50 78
REMARK SMILES IDX 37 79 38 80 42 81 39 82 41 83 40 84
REMARK H PARENT 6 6 2 14 2 15 13 33 57 52 35 63
REMARK Flexibility Score: inf
ROOT
ATOM      1  C   UNL A   1      39.381  28.704  27.540  1.00  0.00     0.021 C 
ENDROOT
BRANCH   1   2
ATOM      2  C   UNL A   1      38.782  29.011  28.908  1.00  0.00     0.116 C 
BRANCH   2   3
ATOM      3  N   UNL A   1      39.247  30.289  29.405  1.00  0.00    -0.351 N 
ATOM      4  C   UNL A   1      38.695  31.496  29.673  1.00  0.00     0.281 C 
ATOM      5  O   UNL A   1      39.513  32.311  30.142  1.00  0.00    -0.268 OA
ATOM      6  H   UNL A   1      40.214  30.278  29.597  1.00  0.00     0.163 HD
BRANCH   4   7
ATOM      7  C   UNL A   1      37.158  31.955  29.488  1.00  0.00     0.178 C 
ATOM      8  C   UNL A   1      37.177  33.375  28.878  1.00  0.00     0.079 C 
ATOM      9  C   UNL A   1      35.705  31.133  28.700  1.00  0.00     0.063 C 
ATOM     10  C   UNL A   1      35.769  33.855  28.771  1.00  0.00     0.008 C 
ATOM     11  C   UNL A   1      34.885  32.629  28.643  1.00  0.00     0.011 C 
BRANCH   7  12
ATOM     12  N   UNL A   1      36.688  32.054  30.959  1.00  0.00    -0.336 N 
ATOM     13  C   UNL A   1      36.832  30.867  31.797  1.00  0.00     0.331 C 
ATOM     14  H   UNL A   1      37.220  32.805  31.399  1.00  0.00     0.346 HD
ATOM     15  H   UNL A   1      35.681  32.208  30.899  1.00  0.00     0.346 HD
ENDBRANCH   7  12
BRANCH   9  16
ATOM     16  C   UNL A   1      35.305  29.329  27.664  1.00  0.00     0.039 C 
BRANCH  16  17
ATOM     17  C   UNL A   1      34.238  29.013  26.395  1.00  0.00     0.161 C 
BRANCH  17  18
ATOM     18  O   UNL A   1      33.366  28.007  26.795  1.00  0.00    -0.378 OA
BRANCH  18  19
ATOM     19  C   UNL A   1      33.256  27.415  25.526  1.00  0.00     0.118 C 
ATOM     20  C   UNL A   1      33.905  25.607  25.880  1.00  0.00     0.035 C 
ATOM     21  C   UNL A   1      31.368  27.705  25.088  1.00  0.00     0.035 C 
ATOM     22  C   UNL A   1      32.730  24.097  25.578  1.00  0.00    -0.011 C 
ATOM     23  C   UNL A   1      30.168  26.222  24.965  1.00  0.00    -0.011 C 
ATOM     24  C   UNL A   1      32.903  23.056  26.707  1.00  0.00     0.008 C 
ATOM     25  C   UNL A   1      30.853  24.436  25.275  1.00  0.00     0.006 C 
ATOM     26  C   UNL A   1      28.987  26.464  23.996  1.00  0.00     0.008 C 
ENDBRANCH  18  19
ENDBRANCH  17  18
ENDBRANCH  16  17
ENDBRANCH   9  16
ENDBRANCH   4   7
ENDBRANCH   2   3
ENDBRANCH   1   2
BRANCH   1  27
ATOM     27  C   UNL A   1      40.555  27.720  27.577  1.00  0.00     0.002 C 
BRANCH  27  28
ATOM     28  C   UNL A   1      40.370  26.501  28.491  1.00  0.00     0.002 C 
BRANCH  28  29
ATOM     29  C   UNL A   1      39.476  25.389  27.938  1.00  0.00     0.021 C 
BRANCH  29  30
ATOM     30  C   UNL A   1      39.853  24.888  26.549  1.00  0.00     0.116 C 
BRANCH  30  31
ATOM     31  N   UNL A   1      40.601  23.645  26.584  1.00  0.00    -0.352 N 
ATOM     32  C   UNL A   1      41.957  23.458  26.496  1.00  0.00     0.251 C 
ATOM     33  H   UNL A   1      40.064  22.826  26.685  1.00  0.00     0.163 HD
ATOM     34  O   UNL A   1      42.429  22.331  26.406  1.00  0.00    -0.269 OA
BRANCH  32  35
ATOM     35  C   UNL A   1      42.847  24.637  26.483  1.00  0.00     0.039 A 
ATOM     36  C   UNL A   1      43.464  25.026  27.674  1.00  0.00     0.014 A 
ATOM     37  C   UNL A   1      43.081  25.344  25.299  1.00  0.00     0.014 A 
ATOM     38  C   UNL A   1      44.357  26.097  27.668  1.00  0.00     0.010 A 
ATOM     39  C   UNL A   1      44.026  26.363  25.281  1.00  0.00     0.010 A 
ATOM     40  C   UNL A   1      44.666  26.755  26.466  1.00  0.00    -0.014 A 
BRANCH  40  41
ATOM     41  C   UNL A   1      45.647  27.867  26.435  1.00  0.00     0.031 A 
ATOM     42  C   UNL A   1      47.115  27.571  26.309  1.00  0.00     0.074 A 
ATOM     43  C   UNL A   1      45.219  29.136  26.572  1.00  0.00     0.049 A 
ATOM     44  N   UNL A   1      48.126  28.401  26.304  1.00  0.00    -0.248 NA
ATOM     45  C   UNL A   1      47.500  26.154  26.198  1.00  0.00     0.031 C 
ATOM     46  C   UNL A   1      43.823  29.548  26.739  1.00  0.00     0.029 A 
ATOM     47  N   UNL A   1      45.919  30.316  26.596  1.00  0.00    -0.354 N 
ATOM     48  C   UNL A   1      49.263  27.609  26.207  1.00  0.00     0.074 A 
ATOM     49  C   UNL A   1      48.823  26.232  26.207  1.00  0.00     0.031 C 
ATOM     50  C   UNL A   1      43.767  30.887  26.817  1.00  0.00     0.029 A 
ATOM     51  C   UNL A   1      45.122  31.425  26.746  1.00  0.00     0.049 A 
ATOM     52  H   UNL A   1      46.899  30.363  26.512  1.00  0.00     0.167 HD
ATOM     53  C   UNL A   1      50.557  27.993  26.103  1.00  0.00     0.031 A 
ATOM     54  C   UNL A   1      45.448  32.728  26.822  1.00  0.00     0.031 A 
ATOM     55  C   UNL A   1      50.993  29.364  26.093  1.00  0.00     0.049 A 
ATOM     56  C   UNL A   1      46.893  33.129  26.722  1.00  0.00     0.074 A 
ATOM     57  C   UNL A   1      52.276  29.861  25.937  1.00  0.00     0.029 A 
ATOM     58  N   UNL A   1      50.155  30.458  26.246  1.00  0.00    -0.354 N 
ATOM     59  N   UNL A   1      47.951  32.371  26.560  1.00  0.00    -0.248 NA
ATOM     60  C   UNL A   1      47.188  34.566  26.802  1.00  0.00     0.031 C 
ATOM     61  C   UNL A   1      52.220  31.254  26.052  1.00  0.00     0.029 A 
ATOM     62  C   UNL A   1      50.896  31.627  26.216  1.00  0.00     0.049 A 
ATOM     63  H   UNL A   1      49.178  30.411  26.359  1.00  0.00     0.167 HD
ATOM     64  C   UNL A   1      49.032  33.240  26.491  1.00  0.00     0.074 A 
ATOM     65  C   UNL A   1      48.499  34.582  26.611  1.00  0.00     0.031 C 
ATOM     66  C   UNL A   1      50.348  32.954  26.339  1.00  0.00     0.031 A 
BRANCH  53  67
ATOM     67  C   UNL A   1      51.596  26.911  26.002  1.00  0.00    -0.014 A 
ATOM     68  C   UNL A   1      51.969  26.372  24.759  1.00  0.00     0.009 A 
ATOM     69  C   UNL A   1      52.232  26.442  27.161  1.00  0.00     0.009 A 
ATOM     70  C   UNL A   1      52.928  25.361  24.685  1.00  0.00     0.001 A 
ATOM     71  C   UNL A   1      53.214  25.453  27.081  1.00  0.00     0.001 A 
ATOM     72  C   UNL A   1      53.554  24.905  25.844  1.00  0.00     0.000 A 
ENDBRANCH  53  67
BRANCH  54  73
ATOM     73  C   UNL A   1      44.384  33.755  26.985  1.00  0.00    -0.014 A 
ATOM     74  C   UNL A   1      43.795  34.354  25.861  1.00  0.00     0.009 A 
ATOM     75  C   UNL A   1      43.959  34.145  28.264  1.00  0.00     0.009 A 
ATOM     76  C   UNL A   1      42.820  35.343  26.017  1.00  0.00     0.001 A 
ATOM     77  C   UNL A   1      42.962  35.112  28.415  1.00  0.00     0.001 A 
ATOM     78  C   UNL A   1      42.402  35.718  27.292  1.00  0.00     0.000 A 
ENDBRANCH  54  73
BRANCH  66  79
ATOM     79  C   UNL A   1      51.299  34.115  26.260  1.00  0.00    -0.014 A 
ATOM     80  C   UNL A   1      51.585  34.744  25.040  1.00  0.00     0.009 A 
ATOM     81  C   UNL A   1      51.886  34.610  27.435  1.00  0.00     0.009 A 
ATOM     82  C   UNL A   1      52.466  35.826  24.994  1.00  0.00     0.001 A 
ATOM     83  C   UNL A   1      52.742  35.711  27.391  1.00  0.00     0.001 A 
ATOM     84  C   UNL A   1      53.040  36.311  26.169  1.00  0.00     0.000 A 
ENDBRANCH  66  79
ENDBRANCH  40  41
ENDBRANCH  32  35
ENDBRANCH  30  31
ENDBRANCH  29  30
ENDBRANCH  28  29
ENDBRANCH  27  28
ENDBRANCH   1  27
TORSDOF 18
ENDMDL
