MODEL 1
REMARK VINA RESULT:     -12.1      0.000      0.000
REMARK SMILES C[C@@H](C(=O)NCCCCCCNC(=O)c1ccc(-c2c3nc(c(-c4ccccc4)c4ccc([nH]4)c(-c4ccccc4)c4nc(c(-c5ccccc5)c5ccc2[nH]5)C=C4)C=C3)cc1)c1ccc2c3cc(Cl)ccc3n(C(=O)c3ccc(Cl)cc3)c2c1
REMARK SMILES IDX 8 1 7 2 6 3 5 4 3 5 4 6 2 8 1 9 63 10 64 11 85 12 65 13
REMARK SMILES IDX 84 14 66 15 74 16 67 17 73 18 68 19 72 20 69 21 71 22 70 23
REMARK SMILES IDX 75 24 76 25 77 26 78 27 83 28 79 29 82 30 80 31 81 32 9 33
REMARK SMILES IDX 10 34 11 35 12 36 13 37 14 39 15 40 16 41 62 42 17 43 61 44
REMARK SMILES IDX 18 45 19 46 20 47 55 48 21 49 60 50 54 51 56 52 22 53 59 54
REMARK SMILES IDX 53 55 52 56 23 58 45 59 30 60 44 61 31 62 34 63 43 64 57 65
REMARK SMILES IDX 32 66 33 67 42 69 58 70 35 71 24 72 25 73 29 74 26 75 28 76
REMARK SMILES IDX 27 77 46 78 47 79 51 80 48 81 50 82 49 83 36 84 37 85 41 86
REMARK SMILES IDX 38 87 40 88 39 89
REMARK H PARENT 5 7 12 38 56 57 34 68
REMARK Flexibility Score: inf
ROOT
ATOM      1  C   UNL A   1      31.751  30.554  26.271  1.00  0.00     0.002 C 
ENDROOT
BRANCH   1   2
ATOM      2  C   UNL A   1      32.343  29.158  26.039  1.00  0.00     0.021 C 
BRANCH   2   3
ATOM      3  C   UNL A   1      31.421  28.217  25.256  1.00  0.00     0.116 C 
BRANCH   3   4
ATOM      4  N   UNL A   1      31.021  27.116  26.105  1.00  0.00    -0.356 N 
ATOM      5  C   UNL A   1      30.714  25.840  25.723  1.00  0.00     0.227 C 
ATOM      6  O   UNL A   1      29.907  25.227  26.424  1.00  0.00    -0.274 OA
ATOM      7  H   UNL A   1      30.964  27.309  27.069  1.00  0.00     0.163 HD
BRANCH   5   8
ATOM      8  C   UNL A   1      31.394  25.247  24.473  1.00  0.00     0.105 C 
ATOM      9  C   UNL A   1      30.389  24.337  23.756  1.00  0.00     0.023 C 
BRANCH   8  10
ATOM     10  C   UNL A   1      32.732  24.557  24.776  1.00  0.00    -0.034 A 
ATOM     11  C   UNL A   1      33.869  25.277  25.152  1.00  0.00     0.005 A 
ATOM     12  C   UNL A   1      32.825  23.154  24.714  1.00  0.00     0.032 A 
ATOM     13  C   UNL A   1      35.081  24.635  25.422  1.00  0.00     0.011 A 
ATOM     14  C   UNL A   1      34.073  22.513  24.872  1.00  0.00     0.057 A 
ATOM     15  C   UNL A   1      35.188  23.240  25.265  1.00  0.00     0.008 A 
ATOM     16  N   UNL A   1      34.453  21.167  24.693  1.00  0.00    -0.276 N 
ATOM     17  C   UNL A   1      36.268  22.331  25.392  1.00  0.00     0.009 A 
ATOM     18  C   UNL A   1      35.836  21.079  24.930  1.00  0.00     0.057 A 
ATOM     19  C   UNL A   1      37.609  22.518  25.790  1.00  0.00     0.031 A 
ATOM     20  C   UNL A   1      36.779  20.052  24.718  1.00  0.00     0.029 A 
ATOM     21  C   UNL A   1      38.515  21.474  25.648  1.00  0.00     0.041 A 
ATOM     22  C   UNL A   1      38.114  20.266  25.093  1.00  0.00     0.023 A 
ATOM     23  Cl  UNL A   1      40.153  21.709  26.119  1.00  0.00    -0.084 Cl
BRANCH  16  24
ATOM     24  C   UNL A   1      33.549  20.152  24.265  1.00  0.00     0.262 C 
ATOM     25  O   UNL A   1      32.689  20.498  23.451  1.00  0.00    -0.268 OA
BRANCH  24  26
ATOM     26  C   UNL A   1      33.440  18.726  24.683  1.00  0.00     0.040 A 
ATOM     27  C   UNL A   1      33.959  17.764  23.789  1.00  0.00     0.015 A 
ATOM     28  C   UNL A   1      32.716  18.284  25.793  1.00  0.00     0.015 A 
ATOM     29  C   UNL A   1      33.768  16.397  23.999  1.00  0.00     0.021 A 
ATOM     30  C   UNL A   1      32.555  16.908  26.023  1.00  0.00     0.021 A 
ATOM     31  C   UNL A   1      33.070  15.973  25.122  1.00  0.00     0.041 A 
ATOM     32  Cl  UNL A   1      32.808  14.294  25.376  1.00  0.00    -0.084 Cl
ENDBRANCH  24  26
ENDBRANCH  16  24
ENDBRANCH   8  10
ENDBRANCH   5   8
ENDBRANCH   3   4
ENDBRANCH   2   3
ENDBRANCH   1   2
BRANCH   1  33
ATOM     33  C   UNL A   1      32.553  31.435  27.233  1.00  0.00     0.002 C 
BRANCH  33  34
ATOM     34  C   UNL A   1      32.127  32.904  27.250  1.00  0.00     0.021 C 
BRANCH  34  35
ATOM     35  C   UNL A   1      33.254  33.871  27.592  1.00  0.00     0.116 C 
BRANCH  35  36
ATOM     36  N   UNL A   1      32.907  34.733  28.710  1.00  0.00    -0.352 N 
ATOM     37  C   UNL A   1      33.392  34.702  29.996  1.00  0.00     0.251 C 
ATOM     38  H   UNL A   1      32.237  35.431  28.520  1.00  0.00     0.163 HD
ATOM     39  O   UNL A   1      32.871  35.354  30.884  1.00  0.00    -0.269 OA
BRANCH  37  40
ATOM     40  C   UNL A   1      34.556  33.840  30.284  1.00  0.00     0.039 A 
ATOM     41  C   UNL A   1      35.805  34.178  29.758  1.00  0.00     0.014 A 
ATOM     42  C   UNL A   1      34.408  32.723  31.109  1.00  0.00     0.014 A 
ATOM     43  C   UNL A   1      36.926  33.423  30.109  1.00  0.00     0.010 A 
ATOM     44  C   UNL A   1      35.533  32.020  31.517  1.00  0.00     0.010 A 
ATOM     45  C   UNL A   1      36.801  32.359  31.016  1.00  0.00    -0.014 A 
BRANCH  45  46
ATOM     46  C   UNL A   1      37.966  31.552  31.449  1.00  0.00     0.031 A 
ATOM     47  C   UNL A   1      38.742  31.972  32.664  1.00  0.00     0.074 A 
ATOM     48  C   UNL A   1      38.398  30.527  30.691  1.00  0.00     0.049 A 
ATOM     49  N   UNL A   1      39.887  31.528  33.112  1.00  0.00    -0.248 NA
ATOM     50  C   UNL A   1      38.166  33.070  33.460  1.00  0.00     0.031 C 
ATOM     51  C   UNL A   1      37.751  30.039  29.473  1.00  0.00     0.029 A 
ATOM     52  N   UNL A   1      39.508  29.730  30.822  1.00  0.00    -0.354 N 
ATOM     53  C   UNL A   1      40.188  32.317  34.214  1.00  0.00     0.074 A 
ATOM     54  C   UNL A   1      39.129  33.293  34.342  1.00  0.00     0.031 C 
ATOM     55  C   UNL A   1      38.474  29.025  28.969  1.00  0.00     0.029 A 
ATOM     56  C   UNL A   1      39.658  28.826  29.800  1.00  0.00     0.049 A 
ATOM     57  H   UNL A   1      40.136  29.799  31.578  1.00  0.00     0.167 HD
ATOM     58  C   UNL A   1      41.247  32.229  35.054  1.00  0.00     0.031 A 
ATOM     59  C   UNL A   1      40.650  27.953  29.543  1.00  0.00     0.031 A 
ATOM     60  C   UNL A   1      42.291  31.249  34.929  1.00  0.00     0.049 A 
ATOM     61  C   UNL A   1      41.822  27.872  30.481  1.00  0.00     0.074 A 
ATOM     62  C   UNL A   1      43.373  31.032  35.763  1.00  0.00     0.029 A 
ATOM     63  N   UNL A   1      42.385  30.324  33.900  1.00  0.00    -0.354 N 
ATOM     64  N   UNL A   1      42.067  28.584  31.555  1.00  0.00    -0.248 NA
ATOM     65  C   UNL A   1      42.849  26.866  30.179  1.00  0.00     0.031 C 
ATOM     66  C   UNL A   1      44.151  30.011  35.208  1.00  0.00     0.029 A 
ATOM     67  C   UNL A   1      43.520  29.551  34.063  1.00  0.00     0.049 A 
ATOM     68  H   UNL A   1      41.738  30.232  33.163  1.00  0.00     0.167 HD
ATOM     69  C   UNL A   1      43.257  28.089  32.075  1.00  0.00     0.074 A 
ATOM     70  C   UNL A   1      43.684  27.019  31.198  1.00  0.00     0.031 C 
ATOM     71  C   UNL A   1      43.927  28.484  33.185  1.00  0.00     0.031 A 
BRANCH  58  72
ATOM     72  C   UNL A   1      41.333  33.247  36.159  1.00  0.00    -0.014 A 
ATOM     73  C   UNL A   1      42.034  34.452  35.992  1.00  0.00     0.009 A 
ATOM     74  C   UNL A   1      40.706  32.992  37.388  1.00  0.00     0.009 A 
ATOM     75  C   UNL A   1      42.157  35.352  37.054  1.00  0.00     0.001 A 
ATOM     76  C   UNL A   1      40.799  33.909  38.436  1.00  0.00     0.001 A 
ATOM     77  C   UNL A   1      41.537  35.081  38.273  1.00  0.00     0.000 A 
ENDBRANCH  58  72
BRANCH  59  78
ATOM     78  C   UNL A   1      40.564  27.083  28.342  1.00  0.00    -0.014 A 
ATOM     79  C   UNL A   1      41.218  27.443  27.154  1.00  0.00     0.009 A 
ATOM     80  C   UNL A   1      39.864  25.867  28.391  1.00  0.00     0.009 A 
ATOM     81  C   UNL A   1      41.163  26.608  26.036  1.00  0.00     0.001 A 
ATOM     82  C   UNL A   1      39.834  25.021  27.279  1.00  0.00     0.001 A 
ATOM     83  C   UNL A   1      40.479  25.395  26.101  1.00  0.00     0.000 A 
ENDBRANCH  59  78
BRANCH  71  84
ATOM     84  C   UNL A   1      45.172  27.728  33.553  1.00  0.00    -0.014 A 
ATOM     85  C   UNL A   1      45.113  26.515  34.257  1.00  0.00     0.009 A 
ATOM     86  C   UNL A   1      46.420  28.196  33.107  1.00  0.00     0.009 A 
ATOM     87  C   UNL A   1      46.280  25.794  34.515  1.00  0.00     0.001 A 
ATOM     88  C   UNL A   1      47.580  27.460  33.343  1.00  0.00     0.001 A 
ATOM     89  C   UNL A   1      47.511  26.262  34.051  1.00  0.00     0.000 A 
ENDBRANCH  71  84
ENDBRANCH  45  46
ENDBRANCH  37  40
ENDBRANCH  35  36
ENDBRANCH  34  35
ENDBRANCH  33  34
ENDBRANCH   1  33
TORSDOF 16
ENDMDL
MODEL 2
REMARK VINA RESULT:     -12.1      2.631      5.267
REMARK SMILES C[C@@H](C(=O)NCCCCCCNC(=O)c1ccc(-c2c3nc(c(-c4ccccc4)c4ccc([nH]4)c(-c4ccccc4)c4nc(c(-c5ccccc5)c5ccc2[nH]5)C=C4)C=C3)cc1)c1ccc2c3cc(Cl)ccc3n(C(=O)c3ccc(Cl)cc3)c2c1
REMARK SMILES IDX 8 1 7 2 6 3 5 4 3 5 4 6 2 8 1 9 63 10 64 11 85 12 65 13
REMARK SMILES IDX 84 14 66 15 74 16 67 17 73 18 68 19 72 20 69 21 71 22 70 23
REMARK SMILES IDX 75 24 76 25 77 26 78 27 83 28 79 29 82 30 80 31 81 32 9 33
REMARK SMILES IDX 10 34 11 35 12 36 13 37 14 39 15 40 16 41 62 42 17 43 61 44
REMARK SMILES IDX 18 45 19 46 20 47 55 48 21 49 60 50 54 51 56 52 22 53 59 54
REMARK SMILES IDX 53 55 52 56 23 58 45 59 30 60 44 61 31 62 34 63 43 64 57 65
REMARK SMILES IDX 32 66 33 67 42 69 58 70 35 71 24 72 25 73 29 74 26 75 28 76
REMARK SMILES IDX 27 77 46 78 47 79 51 80 48 81 50 82 49 83 36 84 37 85 41 86
REMARK SMILES IDX 38 87 40 88 39 89
REMARK H PARENT 5 7 12 38 56 57 34 68
REMARK Flexibility Score: inf
ROOT
ATOM      1  C   UNL A   1      33.322  28.318  26.843  1.00  0.00     0.002 C 
ENDROOT
BRANCH   1   2
ATOM      2  C   UNL A   1      33.925  27.287  25.880  1.00  0.00     0.021 C 
BRANCH   2   3
ATOM      3  C   UNL A   1      32.936  26.206  25.432  1.00  0.00     0.116 C 
BRANCH   3   4
ATOM      4  N   UNL A   1      33.176  24.992  26.181  1.00  0.00    -0.356 N 
ATOM      5  C   UNL A   1      33.755  23.838  25.732  1.00  0.00     0.227 C 
ATOM      6  O   UNL A   1      33.400  22.789  26.271  1.00  0.00    -0.274 OA
ATOM      7  H   UNL A   1      32.888  24.998  27.123  1.00  0.00     0.163 HD
BRANCH   5   8
ATOM      8  C   UNL A   1      34.812  23.916  24.612  1.00  0.00     0.105 C 
ATOM      9  C   UNL A   1      34.162  23.470  23.296  1.00  0.00     0.023 C 
BRANCH   8  10
ATOM     10  C   UNL A   1      36.106  23.157  24.940  1.00  0.00    -0.034 A 
ATOM     11  C   UNL A   1      36.323  21.843  24.515  1.00  0.00     0.005 A 
ATOM     12  C   UNL A   1      37.131  23.801  25.658  1.00  0.00     0.032 A 
ATOM     13  C   UNL A   1      37.506  21.164  24.824  1.00  0.00     0.011 A 
ATOM     14  C   UNL A   1      38.274  23.082  26.071  1.00  0.00     0.057 A 
ATOM     15  C   UNL A   1      38.484  21.785  25.624  1.00  0.00     0.008 A 
ATOM     16  N   UNL A   1      39.338  23.443  26.923  1.00  0.00    -0.276 N 
ATOM     17  C   UNL A   1      39.723  21.346  26.153  1.00  0.00     0.009 A 
ATOM     18  C   UNL A   1      40.187  22.328  27.040  1.00  0.00     0.057 A 
ATOM     19  C   UNL A   1      40.434  20.137  25.996  1.00  0.00     0.031 A 
ATOM     20  C   UNL A   1      41.277  22.042  27.889  1.00  0.00     0.029 A 
ATOM     21  C   UNL A   1      41.553  19.896  26.783  1.00  0.00     0.041 A 
ATOM     22  C   UNL A   1      41.954  20.822  27.738  1.00  0.00     0.023 A 
ATOM     23  Cl  UNL A   1      42.410  18.414  26.602  1.00  0.00    -0.084 Cl
BRANCH  16  24
ATOM     24  C   UNL A   1      39.420  24.707  27.575  1.00  0.00     0.262 C 
ATOM     25  O   UNL A   1      38.879  24.784  28.681  1.00  0.00    -0.268 OA
BRANCH  24  26
ATOM     26  C   UNL A   1      40.023  25.988  27.112  1.00  0.00     0.040 A 
ATOM     27  C   UNL A   1      40.993  25.899  26.090  1.00  0.00     0.015 A 
ATOM     28  C   UNL A   1      39.819  27.223  27.733  1.00  0.00     0.015 A 
ATOM     29  C   UNL A   1      41.738  27.011  25.694  1.00  0.00     0.021 A 
ATOM     30  C   UNL A   1      40.544  28.350  27.310  1.00  0.00     0.021 A 
ATOM     31  C   UNL A   1      41.505  28.237  26.303  1.00  0.00     0.041 A 
ATOM     32  Cl  UNL A   1      42.434  29.606  25.839  1.00  0.00    -0.084 Cl
ENDBRANCH  24  26
ENDBRANCH  16  24
ENDBRANCH   8  10
ENDBRANCH   5   8
ENDBRANCH   3   4
ENDBRANCH   2   3
ENDBRANCH   1   2
BRANCH   1  33
ATOM     33  C   UNL A   1      34.293  29.411  27.297  1.00  0.00     0.002 C 
BRANCH  33  34
ATOM     34  C   UNL A   1      33.668  30.802  27.419  1.00  0.00     0.021 C 
BRANCH  34  35
ATOM     35  C   UNL A   1      34.654  31.889  27.827  1.00  0.00     0.116 C 
BRANCH  35  36
ATOM     36  N   UNL A   1      33.976  33.079  28.316  1.00  0.00    -0.352 N 
ATOM     37  C   UNL A   1      34.102  33.693  29.540  1.00  0.00     0.251 C 
ATOM     38  H   UNL A   1      33.344  33.501  27.688  1.00  0.00     0.163 HD
ATOM     39  O   UNL A   1      33.330  34.567  29.892  1.00  0.00    -0.269 OA
BRANCH  37  40
ATOM     40  C   UNL A   1      35.193  33.253  30.434  1.00  0.00     0.039 A 
ATOM     41  C   UNL A   1      34.966  32.203  31.326  1.00  0.00     0.014 A 
ATOM     42  C   UNL A   1      36.447  33.862  30.352  1.00  0.00     0.014 A 
ATOM     43  C   UNL A   1      36.022  31.719  32.100  1.00  0.00     0.010 A 
ATOM     44  C   UNL A   1      37.512  33.331  31.066  1.00  0.00     0.010 A 
ATOM     45  C   UNL A   1      37.309  32.259  31.952  1.00  0.00    -0.014 A 
BRANCH  45  46
ATOM     46  C   UNL A   1      38.469  31.755  32.723  1.00  0.00     0.031 A 
ATOM     47  C   UNL A   1      38.710  32.271  34.113  1.00  0.00     0.074 A 
ATOM     48  C   UNL A   1      39.365  30.936  32.140  1.00  0.00     0.049 A 
ATOM     49  N   UNL A   1      39.749  32.109  34.889  1.00  0.00    -0.248 NA
ATOM     50  C   UNL A   1      37.652  33.118  34.687  1.00  0.00     0.031 C 
ATOM     51  C   UNL A   1      39.260  30.388  30.788  1.00  0.00     0.029 A 
ATOM     52  N   UNL A   1      40.560  30.448  32.607  1.00  0.00    -0.354 N 
ATOM     53  C   UNL A   1      39.488  32.864  36.024  1.00  0.00     0.074 A 
ATOM     54  C   UNL A   1      38.215  33.518  35.817  1.00  0.00     0.031 C 
ATOM     55  C   UNL A   1      40.345  29.638  30.534  1.00  0.00     0.029 A 
ATOM     56  C   UNL A   1      41.242  29.693  31.686  1.00  0.00     0.049 A 
ATOM     57  H   UNL A   1      40.895  30.623  33.517  1.00  0.00     0.167 HD
ATOM     58  C   UNL A   1      40.237  32.994  37.145  1.00  0.00     0.031 A 
ATOM     59  C   UNL A   1      42.463  29.130  31.748  1.00  0.00     0.031 A 
ATOM     60  C   UNL A   1      41.497  32.331  37.350  1.00  0.00     0.049 A 
ATOM     61  C   UNL A   1      43.284  29.288  32.997  1.00  0.00     0.074 A 
ATOM     62  C   UNL A   1      42.303  32.343  38.474  1.00  0.00     0.029 A 
ATOM     63  N   UNL A   1      42.134  31.542  36.405  1.00  0.00    -0.354 N 
ATOM     64  N   UNL A   1      43.002  29.958  34.089  1.00  0.00    -0.248 NA
ATOM     65  C   UNL A   1      44.588  28.610  33.028  1.00  0.00     0.031 C 
ATOM     66  C   UNL A   1      43.456  31.604  38.189  1.00  0.00     0.029 A 
ATOM     67  C   UNL A   1      43.337  31.081  36.910  1.00  0.00     0.049 A 
ATOM     68  H   UNL A   1      41.783  31.339  35.508  1.00  0.00     0.167 HD
ATOM     69  C   UNL A   1      44.074  29.753  34.948  1.00  0.00     0.074 A 
ATOM     70  C   UNL A   1      45.013  28.899  34.251  1.00  0.00     0.031 C 
ATOM     71  C   UNL A   1      44.257  30.226  36.205  1.00  0.00     0.031 A 
BRANCH  58  72
ATOM     72  C   UNL A   1      39.716  33.913  38.216  1.00  0.00    -0.014 A 
ATOM     73  C   UNL A   1      38.949  33.431  39.289  1.00  0.00     0.009 A 
ATOM     74  C   UNL A   1      39.994  35.287  38.146  1.00  0.00     0.009 A 
ATOM     75  C   UNL A   1      38.420  34.312  40.234  1.00  0.00     0.001 A 
ATOM     76  C   UNL A   1      39.495  36.162  39.113  1.00  0.00     0.001 A 
ATOM     77  C   UNL A   1      38.696  35.676  40.146  1.00  0.00     0.000 A 
ENDBRANCH  58  72
BRANCH  59  78
ATOM     78  C   UNL A   1      42.972  28.360  30.585  1.00  0.00    -0.014 A 
ATOM     79  C   UNL A   1      43.847  28.955  29.664  1.00  0.00     0.009 A 
ATOM     80  C   UNL A   1      42.620  27.011  30.413  1.00  0.00     0.009 A 
ATOM     81  C   UNL A   1      44.350  28.219  28.588  1.00  0.00     0.001 A 
ATOM     82  C   UNL A   1      43.146  26.271  29.352  1.00  0.00     0.001 A 
ATOM     83  C   UNL A   1      44.007  26.877  28.438  1.00  0.00     0.000 A 
ENDBRANCH  59  78
BRANCH  71  84
ATOM     84  C   UNL A   1      45.495  29.795  36.939  1.00  0.00    -0.014 A 
ATOM     85  C   UNL A   1      46.671  30.560  36.905  1.00  0.00     0.009 A 
ATOM     86  C   UNL A   1      45.450  28.650  37.753  1.00  0.00     0.009 A 
ATOM     87  C   UNL A   1      47.781  30.177  37.662  1.00  0.00     0.001 A 
ATOM     88  C   UNL A   1      46.550  28.287  38.527  1.00  0.00     0.001 A 
ATOM     89  C   UNL A   1      47.717  29.047  38.479  1.00  0.00     0.000 A 
ENDBRANCH  71  84
ENDBRANCH  45  46
ENDBRANCH  37  40
ENDBRANCH  35  36
ENDBRANCH  34  35
ENDBRANCH  33  34
ENDBRANCH   1  33
TORSDOF 16
ENDMDL
MODEL 3
REMARK VINA RESULT:     -12.0      1.101      5.708
REMARK SMILES C[C@@H](C(=O)NCCCCCCNC(=O)c1ccc(-c2c3nc(c(-c4ccccc4)c4ccc([nH]4)c(-c4ccccc4)c4nc(c(-c5ccccc5)c5ccc2[nH]5)C=C4)C=C3)cc1)c1ccc2c3cc(Cl)ccc3n(C(=O)c3ccc(Cl)cc3)c2c1
REMARK SMILES IDX 8 1 7 2 6 3 5 4 3 5 4 6 2 8 1 9 63 10 64 11 85 12 65 13
REMARK SMILES IDX 84 14 66 15 74 16 67 17 73 18 68 19 72 20 69 21 71 22 70 23
REMARK SMILES IDX 75 24 76 25 77 26 78 27 83 28 79 29 82 30 80 31 81 32 9 33
REMARK SMILES IDX 10 34 11 35 12 36 13 37 14 39 15 40 16 41 62 42 17 43 61 44
REMARK SMILES IDX 18 45 19 46 20 47 55 48 21 49 60 50 54 51 56 52 22 53 59 54
REMARK SMILES IDX 53 55 52 56 23 58 45 59 30 60 44 61 31 62 34 63 43 64 57 65
REMARK SMILES IDX 32 66 33 67 42 69 58 70 35 71 24 72 25 73 29 74 26 75 28 76
REMARK SMILES IDX 27 77 46 78 47 79 51 80 48 81 50 82 49 83 36 84 37 85 41 86
REMARK SMILES IDX 38 87 40 88 39 89
REMARK H PARENT 5 7 12 38 56 57 34 68
REMARK Flexibility Score: inf
ROOT
ATOM      1  C   UNL A   1      33.464  29.167  27.059  1.00  0.00     0.002 C 
ENDROOT
BRANCH   1   2
ATOM      2  C   UNL A   1      32.025  28.818  27.463  1.00  0.00     0.021 C 
BRANCH   2   3
ATOM      3  C   UNL A   1      31.421  27.660  26.661  1.00  0.00     0.116 C 
BRANCH   3   4
ATOM      4  N   UNL A   1      31.285  28.052  25.275  1.00  0.00    -0.356 N 
ATOM      5  C   UNL A   1      31.515  27.287  24.167  1.00  0.00     0.227 C 
ATOM      6  O   UNL A   1      31.881  27.875  23.148  1.00  0.00    -0.274 OA
ATOM      7  H   UNL A   1      30.992  28.979  25.112  1.00  0.00     0.163 HD
BRANCH   5   8
ATOM      8  C   UNL A   1      31.291  25.763  24.247  1.00  0.00     0.105 C 
ATOM      9  C   UNL A   1      30.129  25.491  25.210  1.00  0.00     0.023 C 
BRANCH   8  10
ATOM     10  C   UNL A   1      32.565  24.977  24.592  1.00  0.00    -0.034 A 
ATOM     11  C   UNL A   1      33.724  25.608  25.051  1.00  0.00     0.005 A 
ATOM     12  C   UNL A   1      32.570  23.573  24.484  1.00  0.00     0.032 A 
ATOM     13  C   UNL A   1      34.877  24.878  25.358  1.00  0.00     0.011 A 
ATOM     14  C   UNL A   1      33.765  22.847  24.682  1.00  0.00     0.057 A 
ATOM     15  C   UNL A   1      34.902  23.485  25.156  1.00  0.00     0.008 A 
ATOM     16  N   UNL A   1      34.066  21.485  24.474  1.00  0.00    -0.276 N 
ATOM     17  C   UNL A   1      35.913  22.504  25.305  1.00  0.00     0.009 A 
ATOM     18  C   UNL A   1      35.426  21.299  24.776  1.00  0.00     0.057 A 
ATOM     19  C   UNL A   1      37.241  22.588  25.776  1.00  0.00     0.031 A 
ATOM     20  C   UNL A   1      36.311  20.219  24.575  1.00  0.00     0.029 A 
ATOM     21  C   UNL A   1      38.084  21.492  25.643  1.00  0.00     0.041 A 
ATOM     22  C   UNL A   1      37.636  20.332  25.025  1.00  0.00     0.023 A 
ATOM     23  Cl  UNL A   1      39.707  21.603  26.203  1.00  0.00    -0.084 Cl
BRANCH  16  24
ATOM     24  C   UNL A   1      33.122  20.547  23.965  1.00  0.00     0.262 C 
ATOM     25  O   UNL A   1      32.245  21.004  23.228  1.00  0.00    -0.268 OA
BRANCH  24  26
ATOM     26  C   UNL A   1      32.991  19.085  24.218  1.00  0.00     0.040 A 
ATOM     27  C   UNL A   1      32.664  18.697  25.537  1.00  0.00     0.015 A 
ATOM     28  C   UNL A   1      33.333  18.093  23.296  1.00  0.00     0.015 A 
ATOM     29  C   UNL A   1      32.674  17.357  25.925  1.00  0.00     0.021 A 
ATOM     30  C   UNL A   1      33.308  16.741  23.678  1.00  0.00     0.021 A 
ATOM     31  C   UNL A   1      32.991  16.381  24.990  1.00  0.00     0.041 A 
ATOM     32  Cl  UNL A   1      33.029  14.729  25.465  1.00  0.00    -0.084 Cl
ENDBRANCH  24  26
ENDBRANCH  16  24
ENDBRANCH   8  10
ENDBRANCH   5   8
ENDBRANCH   3   4
ENDBRANCH   2   3
ENDBRANCH   1   2
BRANCH   1  33
ATOM     33  C   UNL A   1      33.864  30.622  27.319  1.00  0.00     0.002 C 
BRANCH  33  34
ATOM     34  C   UNL A   1      32.687  31.573  27.538  1.00  0.00     0.021 C 
BRANCH  34  35
ATOM     35  C   UNL A   1      32.888  32.956  26.932  1.00  0.00     0.116 C 
BRANCH  35  36
ATOM     36  N   UNL A   1      32.531  34.013  27.865  1.00  0.00    -0.352 N 
ATOM     37  C   UNL A   1      33.161  34.369  29.035  1.00  0.00     0.251 C 
ATOM     38  H   UNL A   1      31.735  34.542  27.629  1.00  0.00     0.163 HD
ATOM     39  O   UNL A   1      32.645  35.143  29.822  1.00  0.00    -0.269 OA
BRANCH  37  40
ATOM     40  C   UNL A   1      34.482  33.775  29.327  1.00  0.00     0.039 A 
ATOM     41  C   UNL A   1      35.608  34.239  28.642  1.00  0.00     0.014 A 
ATOM     42  C   UNL A   1      34.599  32.788  30.308  1.00  0.00     0.014 A 
ATOM     43  C   UNL A   1      36.870  33.751  28.986  1.00  0.00     0.010 A 
ATOM     44  C   UNL A   1      35.860  32.360  30.699  1.00  0.00     0.010 A 
ATOM     45  C   UNL A   1      37.006  32.832  30.039  1.00  0.00    -0.014 A 
BRANCH  45  46
ATOM     46  C   UNL A   1      38.328  32.314  30.466  1.00  0.00     0.031 A 
ATOM     47  C   UNL A   1      38.846  31.037  29.868  1.00  0.00     0.074 A 
ATOM     48  C   UNL A   1      38.999  32.914  31.466  1.00  0.00     0.049 A 
ATOM     49  N   UNL A   1      39.876  30.314  30.221  1.00  0.00    -0.248 NA
ATOM     50  C   UNL A   1      38.073  30.481  28.745  1.00  0.00     0.031 C 
ATOM     51  C   UNL A   1      38.588  34.141  32.148  1.00  0.00     0.029 A 
ATOM     52  N   UNL A   1      40.159  32.549  32.104  1.00  0.00    -0.354 N 
ATOM     53  C   UNL A   1      39.852  29.200  29.393  1.00  0.00     0.074 A 
ATOM     54  C   UNL A   1      38.682  29.321  28.550  1.00  0.00     0.031 C 
ATOM     55  C   UNL A   1      39.482  34.429  33.108  1.00  0.00     0.029 A 
ATOM     56  C   UNL A   1      40.499  33.382  33.140  1.00  0.00     0.049 A 
ATOM     57  H   UNL A   1      40.695  31.766  31.841  1.00  0.00     0.167 HD
ATOM     58  C   UNL A   1      40.731  28.172  29.331  1.00  0.00     0.031 A 
ATOM     59  C   UNL A   1      41.502  33.300  34.035  1.00  0.00     0.031 A 
ATOM     60  C   UNL A   1      41.898  28.063  30.163  1.00  0.00     0.049 A 
ATOM     61  C   UNL A   1      42.466  32.149  33.957  1.00  0.00     0.074 A 
ATOM     62  C   UNL A   1      42.888  27.097  30.137  1.00  0.00     0.029 A 
ATOM     63  N   UNL A   1      42.229  28.951  31.176  1.00  0.00    -0.354 N 
ATOM     64  N   UNL A   1      42.467  31.130  33.131  1.00  0.00    -0.248 NA
ATOM     65  C   UNL A   1      43.570  32.138  34.927  1.00  0.00     0.031 C 
ATOM     66  C   UNL A   1      43.789  27.370  31.171  1.00  0.00     0.029 A 
ATOM     67  C   UNL A   1      43.394  28.541  31.799  1.00  0.00     0.049 A 
ATOM     68  H   UNL A   1      41.711  29.753  31.416  1.00  0.00     0.167 HD
ATOM     69  C   UNL A   1      43.588  30.377  33.458  1.00  0.00     0.074 A 
ATOM     70  C   UNL A   1      44.241  31.054  34.558  1.00  0.00     0.031 C 
ATOM     71  C   UNL A   1      44.036  29.231  32.889  1.00  0.00     0.031 A 
BRANCH  58  72
ATOM     72  C   UNL A   1      40.435  27.074  28.347  1.00  0.00    -0.014 A 
ATOM     73  C   UNL A   1      39.636  25.972  28.696  1.00  0.00     0.009 A 
ATOM     74  C   UNL A   1      40.967  27.141  27.050  1.00  0.00     0.009 A 
ATOM     75  C   UNL A   1      39.430  24.932  27.787  1.00  0.00     0.001 A 
ATOM     76  C   UNL A   1      40.729  26.117  26.132  1.00  0.00     0.001 A 
ATOM     77  C   UNL A   1      39.974  25.006  26.506  1.00  0.00     0.000 A 
ENDBRANCH  58  72
BRANCH  59  78
ATOM     78  C   UNL A   1      41.639  34.349  35.077  1.00  0.00    -0.014 A 
ATOM     79  C   UNL A   1      41.039  34.187  36.334  1.00  0.00     0.009 A 
ATOM     80  C   UNL A   1      42.408  35.499  34.835  1.00  0.00     0.009 A 
ATOM     81  C   UNL A   1      41.196  35.161  37.324  1.00  0.00     0.001 A 
ATOM     82  C   UNL A   1      42.585  36.458  35.835  1.00  0.00     0.001 A 
ATOM     83  C   UNL A   1      41.975  36.290  37.077  1.00  0.00     0.000 A 
ENDBRANCH  59  78
BRANCH  71  84
ATOM     84  C   UNL A   1      45.323  28.653  33.407  1.00  0.00    -0.014 A 
ATOM     85  C   UNL A   1      46.566  29.062  32.901  1.00  0.00     0.009 A 
ATOM     86  C   UNL A   1      45.288  27.749  34.482  1.00  0.00     0.009 A 
ATOM     87  C   UNL A   1      47.748  28.567  33.456  1.00  0.00     0.001 A 
ATOM     88  C   UNL A   1      46.470  27.278  35.051  1.00  0.00     0.001 A 
ATOM     89  C   UNL A   1      47.699  27.683  34.536  1.00  0.00     0.000 A 
ENDBRANCH  71  84
ENDBRANCH  45  46
ENDBRANCH  37  40
ENDBRANCH  35  36
ENDBRANCH  34  35
ENDBRANCH  33  34
ENDBRANCH   1  33
TORSDOF 16
ENDMDL
