MODEL 1
REMARK VINA RESULT:     -11.7      0.000      0.000
REMARK SMILES Cc1cc(C)c2c(c1)C=C(C(=O)NCCCCCCNC(=O)c1ccc(-c3c4nc(c(-c5ccccc5)c5ccc([nH]5)c(-c5ccccc5)c5nc(c(-c6ccccc6)c6ccc3[nH]6)C=C5)C=C4)cc1)[C@@H](C(F)(F)F)O2
REMARK SMILES IDX 17 1 16 2 15 3 14 4 13 5 11 6 12 7 10 9 1 10 2 11 3 12 8 13
REMARK SMILES IDX 4 14 7 15 5 16 6 17 9 18 76 19 71 20 72 21 73 22 74 23 75 24
REMARK SMILES IDX 18 25 19 26 20 27 21 28 22 30 23 31 24 32 70 33 25 34 69 35
REMARK SMILES IDX 26 36 27 37 28 38 63 39 29 40 68 41 62 42 64 43 30 44 67 45
REMARK SMILES IDX 61 46 60 47 31 49 53 50 38 51 52 52 39 53 42 54 51 55 65 56
REMARK SMILES IDX 40 57 41 58 50 60 66 61 43 62 32 63 33 64 37 65 34 66 36 67
REMARK SMILES IDX 35 68 54 69 55 70 59 71 56 72 58 73 57 74 44 75 45 76 49 77
REMARK SMILES IDX 46 78 48 79 47 80
REMARK H PARENT 13 8 20 29 64 48 42 59
REMARK Flexibility Score: inf
ROOT
ATOM      1  C   UNL A   1      31.449  27.275  26.215  1.00  0.00     0.002 C 
ENDROOT
BRANCH   1   2
ATOM      2  C   UNL A   1      31.286  28.193  24.995  1.00  0.00     0.002 C 
BRANCH   2   3
ATOM      3  C   UNL A   1      30.453  27.613  23.849  1.00  0.00     0.021 C 
BRANCH   3   4
ATOM      4  C   UNL A   1      30.802  26.169  23.504  1.00  0.00     0.116 C 
BRANCH   4   5
ATOM      5  N   UNL A   1      31.676  26.086  22.348  1.00  0.00    -0.352 N 
ATOM      6  C   UNL A   1      32.718  25.323  21.943  1.00  0.00     0.251 C 
ATOM      7  O   UNL A   1      33.162  25.597  20.823  1.00  0.00    -0.270 OA
ATOM      8  H   UNL A   1      31.450  26.770  21.677  1.00  0.00     0.163 HD
BRANCH   6   9
ATOM      9  C   UNL A   1      33.340  24.220  22.734  1.00  0.00     0.067 C 
ATOM     10  C   UNL A   1      32.315  18.351  24.425  1.00  0.00     0.044 C 
ATOM     11  C   UNL A   1      33.078  19.633  24.270  1.00  0.00    -0.050 A 
ATOM     12  C   UNL A   1      34.346  19.762  24.856  1.00  0.00     0.010 A 
ATOM     13  C   UNL A   1      32.533  20.715  23.565  1.00  0.00     0.015 A 
ATOM     14  C   UNL A   1      35.074  20.951  24.735  1.00  0.00    -0.008 A 
ATOM     15  C   UNL A   1      33.246  21.910  23.441  1.00  0.00     0.018 A 
ATOM     16  C   UNL A   1      36.433  21.083  25.361  1.00  0.00     0.048 C 
ATOM     17  C   UNL A   1      34.507  22.020  24.031  1.00  0.00     0.130 A 
ATOM     18  C   UNL A   1      32.710  23.031  22.676  1.00  0.00     0.025 C 
ATOM     19  O   UNL A   1      35.265  23.149  23.914  1.00  0.00    -0.475 OA
ATOM     20  C   UNL A   1      34.566  24.376  23.584  1.00  0.00     0.314 C 
BRANCH  20  21
ATOM     21  C   UNL A   1      34.301  25.166  24.878  1.00  0.00     0.429 C 
ATOM     22  F   UNL A   1      35.318  24.988  25.759  1.00  0.00    -0.167 F 
ATOM     23  F   UNL A   1      34.217  26.501  24.665  1.00  0.00    -0.167 F 
ATOM     24  F   UNL A   1      33.158  24.794  25.496  1.00  0.00    -0.167 F 
ENDBRANCH  20  21
ENDBRANCH   6   9
ENDBRANCH   4   5
ENDBRANCH   3   4
ENDBRANCH   2   3
ENDBRANCH   1   2
BRANCH   1  25
ATOM     25  C   UNL A   1      32.007  27.947  27.472  1.00  0.00     0.021 C 
BRANCH  25  26
ATOM     26  C   UNL A   1      33.395  28.556  27.303  1.00  0.00     0.116 C 
BRANCH  26  27
ATOM     27  N   UNL A   1      33.392  29.990  27.535  1.00  0.00    -0.352 N 
ATOM     28  C   UNL A   1      34.365  30.778  28.094  1.00  0.00     0.251 C 
ATOM     29  H   UNL A   1      32.577  30.462  27.251  1.00  0.00     0.163 HD
ATOM     30  O   UNL A   1      34.127  31.944  28.393  1.00  0.00    -0.269 OA
BRANCH  28  31
ATOM     31  C   UNL A   1      35.703  30.208  28.350  1.00  0.00     0.039 A 
ATOM     32  C   UNL A   1      36.649  30.224  27.323  1.00  0.00     0.014 A 
ATOM     33  C   UNL A   1      36.018  29.667  29.600  1.00  0.00     0.014 A 
ATOM     34  C   UNL A   1      37.936  29.746  27.570  1.00  0.00     0.010 A 
ATOM     35  C   UNL A   1      37.320  29.254  29.864  1.00  0.00     0.010 A 
ATOM     36  C   UNL A   1      38.289  29.286  28.851  1.00  0.00    -0.014 A 
BRANCH  36  37
ATOM     37  C   UNL A   1      39.673  28.840  29.141  1.00  0.00     0.031 A 
ATOM     38  C   UNL A   1      40.618  29.741  29.884  1.00  0.00     0.074 A 
ATOM     39  C   UNL A   1      40.086  27.634  28.707  1.00  0.00     0.049 A 
ATOM     40  N   UNL A   1      41.861  29.523  30.229  1.00  0.00    -0.248 NA
ATOM     41  C   UNL A   1      40.108  31.066  30.276  1.00  0.00     0.031 C 
ATOM     42  C   UNL A   1      39.270  26.683  27.948  1.00  0.00     0.029 A 
ATOM     43  N   UNL A   1      41.292  26.997  28.849  1.00  0.00    -0.354 N 
ATOM     44  C   UNL A   1      42.280  30.679  30.876  1.00  0.00     0.074 A 
ATOM     45  C   UNL A   1      41.181  31.617  30.825  1.00  0.00     0.031 C 
ATOM     46  C   UNL A   1      39.984  25.568  27.731  1.00  0.00     0.029 A 
ATOM     47  C   UNL A   1      41.317  25.738  28.301  1.00  0.00     0.049 A 
ATOM     48  H   UNL A   1      42.066  27.404  29.301  1.00  0.00     0.167 HD
ATOM     49  C   UNL A   1      43.464  30.926  31.482  1.00  0.00     0.031 A 
ATOM     50  C   UNL A   1      42.301  24.818  28.270  1.00  0.00     0.031 A 
ATOM     51  C   UNL A   1      44.554  29.991  31.538  1.00  0.00     0.049 A 
ATOM     52  C   UNL A   1      43.618  25.130  28.922  1.00  0.00     0.074 A 
ATOM     53  C   UNL A   1      45.782  30.136  32.161  1.00  0.00     0.029 A 
ATOM     54  N   UNL A   1      44.548  28.737  30.948  1.00  0.00    -0.354 N 
ATOM     55  N   UNL A   1      43.980  26.207  29.575  1.00  0.00    -0.248 NA
ATOM     56  C   UNL A   1      44.660  24.097  28.840  1.00  0.00     0.031 C 
ATOM     57  C   UNL A   1      46.536  28.987  31.908  1.00  0.00     0.029 A 
ATOM     58  C   UNL A   1      45.758  28.105  31.175  1.00  0.00     0.049 A 
ATOM     59  H   UNL A   1      43.795  28.352  30.444  1.00  0.00     0.167 HD
ATOM     60  C   UNL A   1      45.280  25.973  30.003  1.00  0.00     0.074 A 
ATOM     61  C   UNL A   1      45.640  24.647  29.546  1.00  0.00     0.031 C 
ATOM     62  C   UNL A   1      46.100  26.785  30.712  1.00  0.00     0.031 A 
BRANCH  49  63
ATOM     63  C   UNL A   1      43.639  32.263  32.146  1.00  0.00    -0.014 A 
ATOM     64  C   UNL A   1      43.312  32.445  33.499  1.00  0.00     0.009 A 
ATOM     65  C   UNL A   1      44.191  33.337  31.429  1.00  0.00     0.009 A 
ATOM     66  C   UNL A   1      43.507  33.682  34.114  1.00  0.00     0.001 A 
ATOM     67  C   UNL A   1      44.410  34.565  32.055  1.00  0.00     0.001 A 
ATOM     68  C   UNL A   1      44.062  34.739  33.394  1.00  0.00     0.000 A 
ENDBRANCH  49  63
BRANCH  50  69
ATOM     69  C   UNL A   1      42.058  23.500  27.630  1.00  0.00    -0.014 A 
ATOM     70  C   UNL A   1      42.445  23.277  26.300  1.00  0.00     0.009 A 
ATOM     71  C   UNL A   1      41.461  22.451  28.348  1.00  0.00     0.009 A 
ATOM     72  C   UNL A   1      42.226  22.037  25.696  1.00  0.00     0.001 A 
ATOM     73  C   UNL A   1      41.266  21.204  27.749  1.00  0.00     0.001 A 
ATOM     74  C   UNL A   1      41.644  21.000  26.423  1.00  0.00     0.000 A 
ENDBRANCH  50  69
BRANCH  62  75
ATOM     75  C   UNL A   1      47.464  26.262  31.062  1.00  0.00    -0.014 A 
ATOM     76  C   UNL A   1      47.731  25.727  32.331  1.00  0.00     0.009 A 
ATOM     77  C   UNL A   1      48.466  26.226  30.079  1.00  0.00     0.009 A 
ATOM     78  C   UNL A   1      48.983  25.181  32.615  1.00  0.00     0.001 A 
ATOM     79  C   UNL A   1      49.709  25.655  30.360  1.00  0.00     0.001 A 
ATOM     80  C   UNL A   1      49.968  25.138  31.628  1.00  0.00     0.000 A 
ENDBRANCH  62  75
ENDBRANCH  36  37
ENDBRANCH  28  31
ENDBRANCH  26  27
ENDBRANCH  25  26
ENDBRANCH   1  25
TORSDOF 14
ENDMDL
MODEL 2
REMARK VINA RESULT:     -11.7      0.575      5.902
REMARK SMILES Cc1cc(C)c2c(c1)C=C(C(=O)NCCCCCCNC(=O)c1ccc(-c3c4nc(c(-c5ccccc5)c5ccc([nH]5)c(-c5ccccc5)c5nc(c(-c6ccccc6)c6ccc3[nH]6)C=C5)C=C4)cc1)[C@@H](C(F)(F)F)O2
REMARK SMILES IDX 17 1 16 2 15 3 14 4 13 5 11 6 12 7 10 9 1 10 2 11 3 12 8 13
REMARK SMILES IDX 4 14 7 15 5 16 6 17 9 18 76 19 71 20 72 21 73 22 74 23 75 24
REMARK SMILES IDX 18 25 19 26 20 27 21 28 22 30 23 31 24 32 70 33 25 34 69 35
REMARK SMILES IDX 26 36 27 37 28 38 63 39 29 40 68 41 62 42 64 43 30 44 67 45
REMARK SMILES IDX 61 46 60 47 31 49 53 50 38 51 52 52 39 53 42 54 51 55 65 56
REMARK SMILES IDX 40 57 41 58 50 60 66 61 43 62 32 63 33 64 37 65 34 66 36 67
REMARK SMILES IDX 35 68 54 69 55 70 59 71 56 72 58 73 57 74 44 75 45 76 49 77
REMARK SMILES IDX 46 78 48 79 47 80
REMARK H PARENT 13 8 20 29 64 48 42 59
REMARK Flexibility Score: inf
ROOT
ATOM      1  C   UNL A   1      31.707  29.064  25.596  1.00  0.00     0.002 C 
ENDROOT
BRANCH   1   2
ATOM      2  C   UNL A   1      31.706  28.542  24.152  1.00  0.00     0.002 C 
BRANCH   2   3
ATOM      3  C   UNL A   1      30.475  27.724  23.755  1.00  0.00     0.021 C 
BRANCH   3   4
ATOM      4  C   UNL A   1      30.784  26.266  23.429  1.00  0.00     0.116 C 
BRANCH   4   5
ATOM      5  N   UNL A   1      31.635  26.143  22.260  1.00  0.00    -0.352 N 
ATOM      6  C   UNL A   1      32.667  25.364  21.861  1.00  0.00     0.251 C 
ATOM      7  O   UNL A   1      33.089  25.599  20.723  1.00  0.00    -0.270 OA
ATOM      8  H   UNL A   1      31.397  26.804  21.571  1.00  0.00     0.163 HD
BRANCH   6   9
ATOM      9  C   UNL A   1      33.304  24.287  22.676  1.00  0.00     0.067 C 
ATOM     10  C   UNL A   1      32.340  18.455  24.522  1.00  0.00     0.044 C 
ATOM     11  C   UNL A   1      33.091  19.739  24.331  1.00  0.00    -0.050 A 
ATOM     12  C   UNL A   1      34.360  19.894  24.906  1.00  0.00     0.010 A 
ATOM     13  C   UNL A   1      32.532  20.797  23.601  1.00  0.00     0.015 A 
ATOM     14  C   UNL A   1      35.077  21.086  24.751  1.00  0.00    -0.008 A 
ATOM     15  C   UNL A   1      33.234  21.995  23.443  1.00  0.00     0.018 A 
ATOM     16  C   UNL A   1      36.438  21.246  25.366  1.00  0.00     0.048 C 
ATOM     17  C   UNL A   1      34.496  22.132  24.023  1.00  0.00     0.130 A 
ATOM     18  C   UNL A   1      32.684  23.092  22.652  1.00  0.00     0.025 C 
ATOM     19  O   UNL A   1      35.245  23.264  23.873  1.00  0.00    -0.475 OA
ATOM     20  C   UNL A   1      34.533  24.476  23.516  1.00  0.00     0.314 C 
BRANCH  20  21
ATOM     21  C   UNL A   1      34.267  25.297  24.790  1.00  0.00     0.429 C 
ATOM     22  F   UNL A   1      33.054  24.983  25.311  1.00  0.00    -0.167 F 
ATOM     23  F   UNL A   1      35.172  25.049  25.767  1.00  0.00    -0.167 F 
ATOM     24  F   UNL A   1      34.281  26.630  24.569  1.00  0.00    -0.167 F 
ENDBRANCH  20  21
ENDBRANCH   6   9
ENDBRANCH   4   5
ENDBRANCH   3   4
ENDBRANCH   2   3
ENDBRANCH   1   2
BRANCH   1  25
ATOM     25  C   UNL A   1      32.317  28.120  26.635  1.00  0.00     0.021 C 
BRANCH  25  26
ATOM     26  C   UNL A   1      33.642  28.593  27.222  1.00  0.00     0.116 C 
BRANCH  26  27
ATOM     27  N   UNL A   1      33.594  29.989  27.621  1.00  0.00    -0.352 N 
ATOM     28  C   UNL A   1      34.538  30.735  28.280  1.00  0.00     0.251 C 
ATOM     29  H   UNL A   1      32.766  30.467  27.388  1.00  0.00     0.163 HD
ATOM     30  O   UNL A   1      34.262  31.849  28.713  1.00  0.00    -0.269 OA
BRANCH  28  31
ATOM     31  C   UNL A   1      35.891  30.179  28.479  1.00  0.00     0.039 A 
ATOM     32  C   UNL A   1      36.796  30.210  27.417  1.00  0.00     0.014 A 
ATOM     33  C   UNL A   1      36.262  29.636  29.713  1.00  0.00     0.014 A 
ATOM     34  C   UNL A   1      38.097  29.746  27.610  1.00  0.00     0.010 A 
ATOM     35  C   UNL A   1      37.578  29.237  29.924  1.00  0.00     0.010 A 
ATOM     36  C   UNL A   1      38.506  29.285  28.874  1.00  0.00    -0.014 A 
BRANCH  36  37
ATOM     37  C   UNL A   1      39.905  28.854  29.106  1.00  0.00     0.031 A 
ATOM     38  C   UNL A   1      40.343  27.468  28.722  1.00  0.00     0.074 A 
ATOM     39  C   UNL A   1      40.772  29.701  29.692  1.00  0.00     0.049 A 
ATOM     40  N   UNL A   1      41.522  26.915  28.846  1.00  0.00    -0.248 NA
ATOM     41  C   UNL A   1      39.321  26.584  28.137  1.00  0.00     0.031 C 
ATOM     42  C   UNL A   1      40.457  31.060  30.138  1.00  0.00     0.029 A 
ATOM     43  N   UNL A   1      42.099  29.548  30.004  1.00  0.00    -0.354 N 
ATOM     44  C   UNL A   1      41.383  25.622  28.358  1.00  0.00     0.074 A 
ATOM     45  C   UNL A   1      39.996  25.452  27.989  1.00  0.00     0.031 C 
ATOM     46  C   UNL A   1      41.569  31.631  30.625  1.00  0.00     0.029 A 
ATOM     47  C   UNL A   1      42.666  30.669  30.561  1.00  0.00     0.049 A 
ATOM     48  H   UNL A   1      42.598  28.714  29.845  1.00  0.00     0.167 HD
ATOM     49  C   UNL A   1      42.333  24.671  28.205  1.00  0.00     0.031 A 
ATOM     50  C   UNL A   1      43.930  30.901  30.965  1.00  0.00     0.031 A 
ATOM     51  C   UNL A   1      43.714  24.842  28.565  1.00  0.00     0.049 A 
ATOM     52  C   UNL A   1      44.958  29.816  30.814  1.00  0.00     0.074 A 
ATOM     53  C   UNL A   1      44.760  23.948  28.415  1.00  0.00     0.029 A 
ATOM     54  N   UNL A   1      44.241  25.983  29.149  1.00  0.00    -0.354 N 
ATOM     55  N   UNL A   1      44.823  28.617  30.301  1.00  0.00    -0.248 NA
ATOM     56  C   UNL A   1      46.316  30.119  31.289  1.00  0.00     0.031 C 
ATOM     57  C   UNL A   1      45.911  24.532  28.951  1.00  0.00     0.029 A 
ATOM     58  C   UNL A   1      45.593  25.809  29.384  1.00  0.00     0.049 A 
ATOM     59  H   UNL A   1      43.730  26.797  29.364  1.00  0.00     0.167 HD
ATOM     60  C   UNL A   1      46.080  28.031  30.369  1.00  0.00     0.074 A 
ATOM     61  C   UNL A   1      46.968  29.011  30.961  1.00  0.00     0.031 C 
ATOM     62  C   UNL A   1      46.462  26.793  29.975  1.00  0.00     0.031 A 
BRANCH  49  63
ATOM     63  C   UNL A   1      41.911  23.357  27.610  1.00  0.00    -0.014 A 
ATOM     64  C   UNL A   1      41.964  23.143  26.223  1.00  0.00     0.009 A 
ATOM     65  C   UNL A   1      41.511  22.302  28.445  1.00  0.00     0.009 A 
ATOM     66  C   UNL A   1      41.599  21.910  25.682  1.00  0.00     0.001 A 
ATOM     67  C   UNL A   1      41.174  21.061  27.904  1.00  0.00     0.001 A 
ATOM     68  C   UNL A   1      41.211  20.867  26.524  1.00  0.00     0.000 A 
ENDBRANCH  49  63
BRANCH  50  69
ATOM     69  C   UNL A   1      44.297  32.232  31.513  1.00  0.00    -0.014 A 
ATOM     70  C   UNL A   1      44.820  33.224  30.670  1.00  0.00     0.009 A 
ATOM     71  C   UNL A   1      44.107  32.527  32.872  1.00  0.00     0.009 A 
ATOM     72  C   UNL A   1      45.160  34.479  31.179  1.00  0.00     0.001 A 
ATOM     73  C   UNL A   1      44.423  33.791  33.373  1.00  0.00     0.001 A 
ATOM     74  C   UNL A   1      44.954  34.764  32.528  1.00  0.00     0.000 A 
ENDBRANCH  50  69
BRANCH  62  75
ATOM     75  C   UNL A   1      47.908  26.425  30.147  1.00  0.00    -0.014 A 
ATOM     76  C   UNL A   1      48.371  25.847  31.339  1.00  0.00     0.009 A 
ATOM     77  C   UNL A   1      48.797  26.579  29.071  1.00  0.00     0.009 A 
ATOM     78  C   UNL A   1      49.703  25.446  31.455  1.00  0.00     0.001 A 
ATOM     79  C   UNL A   1      50.121  26.152  29.182  1.00  0.00     0.001 A 
ATOM     80  C   UNL A   1      50.574  25.591  30.375  1.00  0.00     0.000 A 
ENDBRANCH  62  75
ENDBRANCH  36  37
ENDBRANCH  28  31
ENDBRANCH  26  27
ENDBRANCH  25  26
ENDBRANCH   1  25
TORSDOF 14
ENDMDL
MODEL 3
REMARK VINA RESULT:     -11.6      1.500      2.344
REMARK SMILES Cc1cc(C)c2c(c1)C=C(C(=O)NCCCCCCNC(=O)c1ccc(-c3c4nc(c(-c5ccccc5)c5ccc([nH]5)c(-c5ccccc5)c5nc(c(-c6ccccc6)c6ccc3[nH]6)C=C5)C=C4)cc1)[C@@H](C(F)(F)F)O2
REMARK SMILES IDX 17 1 16 2 15 3 14 4 13 5 11 6 12 7 10 9 1 10 2 11 3 12 8 13
REMARK SMILES IDX 4 14 7 15 5 16 6 17 9 18 76 19 71 20 72 21 73 22 74 23 75 24
REMARK SMILES IDX 18 25 19 26 20 27 21 28 22 30 23 31 24 32 70 33 25 34 69 35
REMARK SMILES IDX 26 36 27 37 28 38 63 39 29 40 68 41 62 42 64 43 30 44 67 45
REMARK SMILES IDX 61 46 60 47 31 49 53 50 38 51 52 52 39 53 42 54 51 55 65 56
REMARK SMILES IDX 40 57 41 58 50 60 66 61 43 62 32 63 33 64 37 65 34 66 36 67
REMARK SMILES IDX 35 68 54 69 55 70 59 71 56 72 58 73 57 74 44 75 45 76 49 77
REMARK SMILES IDX 46 78 48 79 47 80
REMARK H PARENT 13 8 20 29 64 48 42 59
REMARK Flexibility Score: inf
ROOT
ATOM      1  C   UNL A   1      33.562  28.950  24.761  1.00  0.00     0.002 C 
ENDROOT
BRANCH   1   2
ATOM      2  C   UNL A   1      33.386  28.051  23.529  1.00  0.00     0.002 C 
BRANCH   2   3
ATOM      3  C   UNL A   1      32.004  28.104  22.874  1.00  0.00     0.021 C 
BRANCH   3   4
ATOM      4  C   UNL A   1      31.164  26.853  23.108  1.00  0.00     0.116 C 
BRANCH   4   5
ATOM      5  N   UNL A   1      30.842  26.672  24.512  1.00  0.00    -0.352 N 
ATOM      6  C   UNL A   1      31.185  25.823  25.508  1.00  0.00     0.251 C 
ATOM      7  O   UNL A   1      30.670  26.067  26.604  1.00  0.00    -0.270 OA
ATOM      8  H   UNL A   1      30.201  27.350  24.823  1.00  0.00     0.163 HD
BRANCH   6   9
ATOM      9  C   UNL A   1      32.108  24.657  25.371  1.00  0.00     0.067 C 
ATOM     10  C   UNL A   1      38.112  23.203  25.807  1.00  0.00     0.044 C 
ATOM     11  C   UNL A   1      36.639  22.967  25.654  1.00  0.00    -0.050 A 
ATOM     12  C   UNL A   1      36.167  21.671  25.398  1.00  0.00     0.010 A 
ATOM     13  C   UNL A   1      35.727  24.027  25.743  1.00  0.00     0.015 A 
ATOM     14  C   UNL A   1      34.798  21.425  25.241  1.00  0.00    -0.008 A 
ATOM     15  C   UNL A   1      34.358  23.797  25.582  1.00  0.00     0.018 A 
ATOM     16  C   UNL A   1      34.297  20.035  24.970  1.00  0.00     0.048 C 
ATOM     17  C   UNL A   1      33.906  22.501  25.327  1.00  0.00     0.130 A 
ATOM     18  C   UNL A   1      33.391  24.882  25.711  1.00  0.00     0.025 C 
ATOM     19  O   UNL A   1      32.578  22.209  25.197  1.00  0.00    -0.475 OA
ATOM     20  C   UNL A   1      31.697  23.309  24.857  1.00  0.00     0.314 C 
BRANCH  20  21
ATOM     21  C   UNL A   1      31.442  23.298  23.340  1.00  0.00     0.429 C 
ATOM     22  F   UNL A   1      31.542  22.036  22.851  1.00  0.00    -0.167 F 
ATOM     23  F   UNL A   1      30.199  23.729  23.017  1.00  0.00    -0.167 F 
ATOM     24  F   UNL A   1      32.315  24.069  22.655  1.00  0.00    -0.167 F 
ENDBRANCH  20  21
ENDBRANCH   6   9
ENDBRANCH   4   5
ENDBRANCH   3   4
ENDBRANCH   2   3
ENDBRANCH   1   2
BRANCH   1  25
ATOM     25  C   UNL A   1      34.060  28.243  26.025  1.00  0.00     0.021 C 
BRANCH  25  26
ATOM     26  C   UNL A   1      33.386  28.699  27.314  1.00  0.00     0.116 C 
BRANCH  26  27
ATOM     27  N   UNL A   1      33.441  30.142  27.476  1.00  0.00    -0.352 N 
ATOM     28  C   UNL A   1      34.427  30.913  28.037  1.00  0.00     0.251 C 
ATOM     29  H   UNL A   1      32.660  30.635  27.137  1.00  0.00     0.163 HD
ATOM     30  O   UNL A   1      34.232  32.101  28.271  1.00  0.00    -0.269 OA
BRANCH  28  31
ATOM     31  C   UNL A   1      35.725  30.297  28.375  1.00  0.00     0.039 A 
ATOM     32  C   UNL A   1      36.742  30.301  27.418  1.00  0.00     0.014 A 
ATOM     33  C   UNL A   1      35.936  29.725  29.633  1.00  0.00     0.014 A 
ATOM     34  C   UNL A   1      37.994  29.780  27.745  1.00  0.00     0.010 A 
ATOM     35  C   UNL A   1      37.203  29.268  29.980  1.00  0.00     0.010 A 
ATOM     36  C   UNL A   1      38.242  29.288  29.038  1.00  0.00    -0.014 A 
BRANCH  36  37
ATOM     37  C   UNL A   1      39.587  28.794  29.415  1.00  0.00     0.031 A 
ATOM     38  C   UNL A   1      40.473  29.617  30.308  1.00  0.00     0.074 A 
ATOM     39  C   UNL A   1      40.023  27.617  28.928  1.00  0.00     0.049 A 
ATOM     40  N   UNL A   1      41.676  29.350  30.745  1.00  0.00    -0.248 NA
ATOM     41  C   UNL A   1      39.945  30.918  30.754  1.00  0.00     0.031 C 
ATOM     42  C   UNL A   1      39.268  26.742  28.028  1.00  0.00     0.029 A 
ATOM     43  N   UNL A   1      41.204  26.947  29.128  1.00  0.00    -0.354 N 
ATOM     44  C   UNL A   1      42.049  30.445  31.514  1.00  0.00     0.074 A 
ATOM     45  C   UNL A   1      40.971  31.405  31.438  1.00  0.00     0.031 C 
ATOM     46  C   UNL A   1      39.985  25.633  27.790  1.00  0.00     0.029 A 
ATOM     47  C   UNL A   1      41.263  25.733  28.489  1.00  0.00     0.049 A 
ATOM     48  H   UNL A   1      41.939  27.304  29.678  1.00  0.00     0.167 HD
ATOM     49  C   UNL A   1      43.176  30.622  32.242  1.00  0.00     0.031 A 
ATOM     50  C   UNL A   1      42.234  24.799  28.474  1.00  0.00     0.031 A 
ATOM     51  C   UNL A   1      44.245  29.664  32.322  1.00  0.00     0.049 A 
ATOM     52  C   UNL A   1      43.490  25.035  29.264  1.00  0.00     0.074 A 
ATOM     53  C   UNL A   1      45.413  29.737  33.062  1.00  0.00     0.029 A 
ATOM     54  N   UNL A   1      44.276  28.459  31.639  1.00  0.00    -0.354 N 
ATOM     55  N   UNL A   1      43.804  26.053  30.029  1.00  0.00    -0.248 NA
ATOM     56  C   UNL A   1      44.522  23.991  29.196  1.00  0.00     0.031 C 
ATOM     57  C   UNL A   1      46.172  28.596  32.789  1.00  0.00     0.029 A 
ATOM     58  C   UNL A   1      45.453  27.789  31.923  1.00  0.00     0.049 A 
ATOM     59  H   UNL A   1      43.567  28.128  31.041  1.00  0.00     0.167 HD
ATOM     60  C   UNL A   1      45.057  25.761  30.552  1.00  0.00     0.074 A 
ATOM     61  C   UNL A   1      45.441  24.467  30.027  1.00  0.00     0.031 C 
ATOM     62  C   UNL A   1      45.819  26.501  31.392  1.00  0.00     0.031 A 
BRANCH  49  63
ATOM     63  C   UNL A   1      43.307  31.901  33.020  1.00  0.00    -0.014 A 
ATOM     64  C   UNL A   1      42.853  31.988  34.345  1.00  0.00     0.009 A 
ATOM     65  C   UNL A   1      43.942  33.013  32.444  1.00  0.00     0.009 A 
ATOM     66  C   UNL A   1      43.006  33.171  35.070  1.00  0.00     0.001 A 
ATOM     67  C   UNL A   1      44.119  34.184  33.180  1.00  0.00     0.001 A 
ATOM     68  C   UNL A   1      43.646  34.266  34.489  1.00  0.00     0.000 A 
ENDBRANCH  49  63
BRANCH  50  69
ATOM     69  C   UNL A   1      42.034  23.538  27.715  1.00  0.00    -0.014 A 
ATOM     70  C   UNL A   1      41.405  22.440  28.321  1.00  0.00     0.009 A 
ATOM     71  C   UNL A   1      42.447  23.431  26.378  1.00  0.00     0.009 A 
ATOM     72  C   UNL A   1      41.208  21.255  27.610  1.00  0.00     0.001 A 
ATOM     73  C   UNL A   1      42.224  22.253  25.661  1.00  0.00     0.001 A 
ATOM     74  C   UNL A   1      41.610  21.165  26.279  1.00  0.00     0.000 A 
ENDBRANCH  50  69
BRANCH  62  75
ATOM     75  C   UNL A   1      47.139  25.927  31.821  1.00  0.00    -0.014 A 
ATOM     76  C   UNL A   1      48.289  26.089  31.034  1.00  0.00     0.009 A 
ATOM     77  C   UNL A   1      47.248  25.291  33.068  1.00  0.00     0.009 A 
ATOM     78  C   UNL A   1      49.521  25.610  31.482  1.00  0.00     0.001 A 
ATOM     79  C   UNL A   1      48.487  24.837  33.524  1.00  0.00     0.001 A 
ATOM     80  C   UNL A   1      49.621  24.993  32.728  1.00  0.00     0.000 A 
ENDBRANCH  62  75
ENDBRANCH  36  37
ENDBRANCH  28  31
ENDBRANCH  26  27
ENDBRANCH  25  26
ENDBRANCH   1  25
TORSDOF 14
ENDMDL
