MODEL 1
REMARK VINA RESULT:      -8.6      0.000      0.000
REMARK SMILES COC(=O)Oc1cncc(C(=O)NCCCCCCNC(=O)c2ccc(-c3c4nc(c(-c5ccccc5)c5ccc([nH]5)c(-c5ccccc5)c5nc(c(-c6ccccc6)c6ccc3[nH]6)C=C5)C=C4)cc2)c1
REMARK SMILES IDX 16 1 15 2 14 3 13 4 11 5 12 6 10 8 6 9 7 10 71 11 8 12 9 13
REMARK SMILES IDX 5 14 3 15 4 16 2 17 1 18 17 19 18 20 19 21 20 22 21 23 22 25
REMARK SMILES IDX 23 26 24 27 70 28 25 29 69 30 26 31 27 32 28 33 63 34 29 35
REMARK SMILES IDX 68 36 62 37 64 38 30 39 67 40 61 41 60 42 31 44 53 45 38 46
REMARK SMILES IDX 52 47 39 48 42 49 51 50 65 51 40 52 41 53 50 55 66 56 43 57
REMARK SMILES IDX 32 58 33 59 37 60 34 61 36 62 35 63 54 64 55 65 59 66 56 67
REMARK SMILES IDX 58 68 57 69 44 70 45 71 49 72 46 73 48 74 47 75
REMARK H PARENT 13 7 20 24 64 43 42 54
REMARK Flexibility Score: inf
ROOT
ATOM      1  C   UNL A   1      34.472  35.059  32.484  1.00  0.00     0.002 C 
ENDROOT
BRANCH   1   2
ATOM      2  C   UNL A   1      35.729  35.083  33.366  1.00  0.00     0.021 C 
BRANCH   2   3
ATOM      3  C   UNL A   1      35.994  33.736  34.043  1.00  0.00     0.116 C 
BRANCH   3   4
ATOM      4  N   UNL A   1      36.460  33.960  35.398  1.00  0.00    -0.352 N 
ATOM      5  C   UNL A   1      37.352  33.310  36.209  1.00  0.00     0.252 C 
ATOM      6  O   UNL A   1      37.481  33.736  37.357  1.00  0.00    -0.269 OA
ATOM      7  H   UNL A   1      36.047  34.745  35.825  1.00  0.00     0.163 HD
BRANCH   5   8
ATOM      8  C   UNL A   1      38.214  32.188  35.763  1.00  0.00     0.061 A 
ATOM      9  C   UNL A   1      39.065  30.579  34.199  1.00  0.00     0.153 A 
ATOM     10  C   UNL A   1      40.148  30.364  35.035  1.00  0.00     0.158 A 
ATOM     11  C   UNL A   1      38.037  31.422  34.617  1.00  0.00     0.064 A 
ATOM     12  N   UNL A   1      40.291  30.991  36.222  1.00  0.00    -0.260 NA
ATOM     13  C   UNL A   1      39.336  31.905  36.543  1.00  0.00     0.125 A 
BRANCH   9  14
ATOM     14  O   UNL A   1      39.034  29.961  32.948  1.00  0.00    -0.393 OA
BRANCH  14  15
ATOM     15  C   UNL A   1      38.846  28.583  33.029  1.00  0.00     0.513 C 
ATOM     16  O   UNL A   1      39.710  27.736  33.201  1.00  0.00    -0.203 OA
BRANCH  15  17
ATOM     17  O   UNL A   1      37.524  28.318  32.852  1.00  0.00    -0.437 OA
ATOM     18  C   UNL A   1      36.968  28.945  31.695  1.00  0.00     0.286 C 
ENDBRANCH  15  17
ENDBRANCH  14  15
ENDBRANCH   9  14
ENDBRANCH   5   8
ENDBRANCH   3   4
ENDBRANCH   2   3
ENDBRANCH   1   2
BRANCH   1  19
ATOM     19  C   UNL A   1      33.554  36.276  32.659  1.00  0.00     0.002 C 
BRANCH  19  20
ATOM     20  C   UNL A   1      32.652  36.572  31.457  1.00  0.00     0.021 C 
BRANCH  20  21
ATOM     21  C   UNL A   1      33.357  36.448  30.112  1.00  0.00     0.116 C 
BRANCH  21  22
ATOM     22  N   UNL A   1      32.655  35.528  29.231  1.00  0.00    -0.352 N 
ATOM     23  C   UNL A   1      33.121  34.419  28.575  1.00  0.00     0.251 C 
ATOM     24  H   UNL A   1      31.703  35.732  29.084  1.00  0.00     0.163 HD
ATOM     25  O   UNL A   1      32.465  33.925  27.664  1.00  0.00    -0.269 OA
BRANCH  23  26
ATOM     26  C   UNL A   1      34.413  33.818  28.962  1.00  0.00     0.039 A 
ATOM     27  C   UNL A   1      35.567  34.209  28.279  1.00  0.00     0.014 A 
ATOM     28  C   UNL A   1      34.485  32.840  29.959  1.00  0.00     0.014 A 
ATOM     29  C   UNL A   1      36.793  33.639  28.616  1.00  0.00     0.010 A 
ATOM     30  C   UNL A   1      35.722  32.341  30.356  1.00  0.00     0.010 A 
ATOM     31  C   UNL A   1      36.885  32.717  29.672  1.00  0.00    -0.014 A 
BRANCH  31  32
ATOM     32  C   UNL A   1      38.195  32.135  30.052  1.00  0.00     0.031 A 
ATOM     33  C   UNL A   1      39.073  32.820  31.063  1.00  0.00     0.074 A 
ATOM     34  C   UNL A   1      38.598  30.987  29.475  1.00  0.00     0.049 A 
ATOM     35  N   UNL A   1      40.213  32.420  31.571  1.00  0.00    -0.248 NA
ATOM     36  C   UNL A   1      38.628  34.134  31.552  1.00  0.00     0.031 C 
ATOM     37  C   UNL A   1      37.854  30.248  28.454  1.00  0.00     0.029 A 
ATOM     38  N   UNL A   1      39.722  30.229  29.683  1.00  0.00    -0.354 N 
ATOM     39  C   UNL A   1      40.619  33.435  32.429  1.00  0.00     0.074 A 
ATOM     40  C   UNL A   1      39.643  34.496  32.320  1.00  0.00     0.031 C 
ATOM     41  C   UNL A   1      38.507  29.110  28.174  1.00  0.00     0.029 A 
ATOM     42  C   UNL A   1      39.734  29.061  28.962  1.00  0.00     0.049 A 
ATOM     43  H   UNL A   1      40.450  30.497  30.290  1.00  0.00     0.167 HD
ATOM     44  C   UNL A   1      41.694  33.472  33.253  1.00  0.00     0.031 A 
ATOM     45  C   UNL A   1      40.624  28.052  28.951  1.00  0.00     0.031 A 
ATOM     46  C   UNL A   1      42.673  32.421  33.348  1.00  0.00     0.049 A 
ATOM     47  C   UNL A   1      41.828  28.130  29.848  1.00  0.00     0.074 A 
ATOM     48  C   UNL A   1      43.775  32.337  34.180  1.00  0.00     0.029 A 
ATOM     49  N   UNL A   1      42.672  31.272  32.569  1.00  0.00    -0.354 N 
ATOM     50  N   UNL A   1      42.159  29.059  30.711  1.00  0.00    -0.248 NA
ATOM     51  C   UNL A   1      42.771  27.007  29.775  1.00  0.00     0.031 C 
ATOM     52  C   UNL A   1      44.478  31.171  33.857  1.00  0.00     0.029 A 
ATOM     53  C   UNL A   1      43.773  30.490  32.878  1.00  0.00     0.049 A 
ATOM     54  H   UNL A   1      41.990  31.046  31.897  1.00  0.00     0.167 HD
ATOM     55  C   UNL A   1      43.330  28.616  31.313  1.00  0.00     0.074 A 
ATOM     56  C   UNL A   1      43.639  27.329  30.723  1.00  0.00     0.031 C 
ATOM     57  C   UNL A   1      44.076  29.215  32.274  1.00  0.00     0.031 A 
BRANCH  44  58
ATOM     58  C   UNL A   1      41.870  34.711  34.095  1.00  0.00    -0.014 A 
ATOM     59  C   UNL A   1      41.311  34.812  35.380  1.00  0.00     0.009 A 
ATOM     60  C   UNL A   1      42.601  35.798  33.591  1.00  0.00     0.009 A 
ATOM     61  C   UNL A   1      41.425  35.994  36.115  1.00  0.00     0.001 A 
ATOM     62  C   UNL A   1      42.748  36.966  34.345  1.00  0.00     0.001 A 
ATOM     63  C   UNL A   1      42.146  37.069  35.598  1.00  0.00     0.000 A 
ENDBRANCH  44  58
BRANCH  45  64
ATOM     64  C   UNL A   1      40.380  26.857  28.104  1.00  0.00    -0.014 A 
ATOM     65  C   UNL A   1      39.569  25.810  28.573  1.00  0.00     0.009 A 
ATOM     66  C   UNL A   1      40.941  26.757  26.821  1.00  0.00     0.009 A 
ATOM     67  C   UNL A   1      39.345  24.680  27.786  1.00  0.00     0.001 A 
ATOM     68  C   UNL A   1      40.689  25.638  26.023  1.00  0.00     0.001 A 
ATOM     69  C   UNL A   1      39.901  24.597  26.510  1.00  0.00     0.000 A 
ENDBRANCH  45  64
BRANCH  57  70
ATOM     70  C   UNL A   1      45.278  28.461  32.776  1.00  0.00    -0.014 A 
ATOM     71  C   UNL A   1      45.175  27.500  33.794  1.00  0.00     0.009 A 
ATOM     72  C   UNL A   1      46.537  28.715  32.208  1.00  0.00     0.009 A 
ATOM     73  C   UNL A   1      46.315  26.846  34.266  1.00  0.00     0.001 A 
ATOM     74  C   UNL A   1      47.669  28.032  32.656  1.00  0.00     0.001 A 
ATOM     75  C   UNL A   1      47.560  27.109  33.694  1.00  0.00     0.000 A 
ENDBRANCH  57  70
ENDBRANCH  31  32
ENDBRANCH  23  26
ENDBRANCH  21  22
ENDBRANCH  20  21
ENDBRANCH  19  20
ENDBRANCH   1  19
TORSDOF 16
ENDMDL
MODEL 2
REMARK VINA RESULT:      -8.4      0.689      6.117
REMARK SMILES COC(=O)Oc1cncc(C(=O)NCCCCCCNC(=O)c2ccc(-c3c4nc(c(-c5ccccc5)c5ccc([nH]5)c(-c5ccccc5)c5nc(c(-c6ccccc6)c6ccc3[nH]6)C=C5)C=C4)cc2)c1
REMARK SMILES IDX 16 1 15 2 14 3 13 4 11 5 12 6 10 8 6 9 7 10 71 11 8 12 9 13
REMARK SMILES IDX 5 14 3 15 4 16 2 17 1 18 17 19 18 20 19 21 20 22 21 23 22 25
REMARK SMILES IDX 23 26 24 27 70 28 25 29 69 30 26 31 27 32 28 33 63 34 29 35
REMARK SMILES IDX 68 36 62 37 64 38 30 39 67 40 61 41 60 42 31 44 53 45 38 46
REMARK SMILES IDX 52 47 39 48 42 49 51 50 65 51 40 52 41 53 50 55 66 56 43 57
REMARK SMILES IDX 32 58 33 59 37 60 34 61 36 62 35 63 54 64 55 65 59 66 56 67
REMARK SMILES IDX 58 68 57 69 44 70 45 71 49 72 46 73 48 74 47 75
REMARK H PARENT 13 7 20 24 64 43 42 54
REMARK Flexibility Score: inf
ROOT
ATOM      1  C   UNL A   1      34.432  35.102  32.439  1.00  0.00     0.002 C 
ENDROOT
BRANCH   1   2
ATOM      2  C   UNL A   1      35.496  35.088  33.546  1.00  0.00     0.021 C 
BRANCH   2   3
ATOM      3  C   UNL A   1      35.773  33.678  34.074  1.00  0.00     0.116 C 
BRANCH   3   4
ATOM      4  N   UNL A   1      35.970  33.729  35.509  1.00  0.00    -0.352 N 
ATOM      5  C   UNL A   1      36.823  33.089  36.368  1.00  0.00     0.252 C 
ATOM      6  O   UNL A   1      36.690  33.322  37.570  1.00  0.00    -0.269 OA
ATOM      7  H   UNL A   1      35.361  34.356  35.962  1.00  0.00     0.163 HD
BRANCH   5   8
ATOM      8  C   UNL A   1      37.931  32.205  35.932  1.00  0.00     0.061 A 
ATOM      9  C   UNL A   1      39.197  30.908  34.359  1.00  0.00     0.153 A 
ATOM     10  C   UNL A   1      40.252  30.882  35.255  1.00  0.00     0.158 A 
ATOM     11  C   UNL A   1      37.989  31.486  34.744  1.00  0.00     0.064 A 
ATOM     12  N   UNL A   1      40.190  31.455  36.475  1.00  0.00    -0.260 NA
ATOM     13  C   UNL A   1      39.043  32.124  36.772  1.00  0.00     0.125 A 
BRANCH   9  14
ATOM     14  O   UNL A   1      39.370  30.371  33.082  1.00  0.00    -0.393 OA
BRANCH  14  15
ATOM     15  C   UNL A   1      39.756  29.033  33.105  1.00  0.00     0.513 C 
ATOM     16  O   UNL A   1      40.893  28.598  32.995  1.00  0.00    -0.203 OA
BRANCH  15  17
ATOM     17  O   UNL A   1      38.642  28.265  33.242  1.00  0.00    -0.437 OA
ATOM     18  C   UNL A   1      38.401  27.410  32.123  1.00  0.00     0.286 C 
ENDBRANCH  15  17
ENDBRANCH  14  15
ENDBRANCH   9  14
ENDBRANCH   5   8
ENDBRANCH   3   4
ENDBRANCH   2   3
ENDBRANCH   1   2
BRANCH   1  19
ATOM     19  C   UNL A   1      33.378  36.208  32.589  1.00  0.00     0.002 C 
BRANCH  19  20
ATOM     20  C   UNL A   1      32.523  36.446  31.342  1.00  0.00     0.021 C 
BRANCH  20  21
ATOM     21  C   UNL A   1      33.284  36.284  30.032  1.00  0.00     0.116 C 
BRANCH  21  22
ATOM     22  N   UNL A   1      32.621  35.336  29.150  1.00  0.00    -0.352 N 
ATOM     23  C   UNL A   1      33.125  34.230  28.519  1.00  0.00     0.251 C 
ATOM     24  H   UNL A   1      31.668  35.517  28.981  1.00  0.00     0.163 HD
ATOM     25  O   UNL A   1      32.498  33.709  27.602  1.00  0.00    -0.269 OA
BRANCH  23  26
ATOM     26  C   UNL A   1      34.422  33.663  28.941  1.00  0.00     0.039 A 
ATOM     27  C   UNL A   1      35.575  34.042  28.251  1.00  0.00     0.014 A 
ATOM     28  C   UNL A   1      34.498  32.727  29.977  1.00  0.00     0.014 A 
ATOM     29  C   UNL A   1      36.807  33.503  28.621  1.00  0.00     0.010 A 
ATOM     30  C   UNL A   1      35.738  32.262  30.404  1.00  0.00     0.010 A 
ATOM     31  C   UNL A   1      36.902  32.626  29.715  1.00  0.00    -0.014 A 
BRANCH  31  32
ATOM     32  C   UNL A   1      38.216  32.079  30.129  1.00  0.00     0.031 A 
ATOM     33  C   UNL A   1      38.700  30.759  29.593  1.00  0.00     0.074 A 
ATOM     34  C   UNL A   1      38.973  32.772  31.000  1.00  0.00     0.049 A 
ATOM     35  N   UNL A   1      39.851  30.163  29.786  1.00  0.00    -0.248 NA
ATOM     36  C   UNL A   1      37.765  29.998  28.750  1.00  0.00     0.031 C 
ATOM     37  C   UNL A   1      38.597  34.044  31.620  1.00  0.00     0.029 A 
ATOM     38  N   UNL A   1      40.225  32.515  31.498  1.00  0.00    -0.354 N 
ATOM     39  C   UNL A   1      39.771  28.960  29.095  1.00  0.00     0.074 A 
ATOM     40  C   UNL A   1      38.439  28.879  28.540  1.00  0.00     0.031 C 
ATOM     41  C   UNL A   1      39.623  34.490  32.360  1.00  0.00     0.029 A 
ATOM     42  C   UNL A   1      40.709  33.517  32.302  1.00  0.00     0.049 A 
ATOM     43  H   UNL A   1      40.728  31.692  31.298  1.00  0.00     0.167 HD
ATOM     44  C   UNL A   1      40.728  28.016  28.917  1.00  0.00     0.031 A 
ATOM     45  C   UNL A   1      41.903  33.647  32.910  1.00  0.00     0.031 A 
ATOM     46  C   UNL A   1      42.049  28.092  29.485  1.00  0.00     0.049 A 
ATOM     47  C   UNL A   1      42.937  32.573  32.727  1.00  0.00     0.074 A 
ATOM     48  C   UNL A   1      43.108  27.214  29.332  1.00  0.00     0.029 A 
ATOM     49  N   UNL A   1      42.486  29.103  30.329  1.00  0.00    -0.354 N 
ATOM     50  N   UNL A   1      42.876  31.478  32.009  1.00  0.00    -0.248 NA
ATOM     51  C   UNL A   1      44.211  32.765  33.431  1.00  0.00     0.031 C 
ATOM     52  C   UNL A   1      44.162  27.659  30.138  1.00  0.00     0.029 A 
ATOM     53  C   UNL A   1      43.788  28.854  30.732  1.00  0.00     0.049 A 
ATOM     54  H   UNL A   1      41.951  29.882  30.601  1.00  0.00     0.167 HD
ATOM     55  C   UNL A   1      44.117  30.868  32.142  1.00  0.00     0.074 A 
ATOM     56  C   UNL A   1      44.911  31.726  33.000  1.00  0.00     0.031 C 
ATOM     57  C   UNL A   1      44.563  29.709  31.597  1.00  0.00     0.031 A 
BRANCH  44  58
ATOM     58  C   UNL A   1      40.357  26.810  28.092  1.00  0.00    -0.014 A 
ATOM     59  C   UNL A   1      39.589  25.762  28.626  1.00  0.00     0.009 A 
ATOM     60  C   UNL A   1      40.789  26.717  26.760  1.00  0.00     0.009 A 
ATOM     61  C   UNL A   1      39.315  24.622  27.868  1.00  0.00     0.001 A 
ATOM     62  C   UNL A   1      40.480  25.592  25.990  1.00  0.00     0.001 A 
ATOM     63  C   UNL A   1      39.758  24.539  26.549  1.00  0.00     0.000 A 
ENDBRANCH  44  58
BRANCH  45  64
ATOM     64  C   UNL A   1      42.203  34.870  33.699  1.00  0.00    -0.014 A 
ATOM     65  C   UNL A   1      42.825  35.971  33.089  1.00  0.00     0.009 A 
ATOM     66  C   UNL A   1      41.862  34.950  35.058  1.00  0.00     0.009 A 
ATOM     67  C   UNL A   1      43.119  37.118  33.829  1.00  0.00     0.001 A 
ATOM     68  C   UNL A   1      42.130  36.111  35.788  1.00  0.00     0.001 A 
ATOM     69  C   UNL A   1      42.767  37.189  35.175  1.00  0.00     0.000 A 
ENDBRANCH  45  64
BRANCH  57  70
ATOM     70  C   UNL A   1      45.990  29.324  31.881  1.00  0.00    -0.014 A 
ATOM     71  C   UNL A   1      46.338  28.547  32.997  1.00  0.00     0.009 A 
ATOM     72  C   UNL A   1      47.004  29.743  31.004  1.00  0.00     0.009 A 
ATOM     73  C   UNL A   1      47.676  28.241  33.255  1.00  0.00     0.001 A 
ATOM     74  C   UNL A   1      48.336  29.402  31.243  1.00  0.00     0.001 A 
ATOM     75  C   UNL A   1      48.673  28.665  32.376  1.00  0.00     0.000 A 
ENDBRANCH  57  70
ENDBRANCH  31  32
ENDBRANCH  23  26
ENDBRANCH  21  22
ENDBRANCH  20  21
ENDBRANCH  19  20
ENDBRANCH   1  19
TORSDOF 16
ENDMDL
MODEL 3
REMARK VINA RESULT:      -8.3      4.349      7.155
REMARK SMILES COC(=O)Oc1cncc(C(=O)NCCCCCCNC(=O)c2ccc(-c3c4nc(c(-c5ccccc5)c5ccc([nH]5)c(-c5ccccc5)c5nc(c(-c6ccccc6)c6ccc3[nH]6)C=C5)C=C4)cc2)c1
REMARK SMILES IDX 16 1 15 2 14 3 13 4 11 5 12 6 10 8 6 9 7 10 71 11 8 12 9 13
REMARK SMILES IDX 5 14 3 15 4 16 2 17 1 18 17 19 18 20 19 21 20 22 21 23 22 25
REMARK SMILES IDX 23 26 24 27 70 28 25 29 69 30 26 31 27 32 28 33 63 34 29 35
REMARK SMILES IDX 68 36 62 37 64 38 30 39 67 40 61 41 60 42 31 44 53 45 38 46
REMARK SMILES IDX 52 47 39 48 42 49 51 50 65 51 40 52 41 53 50 55 66 56 43 57
REMARK SMILES IDX 32 58 33 59 37 60 34 61 36 62 35 63 54 64 55 65 59 66 56 67
REMARK SMILES IDX 58 68 57 69 44 70 45 71 49 72 46 73 48 74 47 75
REMARK H PARENT 13 7 20 24 64 43 42 54
REMARK Flexibility Score: inf
ROOT
ATOM      1  C   UNL A   1      32.513  30.075  25.790  1.00  0.00     0.002 C 
ENDROOT
BRANCH   1   2
ATOM      2  C   UNL A   1      32.787  28.937  26.784  1.00  0.00     0.021 C 
BRANCH   2   3
ATOM      3  C   UNL A   1      31.510  28.431  27.460  1.00  0.00     0.116 C 
BRANCH   3   4
ATOM      4  N   UNL A   1      31.417  26.993  27.303  1.00  0.00    -0.352 N 
ATOM      5  C   UNL A   1      31.064  26.178  26.260  1.00  0.00     0.252 C 
ATOM      6  O   UNL A   1      31.034  24.967  26.478  1.00  0.00    -0.269 OA
ATOM      7  H   UNL A   1      31.660  26.497  28.118  1.00  0.00     0.163 HD
BRANCH   5   8
ATOM      8  C   UNL A   1      30.796  26.661  24.884  1.00  0.00     0.061 A 
ATOM      9  C   UNL A   1      29.504  27.706  23.151  1.00  0.00     0.153 A 
ATOM     10  C   UNL A   1      30.649  27.806  22.380  1.00  0.00     0.158 A 
ATOM     11  C   UNL A   1      29.558  27.034  24.371  1.00  0.00     0.064 A 
ATOM     12  N   UNL A   1      31.847  27.337  22.787  1.00  0.00    -0.260 NA
ATOM     13  C   UNL A   1      31.896  26.801  24.037  1.00  0.00     0.125 A 
BRANCH   9  14
ATOM     14  O   UNL A   1      28.322  28.295  22.700  1.00  0.00    -0.393 OA
BRANCH  14  15
ATOM     15  C   UNL A   1      28.439  29.670  22.511  1.00  0.00     0.513 C 
ATOM     16  O   UNL A   1      28.727  30.503  23.358  1.00  0.00    -0.203 OA
BRANCH  15  17
ATOM     17  O   UNL A   1      28.147  29.953  21.213  1.00  0.00    -0.437 OA
ATOM     18  C   UNL A   1      28.187  31.350  20.914  1.00  0.00     0.286 C 
ENDBRANCH  15  17
ENDBRANCH  14  15
ENDBRANCH   9  14
ENDBRANCH   5   8
ENDBRANCH   3   4
ENDBRANCH   2   3
ENDBRANCH   1   2
BRANCH   1  19
ATOM     19  C   UNL A   1      31.155  30.764  25.977  1.00  0.00     0.002 C 
BRANCH  19  20
ATOM     20  C   UNL A   1      31.238  32.232  26.404  1.00  0.00     0.021 C 
BRANCH  20  21
ATOM     21  C   UNL A   1      32.517  32.584  27.154  1.00  0.00     0.116 C 
BRANCH  21  22
ATOM     22  N   UNL A   1      32.484  33.956  27.638  1.00  0.00    -0.352 N 
ATOM     23  C   UNL A   1      33.202  34.544  28.645  1.00  0.00     0.251 C 
ATOM     24  H   UNL A   1      31.852  34.549  27.172  1.00  0.00     0.163 HD
ATOM     25  O   UNL A   1      32.850  35.629  29.095  1.00  0.00    -0.269 OA
BRANCH  23  26
ATOM     26  C   UNL A   1      34.399  33.873  29.191  1.00  0.00     0.039 A 
ATOM     27  C   UNL A   1      35.658  34.287  28.752  1.00  0.00     0.014 A 
ATOM     28  C   UNL A   1      34.284  32.810  30.092  1.00  0.00     0.014 A 
ATOM     29  C   UNL A   1      36.800  33.654  29.239  1.00  0.00     0.010 A 
ATOM     30  C   UNL A   1      35.427  32.242  30.646  1.00  0.00     0.010 A 
ATOM     31  C   UNL A   1      36.696  32.641  30.207  1.00  0.00    -0.014 A 
BRANCH  31  32
ATOM     32  C   UNL A   1      37.912  31.990  30.750  1.00  0.00     0.031 A 
ATOM     33  C   UNL A   1      38.432  32.353  32.114  1.00  0.00     0.074 A 
ATOM     34  C   UNL A   1      38.557  31.073  30.005  1.00  0.00     0.049 A 
ATOM     35  N   UNL A   1      39.435  31.835  32.779  1.00  0.00    -0.248 NA
ATOM     36  C   UNL A   1      37.754  33.455  32.815  1.00  0.00     0.031 C 
ATOM     37  C   UNL A   1      38.174  30.663  28.652  1.00  0.00     0.029 A 
ATOM     38  N   UNL A   1      39.656  30.303  30.288  1.00  0.00    -0.354 N 
ATOM     39  C   UNL A   1      39.508  32.552  33.968  1.00  0.00     0.074 A 
ATOM     40  C   UNL A   1      38.498  33.584  33.901  1.00  0.00     0.031 C 
ATOM     41  C   UNL A   1      38.982  29.671  28.250  1.00  0.00     0.029 A 
ATOM     42  C   UNL A   1      39.964  29.404  29.296  1.00  0.00     0.049 A 
ATOM     43  H   UNL A   1      40.174  30.387  31.121  1.00  0.00     0.167 HD
ATOM     44  C   UNL A   1      40.327  32.356  35.030  1.00  0.00     0.031 A 
ATOM     45  C   UNL A   1      40.918  28.457  29.244  1.00  0.00     0.031 A 
ATOM     46  C   UNL A   1      41.343  31.338  35.087  1.00  0.00     0.049 A 
ATOM     47  C   UNL A   1      41.837  28.280  30.420  1.00  0.00     0.074 A 
ATOM     48  C   UNL A   1      42.196  31.024  36.130  1.00  0.00     0.029 A 
ATOM     49  N   UNL A   1      41.651  30.475  34.044  1.00  0.00    -0.354 N 
ATOM     50  N   UNL A   1      41.846  28.912  31.567  1.00  0.00    -0.248 NA
ATOM     51  C   UNL A   1      42.868  27.242  30.293  1.00  0.00     0.031 C 
ATOM     52  C   UNL A   1      43.066  30.017  35.694  1.00  0.00     0.029 A 
ATOM     53  C   UNL A   1      42.704  29.650  34.408  1.00  0.00     0.049 A 
ATOM     54  H   UNL A   1      41.189  30.451  33.176  1.00  0.00     0.167 HD
ATOM     55  C   UNL A   1      42.858  28.325  32.316  1.00  0.00     0.074 A 
ATOM     56  C   UNL A   1      43.428  27.277  31.493  1.00  0.00     0.031 C 
ATOM     57  C   UNL A   1      43.271  28.620  33.573  1.00  0.00     0.031 A 
BRANCH  44  58
ATOM     58  C   UNL A   1      40.162  33.288  36.204  1.00  0.00    -0.014 A 
ATOM     59  C   UNL A   1      39.294  32.986  37.266  1.00  0.00     0.009 A 
ATOM     60  C   UNL A   1      40.881  34.492  36.244  1.00  0.00     0.009 A 
ATOM     61  C   UNL A   1      39.102  33.895  38.309  1.00  0.00     0.001 A 
ATOM     62  C   UNL A   1      40.718  35.383  37.308  1.00  0.00     0.001 A 
ATOM     63  C   UNL A   1      39.816  35.091  38.331  1.00  0.00     0.000 A 
ENDBRANCH  44  58
BRANCH  45  64
ATOM     64  C   UNL A   1      41.014  27.567  28.059  1.00  0.00    -0.014 A 
ATOM     65  C   UNL A   1      40.308  26.353  28.026  1.00  0.00     0.009 A 
ATOM     66  C   UNL A   1      41.797  27.926  26.950  1.00  0.00     0.009 A 
ATOM     67  C   UNL A   1      40.404  25.507  26.920  1.00  0.00     0.001 A 
ATOM     68  C   UNL A   1      41.865  27.092  25.832  1.00  0.00     0.001 A 
ATOM     69  C   UNL A   1      41.177  25.880  25.822  1.00  0.00     0.000 A 
ENDBRANCH  45  64
BRANCH  57  70
ATOM     70  C   UNL A   1      44.369  27.766  34.150  1.00  0.00    -0.014 A 
ATOM     71  C   UNL A   1      44.095  26.561  34.816  1.00  0.00     0.009 A 
ATOM     72  C   UNL A   1      45.705  28.176  34.012  1.00  0.00     0.009 A 
ATOM     73  C   UNL A   1      45.133  25.812  35.376  1.00  0.00     0.001 A 
ATOM     74  C   UNL A   1      46.743  27.405  34.538  1.00  0.00     0.001 A 
ATOM     75  C   UNL A   1      46.455  26.232  35.232  1.00  0.00     0.000 A 
ENDBRANCH  57  70
ENDBRANCH  31  32
ENDBRANCH  23  26
ENDBRANCH  21  22
ENDBRANCH  20  21
ENDBRANCH  19  20
ENDBRANCH   1  19
TORSDOF 16
ENDMDL
