MODEL 1
REMARK VINA RESULT:     -10.0      0.000      0.000
REMARK SMILES CCN(C(=O)C1(C)CCCC1)[C@@H]1COC[C@H]1C(=O)NCCCCCCNC(=O)c1ccc(-c2c3nc(c(-c4ccccc4)c4ccc([nH]4)c(-c4ccccc4)c4nc(c(-c5ccccc5)c5ccc2[nH]5)C=C4)C=C3)cc1
REMARK SMILES IDX 22 1 21 2 20 3 19 4 17 5 18 6 16 8 12 9 13 10 14 11 15 12
REMARK SMILES IDX 3 13 2 14 1 15 4 16 5 17 6 18 7 19 8 20 11 21 9 22 10 23
REMARK SMILES IDX 23 24 24 25 25 26 26 27 27 28 28 30 29 31 30 32 76 33 31 34
REMARK SMILES IDX 75 35 32 36 33 37 34 38 69 39 35 40 74 41 68 42 70 43 36 44
REMARK SMILES IDX 73 45 67 46 66 47 37 49 59 50 44 51 58 52 45 53 48 54 57 55
REMARK SMILES IDX 71 56 46 57 47 58 56 60 72 61 49 62 38 63 39 64 43 65 40 66
REMARK SMILES IDX 42 67 41 68 60 69 61 70 65 71 62 72 64 73 63 74 50 75 51 76
REMARK SMILES IDX 55 77 52 78 54 79 53 80
REMARK H PARENT 19 7 26 29 70 48 48 59
REMARK Flexibility Score: inf
ROOT
ATOM      1  C   UNL A   1      37.850  22.050  25.754  1.00  0.00     0.002 C 
ENDROOT
BRANCH   1   2
ATOM      2  C   UNL A   1      37.523  23.508  25.412  1.00  0.00     0.021 C 
BRANCH   2   3
ATOM      3  C   UNL A   1      36.105  23.935  25.789  1.00  0.00     0.116 C 
BRANCH   3   4
ATOM      4  N   UNL A   1      35.115  23.164  25.055  1.00  0.00    -0.356 N 
ATOM      5  C   UNL A   1      33.766  23.283  24.975  1.00  0.00     0.227 C 
ATOM      6  O   UNL A   1      33.161  22.431  24.317  1.00  0.00    -0.275 OA
ATOM      7  H   UNL A   1      35.489  22.427  24.521  1.00  0.00     0.163 HD
BRANCH   5   8
ATOM      8  C   UNL A   1      32.994  24.401  25.645  1.00  0.00     0.129 C 
ATOM      9  C   UNL A   1      31.920  25.024  24.766  1.00  0.00     0.125 C 
ATOM     10  C   UNL A   1      30.800  25.353  25.747  1.00  0.00     0.186 C 
ATOM     11  O   UNL A   1      30.921  24.429  26.840  1.00  0.00    -0.378 OA
ATOM     12  C   UNL A   1      32.277  23.972  26.911  1.00  0.00     0.176 C 
BRANCH   9  13
ATOM     13  N   UNL A   1      32.333  26.114  23.858  1.00  0.00    -0.336 N 
BRANCH  13  14
ATOM     14  C   UNL A   1      33.260  25.841  22.760  1.00  0.00     0.116 C 
ATOM     15  C   UNL A   1      32.583  25.693  21.402  1.00  0.00     0.027 C 
ENDBRANCH  13  14
BRANCH  13  16
ATOM     16  C   UNL A   1      31.870  27.384  24.204  1.00  0.00     0.228 C 
ATOM     17  O   UNL A   1      30.720  27.705  23.879  1.00  0.00    -0.274 OA
BRANCH  16  18
ATOM     18  C   UNL A   1      32.861  28.464  24.749  1.00  0.00     0.047 C 
ATOM     19  C   UNL A   1      33.547  29.128  23.548  1.00  0.00     0.022 C 
ATOM     20  C   UNL A   1      32.058  29.528  25.547  1.00  0.00     0.016 C 
ATOM     21  C   UNL A   1      33.861  28.067  25.841  1.00  0.00     0.016 C 
ATOM     22  C   UNL A   1      31.893  28.931  26.947  1.00  0.00     0.001 C 
ATOM     23  C   UNL A   1      33.004  27.894  27.088  1.00  0.00     0.001 C 
ENDBRANCH  16  18
ENDBRANCH  13  16
ENDBRANCH   9  13
ENDBRANCH   5   8
ENDBRANCH   3   4
ENDBRANCH   2   3
ENDBRANCH   1   2
BRANCH   1  24
ATOM     24  C   UNL A   1      37.562  21.040  24.638  1.00  0.00     0.002 C 
BRANCH  24  25
ATOM     25  C   UNL A   1      38.293  19.702  24.769  1.00  0.00     0.021 C 
BRANCH  25  26
ATOM     26  C   UNL A   1      39.035  19.509  26.087  1.00  0.00     0.116 C 
BRANCH  26  27
ATOM     27  N   UNL A   1      40.354  18.928  25.890  1.00  0.00    -0.352 N 
ATOM     28  C   UNL A   1      41.586  19.526  25.950  1.00  0.00     0.251 C 
ATOM     29  H   UNL A   1      40.364  17.965  25.686  1.00  0.00     0.163 HD
ATOM     30  O   UNL A   1      42.586  18.924  25.562  1.00  0.00    -0.269 OA
BRANCH  28  31
ATOM     31  C   UNL A   1      41.713  20.908  26.457  1.00  0.00     0.039 A 
ATOM     32  C   UNL A   1      41.568  21.140  27.827  1.00  0.00     0.014 A 
ATOM     33  C   UNL A   1      41.975  21.971  25.586  1.00  0.00     0.014 A 
ATOM     34  C   UNL A   1      41.752  22.427  28.333  1.00  0.00     0.010 A 
ATOM     35  C   UNL A   1      42.226  23.240  26.100  1.00  0.00     0.010 A 
ATOM     36  C   UNL A   1      42.123  23.480  27.479  1.00  0.00    -0.014 A 
BRANCH  36  37
ATOM     37  C   UNL A   1      42.440  24.826  28.018  1.00  0.00     0.031 A 
ATOM     38  C   UNL A   1      43.834  25.163  28.467  1.00  0.00     0.074 A 
ATOM     39  C   UNL A   1      41.450  25.729  28.160  1.00  0.00     0.049 A 
ATOM     40  N   UNL A   1      44.282  26.270  29.002  1.00  0.00    -0.248 NA
ATOM     41  C   UNL A   1      44.855  24.113  28.312  1.00  0.00     0.031 C 
ATOM     42  C   UNL A   1      40.046  25.512  27.801  1.00  0.00     0.029 A 
ATOM     43  N   UNL A   1      41.471  27.010  28.653  1.00  0.00    -0.354 N 
ATOM     44  C   UNL A   1      45.629  26.047  29.260  1.00  0.00     0.074 A 
ATOM     45  C   UNL A   1      45.915  24.685  28.865  1.00  0.00     0.031 C 
ATOM     46  C   UNL A   1      39.348  26.628  28.059  1.00  0.00     0.029 A 
ATOM     47  C   UNL A   1      40.241  27.623  28.643  1.00  0.00     0.049 A 
ATOM     48  H   UNL A   1      42.289  27.447  28.981  1.00  0.00     0.167 HD
ATOM     49  C   UNL A   1      46.549  26.904  29.764  1.00  0.00     0.031 A 
ATOM     50  C   UNL A   1      39.870  28.847  29.065  1.00  0.00     0.031 A 
ATOM     51  C   UNL A   1      46.264  28.259  30.158  1.00  0.00     0.049 A 
ATOM     52  C   UNL A   1      40.906  29.768  29.647  1.00  0.00     0.074 A 
ATOM     53  C   UNL A   1      47.142  29.222  30.626  1.00  0.00     0.029 A 
ATOM     54  N   UNL A   1      45.006  28.841  30.135  1.00  0.00    -0.354 N 
ATOM     55  N   UNL A   1      42.190  29.567  29.813  1.00  0.00    -0.248 NA
ATOM     56  C   UNL A   1      40.439  31.089  30.091  1.00  0.00     0.031 C 
ATOM     57  C   UNL A   1      46.405  30.367  30.943  1.00  0.00     0.029 A 
ATOM     58  C   UNL A   1      45.079  30.140  30.612  1.00  0.00     0.049 A 
ATOM     59  H   UNL A   1      44.184  28.397  29.826  1.00  0.00     0.167 HD
ATOM     60  C   UNL A   1      42.689  30.743  30.357  1.00  0.00     0.074 A 
ATOM     61  C   UNL A   1      41.574  31.658  30.473  1.00  0.00     0.031 C 
ATOM     62  C   UNL A   1      43.959  31.038  30.728  1.00  0.00     0.031 A 
BRANCH  49  63
ATOM     63  C   UNL A   1      47.954  26.396  29.931  1.00  0.00    -0.014 A 
ATOM     64  C   UNL A   1      48.380  25.815  31.136  1.00  0.00     0.009 A 
ATOM     65  C   UNL A   1      48.852  26.454  28.853  1.00  0.00     0.009 A 
ATOM     66  C   UNL A   1      49.685  25.335  31.269  1.00  0.00     0.001 A 
ATOM     67  C   UNL A   1      50.146  25.946  28.978  1.00  0.00     0.001 A 
ATOM     68  C   UNL A   1      50.564  25.396  30.188  1.00  0.00     0.000 A 
ENDBRANCH  49  63
BRANCH  50  69
ATOM     69  C   UNL A   1      38.451  29.276  28.952  1.00  0.00    -0.014 A 
ATOM     70  C   UNL A   1      37.952  29.775  27.740  1.00  0.00     0.009 A 
ATOM     71  C   UNL A   1      37.592  29.200  30.059  1.00  0.00     0.009 A 
ATOM     72  C   UNL A   1      36.630  30.215  27.646  1.00  0.00     0.001 A 
ATOM     73  C   UNL A   1      36.262  29.611  29.954  1.00  0.00     0.001 A 
ATOM     74  C   UNL A   1      35.785  30.128  28.752  1.00  0.00     0.000 A 
ENDBRANCH  50  69
BRANCH  62  75
ATOM     75  C   UNL A   1      44.213  32.418  31.267  1.00  0.00    -0.014 A 
ATOM     76  C   UNL A   1      44.145  32.688  32.642  1.00  0.00     0.009 A 
ATOM     77  C   UNL A   1      44.560  33.455  30.387  1.00  0.00     0.009 A 
ATOM     78  C   UNL A   1      44.383  33.978  33.122  1.00  0.00     0.001 A 
ATOM     79  C   UNL A   1      44.828  34.736  30.871  1.00  0.00     0.001 A 
ATOM     80  C   UNL A   1      44.730  34.999  32.236  1.00  0.00     0.000 A 
ENDBRANCH  62  75
ENDBRANCH  36  37
ENDBRANCH  28  31
ENDBRANCH  26  27
ENDBRANCH  25  26
ENDBRANCH  24  25
ENDBRANCH   1  24
TORSDOF 17
ENDMDL
MODEL 2
REMARK VINA RESULT:      -9.9      2.921      8.465
REMARK SMILES CCN(C(=O)C1(C)CCCC1)[C@@H]1COC[C@H]1C(=O)NCCCCCCNC(=O)c1ccc(-c2c3nc(c(-c4ccccc4)c4ccc([nH]4)c(-c4ccccc4)c4nc(c(-c5ccccc5)c5ccc2[nH]5)C=C4)C=C3)cc1
REMARK SMILES IDX 22 1 21 2 20 3 19 4 17 5 18 6 16 8 12 9 13 10 14 11 15 12
REMARK SMILES IDX 3 13 2 14 1 15 4 16 5 17 6 18 7 19 8 20 11 21 9 22 10 23
REMARK SMILES IDX 23 24 24 25 25 26 26 27 27 28 28 30 29 31 30 32 76 33 31 34
REMARK SMILES IDX 75 35 32 36 33 37 34 38 69 39 35 40 74 41 68 42 70 43 36 44
REMARK SMILES IDX 73 45 67 46 66 47 37 49 59 50 44 51 58 52 45 53 48 54 57 55
REMARK SMILES IDX 71 56 46 57 47 58 56 60 72 61 49 62 38 63 39 64 43 65 40 66
REMARK SMILES IDX 42 67 41 68 60 69 61 70 65 71 62 72 64 73 63 74 50 75 51 76
REMARK SMILES IDX 55 77 52 78 54 79 53 80
REMARK H PARENT 19 7 26 29 70 48 48 59
REMARK Flexibility Score: inf
ROOT
ATOM      1  C   UNL A   1      32.991  28.982  26.698  1.00  0.00     0.002 C 
ENDROOT
BRANCH   1   2
ATOM      2  C   UNL A   1      33.954  28.341  25.691  1.00  0.00     0.021 C 
BRANCH   2   3
ATOM      3  C   UNL A   1      33.506  26.971  25.184  1.00  0.00     0.116 C 
BRANCH   3   4
ATOM      4  N   UNL A   1      33.780  26.825  23.765  1.00  0.00    -0.356 N 
ATOM      5  C   UNL A   1      33.269  25.976  22.836  1.00  0.00     0.227 C 
ATOM      6  O   UNL A   1      33.745  26.031  21.698  1.00  0.00    -0.275 OA
ATOM      7  H   UNL A   1      34.453  27.451  23.415  1.00  0.00     0.163 HD
BRANCH   5   8
ATOM      8  C   UNL A   1      32.159  24.991  23.139  1.00  0.00     0.129 C 
ATOM      9  C   UNL A   1      32.501  23.994  24.236  1.00  0.00     0.125 C 
ATOM     10  C   UNL A   1      31.175  23.793  24.962  1.00  0.00     0.186 C 
ATOM     11  O   UNL A   1      30.411  24.995  24.772  1.00  0.00    -0.378 OA
ATOM     12  C   UNL A   1      30.867  25.649  23.581  1.00  0.00     0.176 C 
BRANCH   9  13
ATOM     13  N   UNL A   1      33.220  22.767  23.840  1.00  0.00    -0.336 N 
BRANCH  13  14
ATOM     14  C   UNL A   1      33.084  22.245  22.480  1.00  0.00     0.116 C 
ATOM     15  C   UNL A   1      31.906  21.296  22.297  1.00  0.00     0.027 C 
ENDBRANCH  13  14
BRANCH  13  16
ATOM     16  C   UNL A   1      33.910  22.123  24.868  1.00  0.00     0.228 C 
ATOM     17  O   UNL A   1      33.400  21.121  25.386  1.00  0.00    -0.274 OA
BRANCH  16  18
ATOM     18  C   UNL A   1      35.158  22.797  25.524  1.00  0.00     0.047 C 
ATOM     19  C   UNL A   1      34.747  23.310  26.911  1.00  0.00     0.022 C 
ATOM     20  C   UNL A   1      36.284  21.737  25.671  1.00  0.00     0.016 C 
ATOM     21  C   UNL A   1      35.937  23.848  24.725  1.00  0.00     0.016 C 
ATOM     22  C   UNL A   1      36.981  21.708  24.308  1.00  0.00     0.001 C 
ATOM     23  C   UNL A   1      36.653  23.044  23.648  1.00  0.00     0.001 C 
ENDBRANCH  16  18
ENDBRANCH  13  16
ENDBRANCH   9  13
ENDBRANCH   5   8
ENDBRANCH   3   4
ENDBRANCH   2   3
ENDBRANCH   1   2
BRANCH   1  24
ATOM     24  C   UNL A   1      31.741  29.622  26.084  1.00  0.00     0.002 C 
BRANCH  24  25
ATOM     25  C   UNL A   1      31.532  31.098  26.431  1.00  0.00     0.021 C 
BRANCH  25  26
ATOM     26  C   UNL A   1      32.724  31.768  27.107  1.00  0.00     0.116 C 
BRANCH  26  27
ATOM     27  N   UNL A   1      32.449  33.154  27.450  1.00  0.00    -0.352 N 
ATOM     28  C   UNL A   1      33.139  33.998  28.281  1.00  0.00     0.251 C 
ATOM     29  H   UNL A   1      31.653  33.544  27.022  1.00  0.00     0.163 HD
ATOM     30  O   UNL A   1      32.651  35.079  28.609  1.00  0.00    -0.269 OA
BRANCH  28  31
ATOM     31  C   UNL A   1      34.461  33.600  28.807  1.00  0.00     0.039 A 
ATOM     32  C   UNL A   1      34.525  32.909  30.018  1.00  0.00     0.014 A 
ATOM     33  C   UNL A   1      35.633  33.908  28.108  1.00  0.00     0.014 A 
ATOM     34  C   UNL A   1      35.759  32.465  30.497  1.00  0.00     0.010 A 
ATOM     35  C   UNL A   1      36.853  33.405  28.551  1.00  0.00     0.010 A 
ATOM     36  C   UNL A   1      36.928  32.674  29.746  1.00  0.00    -0.014 A 
BRANCH  36  37
ATOM     37  C   UNL A   1      38.227  32.105  30.182  1.00  0.00     0.031 A 
ATOM     38  C   UNL A   1      38.700  30.780  29.651  1.00  0.00     0.074 A 
ATOM     39  C   UNL A   1      38.957  32.758  31.108  1.00  0.00     0.049 A 
ATOM     40  N   UNL A   1      39.783  30.111  29.952  1.00  0.00    -0.248 NA
ATOM     41  C   UNL A   1      37.832  30.110  28.668  1.00  0.00     0.031 C 
ATOM     42  C   UNL A   1      38.589  34.031  31.732  1.00  0.00     0.029 A 
ATOM     43  N   UNL A   1      40.156  32.436  31.693  1.00  0.00    -0.354 N 
ATOM     44  C   UNL A   1      39.723  28.939  29.209  1.00  0.00     0.074 A 
ATOM     45  C   UNL A   1      38.475  28.966  28.477  1.00  0.00     0.031 C 
ATOM     46  C   UNL A   1      39.555  34.395  32.590  1.00  0.00     0.029 A 
ATOM     47  C   UNL A   1      40.586  33.363  32.612  1.00  0.00     0.049 A 
ATOM     48  H   UNL A   1      40.660  31.620  31.474  1.00  0.00     0.167 HD
ATOM     49  C   UNL A   1      40.632  27.938  29.129  1.00  0.00     0.031 A 
ATOM     50  C   UNL A   1      41.682  33.376  33.394  1.00  0.00     0.031 A 
ATOM     51  C   UNL A   1      41.873  27.910  29.857  1.00  0.00     0.049 A 
ATOM     52  C   UNL A   1      42.660  32.239  33.306  1.00  0.00     0.074 A 
ATOM     53  C   UNL A   1      42.885  26.966  29.799  1.00  0.00     0.029 A 
ATOM     54  N   UNL A   1      42.270  28.865  30.781  1.00  0.00    -0.354 N 
ATOM     55  N   UNL A   1      42.624  31.175  32.541  1.00  0.00    -0.248 NA
ATOM     56  C   UNL A   1      43.837  32.311  34.184  1.00  0.00     0.031 C 
ATOM     57  C   UNL A   1      43.865  27.320  30.731  1.00  0.00     0.029 A 
ATOM     58  C   UNL A   1      43.496  28.516  31.323  1.00  0.00     0.049 A 
ATOM     59  H   UNL A   1      41.756  29.671  31.015  1.00  0.00     0.167 HD
ATOM     60  C   UNL A   1      43.782  30.464  32.828  1.00  0.00     0.074 A 
ATOM     61  C   UNL A   1      44.508  31.228  33.820  1.00  0.00     0.031 C 
ATOM     62  C   UNL A   1      44.204  29.282  32.315  1.00  0.00     0.031 A 
BRANCH  49  63
ATOM     63  C   UNL A   1      40.311  26.778  28.228  1.00  0.00    -0.014 A 
ATOM     64  C   UNL A   1      39.488  25.725  28.660  1.00  0.00     0.009 A 
ATOM     65  C   UNL A   1      40.798  26.760  26.911  1.00  0.00     0.009 A 
ATOM     66  C   UNL A   1      39.188  24.663  27.805  1.00  0.00     0.001 A 
ATOM     67  C   UNL A   1      40.472  25.712  26.047  1.00  0.00     0.001 A 
ATOM     68  C   UNL A   1      39.676  24.660  26.498  1.00  0.00     0.000 A 
ENDBRANCH  49  63
BRANCH  50  69
ATOM     69  C   UNL A   1      41.917  34.508  34.328  1.00  0.00    -0.014 A 
ATOM     70  C   UNL A   1      41.492  34.432  35.662  1.00  0.00     0.009 A 
ATOM     71  C   UNL A   1      42.559  35.676  33.887  1.00  0.00     0.009 A 
ATOM     72  C   UNL A   1      41.679  35.511  36.529  1.00  0.00     0.001 A 
ATOM     73  C   UNL A   1      42.773  36.742  34.763  1.00  0.00     0.001 A 
ATOM     74  C   UNL A   1      42.323  36.663  36.079  1.00  0.00     0.000 A 
ENDBRANCH  50  69
BRANCH  62  75
ATOM     75  C   UNL A   1      45.529  28.760  32.798  1.00  0.00    -0.014 A 
ATOM     76  C   UNL A   1      45.614  27.897  33.901  1.00  0.00     0.009 A 
ATOM     77  C   UNL A   1      46.705  29.111  32.117  1.00  0.00     0.009 A 
ATOM     78  C   UNL A   1      46.854  27.424  34.334  1.00  0.00     0.001 A 
ATOM     79  C   UNL A   1      47.940  28.612  32.532  1.00  0.00     0.001 A 
ATOM     80  C   UNL A   1      48.015  27.778  33.646  1.00  0.00     0.000 A 
ENDBRANCH  62  75
ENDBRANCH  36  37
ENDBRANCH  28  31
ENDBRANCH  26  27
ENDBRANCH  25  26
ENDBRANCH  24  25
ENDBRANCH   1  24
TORSDOF 17
ENDMDL
MODEL 3
REMARK VINA RESULT:      -9.8      3.070      8.539
REMARK SMILES CCN(C(=O)C1(C)CCCC1)[C@@H]1COC[C@H]1C(=O)NCCCCCCNC(=O)c1ccc(-c2c3nc(c(-c4ccccc4)c4ccc([nH]4)c(-c4ccccc4)c4nc(c(-c5ccccc5)c5ccc2[nH]5)C=C4)C=C3)cc1
REMARK SMILES IDX 22 1 21 2 20 3 19 4 17 5 18 6 16 8 12 9 13 10 14 11 15 12
REMARK SMILES IDX 3 13 2 14 1 15 4 16 5 17 6 18 7 19 8 20 11 21 9 22 10 23
REMARK SMILES IDX 23 24 24 25 25 26 26 27 27 28 28 30 29 31 30 32 76 33 31 34
REMARK SMILES IDX 75 35 32 36 33 37 34 38 69 39 35 40 74 41 68 42 70 43 36 44
REMARK SMILES IDX 73 45 67 46 66 47 37 49 59 50 44 51 58 52 45 53 48 54 57 55
REMARK SMILES IDX 71 56 46 57 47 58 56 60 72 61 49 62 38 63 39 64 43 65 40 66
REMARK SMILES IDX 42 67 41 68 60 69 61 70 65 71 62 72 64 73 63 74 50 75 51 76
REMARK SMILES IDX 55 77 52 78 54 79 53 80
REMARK H PARENT 19 7 26 29 70 48 48 59
REMARK Flexibility Score: inf
ROOT
ATOM      1  C   UNL A   1      33.389  29.735  26.994  1.00  0.00     0.002 C 
ENDROOT
BRANCH   1   2
ATOM      2  C   UNL A   1      33.986  28.870  25.878  1.00  0.00     0.021 C 
BRANCH   2   3
ATOM      3  C   UNL A   1      32.980  28.456  24.804  1.00  0.00     0.116 C 
BRANCH   3   4
ATOM      4  N   UNL A   1      33.656  27.915  23.637  1.00  0.00    -0.356 N 
ATOM      5  C   UNL A   1      33.291  26.948  22.758  1.00  0.00     0.227 C 
ATOM      6  O   UNL A   1      34.108  26.639  21.885  1.00  0.00    -0.275 OA
ATOM      7  H   UNL A   1      34.533  28.322  23.451  1.00  0.00     0.163 HD
BRANCH   5   8
ATOM      8  C   UNL A   1      31.946  26.253  22.806  1.00  0.00     0.129 C 
ATOM      9  C   UNL A   1      31.570  25.730  24.184  1.00  0.00     0.125 C 
ATOM     10  C   UNL A   1      30.060  25.937  24.246  1.00  0.00     0.186 C 
ATOM     11  O   UNL A   1      29.755  27.033  23.369  1.00  0.00    -0.378 OA
ATOM     12  C   UNL A   1      30.789  27.137  22.382  1.00  0.00     0.176 C 
BRANCH   9  13
ATOM     13  N   UNL A   1      32.060  24.389  24.560  1.00  0.00    -0.336 N 
BRANCH  13  14
ATOM     14  C   UNL A   1      31.142  23.250  24.572  1.00  0.00     0.116 C 
ATOM     15  C   UNL A   1      30.864  22.695  25.964  1.00  0.00     0.027 C 
ENDBRANCH  13  14
BRANCH  13  16
ATOM     16  C   UNL A   1      33.385  24.339  24.995  1.00  0.00     0.228 C 
ATOM     17  O   UNL A   1      33.814  25.265  25.696  1.00  0.00    -0.274 OA
BRANCH  16  18
ATOM     18  C   UNL A   1      34.373  23.285  24.397  1.00  0.00     0.047 C 
ATOM     19  C   UNL A   1      34.191  23.274  22.874  1.00  0.00     0.022 C 
ATOM     20  C   UNL A   1      35.828  23.704  24.746  1.00  0.00     0.016 C 
ATOM     21  C   UNL A   1      34.394  21.872  24.989  1.00  0.00     0.016 C 
ATOM     22  C   UNL A   1      36.066  23.167  26.160  1.00  0.00     0.001 C 
ATOM     23  C   UNL A   1      35.047  22.047  26.353  1.00  0.00     0.001 C 
ENDBRANCH  16  18
ENDBRANCH  13  16
ENDBRANCH   9  13
ENDBRANCH   5   8
ENDBRANCH   3   4
ENDBRANCH   2   3
ENDBRANCH   1   2
BRANCH   1  24
ATOM     24  C   UNL A   1      31.919  30.125  26.798  1.00  0.00     0.002 C 
BRANCH  24  25
ATOM     25  C   UNL A   1      31.636  31.628  26.846  1.00  0.00     0.021 C 
BRANCH  25  26
ATOM     26  C   UNL A   1      32.873  32.504  27.011  1.00  0.00     0.116 C 
BRANCH  26  27
ATOM     27  N   UNL A   1      32.560  33.779  27.637  1.00  0.00    -0.352 N 
ATOM     28  C   UNL A   1      33.193  34.419  28.671  1.00  0.00     0.251 C 
ATOM     29  H   UNL A   1      31.782  34.252  27.264  1.00  0.00     0.163 HD
ATOM     30  O   UNL A   1      32.673  35.398  29.204  1.00  0.00    -0.269 OA
BRANCH  28  31
ATOM     31  C   UNL A   1      34.491  33.918  29.167  1.00  0.00     0.039 A 
ATOM     32  C   UNL A   1      34.513  33.119  30.312  1.00  0.00     0.014 A 
ATOM     33  C   UNL A   1      35.683  34.234  28.505  1.00  0.00     0.014 A 
ATOM     34  C   UNL A   1      35.722  32.580  30.756  1.00  0.00     0.010 A 
ATOM     35  C   UNL A   1      36.875  33.641  28.908  1.00  0.00     0.010 A 
ATOM     36  C   UNL A   1      36.906  32.803  30.034  1.00  0.00    -0.014 A 
BRANCH  36  37
ATOM     37  C   UNL A   1      38.175  32.141  30.424  1.00  0.00     0.031 A 
ATOM     38  C   UNL A   1      39.126  32.808  31.379  1.00  0.00     0.074 A 
ATOM     39  C   UNL A   1      38.502  30.958  29.865  1.00  0.00     0.049 A 
ATOM     40  N   UNL A   1      40.297  32.399  31.797  1.00  0.00    -0.248 NA
ATOM     41  C   UNL A   1      38.716  34.114  31.921  1.00  0.00     0.031 C 
ATOM     42  C   UNL A   1      37.686  30.227  28.893  1.00  0.00     0.029 A 
ATOM     43  N   UNL A   1      39.611  30.167  30.028  1.00  0.00    -0.354 N 
ATOM     44  C   UNL A   1      40.769  33.399  32.638  1.00  0.00     0.074 A 
ATOM     45  C   UNL A   1      39.779  34.454  32.636  1.00  0.00     0.031 C 
ATOM     46  C   UNL A   1      38.309  29.083  28.569  1.00  0.00     0.029 A 
ATOM     47  C   UNL A   1      39.586  29.021  29.272  1.00  0.00     0.049 A 
ATOM     48  H   UNL A   1      40.354  30.399  30.631  1.00  0.00     0.167 HD
ATOM     49  C   UNL A   1      41.914  33.428  33.360  1.00  0.00     0.031 A 
ATOM     50  C   UNL A   1      40.492  28.033  29.148  1.00  0.00     0.031 A 
ATOM     51  C   UNL A   1      42.899  32.378  33.362  1.00  0.00     0.049 A 
ATOM     52  C   UNL A   1      41.768  28.105  29.939  1.00  0.00     0.074 A 
ATOM     53  C   UNL A   1      44.064  32.292  34.104  1.00  0.00     0.029 A 
ATOM     54  N   UNL A   1      42.837  31.235  32.579  1.00  0.00    -0.354 N 
ATOM     55  N   UNL A   1      42.163  29.022  30.788  1.00  0.00    -0.248 NA
ATOM     56  C   UNL A   1      42.718  26.997  29.762  1.00  0.00     0.031 C 
ATOM     57  C   UNL A   1      44.737  31.126  33.727  1.00  0.00     0.029 A 
ATOM     58  C   UNL A   1      43.960  30.454  32.797  1.00  0.00     0.049 A 
ATOM     59  H   UNL A   1      42.104  31.013  31.961  1.00  0.00     0.167 HD
ATOM     60  C   UNL A   1      43.395  28.591  31.263  1.00  0.00     0.074 A 
ATOM     61  C   UNL A   1      43.671  27.322  30.624  1.00  0.00     0.031 C 
ATOM     62  C   UNL A   1      44.225  29.195  32.149  1.00  0.00     0.031 A 
BRANCH  49  63
ATOM     63  C   UNL A   1      42.172  34.646  34.203  1.00  0.00    -0.014 A 
ATOM     64  C   UNL A   1      41.772  34.700  35.548  1.00  0.00     0.009 A 
ATOM     65  C   UNL A   1      42.868  35.738  33.660  1.00  0.00     0.009 A 
ATOM     66  C   UNL A   1      42.033  35.833  36.321  1.00  0.00     0.001 A 
ATOM     67  C   UNL A   1      43.155  36.858  34.443  1.00  0.00     0.001 A 
ATOM     68  C   UNL A   1      42.729  36.909  35.769  1.00  0.00     0.000 A 
ENDBRANCH  49  63
BRANCH  50  69
ATOM     69  C   UNL A   1      40.227  26.886  28.240  1.00  0.00    -0.014 A 
ATOM     70  C   UNL A   1      40.733  26.880  26.932  1.00  0.00     0.009 A 
ATOM     71  C   UNL A   1      39.456  25.796  28.674  1.00  0.00     0.009 A 
ATOM     72  C   UNL A   1      40.450  25.820  26.068  1.00  0.00     0.001 A 
ATOM     73  C   UNL A   1      39.200  24.723  27.818  1.00  0.00     0.001 A 
ATOM     74  C   UNL A   1      39.688  24.741  26.513  1.00  0.00     0.000 A 
ENDBRANCH  50  69
BRANCH  62  75
ATOM     75  C   UNL A   1      45.495  28.473  32.501  1.00  0.00    -0.014 A 
ATOM     76  C   UNL A   1      45.537  27.540  33.549  1.00  0.00     0.009 A 
ATOM     77  C   UNL A   1      46.658  28.704  31.750  1.00  0.00     0.009 A 
ATOM     78  C   UNL A   1      46.728  26.881  33.860  1.00  0.00     0.001 A 
ATOM     79  C   UNL A   1      47.839  28.021  32.043  1.00  0.00     0.001 A 
ATOM     80  C   UNL A   1      47.876  27.118  33.103  1.00  0.00     0.000 A 
ENDBRANCH  62  75
ENDBRANCH  36  37
ENDBRANCH  28  31
ENDBRANCH  26  27
ENDBRANCH  25  26
ENDBRANCH  24  25
ENDBRANCH   1  24
TORSDOF 17
ENDMDL
