MODEL 1
REMARK VINA RESULT:     -11.9      0.000      0.000
REMARK SMILES Cc1nccnc1N1CCC2(CCC(=O)N([C@@H](C)C(=O)NCCCCCCNC(=O)c3ccc(-c4c5nc(c(-c6ccccc6)c6ccc([nH]6)c(-c6ccccc6)c6nc(c(-c7ccccc7)c7ccc4[nH]7)C=C6)C=C5)cc3)C2)CC1
REMARK SMILES IDX 24 1 23 2 22 3 21 4 19 5 20 6 17 8 18 9 16 10 8 11 9 12
REMARK SMILES IDX 81 13 10 14 80 15 11 16 12 17 79 18 13 19 14 20 15 21 7 22
REMARK SMILES IDX 1 23 2 24 3 25 4 26 6 27 5 28 25 29 26 30 27 31 28 32 29 33
REMARK SMILES IDX 30 35 31 36 32 37 78 38 33 39 77 40 34 41 35 42 36 43 71 44
REMARK SMILES IDX 37 45 76 46 70 47 72 48 38 49 75 50 69 51 68 52 39 54 61 55
REMARK SMILES IDX 46 56 60 57 47 58 50 59 59 60 73 61 48 62 49 63 58 65 74 66
REMARK SMILES IDX 51 67 40 68 41 69 45 70 42 71 44 72 43 73 62 74 63 75 67 76
REMARK SMILES IDX 64 77 66 78 65 79 52 80 53 81 57 82 54 83 56 84 55 85
REMARK H PARENT 21 7 28 34 72 53 50 64
REMARK Flexibility Score: inf
ROOT
ATOM      1  C   UNL A   1      34.504  32.626  28.003  1.00  0.00     0.002 C 
ENDROOT
BRANCH   1   2
ATOM      2  C   UNL A   1      34.703  31.217  28.561  1.00  0.00     0.021 C 
BRANCH   2   3
ATOM      3  C   UNL A   1      34.729  30.114  27.500  1.00  0.00     0.116 C 
BRANCH   3   4
ATOM      4  N   UNL A   1      33.584  29.238  27.645  1.00  0.00    -0.354 N 
ATOM      5  C   UNL A   1      32.382  29.211  27.009  1.00  0.00     0.242 C 
ATOM      6  O   UNL A   1      31.523  28.469  27.504  1.00  0.00    -0.273 OA
ATOM      7  H   UNL A   1      33.695  28.537  28.326  1.00  0.00     0.163 HD
BRANCH   5   8
ATOM      8  C   UNL A   1      32.022  30.087  25.777  1.00  0.00     0.171 C 
ATOM      9  C   UNL A   1      31.155  31.301  26.080  1.00  0.00     0.042 C 
BRANCH   8  10
ATOM     10  N   UNL A   1      31.660  29.274  24.597  1.00  0.00    -0.330 N 
ATOM     11  N   UNL A   1      32.846  24.258  24.079  1.00  0.00    -0.355 N 
ATOM     12  C   UNL A   1      31.768  24.757  24.913  1.00  0.00     0.119 C 
ATOM     13  C   UNL A   1      32.901  24.759  22.719  1.00  0.00     0.119 C 
ATOM     14  C   UNL A   1      31.970  26.268  25.043  1.00  0.00     0.030 C 
ATOM     15  C   UNL A   1      33.193  26.258  22.802  1.00  0.00     0.030 C 
ATOM     16  C   UNL A   1      32.156  27.006  23.683  1.00  0.00    -0.008 C 
ATOM     17  C   UNL A   1      30.851  27.133  22.868  1.00  0.00     0.019 C 
ATOM     18  C   UNL A   1      32.676  28.425  23.982  1.00  0.00     0.127 C 
ATOM     19  C   UNL A   1      29.855  28.086  23.490  1.00  0.00     0.101 C 
ATOM     20  C   UNL A   1      30.455  29.405  23.933  1.00  0.00     0.223 C 
ATOM     21  O   UNL A   1      29.822  30.450  23.832  1.00  0.00    -0.275 OA
BRANCH  11  22
ATOM     22  C   UNL A   1      33.407  23.029  24.366  1.00  0.00     0.150 A 
ATOM     23  C   UNL A   1      35.454  24.136  25.394  1.00  0.00     0.071 C 
ATOM     24  C   UNL A   1      34.683  22.921  24.965  1.00  0.00     0.080 A 
ATOM     25  N   UNL A   1      35.270  21.723  25.237  1.00  0.00    -0.256 NA
ATOM     26  C   UNL A   1      34.534  20.637  24.935  1.00  0.00     0.131 A 
ATOM     27  N   UNL A   1      32.685  21.917  24.098  1.00  0.00    -0.236 NA
ATOM     28  C   UNL A   1      33.269  20.733  24.389  1.00  0.00     0.133 A 
ENDBRANCH  11  22
ENDBRANCH   8  10
ENDBRANCH   5   8
ENDBRANCH   3   4
ENDBRANCH   2   3
ENDBRANCH   1   2
BRANCH   1  29
ATOM     29  C   UNL A   1      34.518  33.743  29.051  1.00  0.00     0.002 C 
BRANCH  29  30
ATOM     30  C   UNL A   1      33.241  34.582  29.123  1.00  0.00     0.021 C 
BRANCH  30  31
ATOM     31  C   UNL A   1      33.457  36.028  29.552  1.00  0.00     0.116 C 
BRANCH  31  32
ATOM     32  N   UNL A   1      32.563  36.413  30.637  1.00  0.00    -0.352 N 
ATOM     33  C   UNL A   1      32.541  35.968  31.935  1.00  0.00     0.251 C 
ATOM     34  H   UNL A   1      31.881  37.084  30.406  1.00  0.00     0.163 HD
ATOM     35  O   UNL A   1      31.591  36.214  32.670  1.00  0.00    -0.269 OA
BRANCH  33  36
ATOM     36  C   UNL A   1      33.679  35.175  32.436  1.00  0.00     0.039 A 
ATOM     37  C   UNL A   1      33.469  33.860  32.856  1.00  0.00     0.014 A 
ATOM     38  C   UNL A   1      34.958  35.734  32.459  1.00  0.00     0.014 A 
ATOM     39  C   UNL A   1      34.562  33.078  33.236  1.00  0.00     0.010 A 
ATOM     40  C   UNL A   1      36.051  34.933  32.765  1.00  0.00     0.010 A 
ATOM     41  C   UNL A   1      35.864  33.598  33.157  1.00  0.00    -0.014 A 
BRANCH  41  42
ATOM     42  C   UNL A   1      37.056  32.780  33.488  1.00  0.00     0.031 A 
ATOM     43  C   UNL A   1      37.807  33.044  34.763  1.00  0.00     0.074 A 
ATOM     44  C   UNL A   1      37.516  31.873  32.604  1.00  0.00     0.049 A 
ATOM     45  N   UNL A   1      38.946  32.544  35.171  1.00  0.00    -0.248 NA
ATOM     46  C   UNL A   1      37.215  34.024  35.689  1.00  0.00     0.031 C 
ATOM     47  C   UNL A   1      36.892  31.542  31.322  1.00  0.00     0.029 A 
ATOM     48  N   UNL A   1      38.633  31.075  32.647  1.00  0.00    -0.354 N 
ATOM     49  C   UNL A   1      39.216  33.166  36.382  1.00  0.00     0.074 A 
ATOM     50  C   UNL A   1      38.150  34.114  36.622  1.00  0.00     0.031 C 
ATOM     51  C   UNL A   1      37.625  30.600  30.707  1.00  0.00     0.029 A 
ATOM     52  C   UNL A   1      38.796  30.298  31.524  1.00  0.00     0.049 A 
ATOM     53  H   UNL A   1      39.257  31.061  33.408  1.00  0.00     0.167 HD
ATOM     54  C   UNL A   1      40.252  32.956  37.229  1.00  0.00     0.031 A 
ATOM     55  C   UNL A   1      39.789  29.454  31.184  1.00  0.00     0.031 A 
ATOM     56  C   UNL A   1      41.304  32.006  36.993  1.00  0.00     0.049 A 
ATOM     57  C   UNL A   1      40.945  29.263  32.127  1.00  0.00     0.074 A 
ATOM     58  C   UNL A   1      42.370  31.681  37.815  1.00  0.00     0.029 A 
ATOM     59  N   UNL A   1      41.424  31.230  35.851  1.00  0.00    -0.354 N 
ATOM     60  N   UNL A   1      41.157  29.815  33.297  1.00  0.00    -0.248 NA
ATOM     61  C   UNL A   1      41.997  28.326  31.704  1.00  0.00     0.031 C 
ATOM     62  C   UNL A   1      43.168  30.749  37.144  1.00  0.00     0.029 A 
ATOM     63  C   UNL A   1      42.563  30.445  35.934  1.00  0.00     0.049 A 
ATOM     64  H   UNL A   1      40.796  31.236  35.094  1.00  0.00     0.167 HD
ATOM     65  C   UNL A   1      42.344  29.265  33.766  1.00  0.00     0.074 A 
ATOM     66  C   UNL A   1      42.802  28.332  32.757  1.00  0.00     0.031 C 
ATOM     67  C   UNL A   1      42.996  29.511  34.928  1.00  0.00     0.031 A 
BRANCH  54  68
ATOM     68  C   UNL A   1      40.301  33.782  38.484  1.00  0.00    -0.014 A 
ATOM     69  C   UNL A   1      39.697  33.341  39.673  1.00  0.00     0.009 A 
ATOM     70  C   UNL A   1      40.994  35.003  38.489  1.00  0.00     0.009 A 
ATOM     71  C   UNL A   1      39.753  34.123  40.828  1.00  0.00     0.001 A 
ATOM     72  C   UNL A   1      41.077  35.767  39.655  1.00  0.00     0.001 A 
ATOM     73  C   UNL A   1      40.448  35.332  40.819  1.00  0.00     0.000 A 
ENDBRANCH  54  68
BRANCH  55  74
ATOM     74  C   UNL A   1      39.737  28.722  29.890  1.00  0.00    -0.014 A 
ATOM     75  C   UNL A   1      39.278  27.397  29.839  1.00  0.00     0.009 A 
ATOM     76  C   UNL A   1      40.161  29.336  28.701  1.00  0.00     0.009 A 
ATOM     77  C   UNL A   1      39.274  26.692  28.634  1.00  0.00     0.001 A 
ATOM     78  C   UNL A   1      40.126  28.640  27.491  1.00  0.00     0.001 A 
ATOM     79  C   UNL A   1      39.694  27.316  27.460  1.00  0.00     0.000 A 
ENDBRANCH  55  74
BRANCH  67  80
ATOM     80  C   UNL A   1      44.245  28.722  35.205  1.00  0.00    -0.014 A 
ATOM     81  C   UNL A   1      44.195  27.461  35.816  1.00  0.00     0.009 A 
ATOM     82  C   UNL A   1      45.485  29.227  34.781  1.00  0.00     0.009 A 
ATOM     83  C   UNL A   1      45.369  26.730  36.018  1.00  0.00     0.001 A 
ATOM     84  C   UNL A   1      46.651  28.481  34.957  1.00  0.00     0.001 A 
ATOM     85  C   UNL A   1      46.593  27.236  35.581  1.00  0.00     0.000 A 
ENDBRANCH  67  80
ENDBRANCH  41  42
ENDBRANCH  33  36
ENDBRANCH  31  32
ENDBRANCH  30  31
ENDBRANCH  29  30
ENDBRANCH   1  29
TORSDOF 15
ENDMDL
MODEL 2
REMARK VINA RESULT:     -11.4      6.466     11.862
REMARK SMILES Cc1nccnc1N1CCC2(CCC(=O)N([C@@H](C)C(=O)NCCCCCCNC(=O)c3ccc(-c4c5nc(c(-c6ccccc6)c6ccc([nH]6)c(-c6ccccc6)c6nc(c(-c7ccccc7)c7ccc4[nH]7)C=C6)C=C5)cc3)C2)CC1
REMARK SMILES IDX 24 1 23 2 22 3 21 4 19 5 20 6 17 8 18 9 16 10 8 11 9 12
REMARK SMILES IDX 81 13 10 14 80 15 11 16 12 17 79 18 13 19 14 20 15 21 7 22
REMARK SMILES IDX 1 23 2 24 3 25 4 26 6 27 5 28 25 29 26 30 27 31 28 32 29 33
REMARK SMILES IDX 30 35 31 36 32 37 78 38 33 39 77 40 34 41 35 42 36 43 71 44
REMARK SMILES IDX 37 45 76 46 70 47 72 48 38 49 75 50 69 51 68 52 39 54 61 55
REMARK SMILES IDX 46 56 60 57 47 58 50 59 59 60 73 61 48 62 49 63 58 65 74 66
REMARK SMILES IDX 51 67 40 68 41 69 45 70 42 71 44 72 43 73 62 74 63 75 67 76
REMARK SMILES IDX 64 77 66 78 65 79 52 80 53 81 57 82 54 83 56 84 55 85
REMARK H PARENT 21 7 28 34 72 53 50 64
REMARK Flexibility Score: inf
ROOT
ATOM      1  C   UNL A   1      40.030  21.821  26.957  1.00  0.00     0.002 C 
ENDROOT
BRANCH   1   2
ATOM      2  C   UNL A   1      39.444  23.207  26.686  1.00  0.00     0.021 C 
BRANCH   2   3
ATOM      3  C   UNL A   1      38.018  23.193  26.130  1.00  0.00     0.116 C 
BRANCH   3   4
ATOM      4  N   UNL A   1      37.641  21.854  25.724  1.00  0.00    -0.354 N 
ATOM      5  C   UNL A   1      36.541  21.384  25.077  1.00  0.00     0.242 C 
ATOM      6  O   UNL A   1      36.408  20.152  25.060  1.00  0.00    -0.273 OA
ATOM      7  H   UNL A   1      38.299  21.161  25.957  1.00  0.00     0.163 HD
BRANCH   5   8
ATOM      8  C   UNL A   1      35.444  22.283  24.444  1.00  0.00     0.171 C 
ATOM      9  C   UNL A   1      35.888  23.085  23.228  1.00  0.00     0.042 C 
BRANCH   8  10
ATOM     10  N   UNL A   1      34.640  22.989  25.463  1.00  0.00    -0.330 N 
ATOM     11  N   UNL A   1      31.246  26.745  24.363  1.00  0.00    -0.355 N 
ATOM     12  C   UNL A   1      30.989  25.332  24.159  1.00  0.00     0.119 C 
ATOM     13  C   UNL A   1      31.766  27.131  25.662  1.00  0.00     0.119 C 
ATOM     14  C   UNL A   1      32.333  24.612  24.290  1.00  0.00     0.030 C 
ATOM     15  C   UNL A   1      33.153  26.503  25.797  1.00  0.00     0.030 C 
ATOM     16  C   UNL A   1      33.121  24.965  25.588  1.00  0.00    -0.008 C 
ATOM     17  C   UNL A   1      32.524  24.329  26.862  1.00  0.00     0.019 C 
ATOM     18  C   UNL A   1      34.563  24.447  25.421  1.00  0.00     0.127 C 
ATOM     19  C   UNL A   1      32.699  22.829  26.913  1.00  0.00     0.101 C 
ATOM     20  C   UNL A   1      34.095  22.356  26.565  1.00  0.00     0.223 C 
ATOM     21  O   UNL A   1      34.593  21.391  27.134  1.00  0.00    -0.275 OA
BRANCH  11  22
ATOM     22  C   UNL A   1      30.546  27.672  23.618  1.00  0.00     0.150 A 
ATOM     23  C   UNL A   1      32.707  28.707  22.763  1.00  0.00     0.071 C 
ATOM     24  C   UNL A   1      31.209  28.664  22.860  1.00  0.00     0.080 A 
ATOM     25  N   UNL A   1      30.544  29.606  22.135  1.00  0.00    -0.256 NA
ATOM     26  C   UNL A   1      29.202  29.506  22.151  1.00  0.00     0.131 A 
ATOM     27  N   UNL A   1      29.196  27.587  23.591  1.00  0.00    -0.236 NA
ATOM     28  C   UNL A   1      28.545  28.515  22.853  1.00  0.00     0.133 A 
ENDBRANCH  11  22
ENDBRANCH   8  10
ENDBRANCH   5   8
ENDBRANCH   3   4
ENDBRANCH   2   3
ENDBRANCH   1   2
BRANCH   1  29
ATOM     29  C   UNL A   1      41.321  21.506  26.196  1.00  0.00     0.002 C 
BRANCH  29  30
ATOM     30  C   UNL A   1      41.468  20.051  25.743  1.00  0.00     0.021 C 
BRANCH  30  31
ATOM     31  C   UNL A   1      42.648  19.312  26.364  1.00  0.00     0.116 C 
BRANCH  31  32
ATOM     32  N   UNL A   1      43.569  18.811  25.353  1.00  0.00    -0.352 N 
ATOM     33  C   UNL A   1      44.441  19.511  24.557  1.00  0.00     0.251 C 
ATOM     34  H   UNL A   1      43.565  17.835  25.222  1.00  0.00     0.163 HD
ATOM     35  O   UNL A   1      44.986  18.977  23.597  1.00  0.00    -0.269 OA
BRANCH  33  36
ATOM     36  C   UNL A   1      44.707  20.927  24.867  1.00  0.00     0.039 A 
ATOM     37  C   UNL A   1      44.368  21.911  23.935  1.00  0.00     0.014 A 
ATOM     38  C   UNL A   1      45.267  21.276  26.097  1.00  0.00     0.014 A 
ATOM     39  C   UNL A   1      44.528  23.257  24.269  1.00  0.00     0.010 A 
ATOM     40  C   UNL A   1      45.356  22.615  26.456  1.00  0.00     0.010 A 
ATOM     41  C   UNL A   1      44.988  23.618  25.545  1.00  0.00    -0.014 A 
BRANCH  41  42
ATOM     42  C   UNL A   1      45.110  25.037  25.962  1.00  0.00     0.031 A 
ATOM     43  C   UNL A   1      46.451  25.715  25.908  1.00  0.00     0.074 A 
ATOM     44  C   UNL A   1      44.044  25.680  26.477  1.00  0.00     0.049 A 
ATOM     45  N   UNL A   1      46.800  26.894  26.356  1.00  0.00    -0.248 NA
ATOM     46  C   UNL A   1      47.553  24.952  25.297  1.00  0.00     0.031 C 
ATOM     47  C   UNL A   1      42.696  25.125  26.608  1.00  0.00     0.029 A 
ATOM     48  N   UNL A   1      43.936  26.943  27.006  1.00  0.00    -0.354 N 
ATOM     49  C   UNL A   1      48.161  27.002  26.104  1.00  0.00     0.074 A 
ATOM     50  C   UNL A   1      48.585  25.754  25.509  1.00  0.00     0.031 C 
ATOM     51  C   UNL A   1      41.893  26.046  27.165  1.00  0.00     0.029 A 
ATOM     52  C   UNL A   1      42.679  27.235  27.478  1.00  0.00     0.049 A 
ATOM     53  H   UNL A   1      44.687  27.578  27.044  1.00  0.00     0.167 HD
ATOM     54  C   UNL A   1      48.983  28.053  26.332  1.00  0.00     0.031 A 
ATOM     55  C   UNL A   1      42.217  28.331  28.111  1.00  0.00     0.031 A 
ATOM     56  C   UNL A   1      48.557  29.297  26.914  1.00  0.00     0.049 A 
ATOM     57  C   UNL A   1      43.158  29.473  28.383  1.00  0.00     0.074 A 
ATOM     58  C   UNL A   1      49.301  30.442  27.138  1.00  0.00     0.029 A 
ATOM     59  N   UNL A   1      47.272  29.557  27.365  1.00  0.00    -0.354 N 
ATOM     60  N   UNL A   1      44.430  29.584  28.085  1.00  0.00    -0.248 NA
ATOM     61  C   UNL A   1      42.597  30.643  29.074  1.00  0.00     0.031 C 
ATOM     62  C   UNL A   1      48.480  31.376  27.778  1.00  0.00     0.029 A 
ATOM     63  C   UNL A   1      47.209  30.836  27.892  1.00  0.00     0.049 A 
ATOM     64  H   UNL A   1      46.517  28.926  27.319  1.00  0.00     0.167 HD
ATOM     65  C   UNL A   1      44.811  30.848  28.518  1.00  0.00     0.074 A 
ATOM     66  C   UNL A   1      43.634  31.469  29.091  1.00  0.00     0.031 C 
ATOM     67  C   UNL A   1      46.026  31.443  28.445  1.00  0.00     0.031 A 
BRANCH  54  68
ATOM     68  C   UNL A   1      50.432  27.895  25.963  1.00  0.00    -0.014 A 
ATOM     69  C   UNL A   1      50.903  28.247  24.687  1.00  0.00     0.009 A 
ATOM     70  C   UNL A   1      51.347  27.424  26.917  1.00  0.00     0.009 A 
ATOM     71  C   UNL A   1      52.252  28.092  24.364  1.00  0.00     0.001 A 
ATOM     72  C   UNL A   1      52.702  27.301  26.601  1.00  0.00     0.001 A 
ATOM     73  C   UNL A   1      53.150  27.625  25.322  1.00  0.00     0.000 A 
ENDBRANCH  54  68
BRANCH  55  74
ATOM     74  C   UNL A   1      40.793  28.406  28.534  1.00  0.00    -0.014 A 
ATOM     75  C   UNL A   1      39.837  29.022  27.711  1.00  0.00     0.009 A 
ATOM     76  C   UNL A   1      40.382  27.878  29.768  1.00  0.00     0.009 A 
ATOM     77  C   UNL A   1      38.509  29.136  28.127  1.00  0.00     0.001 A 
ATOM     78  C   UNL A   1      39.046  27.964  30.168  1.00  0.00     0.001 A 
ATOM     79  C   UNL A   1      38.114  28.602  29.353  1.00  0.00     0.000 A 
ENDBRANCH  55  74
BRANCH  67  80
ATOM     80  C   UNL A   1      46.141  32.855  28.945  1.00  0.00    -0.014 A 
ATOM     81  C   UNL A   1      45.843  33.951  28.122  1.00  0.00     0.009 A 
ATOM     82  C   UNL A   1      46.486  33.084  30.287  1.00  0.00     0.009 A 
ATOM     83  C   UNL A   1      45.913  35.252  28.629  1.00  0.00     0.001 A 
ATOM     84  C   UNL A   1      46.525  34.382  30.798  1.00  0.00     0.001 A 
ATOM     85  C   UNL A   1      46.244  35.465  29.967  1.00  0.00     0.000 A 
ENDBRANCH  67  80
ENDBRANCH  41  42
ENDBRANCH  33  36
ENDBRANCH  31  32
ENDBRANCH  30  31
ENDBRANCH  29  30
ENDBRANCH   1  29
TORSDOF 15
ENDMDL
MODEL 3
REMARK VINA RESULT:     -11.3      0.443      5.724
REMARK SMILES Cc1nccnc1N1CCC2(CCC(=O)N([C@@H](C)C(=O)NCCCCCCNC(=O)c3ccc(-c4c5nc(c(-c6ccccc6)c6ccc([nH]6)c(-c6ccccc6)c6nc(c(-c7ccccc7)c7ccc4[nH]7)C=C6)C=C5)cc3)C2)CC1
REMARK SMILES IDX 24 1 23 2 22 3 21 4 19 5 20 6 17 8 18 9 16 10 8 11 9 12
REMARK SMILES IDX 81 13 10 14 80 15 11 16 12 17 79 18 13 19 14 20 15 21 7 22
REMARK SMILES IDX 1 23 2 24 3 25 4 26 6 27 5 28 25 29 26 30 27 31 28 32 29 33
REMARK SMILES IDX 30 35 31 36 32 37 78 38 33 39 77 40 34 41 35 42 36 43 71 44
REMARK SMILES IDX 37 45 76 46 70 47 72 48 38 49 75 50 69 51 68 52 39 54 61 55
REMARK SMILES IDX 46 56 60 57 47 58 50 59 59 60 73 61 48 62 49 63 58 65 74 66
REMARK SMILES IDX 51 67 40 68 41 69 45 70 42 71 44 72 43 73 62 74 63 75 67 76
REMARK SMILES IDX 64 77 66 78 65 79 52 80 53 81 57 82 54 83 56 84 55 85
REMARK H PARENT 21 7 28 34 72 53 50 64
REMARK Flexibility Score: inf
ROOT
ATOM      1  C   UNL A   1      34.921  32.285  29.043  1.00  0.00     0.002 C 
ENDROOT
BRANCH   1   2
ATOM      2  C   UNL A   1      34.017  31.625  28.001  1.00  0.00     0.021 C 
BRANCH   2   3
ATOM      3  C   UNL A   1      34.485  30.242  27.543  1.00  0.00     0.116 C 
BRANCH   3   4
ATOM      4  N   UNL A   1      33.402  29.283  27.624  1.00  0.00    -0.354 N 
ATOM      5  C   UNL A   1      32.248  29.164  26.914  1.00  0.00     0.242 C 
ATOM      6  O   UNL A   1      31.417  28.362  27.360  1.00  0.00    -0.273 OA
ATOM      7  H   UNL A   1      33.522  28.595  28.316  1.00  0.00     0.163 HD
BRANCH   5   8
ATOM      8  C   UNL A   1      31.902  30.006  25.655  1.00  0.00     0.171 C 
ATOM      9  C   UNL A   1      31.039  31.233  25.916  1.00  0.00     0.042 C 
BRANCH   8  10
ATOM     10  N   UNL A   1      31.544  29.162  24.496  1.00  0.00    -0.330 N 
ATOM     11  N   UNL A   1      32.799  24.153  24.083  1.00  0.00    -0.355 N 
ATOM     12  C   UNL A   1      31.720  24.655  24.912  1.00  0.00     0.119 C 
ATOM     13  C   UNL A   1      32.839  24.624  22.711  1.00  0.00     0.119 C 
ATOM     14  C   UNL A   1      31.900  26.172  25.007  1.00  0.00     0.030 C 
ATOM     15  C   UNL A   1      33.109  26.129  22.758  1.00  0.00     0.030 C 
ATOM     16  C   UNL A   1      32.067  26.881  23.629  1.00  0.00    -0.008 C 
ATOM     17  C   UNL A   1      30.755  26.972  22.821  1.00  0.00     0.019 C 
ATOM     18  C   UNL A   1      32.569  28.314  23.894  1.00  0.00     0.127 C 
ATOM     19  C   UNL A   1      29.750  27.924  23.427  1.00  0.00     0.101 C 
ATOM     20  C   UNL A   1      30.333  29.261  23.837  1.00  0.00     0.223 C 
ATOM     21  O   UNL A   1      29.685  30.294  23.717  1.00  0.00    -0.275 OA
BRANCH  11  22
ATOM     22  C   UNL A   1      33.379  22.940  24.393  1.00  0.00     0.150 A 
ATOM     23  C   UNL A   1      35.430  24.097  25.354  1.00  0.00     0.071 C 
ATOM     24  C   UNL A   1      34.667  22.862  24.972  1.00  0.00     0.080 A 
ATOM     25  N   UNL A   1      35.272  21.679  25.266  1.00  0.00    -0.256 NA
ATOM     26  C   UNL A   1      34.545  20.577  25.007  1.00  0.00     0.131 A 
ATOM     27  N   UNL A   1      32.666  21.812  24.168  1.00  0.00    -0.236 NA
ATOM     28  C   UNL A   1      33.270  20.643  24.481  1.00  0.00     0.133 A 
ENDBRANCH  11  22
ENDBRANCH   8  10
ENDBRANCH   5   8
ENDBRANCH   3   4
ENDBRANCH   2   3
ENDBRANCH   1   2
BRANCH   1  29
ATOM     29  C   UNL A   1      34.970  33.815  28.979  1.00  0.00     0.002 C 
BRANCH  29  30
ATOM     30  C   UNL A   1      33.606  34.508  29.002  1.00  0.00     0.021 C 
BRANCH  30  31
ATOM     31  C   UNL A   1      33.607  35.882  29.662  1.00  0.00     0.116 C 
BRANCH  31  32
ATOM     32  N   UNL A   1      32.608  35.978  30.719  1.00  0.00    -0.352 N 
ATOM     33  C   UNL A   1      32.615  35.406  31.967  1.00  0.00     0.251 C 
ATOM     34  H   UNL A   1      31.820  36.529  30.509  1.00  0.00     0.163 HD
ATOM     35  O   UNL A   1      31.603  35.392  32.660  1.00  0.00    -0.269 OA
BRANCH  33  36
ATOM     36  C   UNL A   1      33.861  34.794  32.463  1.00  0.00     0.039 A 
ATOM     37  C   UNL A   1      33.867  33.448  32.836  1.00  0.00     0.014 A 
ATOM     38  C   UNL A   1      35.031  35.555  32.529  1.00  0.00     0.014 A 
ATOM     39  C   UNL A   1      35.068  32.845  33.211  1.00  0.00     0.010 A 
ATOM     40  C   UNL A   1      36.236  34.935  32.829  1.00  0.00     0.010 A 
ATOM     41  C   UNL A   1      36.267  33.575  33.174  1.00  0.00    -0.014 A 
BRANCH  41  42
ATOM     42  C   UNL A   1      37.574  32.953  33.501  1.00  0.00     0.031 A 
ATOM     43  C   UNL A   1      38.165  31.933  32.568  1.00  0.00     0.074 A 
ATOM     44  C   UNL A   1      38.176  33.230  34.674  1.00  0.00     0.049 A 
ATOM     45  N   UNL A   1      39.217  31.172  32.734  1.00  0.00    -0.248 NA
ATOM     46  C   UNL A   1      37.461  31.717  31.293  1.00  0.00     0.031 C 
ATOM     47  C   UNL A   1      37.691  34.181  35.676  1.00  0.00     0.029 A 
ATOM     48  N   UNL A   1      39.324  32.719  35.228  1.00  0.00    -0.354 N 
ATOM     49  C   UNL A   1      39.284  30.374  31.600  1.00  0.00     0.074 A 
ATOM     50  C   UNL A   1      38.143  30.707  30.775  1.00  0.00     0.031 C 
ATOM     51  C   UNL A   1      38.543  34.197  36.714  1.00  0.00     0.029 A 
ATOM     52  C   UNL A   1      39.602  33.222  36.477  1.00  0.00     0.049 A 
ATOM     53  H   UNL A   1      39.892  32.055  34.776  1.00  0.00     0.167 HD
ATOM     54  C   UNL A   1      40.222  29.456  31.265  1.00  0.00     0.031 A 
ATOM     55  C   UNL A   1      40.588  32.916  37.342  1.00  0.00     0.031 A 
ATOM     56  C   UNL A   1      41.361  29.135  32.082  1.00  0.00     0.049 A 
ATOM     57  C   UNL A   1      41.599  31.868  36.961  1.00  0.00     0.074 A 
ATOM     58  C   UNL A   1      42.396  28.258  31.808  1.00  0.00     0.029 A 
ATOM     59  N   UNL A   1      41.612  29.677  33.332  1.00  0.00    -0.354 N 
ATOM     60  N   UNL A   1      41.683  31.164  35.858  1.00  0.00    -0.248 NA
ATOM     61  C   UNL A   1      42.654  31.579  37.943  1.00  0.00     0.031 C 
ATOM     62  C   UNL A   1      43.245  28.226  32.919  1.00  0.00     0.029 A 
ATOM     63  C   UNL A   1      42.774  29.133  33.855  1.00  0.00     0.049 A 
ATOM     64  H   UNL A   1      41.050  30.348  33.783  1.00  0.00     0.167 HD
ATOM     65  C   UNL A   1      42.820  30.377  35.998  1.00  0.00     0.074 A 
ATOM     66  C   UNL A   1      43.396  30.696  37.289  1.00  0.00     0.031 C 
ATOM     67  C   UNL A   1      43.341  29.472  35.135  1.00  0.00     0.031 A 
BRANCH  54  68
ATOM     68  C   UNL A   1      40.045  28.725  29.964  1.00  0.00    -0.014 A 
ATOM     69  C   UNL A   1      40.524  29.257  28.756  1.00  0.00     0.009 A 
ATOM     70  C   UNL A   1      39.423  27.466  29.950  1.00  0.00     0.009 A 
ATOM     71  C   UNL A   1      40.349  28.563  27.558  1.00  0.00     0.001 A 
ATOM     72  C   UNL A   1      39.279  26.759  28.755  1.00  0.00     0.001 A 
ATOM     73  C   UNL A   1      39.732  27.312  27.559  1.00  0.00     0.000 A 
ENDBRANCH  54  68
BRANCH  55  74
ATOM     74  C   UNL A   1      40.672  33.607  38.655  1.00  0.00    -0.014 A 
ATOM     75  C   UNL A   1      40.019  33.080  39.781  1.00  0.00     0.009 A 
ATOM     76  C   UNL A   1      41.390  34.806  38.791  1.00  0.00     0.009 A 
ATOM     77  C   UNL A   1      40.056  33.754  41.004  1.00  0.00     0.001 A 
ATOM     78  C   UNL A   1      41.453  35.461  40.023  1.00  0.00     0.001 A 
ATOM     79  C   UNL A   1      40.777  34.941  41.125  1.00  0.00     0.000 A 
ENDBRANCH  55  74
BRANCH  67  80
ATOM     80  C   UNL A   1      44.626  28.798  35.524  1.00  0.00    -0.014 A 
ATOM     81  C   UNL A   1      45.873  29.369  35.227  1.00  0.00     0.009 A 
ATOM     82  C   UNL A   1      44.581  27.605  36.263  1.00  0.00     0.009 A 
ATOM     83  C   UNL A   1      47.050  28.743  35.644  1.00  0.00     0.001 A 
ATOM     84  C   UNL A   1      45.758  26.999  36.704  1.00  0.00     0.001 A 
ATOM     85  C   UNL A   1      46.992  27.565  36.388  1.00  0.00     0.000 A 
ENDBRANCH  67  80
ENDBRANCH  41  42
ENDBRANCH  33  36
ENDBRANCH  31  32
ENDBRANCH  30  31
ENDBRANCH  29  30
ENDBRANCH   1  29
TORSDOF 15
ENDMDL
