MODEL 1
REMARK VINA RESULT:     -10.0      0.000      0.000
REMARK SMILES CCOC(=O)NC(=O)C[N@H+]1CC[C@@H](C(=O)NCCCCCCNC(=O)c2ccc(-c3c4nc(c(-c5ccccc5)c5ccc([nH]5)c(-c5ccccc5)c5nc(c(-c6ccccc6)c6ccc3[nH]6)C=C5)C=C4)cc2)[C@@H]1C
REMARK SMILES IDX 18 1 17 2 16 3 14 4 15 5 13 7 10 8 11 9 74 10 12 12 75 13
REMARK SMILES IDX 9 14 7 15 4 16 5 17 6 18 8 20 3 21 2 22 1 23 19 24 20 25
REMARK SMILES IDX 21 26 22 27 23 28 24 29 25 31 26 32 27 33 73 34 28 35 72 36
REMARK SMILES IDX 29 37 30 38 31 39 66 40 32 41 71 42 65 43 67 44 33 45 70 46
REMARK SMILES IDX 64 47 63 48 34 50 56 51 41 52 55 53 42 54 45 55 54 56 68 57
REMARK SMILES IDX 43 58 44 59 53 61 69 62 46 63 35 64 36 65 40 66 37 67 39 68
REMARK SMILES IDX 38 69 57 70 58 71 62 72 59 73 61 74 60 75 47 76 48 77 52 78
REMARK SMILES IDX 49 79 51 80 50 81
REMARK H PARENT 16 6 10 11 6 19 23 30 67 49 45 60
REMARK Flexibility Score: inf
ROOT
ATOM      1  C   UNL A   1      35.636  21.998  26.383  1.00  0.00     0.021 C 
ENDROOT
BRANCH   1   2
ATOM      2  C   UNL A   1      34.250  22.586  26.634  1.00  0.00     0.116 C 
BRANCH   2   3
ATOM      3  N   UNL A   1      34.208  23.993  26.303  1.00  0.00    -0.356 N 
ATOM      4  C   UNL A   1      33.749  24.629  25.191  1.00  0.00     0.229 C 
ATOM      5  O   UNL A   1      33.886  25.854  25.146  1.00  0.00    -0.275 OA
ATOM      6  H   UNL A   1      34.573  24.589  26.996  1.00  0.00     0.163 HD
BRANCH   4   7
ATOM      7  C   UNL A   1      33.062  23.893  24.048  1.00  0.00     0.142 C 
ATOM      8  N   UNL A   1      31.997  24.576  21.975  1.00  0.00    -0.324 N 
ATOM      9  C   UNL A   1      33.149  23.731  21.654  1.00  0.00     0.263 C 
ATOM     10  C   UNL A   1      31.852  24.626  23.445  1.00  0.00     0.194 C 
ATOM     11  H   UNL A   1      31.154  24.159  21.580  1.00  0.00     0.348 HD
ATOM     12  C   UNL A   1      33.994  23.561  22.898  1.00  0.00     0.081 C 
ATOM     13  C   UNL A   1      30.550  23.907  23.813  1.00  0.00     0.076 C 
BRANCH   8  14
ATOM     14  C   UNL A   1      32.031  25.897  21.325  1.00  0.00     0.364 C 
BRANCH  14  15
ATOM     15  C   UNL A   1      33.013  26.839  22.014  1.00  0.00     0.284 C 
ATOM     16  C   UNL A   1      31.299  28.222  23.264  1.00  0.00     0.414 C 
ATOM     17  O   UNL A   1      31.151  29.152  24.051  1.00  0.00    -0.224 OA
ATOM     18  N   UNL A   1      32.548  27.864  22.809  1.00  0.00    -0.256 N 
ATOM     19  H   UNL A   1      33.261  28.468  23.119  1.00  0.00     0.176 HD
ATOM     20  O   UNL A   1      34.230  26.730  21.834  1.00  0.00    -0.268 OA
BRANCH  16  21
ATOM     21  O   UNL A   1      30.296  27.455  22.789  1.00  0.00    -0.450 OA
BRANCH  21  22
ATOM     22  C   UNL A   1      28.958  27.818  23.152  1.00  0.00     0.231 C 
ATOM     23  C   UNL A   1      28.287  26.686  23.910  1.00  0.00     0.049 C 
ENDBRANCH  21  22
ENDBRANCH  16  21
ENDBRANCH  14  15
ENDBRANCH   8  14
ENDBRANCH   4   7
ENDBRANCH   2   3
ENDBRANCH   1   2
BRANCH   1  24
ATOM     24  C   UNL A   1      35.662  20.987  25.237  1.00  0.00     0.002 C 
BRANCH  24  25
ATOM     25  C   UNL A   1      36.980  20.960  24.453  1.00  0.00     0.002 C 
BRANCH  25  26
ATOM     26  C   UNL A   1      37.938  19.829  24.840  1.00  0.00     0.021 C 
BRANCH  26  27
ATOM     27  C   UNL A   1      38.950  20.208  25.916  1.00  0.00     0.116 C 
BRANCH  27  28
ATOM     28  N   UNL A   1      40.114  19.336  25.881  1.00  0.00    -0.352 N 
ATOM     29  C   UNL A   1      41.441  19.647  26.021  1.00  0.00     0.251 C 
ATOM     30  H   UNL A   1      39.919  18.382  25.735  1.00  0.00     0.163 HD
ATOM     31  O   UNL A   1      42.303  18.837  25.700  1.00  0.00    -0.269 OA
BRANCH  29  32
ATOM     32  C   UNL A   1      41.830  20.967  26.555  1.00  0.00     0.039 A 
ATOM     33  C   UNL A   1      42.231  21.966  25.665  1.00  0.00     0.014 A 
ATOM     34  C   UNL A   1      41.818  21.210  27.932  1.00  0.00     0.014 A 
ATOM     35  C   UNL A   1      42.572  23.227  26.155  1.00  0.00     0.010 A 
ATOM     36  C   UNL A   1      42.081  22.488  28.410  1.00  0.00     0.010 A 
ATOM     37  C   UNL A   1      42.469  23.507  27.527  1.00  0.00    -0.014 A 
BRANCH  37  38
ATOM     38  C   UNL A   1      42.761  24.863  28.057  1.00  0.00     0.031 A 
ATOM     39  C   UNL A   1      44.155  25.227  28.484  1.00  0.00     0.074 A 
ATOM     40  C   UNL A   1      41.754  25.744  28.208  1.00  0.00     0.049 A 
ATOM     41  N   UNL A   1      44.590  26.345  29.009  1.00  0.00    -0.248 NA
ATOM     42  C   UNL A   1      45.190  24.193  28.329  1.00  0.00     0.031 C 
ATOM     43  C   UNL A   1      40.351  25.497  27.870  1.00  0.00     0.029 A 
ATOM     44  N   UNL A   1      41.757  27.028  28.694  1.00  0.00    -0.354 N 
ATOM     45  C   UNL A   1      45.941  26.141  29.262  1.00  0.00     0.074 A 
ATOM     46  C   UNL A   1      46.241  24.777  28.882  1.00  0.00     0.031 C 
ATOM     47  C   UNL A   1      39.635  26.600  28.131  1.00  0.00     0.029 A 
ATOM     48  C   UNL A   1      40.515  27.617  28.698  1.00  0.00     0.049 A 
ATOM     49  H   UNL A   1      42.571  27.484  29.009  1.00  0.00     0.167 HD
ATOM     50  C   UNL A   1      46.854  27.015  29.750  1.00  0.00     0.031 A 
ATOM     51  C   UNL A   1      40.126  28.834  29.121  1.00  0.00     0.031 A 
ATOM     52  C   UNL A   1      46.551  28.370  30.127  1.00  0.00     0.049 A 
ATOM     53  C   UNL A   1      41.153  29.779  29.676  1.00  0.00     0.074 A 
ATOM     54  C   UNL A   1      47.416  29.354  30.571  1.00  0.00     0.029 A 
ATOM     55  N   UNL A   1      45.281  28.929  30.113  1.00  0.00    -0.354 N 
ATOM     56  N   UNL A   1      42.442  29.600  29.832  1.00  0.00    -0.248 NA
ATOM     57  C   UNL A   1      40.673  31.100  30.103  1.00  0.00     0.031 C 
ATOM     58  C   UNL A   1      46.661  30.486  30.894  1.00  0.00     0.029 A 
ATOM     59  C   UNL A   1      45.335  30.233  30.577  1.00  0.00     0.049 A 
ATOM     60  H   UNL A   1      44.465  28.467  29.817  1.00  0.00     0.167 HD
ATOM     61  C   UNL A   1      42.931  30.793  30.347  1.00  0.00     0.074 A 
ATOM     62  C   UNL A   1      41.803  31.694  30.460  1.00  0.00     0.031 C 
ATOM     63  C   UNL A   1      44.202  31.115  30.693  1.00  0.00     0.031 A 
BRANCH  50  64
ATOM     64  C   UNL A   1      48.264  26.519  29.927  1.00  0.00    -0.014 A 
ATOM     65  C   UNL A   1      49.232  26.682  28.922  1.00  0.00     0.009 A 
ATOM     66  C   UNL A   1      48.638  25.903  31.132  1.00  0.00     0.009 A 
ATOM     67  C   UNL A   1      50.530  26.199  29.102  1.00  0.00     0.001 A 
ATOM     68  C   UNL A   1      49.946  25.453  31.323  1.00  0.00     0.001 A 
ATOM     69  C   UNL A   1      50.887  25.589  30.304  1.00  0.00     0.000 A 
ENDBRANCH  50  64
BRANCH  51  70
ATOM     70  C   UNL A   1      38.694  29.226  29.029  1.00  0.00    -0.014 A 
ATOM     71  C   UNL A   1      37.851  29.117  30.145  1.00  0.00     0.009 A 
ATOM     72  C   UNL A   1      38.167  29.719  27.826  1.00  0.00     0.009 A 
ATOM     73  C   UNL A   1      36.502  29.469  30.049  1.00  0.00     0.001 A 
ATOM     74  C   UNL A   1      36.826  30.101  27.742  1.00  0.00     0.001 A 
ATOM     75  C   UNL A   1      35.993  29.966  28.850  1.00  0.00     0.000 A 
ENDBRANCH  51  70
BRANCH  63  76
ATOM     76  C   UNL A   1      44.448  32.513  31.193  1.00  0.00    -0.014 A 
ATOM     77  C   UNL A   1      44.398  32.822  32.560  1.00  0.00     0.009 A 
ATOM     78  C   UNL A   1      44.778  33.527  30.279  1.00  0.00     0.009 A 
ATOM     79  C   UNL A   1      44.637  34.127  32.998  1.00  0.00     0.001 A 
ATOM     80  C   UNL A   1      45.051  34.821  30.722  1.00  0.00     0.001 A 
ATOM     81  C   UNL A   1      44.969  35.123  32.081  1.00  0.00     0.000 A 
ENDBRANCH  63  76
ENDBRANCH  37  38
ENDBRANCH  29  32
ENDBRANCH  27  28
ENDBRANCH  26  27
ENDBRANCH  25  26
ENDBRANCH  24  25
ENDBRANCH   1  24
TORSDOF 17
ENDMDL
MODEL 2
REMARK VINA RESULT:      -9.9      1.432      6.221
REMARK SMILES CCOC(=O)NC(=O)C[N@H+]1CC[C@@H](C(=O)NCCCCCCNC(=O)c2ccc(-c3c4nc(c(-c5ccccc5)c5ccc([nH]5)c(-c5ccccc5)c5nc(c(-c6ccccc6)c6ccc3[nH]6)C=C5)C=C4)cc2)[C@@H]1C
REMARK SMILES IDX 18 1 17 2 16 3 14 4 15 5 13 7 10 8 11 9 74 10 12 12 75 13
REMARK SMILES IDX 9 14 7 15 4 16 5 17 6 18 8 20 3 21 2 22 1 23 19 24 20 25
REMARK SMILES IDX 21 26 22 27 23 28 24 29 25 31 26 32 27 33 73 34 28 35 72 36
REMARK SMILES IDX 29 37 30 38 31 39 66 40 32 41 71 42 65 43 67 44 33 45 70 46
REMARK SMILES IDX 64 47 63 48 34 50 56 51 41 52 55 53 42 54 45 55 54 56 68 57
REMARK SMILES IDX 43 58 44 59 53 61 69 62 46 63 35 64 36 65 40 66 37 67 39 68
REMARK SMILES IDX 38 69 57 70 58 71 62 72 59 73 61 74 60 75 47 76 48 77 52 78
REMARK SMILES IDX 49 79 51 80 50 81
REMARK H PARENT 16 6 10 11 6 19 23 30 67 49 45 60
REMARK Flexibility Score: inf
ROOT
ATOM      1  C   UNL A   1      33.817  19.819  25.414  1.00  0.00     0.021 C 
ENDROOT
BRANCH   1   2
ATOM      2  C   UNL A   1      32.525  19.234  24.849  1.00  0.00     0.116 C 
BRANCH   2   3
ATOM      3  N   UNL A   1      32.269  19.719  23.512  1.00  0.00    -0.356 N 
ATOM      4  C   UNL A   1      32.235  20.987  23.020  1.00  0.00     0.229 C 
ATOM      5  O   UNL A   1      31.933  21.122  21.831  1.00  0.00    -0.275 OA
ATOM      6  H   UNL A   1      32.088  19.016  22.847  1.00  0.00     0.163 HD
BRANCH   4   7
ATOM      7  C   UNL A   1      32.582  22.206  23.865  1.00  0.00     0.142 C 
ATOM      8  N   UNL A   1      32.497  24.607  23.511  1.00  0.00    -0.324 N 
ATOM      9  C   UNL A   1      31.594  24.263  24.613  1.00  0.00     0.263 C 
ATOM     10  C   UNL A   1      33.197  23.378  23.083  1.00  0.00     0.194 C 
ATOM     11  H   UNL A   1      33.190  25.277  23.843  1.00  0.00     0.348 HD
ATOM     12  C   UNL A   1      31.400  22.762  24.635  1.00  0.00     0.081 C 
ATOM     13  C   UNL A   1      34.680  23.538  23.431  1.00  0.00     0.076 C 
BRANCH   8  14
ATOM     14  C   UNL A   1      31.842  25.345  22.417  1.00  0.00     0.364 C 
BRANCH  14  15
ATOM     15  C   UNL A   1      32.859  25.919  21.438  1.00  0.00     0.284 C 
ATOM     16  C   UNL A   1      33.482  27.965  22.794  1.00  0.00     0.414 C 
ATOM     17  O   UNL A   1      34.199  28.961  22.824  1.00  0.00    -0.224 OA
ATOM     18  N   UNL A   1      33.477  27.122  21.706  1.00  0.00    -0.256 N 
ATOM     19  H   UNL A   1      34.035  27.446  20.963  1.00  0.00     0.176 HD
ATOM     20  O   UNL A   1      33.110  25.346  20.372  1.00  0.00    -0.268 OA
BRANCH  16  21
ATOM     21  O   UNL A   1      32.663  27.581  23.795  1.00  0.00    -0.450 OA
BRANCH  21  22
ATOM     22  C   UNL A   1      32.919  28.117  25.100  1.00  0.00     0.231 C 
ATOM     23  C   UNL A   1      31.619  28.303  25.863  1.00  0.00     0.049 C 
ENDBRANCH  21  22
ENDBRANCH  16  21
ENDBRANCH  14  15
ENDBRANCH   8  14
ENDBRANCH   4   7
ENDBRANCH   2   3
ENDBRANCH   1   2
BRANCH   1  24
ATOM     24  C   UNL A   1      35.059  19.411  24.622  1.00  0.00     0.002 C 
BRANCH  24  25
ATOM     25  C   UNL A   1      36.322  20.202  24.983  1.00  0.00     0.002 C 
BRANCH  25  26
ATOM     26  C   UNL A   1      37.621  19.390  24.958  1.00  0.00     0.021 C 
BRANCH  26  27
ATOM     27  C   UNL A   1      38.849  20.163  25.428  1.00  0.00     0.116 C 
BRANCH  27  28
ATOM     28  N   UNL A   1      39.962  19.270  25.710  1.00  0.00    -0.352 N 
ATOM     29  C   UNL A   1      41.240  19.567  26.107  1.00  0.00     0.251 C 
ATOM     30  H   UNL A   1      39.769  18.311  25.599  1.00  0.00     0.163 HD
ATOM     31  O   UNL A   1      42.121  18.717  26.041  1.00  0.00    -0.269 OA
BRANCH  29  32
ATOM     32  C   UNL A   1      41.553  20.919  26.610  1.00  0.00     0.039 A 
ATOM     33  C   UNL A   1      41.417  21.182  27.975  1.00  0.00     0.014 A 
ATOM     34  C   UNL A   1      41.958  21.929  25.733  1.00  0.00     0.014 A 
ATOM     35  C   UNL A   1      41.739  22.448  28.467  1.00  0.00     0.010 A 
ATOM     36  C   UNL A   1      42.354  23.163  26.235  1.00  0.00     0.010 A 
ATOM     37  C   UNL A   1      42.240  23.438  27.606  1.00  0.00    -0.014 A 
BRANCH  37  38
ATOM     38  C   UNL A   1      42.653  24.766  28.123  1.00  0.00     0.031 A 
ATOM     39  C   UNL A   1      41.629  25.843  28.354  1.00  0.00     0.074 A 
ATOM     40  C   UNL A   1      43.959  25.020  28.327  1.00  0.00     0.049 A 
ATOM     41  N   UNL A   1      41.807  27.075  28.760  1.00  0.00    -0.248 NA
ATOM     42  C   UNL A   1      40.227  25.501  28.065  1.00  0.00     0.031 C 
ATOM     43  C   UNL A   1      45.053  24.073  28.100  1.00  0.00     0.029 A 
ATOM     44  N   UNL A   1      44.590  26.157  28.765  1.00  0.00    -0.354 N 
ATOM     45  C   UNL A   1      40.545  27.657  28.757  1.00  0.00     0.074 A 
ATOM     46  C   UNL A   1      39.621  26.661  28.260  1.00  0.00     0.031 C 
ATOM     47  C   UNL A   1      46.215  24.657  28.427  1.00  0.00     0.029 A 
ATOM     48  C   UNL A   1      45.957  26.032  28.841  1.00  0.00     0.049 A 
ATOM     49  H   UNL A   1      44.111  26.983  29.003  1.00  0.00     0.167 HD
ATOM     50  C   UNL A   1      40.185  28.903  29.148  1.00  0.00     0.031 A 
ATOM     51  C   UNL A   1      46.899  26.927  29.194  1.00  0.00     0.031 A 
ATOM     52  C   UNL A   1      41.108  29.890  29.642  1.00  0.00     0.049 A 
ATOM     53  C   UNL A   1      46.477  28.309  29.607  1.00  0.00     0.074 A 
ATOM     54  C   UNL A   1      40.836  31.158  30.124  1.00  0.00     0.029 A 
ATOM     55  N   UNL A   1      42.484  29.724  29.707  1.00  0.00    -0.354 N 
ATOM     56  N   UNL A   1      45.271  28.819  29.677  1.00  0.00    -0.248 NA
ATOM     57  C   UNL A   1      47.547  29.236  30.001  1.00  0.00     0.031 C 
ATOM     58  C   UNL A   1      42.052  31.785  30.414  1.00  0.00     0.029 A 
ATOM     59  C   UNL A   1      43.077  30.880  30.185  1.00  0.00     0.049 A 
ATOM     60  H   UNL A   1      42.966  28.905  29.450  1.00  0.00     0.167 HD
ATOM     61  C   UNL A   1      45.434  30.114  30.150  1.00  0.00     0.074 A 
ATOM     62  C   UNL A   1      46.854  30.305  30.366  1.00  0.00     0.031 C 
ATOM     63  C   UNL A   1      44.492  31.060  30.387  1.00  0.00     0.031 A 
BRANCH  50  64
ATOM     64  C   UNL A   1      38.731  29.274  29.034  1.00  0.00    -0.014 A 
ATOM     65  C   UNL A   1      38.195  29.787  27.841  1.00  0.00     0.009 A 
ATOM     66  C   UNL A   1      37.876  29.082  30.131  1.00  0.00     0.009 A 
ATOM     67  C   UNL A   1      36.846  30.140  27.764  1.00  0.00     0.001 A 
ATOM     68  C   UNL A   1      36.521  29.402  30.039  1.00  0.00     0.001 A 
ATOM     69  C   UNL A   1      36.010  29.944  28.862  1.00  0.00     0.000 A 
ENDBRANCH  50  64
BRANCH  51  70
ATOM     70  C   UNL A   1      48.333  26.538  29.175  1.00  0.00    -0.014 A 
ATOM     71  C   UNL A   1      49.114  26.741  28.027  1.00  0.00     0.009 A 
ATOM     72  C   UNL A   1      48.932  25.968  30.309  1.00  0.00     0.009 A 
ATOM     73  C   UNL A   1      50.457  26.357  28.009  1.00  0.00     0.001 A 
ATOM     74  C   UNL A   1      50.282  25.615  30.299  1.00  0.00     0.001 A 
ATOM     75  C   UNL A   1      51.041  25.800  29.146  1.00  0.00     0.000 A 
ENDBRANCH  51  70
BRANCH  63  76
ATOM     76  C   UNL A   1      44.962  32.378  30.942  1.00  0.00    -0.014 A 
ATOM     77  C   UNL A   1      45.293  33.451  30.102  1.00  0.00     0.009 A 
ATOM     78  C   UNL A   1      45.031  32.557  32.333  1.00  0.00     0.009 A 
ATOM     79  C   UNL A   1      45.720  34.666  30.644  1.00  0.00     0.001 A 
ATOM     80  C   UNL A   1      45.423  33.783  32.872  1.00  0.00     0.001 A 
ATOM     81  C   UNL A   1      45.778  34.832  32.027  1.00  0.00     0.000 A 
ENDBRANCH  63  76
ENDBRANCH  37  38
ENDBRANCH  29  32
ENDBRANCH  27  28
ENDBRANCH  26  27
ENDBRANCH  25  26
ENDBRANCH  24  25
ENDBRANCH   1  24
TORSDOF 17
ENDMDL
MODEL 3
REMARK VINA RESULT:      -9.9      2.284      3.813
REMARK SMILES CCOC(=O)NC(=O)C[N@H+]1CC[C@@H](C(=O)NCCCCCCNC(=O)c2ccc(-c3c4nc(c(-c5ccccc5)c5ccc([nH]5)c(-c5ccccc5)c5nc(c(-c6ccccc6)c6ccc3[nH]6)C=C5)C=C4)cc2)[C@@H]1C
REMARK SMILES IDX 18 1 17 2 16 3 14 4 15 5 13 7 10 8 11 9 74 10 12 12 75 13
REMARK SMILES IDX 9 14 7 15 4 16 5 17 6 18 8 20 3 21 2 22 1 23 19 24 20 25
REMARK SMILES IDX 21 26 22 27 23 28 24 29 25 31 26 32 27 33 73 34 28 35 72 36
REMARK SMILES IDX 29 37 30 38 31 39 66 40 32 41 71 42 65 43 67 44 33 45 70 46
REMARK SMILES IDX 64 47 63 48 34 50 56 51 41 52 55 53 42 54 45 55 54 56 68 57
REMARK SMILES IDX 43 58 44 59 53 61 69 62 46 63 35 64 36 65 40 66 37 67 39 68
REMARK SMILES IDX 38 69 57 70 58 71 62 72 59 73 61 74 60 75 47 76 48 77 52 78
REMARK SMILES IDX 49 79 51 80 50 81
REMARK H PARENT 16 6 10 11 6 19 23 30 67 49 45 60
REMARK Flexibility Score: inf
ROOT
ATOM      1  C   UNL A   1      33.513  20.851  24.212  1.00  0.00     0.021 C 
ENDROOT
BRANCH   1   2
ATOM      2  C   UNL A   1      32.326  21.512  23.516  1.00  0.00     0.116 C 
BRANCH   2   3
ATOM      3  N   UNL A   1      32.763  22.471  22.526  1.00  0.00    -0.356 N 
ATOM      4  C   UNL A   1      32.702  23.830  22.521  1.00  0.00     0.229 C 
ATOM      5  O   UNL A   1      33.105  24.408  21.508  1.00  0.00    -0.275 OA
ATOM      6  H   UNL A   1      33.172  22.075  21.723  1.00  0.00     0.163 HD
BRANCH   4   7
ATOM      7  C   UNL A   1      32.193  24.635  23.710  1.00  0.00     0.142 C 
ATOM      8  N   UNL A   1      32.174  26.993  24.292  1.00  0.00    -0.324 N 
ATOM      9  C   UNL A   1      30.790  26.525  24.181  1.00  0.00     0.263 C 
ATOM     10  C   UNL A   1      33.072  25.835  24.099  1.00  0.00     0.194 C 
ATOM     11  H   UNL A   1      32.327  27.370  25.226  1.00  0.00     0.348 HD
ATOM     12  C   UNL A   1      30.784  25.164  23.522  1.00  0.00     0.081 C 
ATOM     13  C   UNL A   1      33.786  25.569  25.429  1.00  0.00     0.076 C 
BRANCH   8  14
ATOM     14  C   UNL A   1      32.480  28.147  23.429  1.00  0.00     0.364 C 
BRANCH  14  15
ATOM     15  C   UNL A   1      31.286  29.085  23.299  1.00  0.00     0.284 C 
ATOM     16  C   UNL A   1      31.632  30.340  25.471  1.00  0.00     0.414 C 
ATOM     17  O   UNL A   1      31.200  31.244  26.180  1.00  0.00    -0.224 OA
ATOM     18  N   UNL A   1      30.992  29.978  24.307  1.00  0.00    -0.256 N 
ATOM     19  H   UNL A   1      30.146  30.460  24.164  1.00  0.00     0.176 HD
ATOM     20  O   UNL A   1      30.538  29.030  22.316  1.00  0.00    -0.268 OA
BRANCH  16  21
ATOM     21  O   UNL A   1      32.753  29.635  25.728  1.00  0.00    -0.450 OA
BRANCH  21  22
ATOM     22  C   UNL A   1      33.499  29.986  26.901  1.00  0.00     0.231 C 
ATOM     23  C   UNL A   1      34.764  29.150  26.997  1.00  0.00     0.049 C 
ENDBRANCH  21  22
ENDBRANCH  16  21
ENDBRANCH  14  15
ENDBRANCH   8  14
ENDBRANCH   4   7
ENDBRANCH   2   3
ENDBRANCH   1   2
BRANCH   1  24
ATOM     24  C   UNL A   1      34.453  21.854  24.879  1.00  0.00     0.002 C 
BRANCH  24  25
ATOM     25  C   UNL A   1      35.738  22.131  24.088  1.00  0.00     0.002 C 
BRANCH  25  26
ATOM     26  C   UNL A   1      36.505  23.385  24.522  1.00  0.00     0.021 C 
BRANCH  26  27
ATOM     27  C   UNL A   1      37.022  23.335  25.956  1.00  0.00     0.116 C 
BRANCH  27  28
ATOM     28  N   UNL A   1      38.210  22.503  26.064  1.00  0.00    -0.352 N 
ATOM     29  C   UNL A   1      39.498  22.858  26.369  1.00  0.00     0.251 C 
ATOM     30  H   UNL A   1      38.068  21.544  25.892  1.00  0.00     0.163 HD
ATOM     31  O   UNL A   1      40.421  22.079  26.156  1.00  0.00    -0.269 OA
BRANCH  29  32
ATOM     32  C   UNL A   1      39.771  24.186  26.952  1.00  0.00     0.039 A 
ATOM     33  C   UNL A   1      39.448  24.419  28.290  1.00  0.00     0.014 A 
ATOM     34  C   UNL A   1      40.326  25.206  26.172  1.00  0.00     0.014 A 
ATOM     35  C   UNL A   1      39.730  25.660  28.861  1.00  0.00     0.010 A 
ATOM     36  C   UNL A   1      40.678  26.413  26.762  1.00  0.00     0.010 A 
ATOM     37  C   UNL A   1      40.376  26.656  28.110  1.00  0.00    -0.014 A 
BRANCH  37  38
ATOM     38  C   UNL A   1      40.746  27.958  28.721  1.00  0.00     0.031 A 
ATOM     39  C   UNL A   1      42.133  28.179  29.255  1.00  0.00     0.074 A 
ATOM     40  C   UNL A   1      39.810  28.917  28.848  1.00  0.00     0.049 A 
ATOM     41  N   UNL A   1      42.625  29.232  29.859  1.00  0.00    -0.248 NA
ATOM     42  C   UNL A   1      43.085  27.065  29.117  1.00  0.00     0.031 C 
ATOM     43  C   UNL A   1      38.418  28.808  28.409  1.00  0.00     0.029 A 
ATOM     44  N   UNL A   1      39.889  30.174  29.393  1.00  0.00    -0.354 N 
ATOM     45  C   UNL A   1      43.933  28.899  30.188  1.00  0.00     0.074 A 
ATOM     46  C   UNL A   1      44.142  27.531  29.765  1.00  0.00     0.031 C 
ATOM     47  C   UNL A   1      37.782  29.959  28.674  1.00  0.00     0.029 A 
ATOM     48  C   UNL A   1      38.704  30.869  29.345  1.00  0.00     0.049 A 
ATOM     49  H   UNL A   1      40.715  30.543  29.781  1.00  0.00     0.167 HD
ATOM     50  C   UNL A   1      44.881  29.668  30.775  1.00  0.00     0.031 A 
ATOM     51  C   UNL A   1      38.392  32.097  29.798  1.00  0.00     0.031 A 
ATOM     52  C   UNL A   1      44.670  31.028  31.195  1.00  0.00     0.049 A 
ATOM     53  C   UNL A   1      39.455  32.925  30.464  1.00  0.00     0.074 A 
ATOM     54  C   UNL A   1      45.583  31.912  31.741  1.00  0.00     0.029 A 
ATOM     55  N   UNL A   1      43.456  31.697  31.126  1.00  0.00    -0.354 N 
ATOM     56  N   UNL A   1      40.711  32.627  30.694  1.00  0.00    -0.248 NA
ATOM     57  C   UNL A   1      39.061  34.264  30.920  1.00  0.00     0.031 C 
ATOM     58  C   UNL A   1      44.907  33.092  32.067  1.00  0.00     0.029 A 
ATOM     59  C   UNL A   1      43.589  32.970  31.654  1.00  0.00     0.049 A 
ATOM     60  H   UNL A   1      42.626  31.321  30.756  1.00  0.00     0.167 HD
ATOM     61  C   UNL A   1      41.263  33.750  31.296  1.00  0.00     0.074 A 
ATOM     62  C   UNL A   1      40.210  34.741  31.377  1.00  0.00     0.031 C 
ATOM     63  C   UNL A   1      42.530  33.944  31.737  1.00  0.00     0.031 A 
BRANCH  50  64
ATOM     64  C   UNL A   1      46.229  29.043  31.020  1.00  0.00    -0.014 A 
ATOM     65  C   UNL A   1      46.520  28.370  32.218  1.00  0.00     0.009 A 
ATOM     66  C   UNL A   1      47.215  29.106  30.023  1.00  0.00     0.009 A 
ATOM     67  C   UNL A   1      47.784  27.813  32.429  1.00  0.00     0.001 A 
ATOM     68  C   UNL A   1      48.465  28.517  30.222  1.00  0.00     0.001 A 
ATOM     69  C   UNL A   1      48.753  27.883  31.429  1.00  0.00     0.000 A 
ENDBRANCH  50  64
BRANCH  51  70
ATOM     70  C   UNL A   1      37.009  32.618  29.633  1.00  0.00    -0.014 A 
ATOM     71  C   UNL A   1      36.636  33.298  28.464  1.00  0.00     0.009 A 
ATOM     72  C   UNL A   1      36.052  32.429  30.642  1.00  0.00     0.009 A 
ATOM     73  C   UNL A   1      35.340  33.801  28.322  1.00  0.00     0.001 A 
ATOM     74  C   UNL A   1      34.749  32.905  30.483  1.00  0.00     0.001 A 
ATOM     75  C   UNL A   1      34.396  33.599  29.328  1.00  0.00     0.000 A 
ENDBRANCH  51  70
BRANCH  63  76
ATOM     76  C   UNL A   1      42.859  35.292  32.318  1.00  0.00    -0.014 A 
ATOM     77  C   UNL A   1      42.566  35.608  33.653  1.00  0.00     0.009 A 
ATOM     78  C   UNL A   1      43.514  36.247  31.523  1.00  0.00     0.009 A 
ATOM     79  C   UNL A   1      42.888  36.865  34.169  1.00  0.00     0.001 A 
ATOM     80  C   UNL A   1      43.867  37.489  32.050  1.00  0.00     0.001 A 
ATOM     81  C   UNL A   1      43.544  37.802  33.370  1.00  0.00     0.000 A 
ENDBRANCH  63  76
ENDBRANCH  37  38
ENDBRANCH  29  32
ENDBRANCH  27  28
ENDBRANCH  26  27
ENDBRANCH  25  26
ENDBRANCH  24  25
ENDBRANCH   1  24
TORSDOF 17
ENDMDL
