MODEL 1
REMARK VINA RESULT:     -12.0      0.000      0.000
REMARK SMILES COc1cc2c(cc1OC)[C@H](C(=O)NCCCCCCNC(=O)c1ccc(-c3c4nc(c(-c5ccccc5)c5ccc([nH]5)c(-c5ccccc5)c5nc(c(-c6ccccc6)c6ccc3[nH]6)C=C5)C=C4)cc1)[C@H](c1cccc(Cl)c1)N(C)C2=O
REMARK SMILES IDX 18 1 17 2 16 3 15 4 14 5 12 6 13 7 11 9 3 10 4 11 8 12 5 13
REMARK SMILES IDX 7 14 6 15 82 16 80 17 83 18 72 19 81 20 2 21 1 22 9 23 10 24
REMARK SMILES IDX 73 25 74 26 79 27 75 28 77 29 76 30 78 31 19 32 20 33 21 34
REMARK SMILES IDX 22 35 23 37 24 38 25 39 71 40 26 41 70 42 27 43 28 44 29 45
REMARK SMILES IDX 64 46 30 47 69 48 63 49 65 50 31 51 68 52 62 53 61 54 32 56
REMARK SMILES IDX 54 57 39 58 53 59 40 60 43 61 52 62 66 63 41 64 42 65 51 67
REMARK SMILES IDX 67 68 44 69 33 70 34 71 38 72 35 73 37 74 36 75 55 76 56 77
REMARK SMILES IDX 60 78 57 79 59 80 58 81 45 82 46 83 50 84 47 85 49 86 48 87
REMARK H PARENT 14 8 21 36 65 55 43 66
REMARK Flexibility Score: inf
ROOT
ATOM      1  C   UNL A   1      34.165  33.356  29.006  1.00  0.00     0.002 C 
ENDROOT
BRANCH   1   2
ATOM      2  C   UNL A   1      34.341  32.424  27.803  1.00  0.00     0.002 C 
BRANCH   2   3
ATOM      3  C   UNL A   1      34.566  30.947  28.161  1.00  0.00     0.021 C 
BRANCH   3   4
ATOM      4  C   UNL A   1      34.034  29.965  27.117  1.00  0.00     0.116 C 
BRANCH   4   5
ATOM      5  N   UNL A   1      33.045  29.101  27.729  1.00  0.00    -0.355 N 
ATOM      6  C   UNL A   1      32.288  28.131  27.149  1.00  0.00     0.230 C 
ATOM      7  O   UNL A   1      31.181  27.957  27.654  1.00  0.00    -0.274 OA
ATOM      8  H   UNL A   1      32.901  29.233  28.694  1.00  0.00     0.163 HD
BRANCH   6   9
ATOM      9  C   UNL A   1      32.776  27.428  25.893  1.00  0.00     0.136 C 
ATOM     10  C   UNL A   1      31.961  23.207  25.196  1.00  0.00     0.161 A 
ATOM     11  C   UNL A   1      32.614  24.004  24.246  1.00  0.00     0.064 A 
ATOM     12  C   UNL A   1      31.550  23.780  26.408  1.00  0.00     0.161 A 
ATOM     13  C   UNL A   1      32.869  25.357  24.505  1.00  0.00     0.048 A 
ATOM     14  C   UNL A   1      31.785  25.147  26.642  1.00  0.00     0.056 A 
ATOM     15  C   UNL A   1      32.459  25.948  25.713  1.00  0.00    -0.016 A 
ATOM     16  C   UNL A   1      33.520  26.195  23.449  1.00  0.00     0.254 C 
ATOM     17  N   UNL A   1      33.317  27.576  23.535  1.00  0.00    -0.333 N 
ATOM     18  O   UNL A   1      34.167  25.655  22.558  1.00  0.00    -0.269 OA
ATOM     19  C   UNL A   1      32.406  28.150  24.560  1.00  0.00     0.132 C 
ATOM     20  C   UNL A   1      33.873  28.440  22.510  1.00  0.00     0.147 C 
BRANCH  10  21
ATOM     21  O   UNL A   1      31.614  21.911  24.917  1.00  0.00    -0.493 OA
ATOM     22  C   UNL A   1      32.603  20.934  25.231  1.00  0.00     0.278 C 
ENDBRANCH  10  21
BRANCH  12  23
ATOM     23  O   UNL A   1      30.916  23.179  27.464  1.00  0.00    -0.493 OA
ATOM     24  C   UNL A   1      29.517  22.950  27.378  1.00  0.00     0.278 C 
ENDBRANCH  12  23
BRANCH  19  25
ATOM     25  C   UNL A   1      30.923  28.079  24.132  1.00  0.00    -0.023 A 
ATOM     26  C   UNL A   1      30.152  26.936  24.405  1.00  0.00     0.006 A 
ATOM     27  C   UNL A   1      30.276  29.126  23.451  1.00  0.00     0.026 A 
ATOM     28  C   UNL A   1      28.847  26.789  23.925  1.00  0.00     0.002 A 
ATOM     29  C   UNL A   1      28.961  28.990  22.991  1.00  0.00     0.041 A 
ATOM     30  C   UNL A   1      28.254  27.814  23.203  1.00  0.00     0.020 A 
ATOM     31  Cl  UNL A   1      28.215  30.292  22.149  1.00  0.00    -0.084 Cl
ENDBRANCH  19  25
ENDBRANCH   6   9
ENDBRANCH   4   5
ENDBRANCH   3   4
ENDBRANCH   2   3
ENDBRANCH   1   2
BRANCH   1  32
ATOM     32  C   UNL A   1      33.045  34.384  28.851  1.00  0.00     0.021 C 
BRANCH  32  33
ATOM     33  C   UNL A   1      33.400  35.771  29.366  1.00  0.00     0.116 C 
BRANCH  33  34
ATOM     34  N   UNL A   1      32.570  36.168  30.490  1.00  0.00    -0.352 N 
ATOM     35  C   UNL A   1      32.687  35.810  31.809  1.00  0.00     0.251 C 
ATOM     36  H   UNL A   1      31.824  36.775  30.279  1.00  0.00     0.163 HD
ATOM     37  O   UNL A   1      31.799  36.082  32.612  1.00  0.00    -0.269 OA
BRANCH  35  38
ATOM     38  C   UNL A   1      33.886  35.070  32.250  1.00  0.00     0.039 A 
ATOM     39  C   UNL A   1      33.744  33.753  32.690  1.00  0.00     0.014 A 
ATOM     40  C   UNL A   1      35.147  35.671  32.210  1.00  0.00     0.014 A 
ATOM     41  C   UNL A   1      34.878  33.020  33.043  1.00  0.00     0.010 A 
ATOM     42  C   UNL A   1      36.281  34.915  32.482  1.00  0.00     0.010 A 
ATOM     43  C   UNL A   1      36.157  33.586  32.914  1.00  0.00    -0.014 A 
BRANCH  43  44
ATOM     44  C   UNL A   1      37.377  32.809  33.243  1.00  0.00     0.031 A 
ATOM     45  C   UNL A   1      38.108  33.068  34.532  1.00  0.00     0.074 A 
ATOM     46  C   UNL A   1      37.858  31.910  32.363  1.00  0.00     0.049 A 
ATOM     47  N   UNL A   1      39.216  32.531  34.977  1.00  0.00    -0.248 NA
ATOM     48  C   UNL A   1      37.534  34.085  35.429  1.00  0.00     0.031 C 
ATOM     49  C   UNL A   1      37.261  31.590  31.064  1.00  0.00     0.029 A 
ATOM     50  N   UNL A   1      38.963  31.100  32.428  1.00  0.00    -0.354 N 
ATOM     51  C   UNL A   1      39.476  33.152  36.191  1.00  0.00     0.074 A 
ATOM     52  C   UNL A   1      38.446  34.148  36.387  1.00  0.00     0.031 C 
ATOM     53  C   UNL A   1      37.989  30.631  30.471  1.00  0.00     0.029 A 
ATOM     54  C   UNL A   1      39.126  30.300  31.324  1.00  0.00     0.049 A 
ATOM     55  H   UNL A   1      39.582  31.093  33.194  1.00  0.00     0.167 HD
ATOM     56  C   UNL A   1      40.469  32.903  37.077  1.00  0.00     0.031 A 
ATOM     57  C   UNL A   1      40.087  29.404  31.028  1.00  0.00     0.031 A 
ATOM     58  C   UNL A   1      41.490  31.909  36.884  1.00  0.00     0.049 A 
ATOM     59  C   UNL A   1      41.196  29.166  32.015  1.00  0.00     0.074 A 
ATOM     60  C   UNL A   1      42.512  31.546  37.744  1.00  0.00     0.029 A 
ATOM     61  N   UNL A   1      41.621  31.122  35.750  1.00  0.00    -0.354 N 
ATOM     62  N   UNL A   1      41.391  29.715  33.190  1.00  0.00    -0.248 NA
ATOM     63  C   UNL A   1      42.213  28.174  31.639  1.00  0.00     0.031 C 
ATOM     64  C   UNL A   1      43.296  30.581  37.105  1.00  0.00     0.029 A 
ATOM     65  C   UNL A   1      42.724  30.293  35.877  1.00  0.00     0.049 A 
ATOM     66  H   UNL A   1      41.020  31.149  34.971  1.00  0.00     0.167 HD
ATOM     67  C   UNL A   1      42.530  29.111  33.707  1.00  0.00     0.074 A 
ATOM     68  C   UNL A   1      42.974  28.144  32.724  1.00  0.00     0.031 C 
ATOM     69  C   UNL A   1      43.151  29.335  34.891  1.00  0.00     0.031 A 
BRANCH  56  70
ATOM     70  C   UNL A   1      40.502  33.732  38.332  1.00  0.00    -0.014 A 
ATOM     71  C   UNL A   1      39.829  33.324  39.495  1.00  0.00     0.009 A 
ATOM     72  C   UNL A   1      41.243  34.924  38.361  1.00  0.00     0.009 A 
ATOM     73  C   UNL A   1      39.863  34.113  40.647  1.00  0.00     0.001 A 
ATOM     74  C   UNL A   1      41.303  35.694  39.525  1.00  0.00     0.001 A 
ATOM     75  C   UNL A   1      40.605  35.293  40.662  1.00  0.00     0.000 A 
ENDBRANCH  56  70
BRANCH  57  76
ATOM     76  C   UNL A   1      40.039  28.654  29.745  1.00  0.00    -0.014 A 
ATOM     77  C   UNL A   1      40.588  29.202  28.576  1.00  0.00     0.009 A 
ATOM     78  C   UNL A   1      39.431  27.390  29.678  1.00  0.00     0.009 A 
ATOM     79  C   UNL A   1      40.501  28.517  27.363  1.00  0.00     0.001 A 
ATOM     80  C   UNL A   1      39.375  26.693  28.470  1.00  0.00     0.001 A 
ATOM     81  C   UNL A   1      39.900  27.261  27.311  1.00  0.00     0.000 A 
ENDBRANCH  57  76
BRANCH  69  82
ATOM     82  C   UNL A   1      44.353  28.489  35.209  1.00  0.00    -0.014 A 
ATOM     83  C   UNL A   1      45.652  28.900  34.871  1.00  0.00     0.009 A 
ATOM     84  C   UNL A   1      44.181  27.278  35.899  1.00  0.00     0.009 A 
ATOM     85  C   UNL A   1      46.751  28.096  35.185  1.00  0.00     0.001 A 
ATOM     86  C   UNL A   1      45.283  26.494  36.241  1.00  0.00     0.001 A 
ATOM     87  C   UNL A   1      46.566  26.898  35.875  1.00  0.00     0.000 A 
ENDBRANCH  69  82
ENDBRANCH  43  44
ENDBRANCH  35  38
ENDBRANCH  33  34
ENDBRANCH  32  33
ENDBRANCH   1  32
TORSDOF 16
ENDMDL
MODEL 2
REMARK VINA RESULT:     -11.9      4.407      6.975
REMARK SMILES COc1cc2c(cc1OC)[C@H](C(=O)NCCCCCCNC(=O)c1ccc(-c3c4nc(c(-c5ccccc5)c5ccc([nH]5)c(-c5ccccc5)c5nc(c(-c6ccccc6)c6ccc3[nH]6)C=C5)C=C4)cc1)[C@H](c1cccc(Cl)c1)N(C)C2=O
REMARK SMILES IDX 18 1 17 2 16 3 15 4 14 5 12 6 13 7 11 9 3 10 4 11 8 12 5 13
REMARK SMILES IDX 7 14 6 15 82 16 80 17 83 18 72 19 81 20 2 21 1 22 9 23 10 24
REMARK SMILES IDX 73 25 74 26 79 27 75 28 77 29 76 30 78 31 19 32 20 33 21 34
REMARK SMILES IDX 22 35 23 37 24 38 25 39 71 40 26 41 70 42 27 43 28 44 29 45
REMARK SMILES IDX 64 46 30 47 69 48 63 49 65 50 31 51 68 52 62 53 61 54 32 56
REMARK SMILES IDX 54 57 39 58 53 59 40 60 43 61 52 62 66 63 41 64 42 65 51 67
REMARK SMILES IDX 67 68 44 69 33 70 34 71 38 72 35 73 37 74 36 75 55 76 56 77
REMARK SMILES IDX 60 78 57 79 59 80 58 81 45 82 46 83 50 84 47 85 49 86 48 87
REMARK H PARENT 14 8 21 36 65 55 43 66
REMARK Flexibility Score: inf
ROOT
ATOM      1  C   UNL A   1      31.420  27.463  26.895  1.00  0.00     0.002 C 
ENDROOT
BRANCH   1   2
ATOM      2  C   UNL A   1      30.903  26.402  25.920  1.00  0.00     0.002 C 
BRANCH   2   3
ATOM      3  C   UNL A   1      29.757  25.533  26.462  1.00  0.00     0.021 C 
BRANCH   3   4
ATOM      4  C   UNL A   1      30.113  24.054  26.613  1.00  0.00     0.116 C 
BRANCH   4   5
ATOM      5  N   UNL A   1      31.479  23.933  27.079  1.00  0.00    -0.355 N 
ATOM      6  C   UNL A   1      32.410  22.998  26.750  1.00  0.00     0.230 C 
ATOM      7  O   UNL A   1      33.222  22.731  27.634  1.00  0.00    -0.274 OA
ATOM      8  H   UNL A   1      31.774  24.619  27.721  1.00  0.00     0.163 HD
BRANCH   6   9
ATOM      9  C   UNL A   1      32.331  22.275  25.415  1.00  0.00     0.136 C 
ATOM     10  C   UNL A   1      33.053  24.360  21.661  1.00  0.00     0.161 A 
ATOM     11  C   UNL A   1      32.814  22.980  21.710  1.00  0.00     0.064 A 
ATOM     12  C   UNL A   1      33.067  25.098  22.854  1.00  0.00     0.161 A 
ATOM     13  C   UNL A   1      32.576  22.341  22.935  1.00  0.00     0.048 A 
ATOM     14  C   UNL A   1      32.858  24.438  24.078  1.00  0.00     0.056 A 
ATOM     15  C   UNL A   1      32.592  23.065  24.139  1.00  0.00    -0.016 A 
ATOM     16  C   UNL A   1      32.378  20.857  22.959  1.00  0.00     0.254 C 
ATOM     17  N   UNL A   1      32.630  20.214  24.175  1.00  0.00    -0.333 N 
ATOM     18  O   UNL A   1      32.036  20.273  21.937  1.00  0.00    -0.269 OA
ATOM     19  C   UNL A   1      33.177  20.966  25.336  1.00  0.00     0.132 C 
ATOM     20  C   UNL A   1      32.512  18.770  24.251  1.00  0.00     0.147 C 
BRANCH  10  21
ATOM     21  O   UNL A   1      33.387  24.982  20.487  1.00  0.00    -0.493 OA
ATOM     22  C   UNL A   1      32.288  25.431  19.700  1.00  0.00     0.278 C 
ENDBRANCH  10  21
BRANCH  12  23
ATOM     23  O   UNL A   1      33.265  26.444  23.022  1.00  0.00    -0.493 OA
ATOM     24  C   UNL A   1      32.202  27.333  22.710  1.00  0.00     0.278 C 
ENDBRANCH  12  23
BRANCH  19  25
ATOM     25  C   UNL A   1      34.709  21.145  25.249  1.00  0.00    -0.023 A 
ATOM     26  C   UNL A   1      35.538  20.068  24.888  1.00  0.00     0.006 A 
ATOM     27  C   UNL A   1      35.351  22.365  25.528  1.00  0.00     0.026 A 
ATOM     28  C   UNL A   1      36.932  20.161  24.919  1.00  0.00     0.002 A 
ATOM     29  C   UNL A   1      36.746  22.467  25.535  1.00  0.00     0.041 A 
ATOM     30  C   UNL A   1      37.539  21.361  25.257  1.00  0.00     0.020 A 
ATOM     31  Cl  UNL A   1      37.487  23.977  25.897  1.00  0.00    -0.084 Cl
ENDBRANCH  19  25
ENDBRANCH   6   9
ENDBRANCH   4   5
ENDBRANCH   3   4
ENDBRANCH   2   3
ENDBRANCH   1   2
BRANCH   1  32
ATOM     32  C   UNL A   1      32.556  28.326  26.346  1.00  0.00     0.021 C 
BRANCH  32  33
ATOM     33  C   UNL A   1      33.629  28.665  27.371  1.00  0.00     0.116 C 
BRANCH  33  34
ATOM     34  N   UNL A   1      33.610  30.069  27.742  1.00  0.00    -0.352 N 
ATOM     35  C   UNL A   1      34.595  30.807  28.346  1.00  0.00     0.251 C 
ATOM     36  H   UNL A   1      32.782  30.556  27.531  1.00  0.00     0.163 HD
ATOM     37  O   UNL A   1      34.362  31.939  28.762  1.00  0.00    -0.269 OA
BRANCH  35  38
ATOM     38  C   UNL A   1      35.937  30.216  28.517  1.00  0.00     0.039 A 
ATOM     39  C   UNL A   1      36.840  30.270  27.454  1.00  0.00     0.014 A 
ATOM     40  C   UNL A   1      36.306  29.630  29.731  1.00  0.00     0.014 A 
ATOM     41  C   UNL A   1      38.135  29.779  27.626  1.00  0.00     0.010 A 
ATOM     42  C   UNL A   1      37.619  29.218  29.927  1.00  0.00     0.010 A 
ATOM     43  C   UNL A   1      38.543  29.276  28.872  1.00  0.00    -0.014 A 
BRANCH  43  44
ATOM     44  C   UNL A   1      39.927  28.788  29.088  1.00  0.00     0.031 A 
ATOM     45  C   UNL A   1      40.960  29.698  29.693  1.00  0.00     0.074 A 
ATOM     46  C   UNL A   1      40.269  27.545  28.693  1.00  0.00     0.049 A 
ATOM     47  N   UNL A   1      42.231  29.474  29.916  1.00  0.00    -0.248 NA
ATOM     48  C   UNL A   1      40.514  31.049  30.074  1.00  0.00     0.031 C 
ATOM     49  C   UNL A   1      39.369  26.577  28.064  1.00  0.00     0.029 A 
ATOM     50  N   UNL A   1      41.470  26.887  28.763  1.00  0.00    -0.354 N 
ATOM     51  C   UNL A   1      42.734  30.655  30.446  1.00  0.00     0.074 A 
ATOM     52  C   UNL A   1      41.650  31.612  30.457  1.00  0.00     0.031 C 
ATOM     53  C   UNL A   1      40.041  25.438  27.835  1.00  0.00     0.029 A 
ATOM     54  C   UNL A   1      41.428  25.610  28.257  1.00  0.00     0.049 A 
ATOM     55  H   UNL A   1      42.285  27.290  29.139  1.00  0.00     0.167 HD
ATOM     56  C   UNL A   1      43.981  30.915  30.904  1.00  0.00     0.031 A 
ATOM     57  C   UNL A   1      42.398  24.683  28.142  1.00  0.00     0.031 A 
ATOM     58  C   UNL A   1      45.058  29.962  30.898  1.00  0.00     0.049 A 
ATOM     59  C   UNL A   1      43.782  25.007  28.632  1.00  0.00     0.074 A 
ATOM     60  C   UNL A   1      46.344  30.113  31.385  1.00  0.00     0.029 A 
ATOM     61  N   UNL A   1      44.974  28.681  30.375  1.00  0.00    -0.354 N 
ATOM     62  N   UNL A   1      44.226  26.107  29.192  1.00  0.00    -0.248 NA
ATOM     63  C   UNL A   1      44.798  23.955  28.483  1.00  0.00     0.031 C 
ATOM     64  C   UNL A   1      47.057  28.943  31.102  1.00  0.00     0.029 A 
ATOM     65  C   UNL A   1      46.195  28.040  30.502  1.00  0.00     0.049 A 
ATOM     66  H   UNL A   1      44.167  28.287  29.972  1.00  0.00     0.167 HD
ATOM     67  C   UNL A   1      45.561  25.866  29.494  1.00  0.00     0.074 A 
ATOM     68  C   UNL A   1      45.849  24.512  29.068  1.00  0.00     0.031 C 
ATOM     69  C   UNL A   1      46.466  26.692  30.075  1.00  0.00     0.031 A 
BRANCH  56  70
ATOM     70  C   UNL A   1      44.248  32.296  31.441  1.00  0.00    -0.014 A 
ATOM     71  C   UNL A   1      44.697  33.330  30.605  1.00  0.00     0.009 A 
ATOM     72  C   UNL A   1      44.016  32.573  32.797  1.00  0.00     0.009 A 
ATOM     73  C   UNL A   1      44.949  34.602  31.125  1.00  0.00     0.001 A 
ATOM     74  C   UNL A   1      44.236  33.855  33.307  1.00  0.00     0.001 A 
ATOM     75  C   UNL A   1      44.712  34.864  32.473  1.00  0.00     0.000 A 
ENDBRANCH  56  70
BRANCH  57  76
ATOM     76  C   UNL A   1      42.095  23.354  27.549  1.00  0.00    -0.014 A 
ATOM     77  C   UNL A   1      41.416  22.378  28.294  1.00  0.00     0.009 A 
ATOM     78  C   UNL A   1      42.495  23.047  26.239  1.00  0.00     0.009 A 
ATOM     79  C   UNL A   1      41.173  21.114  27.753  1.00  0.00     0.001 A 
ATOM     80  C   UNL A   1      42.222  21.793  25.688  1.00  0.00     0.001 A 
ATOM     81  C   UNL A   1      41.571  20.824  26.449  1.00  0.00     0.000 A 
ENDBRANCH  57  76
BRANCH  69  82
ATOM     82  C   UNL A   1      47.842  26.139  30.324  1.00  0.00    -0.014 A 
ATOM     83  C   UNL A   1      48.803  26.071  29.304  1.00  0.00     0.009 A 
ATOM     84  C   UNL A   1      48.193  25.719  31.617  1.00  0.00     0.009 A 
ATOM     85  C   UNL A   1      50.076  25.559  29.566  1.00  0.00     0.001 A 
ATOM     86  C   UNL A   1      49.476  25.240  31.884  1.00  0.00     0.001 A 
ATOM     87  C   UNL A   1      50.413  25.150  30.856  1.00  0.00     0.000 A 
ENDBRANCH  69  82
ENDBRANCH  43  44
ENDBRANCH  35  38
ENDBRANCH  33  34
ENDBRANCH  32  33
ENDBRANCH   1  32
TORSDOF 16
ENDMDL
MODEL 3
REMARK VINA RESULT:     -11.8      0.471      5.607
REMARK SMILES COc1cc2c(cc1OC)[C@H](C(=O)NCCCCCCNC(=O)c1ccc(-c3c4nc(c(-c5ccccc5)c5ccc([nH]5)c(-c5ccccc5)c5nc(c(-c6ccccc6)c6ccc3[nH]6)C=C5)C=C4)cc1)[C@H](c1cccc(Cl)c1)N(C)C2=O
REMARK SMILES IDX 18 1 17 2 16 3 15 4 14 5 12 6 13 7 11 9 3 10 4 11 8 12 5 13
REMARK SMILES IDX 7 14 6 15 82 16 80 17 83 18 72 19 81 20 2 21 1 22 9 23 10 24
REMARK SMILES IDX 73 25 74 26 79 27 75 28 77 29 76 30 78 31 19 32 20 33 21 34
REMARK SMILES IDX 22 35 23 37 24 38 25 39 71 40 26 41 70 42 27 43 28 44 29 45
REMARK SMILES IDX 64 46 30 47 69 48 63 49 65 50 31 51 68 52 62 53 61 54 32 56
REMARK SMILES IDX 54 57 39 58 53 59 40 60 43 61 52 62 66 63 41 64 42 65 51 67
REMARK SMILES IDX 67 68 44 69 33 70 34 71 38 72 35 73 37 74 36 75 55 76 56 77
REMARK SMILES IDX 60 78 57 79 59 80 58 81 45 82 46 83 50 84 47 85 49 86 48 87
REMARK H PARENT 14 8 21 36 65 55 43 66
REMARK Flexibility Score: inf
ROOT
ATOM      1  C   UNL A   1      34.955  33.257  28.441  1.00  0.00     0.002 C 
ENDROOT
BRANCH   1   2
ATOM      2  C   UNL A   1      34.774  31.742  28.577  1.00  0.00     0.002 C 
BRANCH   2   3
ATOM      3  C   UNL A   1      33.882  31.101  27.502  1.00  0.00     0.021 C 
BRANCH   3   4
ATOM      4  C   UNL A   1      34.185  29.625  27.240  1.00  0.00     0.116 C 
BRANCH   4   5
ATOM      5  N   UNL A   1      33.115  28.812  27.781  1.00  0.00    -0.355 N 
ATOM      6  C   UNL A   1      32.301  27.936  27.131  1.00  0.00     0.230 C 
ATOM      7  O   UNL A   1      31.170  27.825  27.599  1.00  0.00    -0.274 OA
ATOM      8  H   UNL A   1      32.954  28.906  28.747  1.00  0.00     0.163 HD
BRANCH   6   9
ATOM      9  C   UNL A   1      32.768  27.263  25.851  1.00  0.00     0.136 C 
ATOM     10  C   UNL A   1      31.948  23.057  25.073  1.00  0.00     0.161 A 
ATOM     11  C   UNL A   1      32.583  23.877  24.130  1.00  0.00     0.064 A 
ATOM     12  C   UNL A   1      31.557  23.602  26.305  1.00  0.00     0.161 A 
ATOM     13  C   UNL A   1      32.841  25.224  24.416  1.00  0.00     0.048 A 
ATOM     14  C   UNL A   1      31.794  24.964  26.565  1.00  0.00     0.056 A 
ATOM     15  C   UNL A   1      32.451  25.787  25.644  1.00  0.00    -0.016 A 
ATOM     16  C   UNL A   1      33.472  26.087  23.368  1.00  0.00     0.254 C 
ATOM     17  N   UNL A   1      33.268  27.465  23.488  1.00  0.00    -0.333 N 
ATOM     18  O   UNL A   1      34.104  25.569  22.454  1.00  0.00    -0.269 OA
ATOM     19  C   UNL A   1      32.374  28.014  24.542  1.00  0.00     0.132 C 
ATOM     20  C   UNL A   1      33.805  28.352  22.473  1.00  0.00     0.147 C 
BRANCH  10  21
ATOM     21  O   UNL A   1      31.598  21.767  24.772  1.00  0.00    -0.493 OA
ATOM     22  C   UNL A   1      32.678  20.913  24.402  1.00  0.00     0.278 C 
ENDBRANCH  10  21
BRANCH  12  23
ATOM     23  O   UNL A   1      30.942  22.976  27.359  1.00  0.00    -0.493 OA
ATOM     24  C   UNL A   1      29.530  22.831  27.335  1.00  0.00     0.278 C 
ENDBRANCH  12  23
BRANCH  19  25
ATOM     25  C   UNL A   1      30.884  27.950  24.137  1.00  0.00    -0.023 A 
ATOM     26  C   UNL A   1      30.124  26.794  24.383  1.00  0.00     0.006 A 
ATOM     27  C   UNL A   1      30.220  29.016  23.506  1.00  0.00     0.026 A 
ATOM     28  C   UNL A   1      28.812  26.656  23.921  1.00  0.00     0.002 A 
ATOM     29  C   UNL A   1      28.898  28.890  23.065  1.00  0.00     0.041 A 
ATOM     30  C   UNL A   1      28.200  27.703  23.247  1.00  0.00     0.020 A 
ATOM     31  Cl  UNL A   1      28.130  30.216  22.283  1.00  0.00    -0.084 Cl
ENDBRANCH  19  25
ENDBRANCH   6   9
ENDBRANCH   4   5
ENDBRANCH   3   4
ENDBRANCH   2   3
ENDBRANCH   1   2
BRANCH   1  32
ATOM     32  C   UNL A   1      33.654  34.056  28.494  1.00  0.00     0.021 C 
BRANCH  32  33
ATOM     33  C   UNL A   1      33.802  35.443  29.104  1.00  0.00     0.116 C 
BRANCH  33  34
ATOM     34  N   UNL A   1      32.844  35.680  30.170  1.00  0.00    -0.352 N 
ATOM     35  C   UNL A   1      32.894  35.257  31.474  1.00  0.00     0.251 C 
ATOM     36  H   UNL A   1      32.055  36.214  29.925  1.00  0.00     0.163 HD
ATOM     37  O   UNL A   1      31.919  35.382  32.209  1.00  0.00    -0.269 OA
BRANCH  35  38
ATOM     38  C   UNL A   1      34.128  34.625  31.980  1.00  0.00     0.039 A 
ATOM     39  C   UNL A   1      34.057  33.342  32.524  1.00  0.00     0.014 A 
ATOM     40  C   UNL A   1      35.353  35.292  31.897  1.00  0.00     0.014 A 
ATOM     41  C   UNL A   1      35.227  32.706  32.941  1.00  0.00     0.010 A 
ATOM     42  C   UNL A   1      36.526  34.627  32.235  1.00  0.00     0.010 A 
ATOM     43  C   UNL A   1      36.473  33.331  32.773  1.00  0.00    -0.014 A 
BRANCH  43  44
ATOM     44  C   UNL A   1      37.732  32.656  33.170  1.00  0.00     0.031 A 
ATOM     45  C   UNL A   1      38.347  31.620  32.269  1.00  0.00     0.074 A 
ATOM     46  C   UNL A   1      38.295  32.934  34.363  1.00  0.00     0.049 A 
ATOM     47  N   UNL A   1      39.414  30.885  32.462  1.00  0.00    -0.248 NA
ATOM     48  C   UNL A   1      37.657  31.353  30.996  1.00  0.00     0.031 C 
ATOM     49  C   UNL A   1      37.780  33.894  35.341  1.00  0.00     0.029 A 
ATOM     50  N   UNL A   1      39.426  32.432  34.954  1.00  0.00    -0.354 N 
ATOM     51  C   UNL A   1      39.513  30.065  31.345  1.00  0.00     0.074 A 
ATOM     52  C   UNL A   1      38.367  30.348  30.508  1.00  0.00     0.031 C 
ATOM     53  C   UNL A   1      38.610  33.934  36.396  1.00  0.00     0.029 A 
ATOM     54  C   UNL A   1      39.688  32.972  36.189  1.00  0.00     0.049 A 
ATOM     55  H   UNL A   1      39.997  31.749  34.533  1.00  0.00     0.167 HD
ATOM     56  C   UNL A   1      40.480  29.171  31.032  1.00  0.00     0.031 A 
ATOM     57  C   UNL A   1      40.682  32.718  37.061  1.00  0.00     0.031 A 
ATOM     58  C   UNL A   1      41.622  28.895  31.861  1.00  0.00     0.049 A 
ATOM     59  C   UNL A   1      41.729  31.700  36.703  1.00  0.00     0.074 A 
ATOM     60  C   UNL A   1      42.683  28.044  31.610  1.00  0.00     0.029 A 
ATOM     61  N   UNL A   1      41.847  29.461  33.106  1.00  0.00    -0.354 N 
ATOM     62  N   UNL A   1      41.845  30.980  35.612  1.00  0.00    -0.248 NA
ATOM     63  C   UNL A   1      42.791  31.468  37.692  1.00  0.00     0.031 C 
ATOM     64  C   UNL A   1      43.521  28.050  32.729  1.00  0.00     0.029 A 
ATOM     65  C   UNL A   1      43.018  28.957  33.648  1.00  0.00     0.049 A 
ATOM     66  H   UNL A   1      41.262  30.123  33.541  1.00  0.00     0.167 HD
ATOM     67  C   UNL A   1      43.009  30.237  35.770  1.00  0.00     0.074 A 
ATOM     68  C   UNL A   1      43.569  30.605  37.054  1.00  0.00     0.031 C 
ATOM     69  C   UNL A   1      43.564  29.334  34.926  1.00  0.00     0.031 A 
BRANCH  56  70
ATOM     70  C   UNL A   1      40.336  28.420  29.736  1.00  0.00    -0.014 A 
ATOM     71  C   UNL A   1      39.628  27.209  29.669  1.00  0.00     0.009 A 
ATOM     72  C   UNL A   1      40.889  28.947  28.558  1.00  0.00     0.009 A 
ATOM     73  C   UNL A   1      39.514  26.521  28.458  1.00  0.00     0.001 A 
ATOM     74  C   UNL A   1      40.744  28.274  27.343  1.00  0.00     0.001 A 
ATOM     75  C   UNL A   1      40.067  27.058  27.297  1.00  0.00     0.000 A 
ENDBRANCH  56  70
BRANCH  57  76
ATOM     76  C   UNL A   1      40.745  33.447  38.356  1.00  0.00    -0.014 A 
ATOM     77  C   UNL A   1      41.479  34.638  38.469  1.00  0.00     0.009 A 
ATOM     78  C   UNL A   1      40.085  32.949  39.490  1.00  0.00     0.009 A 
ATOM     79  C   UNL A   1      41.577  35.297  39.696  1.00  0.00     0.001 A 
ATOM     80  C   UNL A   1      40.157  33.628  40.708  1.00  0.00     0.001 A 
ATOM     81  C   UNL A   1      40.912  34.795  40.813  1.00  0.00     0.000 A 
ENDBRANCH  57  76
BRANCH  69  82
ATOM     82  C   UNL A   1      44.869  28.712  35.343  1.00  0.00    -0.014 A 
ATOM     83  C   UNL A   1      46.100  29.312  35.038  1.00  0.00     0.009 A 
ATOM     84  C   UNL A   1      44.858  27.525  36.093  1.00  0.00     0.009 A 
ATOM     85  C   UNL A   1      47.296  28.716  35.443  1.00  0.00     0.001 A 
ATOM     86  C   UNL A   1      46.053  26.950  36.527  1.00  0.00     0.001 A 
ATOM     87  C   UNL A   1      47.271  27.540  36.192  1.00  0.00     0.000 A 
ENDBRANCH  69  82
ENDBRANCH  43  44
ENDBRANCH  35  38
ENDBRANCH  33  34
ENDBRANCH  32  33
ENDBRANCH   1  32
TORSDOF 16
ENDMDL
