MODEL 1
REMARK VINA RESULT:     -10.0      0.000      0.000
REMARK SMILES C=CCOc1ccc(C(=O)N2CCC[C@H]2C(=O)NCCCCCCNC(=O)c2ccc(-c3c4nc(c(-c5ccccc5)c5ccc([nH]5)c(-c5ccccc5)c5nc(c(-c6ccccc6)c6ccc3[nH]6)C=C5)C=C4)cc2)cc1
REMARK SMILES IDX 20 1 19 2 18 3 16 4 17 5 15 7 11 8 12 9 13 10 14 11 9 12
REMARK SMILES IDX 10 13 8 14 5 15 6 16 77 17 7 18 76 19 4 20 3 21 2 22 1 23
REMARK SMILES IDX 21 24 22 25 23 26 24 27 25 28 26 29 27 31 28 32 29 33 75 34
REMARK SMILES IDX 30 35 74 36 31 37 32 38 33 39 68 40 34 41 73 42 67 43 69 44
REMARK SMILES IDX 35 45 72 46 66 47 65 48 36 50 58 51 43 52 57 53 44 54 47 55
REMARK SMILES IDX 56 56 70 57 45 58 46 59 55 61 71 62 48 63 37 64 38 65 42 66
REMARK SMILES IDX 39 67 41 68 40 69 59 70 60 71 64 72 61 73 63 74 62 75 49 76
REMARK SMILES IDX 50 77 54 78 51 79 53 80 52 81
REMARK H PARENT 18 6 25 30 69 49 47 60
REMARK Flexibility Score: inf
ROOT
ATOM      1  C   UNL A   1      34.029  28.554  25.875  1.00  0.00     0.021 C 
ENDROOT
BRANCH   1   2
ATOM      2  C   UNL A   1      33.912  27.049  25.675  1.00  0.00     0.116 C 
BRANCH   2   3
ATOM      3  N   UNL A   1      34.075  26.677  24.282  1.00  0.00    -0.354 N 
ATOM      4  C   UNL A   1      33.604  25.581  23.618  1.00  0.00     0.242 C 
ATOM      5  O   UNL A   1      33.718  25.556  22.390  1.00  0.00    -0.273 OA
ATOM      6  H   UNL A   1      34.601  27.305  23.736  1.00  0.00     0.163 HD
BRANCH   4   7
ATOM      7  C   UNL A   1      32.898  24.460  24.400  1.00  0.00     0.174 C 
ATOM      8  N   UNL A   1      31.442  24.586  24.329  1.00  0.00    -0.327 N 
ATOM      9  C   UNL A   1      30.896  23.626  23.388  1.00  0.00     0.121 C 
ATOM     10  C   UNL A   1      31.821  22.436  23.556  1.00  0.00     0.024 C 
ATOM     11  C   UNL A   1      33.190  23.081  23.773  1.00  0.00     0.037 C 
BRANCH   8  12
ATOM     12  C   UNL A   1      30.764  25.491  25.122  1.00  0.00     0.254 C 
ATOM     13  O   UNL A   1      30.557  25.297  26.317  1.00  0.00    -0.269 OA
BRANCH  12  14
ATOM     14  C   UNL A   1      30.084  26.658  24.495  1.00  0.00     0.040 A 
ATOM     15  C   UNL A   1      28.848  28.692  23.008  1.00  0.00     0.119 A 
ATOM     16  C   UNL A   1      28.126  27.551  23.352  1.00  0.00     0.047 A 
ATOM     17  C   UNL A   1      30.163  28.833  23.438  1.00  0.00     0.047 A 
ATOM     18  C   UNL A   1      28.743  26.536  24.094  1.00  0.00     0.017 A 
ATOM     19  C   UNL A   1      30.791  27.805  24.130  1.00  0.00     0.017 A 
BRANCH  15  20
ATOM     20  O   UNL A   1      28.215  29.683  22.306  1.00  0.00    -0.490 OA
BRANCH  20  21
ATOM     21  C   UNL A   1      27.702  30.737  23.139  1.00  0.00     0.257 C 
BRANCH  21  22
ATOM     22  C   UNL A   1      27.904  32.090  22.512  1.00  0.00     0.006 C 
ATOM     23  C   UNL A   1      28.876  32.946  22.862  1.00  0.00     0.007 C 
ENDBRANCH  21  22
ENDBRANCH  20  21
ENDBRANCH  15  20
ENDBRANCH  12  14
ENDBRANCH   8  12
ENDBRANCH   4   7
ENDBRANCH   2   3
ENDBRANCH   1   2
BRANCH   1  24
ATOM     24  C   UNL A   1      33.625  29.030  27.275  1.00  0.00     0.002 C 
BRANCH  24  25
ATOM     25  C   UNL A   1      34.011  30.476  27.607  1.00  0.00     0.002 C 
BRANCH  25  26
ATOM     26  C   UNL A   1      32.840  31.454  27.702  1.00  0.00     0.021 C 
BRANCH  26  27
ATOM     27  C   UNL A   1      33.051  32.764  26.953  1.00  0.00     0.116 C 
BRANCH  27  28
ATOM     28  N   UNL A   1      32.648  33.921  27.737  1.00  0.00    -0.352 N 
ATOM     29  C   UNL A   1      33.225  34.432  28.873  1.00  0.00     0.251 C 
ATOM     30  H   UNL A   1      31.854  34.403  27.409  1.00  0.00     0.163 HD
ATOM     31  O   UNL A   1      32.669  35.316  29.518  1.00  0.00    -0.269 OA
BRANCH  29  32
ATOM     32  C   UNL A   1      34.520  33.888  29.327  1.00  0.00     0.039 A 
ATOM     33  C   UNL A   1      34.552  33.042  30.439  1.00  0.00     0.014 A 
ATOM     34  C   UNL A   1      35.694  34.193  28.634  1.00  0.00     0.014 A 
ATOM     35  C   UNL A   1      35.758  32.449  30.819  1.00  0.00     0.010 A 
ATOM     36  C   UNL A   1      36.876  33.543  28.966  1.00  0.00     0.010 A 
ATOM     37  C   UNL A   1      36.922  32.668  30.065  1.00  0.00    -0.014 A 
BRANCH  37  38
ATOM     38  C   UNL A   1      38.211  32.018  30.406  1.00  0.00     0.031 A 
ATOM     39  C   UNL A   1      39.194  32.732  31.291  1.00  0.00     0.074 A 
ATOM     40  C   UNL A   1      38.536  30.832  29.853  1.00  0.00     0.049 A 
ATOM     41  N   UNL A   1      40.422  32.403  31.599  1.00  0.00    -0.248 NA
ATOM     42  C   UNL A   1      38.745  34.004  31.883  1.00  0.00     0.031 C 
ATOM     43  C   UNL A   1      37.682  30.046  28.961  1.00  0.00     0.029 A 
ATOM     44  N   UNL A   1      39.686  30.089  29.950  1.00  0.00    -0.354 N 
ATOM     45  C   UNL A   1      40.898  33.435  32.396  1.00  0.00     0.074 A 
ATOM     46  C   UNL A   1      39.847  34.424  32.485  1.00  0.00     0.031 C 
ATOM     47  C   UNL A   1      38.331  28.925  28.607  1.00  0.00     0.029 A 
ATOM     48  C   UNL A   1      39.662  28.936  29.204  1.00  0.00     0.049 A 
ATOM     49  H   UNL A   1      40.456  30.358  30.503  1.00  0.00     0.167 HD
ATOM     50  C   UNL A   1      42.099  33.545  33.013  1.00  0.00     0.031 A 
ATOM     51  C   UNL A   1      40.612  28.002  29.008  1.00  0.00     0.031 A 
ATOM     52  C   UNL A   1      43.139  32.556  32.934  1.00  0.00     0.049 A 
ATOM     53  C   UNL A   1      41.948  28.159  29.682  1.00  0.00     0.074 A 
ATOM     54  C   UNL A   1      44.371  32.549  33.563  1.00  0.00     0.029 A 
ATOM     55  N   UNL A   1      43.068  31.394  32.178  1.00  0.00    -0.354 N 
ATOM     56  N   UNL A   1      42.367  29.116  30.475  1.00  0.00    -0.248 NA
ATOM     57  C   UNL A   1      42.941  27.103  29.439  1.00  0.00     0.031 C 
ATOM     58  C   UNL A   1      45.068  31.412  33.145  1.00  0.00     0.029 A 
ATOM     59  C   UNL A   1      44.244  30.677  32.308  1.00  0.00     0.049 A 
ATOM     60  H   UNL A   1      42.296  31.123  31.631  1.00  0.00     0.167 HD
ATOM     61  C   UNL A   1      43.653  28.757  30.856  1.00  0.00     0.074 A 
ATOM     62  C   UNL A   1      43.944  27.492  30.213  1.00  0.00     0.031 C 
ATOM     63  C   UNL A   1      44.514  29.414  31.671  1.00  0.00     0.031 A 
BRANCH  50  64
ATOM     64  C   UNL A   1      42.354  34.789  33.818  1.00  0.00    -0.014 A 
ATOM     65  C   UNL A   1      42.077  34.838  35.194  1.00  0.00     0.009 A 
ATOM     66  C   UNL A   1      42.908  35.919  33.196  1.00  0.00     0.009 A 
ATOM     67  C   UNL A   1      42.311  36.007  35.921  1.00  0.00     0.001 A 
ATOM     68  C   UNL A   1      43.172  37.075  33.934  1.00  0.00     0.001 A 
ATOM     69  C   UNL A   1      42.863  37.122  35.292  1.00  0.00     0.000 A 
ENDBRANCH  50  64
BRANCH  51  70
ATOM     70  C   UNL A   1      40.336  26.826  28.140  1.00  0.00    -0.014 A 
ATOM     71  C   UNL A   1      39.638  25.718  28.644  1.00  0.00     0.009 A 
ATOM     72  C   UNL A   1      40.779  26.799  26.808  1.00  0.00     0.009 A 
ATOM     73  C   UNL A   1      39.416  24.596  27.842  1.00  0.00     0.001 A 
ATOM     74  C   UNL A   1      40.529  25.689  25.999  1.00  0.00     0.001 A 
ATOM     75  C   UNL A   1      39.858  24.584  26.520  1.00  0.00     0.000 A 
ENDBRANCH  51  70
BRANCH  63  76
ATOM     76  C   UNL A   1      45.833  28.754  31.965  1.00  0.00    -0.014 A 
ATOM     77  C   UNL A   1      46.967  28.994  31.175  1.00  0.00     0.009 A 
ATOM     78  C   UNL A   1      45.952  27.929  33.095  1.00  0.00     0.009 A 
ATOM     79  C   UNL A   1      48.188  28.400  31.497  1.00  0.00     0.001 A 
ATOM     80  C   UNL A   1      47.180  27.361  33.432  1.00  0.00     0.001 A 
ATOM     81  C   UNL A   1      48.295  27.590  32.628  1.00  0.00     0.000 A 
ENDBRANCH  63  76
ENDBRANCH  37  38
ENDBRANCH  29  32
ENDBRANCH  27  28
ENDBRANCH  26  27
ENDBRANCH  25  26
ENDBRANCH  24  25
ENDBRANCH   1  24
TORSDOF 18
ENDMDL
MODEL 2
REMARK VINA RESULT:      -9.9      1.604      6.957
REMARK SMILES C=CCOc1ccc(C(=O)N2CCC[C@H]2C(=O)NCCCCCCNC(=O)c2ccc(-c3c4nc(c(-c5ccccc5)c5ccc([nH]5)c(-c5ccccc5)c5nc(c(-c6ccccc6)c6ccc3[nH]6)C=C5)C=C4)cc2)cc1
REMARK SMILES IDX 20 1 19 2 18 3 16 4 17 5 15 7 11 8 12 9 13 10 14 11 9 12
REMARK SMILES IDX 10 13 8 14 5 15 6 16 77 17 7 18 76 19 4 20 3 21 2 22 1 23
REMARK SMILES IDX 21 24 22 25 23 26 24 27 25 28 26 29 27 31 28 32 29 33 75 34
REMARK SMILES IDX 30 35 74 36 31 37 32 38 33 39 68 40 34 41 73 42 67 43 69 44
REMARK SMILES IDX 35 45 72 46 66 47 65 48 36 50 58 51 43 52 57 53 44 54 47 55
REMARK SMILES IDX 56 56 70 57 45 58 46 59 55 61 71 62 48 63 37 64 38 65 42 66
REMARK SMILES IDX 39 67 41 68 40 69 59 70 60 71 64 72 61 73 63 74 62 75 49 76
REMARK SMILES IDX 50 77 54 78 51 79 53 80 52 81
REMARK H PARENT 18 6 25 30 69 49 47 60
REMARK Flexibility Score: inf
ROOT
ATOM      1  C   UNL A   1      34.504  29.137  27.422  1.00  0.00     0.021 C 
ENDROOT
BRANCH   1   2
ATOM      2  C   UNL A   1      34.230  28.262  26.205  1.00  0.00     0.116 C 
BRANCH   2   3
ATOM      3  N   UNL A   1      32.983  27.531  26.338  1.00  0.00    -0.354 N 
ATOM      4  C   UNL A   1      31.947  27.421  25.457  1.00  0.00     0.242 C 
ATOM      5  O   UNL A   1      31.058  26.603  25.708  1.00  0.00    -0.273 OA
ATOM      6  H   UNL A   1      32.868  27.045  27.186  1.00  0.00     0.163 HD
BRANCH   4   7
ATOM      7  C   UNL A   1      31.951  28.256  24.165  1.00  0.00     0.174 C 
ATOM      8  N   UNL A   1      31.652  27.437  22.990  1.00  0.00    -0.327 N 
ATOM      9  C   UNL A   1      30.282  27.649  22.560  1.00  0.00     0.121 C 
ATOM     10  C   UNL A   1      30.059  29.115  22.879  1.00  0.00     0.024 C 
ATOM     11  C   UNL A   1      30.827  29.313  24.186  1.00  0.00     0.037 C 
BRANCH   8  12
ATOM     12  C   UNL A   1      32.619  26.638  22.412  1.00  0.00     0.254 C 
ATOM     13  O   UNL A   1      33.476  27.083  21.652  1.00  0.00    -0.269 OA
BRANCH  12  14
ATOM     14  C   UNL A   1      32.528  25.157  22.542  1.00  0.00     0.040 A 
ATOM     15  C   UNL A   1      32.404  22.417  23.131  1.00  0.00     0.119 A 
ATOM     16  C   UNL A   1      31.278  23.216  23.318  1.00  0.00     0.047 A 
ATOM     17  C   UNL A   1      33.569  22.975  22.615  1.00  0.00     0.047 A 
ATOM     18  C   UNL A   1      31.340  24.584  23.024  1.00  0.00     0.017 A 
ATOM     19  C   UNL A   1      33.647  24.341  22.371  1.00  0.00     0.017 A 
BRANCH  15  20
ATOM     20  O   UNL A   1      32.311  21.077  23.398  1.00  0.00    -0.490 OA
BRANCH  20  21
ATOM     21  C   UNL A   1      32.309  20.771  24.804  1.00  0.00     0.257 C 
BRANCH  21  22
ATOM     22  C   UNL A   1      32.571  19.311  25.056  1.00  0.00     0.006 C 
ATOM     23  C   UNL A   1      33.625  18.639  24.570  1.00  0.00     0.007 C 
ENDBRANCH  21  22
ENDBRANCH  20  21
ENDBRANCH  15  20
ENDBRANCH  12  14
ENDBRANCH   8  12
ENDBRANCH   4   7
ENDBRANCH   2   3
ENDBRANCH   1   2
BRANCH   1  24
ATOM     24  C   UNL A   1      33.890  30.537  27.332  1.00  0.00     0.002 C 
BRANCH  24  25
ATOM     25  C   UNL A   1      32.365  30.570  27.179  1.00  0.00     0.002 C 
BRANCH  25  26
ATOM     26  C   UNL A   1      31.766  31.957  26.945  1.00  0.00     0.021 C 
BRANCH  26  27
ATOM     27  C   UNL A   1      32.791  33.081  26.867  1.00  0.00     0.116 C 
BRANCH  27  28
ATOM     28  N   UNL A   1      32.465  34.190  27.751  1.00  0.00    -0.352 N 
ATOM     29  C   UNL A   1      33.092  34.577  28.909  1.00  0.00     0.251 C 
ATOM     30  H   UNL A   1      31.691  34.736  27.482  1.00  0.00     0.163 HD
ATOM     31  O   UNL A   1      32.596  35.433  29.636  1.00  0.00    -0.269 OA
BRANCH  29  32
ATOM     32  C   UNL A   1      34.366  33.934  29.285  1.00  0.00     0.039 A 
ATOM     33  C   UNL A   1      35.548  34.349  28.667  1.00  0.00     0.014 A 
ATOM     34  C   UNL A   1      34.391  32.942  30.268  1.00  0.00     0.014 A 
ATOM     35  C   UNL A   1      36.768  33.811  29.083  1.00  0.00     0.010 A 
ATOM     36  C   UNL A   1      35.610  32.465  30.733  1.00  0.00     0.010 A 
ATOM     37  C   UNL A   1      36.811  32.891  30.142  1.00  0.00    -0.014 A 
BRANCH  37  38
ATOM     38  C   UNL A   1      38.091  32.335  30.645  1.00  0.00     0.031 A 
ATOM     39  C   UNL A   1      38.641  31.071  30.046  1.00  0.00     0.074 A 
ATOM     40  C   UNL A   1      38.712  32.911  31.695  1.00  0.00     0.049 A 
ATOM     41  N   UNL A   1      39.664  30.350  30.427  1.00  0.00    -0.248 NA
ATOM     42  C   UNL A   1      37.924  30.528  28.879  1.00  0.00     0.031 C 
ATOM     43  C   UNL A   1      38.271  34.127  32.381  1.00  0.00     0.029 A 
ATOM     44  N   UNL A   1      39.842  32.535  32.378  1.00  0.00    -0.354 N 
ATOM     45  C   UNL A   1      39.697  29.260  29.567  1.00  0.00     0.074 A 
ATOM     46  C   UNL A   1      38.564  29.387  28.676  1.00  0.00     0.031 C 
ATOM     47  C   UNL A   1      39.130  34.405  33.376  1.00  0.00     0.029 A 
ATOM     48  C   UNL A   1      40.150  33.363  33.429  1.00  0.00     0.049 A 
ATOM     49  H   UNL A   1      40.379  31.747  32.136  1.00  0.00     0.167 HD
ATOM     50  C   UNL A   1      40.597  28.250  29.512  1.00  0.00     0.031 A 
ATOM     51  C   UNL A   1      41.134  33.283  34.345  1.00  0.00     0.031 A 
ATOM     52  C   UNL A   1      41.729  28.131  30.390  1.00  0.00     0.049 A 
ATOM     53  C   UNL A   1      42.106  32.136  34.281  1.00  0.00     0.074 A 
ATOM     54  C   UNL A   1      42.728  27.174  30.383  1.00  0.00     0.029 A 
ATOM     55  N   UNL A   1      42.013  29.001  31.434  1.00  0.00    -0.354 N 
ATOM     56  N   UNL A   1      42.155  31.140  33.430  1.00  0.00    -0.248 NA
ATOM     57  C   UNL A   1      43.165  32.108  35.301  1.00  0.00     0.031 C 
ATOM     58  C   UNL A   1      43.586  27.431  31.457  1.00  0.00     0.029 A 
ATOM     59  C   UNL A   1      43.159  28.586  32.091  1.00  0.00     0.049 A 
ATOM     60  H   UNL A   1      41.479  29.792  31.670  1.00  0.00     0.167 HD
ATOM     61  C   UNL A   1      43.269  30.391  33.787  1.00  0.00     0.074 A 
ATOM     62  C   UNL A   1      43.871  31.050  34.927  1.00  0.00     0.031 C 
ATOM     63  C   UNL A   1      43.752  29.260  33.216  1.00  0.00     0.031 A 
BRANCH  50  64
ATOM     64  C   UNL A   1      40.383  27.186  28.472  1.00  0.00    -0.014 A 
ATOM     65  C   UNL A   1      39.566  26.072  28.724  1.00  0.00     0.009 A 
ATOM     66  C   UNL A   1      40.983  27.315  27.210  1.00  0.00     0.009 A 
ATOM     67  C   UNL A   1      39.388  25.089  27.748  1.00  0.00     0.001 A 
ATOM     68  C   UNL A   1      40.776  26.348  26.225  1.00  0.00     0.001 A 
ATOM     69  C   UNL A   1      39.988  25.231  26.498  1.00  0.00     0.000 A 
ENDBRANCH  50  64
BRANCH  51  70
ATOM     70  C   UNL A   1      41.258  34.322  35.402  1.00  0.00    -0.014 A 
ATOM     71  C   UNL A   1      40.586  34.175  36.626  1.00  0.00     0.009 A 
ATOM     72  C   UNL A   1      42.036  35.471  35.191  1.00  0.00     0.009 A 
ATOM     73  C   UNL A   1      40.666  35.170  37.603  1.00  0.00     0.001 A 
ATOM     74  C   UNL A   1      42.139  36.450  36.181  1.00  0.00     0.001 A 
ATOM     75  C   UNL A   1      41.446  36.304  37.381  1.00  0.00     0.000 A 
ENDBRANCH  51  70
BRANCH  63  76
ATOM     76  C   UNL A   1      45.027  28.691  33.775  1.00  0.00    -0.014 A 
ATOM     77  C   UNL A   1      45.017  27.703  34.770  1.00  0.00     0.009 A 
ATOM     78  C   UNL A   1      46.258  29.109  33.242  1.00  0.00     0.009 A 
ATOM     79  C   UNL A   1      46.216  27.164  35.240  1.00  0.00     0.001 A 
ATOM     80  C   UNL A   1      47.452  28.545  33.691  1.00  0.00     0.001 A 
ATOM     81  C   UNL A   1      47.431  27.580  34.696  1.00  0.00     0.000 A 
ENDBRANCH  63  76
ENDBRANCH  37  38
ENDBRANCH  29  32
ENDBRANCH  27  28
ENDBRANCH  26  27
ENDBRANCH  25  26
ENDBRANCH  24  25
ENDBRANCH   1  24
TORSDOF 18
ENDMDL
MODEL 3
REMARK VINA RESULT:      -9.7      1.442      3.910
REMARK SMILES C=CCOc1ccc(C(=O)N2CCC[C@H]2C(=O)NCCCCCCNC(=O)c2ccc(-c3c4nc(c(-c5ccccc5)c5ccc([nH]5)c(-c5ccccc5)c5nc(c(-c6ccccc6)c6ccc3[nH]6)C=C5)C=C4)cc2)cc1
REMARK SMILES IDX 20 1 19 2 18 3 16 4 17 5 15 7 11 8 12 9 13 10 14 11 9 12
REMARK SMILES IDX 10 13 8 14 5 15 6 16 77 17 7 18 76 19 4 20 3 21 2 22 1 23
REMARK SMILES IDX 21 24 22 25 23 26 24 27 25 28 26 29 27 31 28 32 29 33 75 34
REMARK SMILES IDX 30 35 74 36 31 37 32 38 33 39 68 40 34 41 73 42 67 43 69 44
REMARK SMILES IDX 35 45 72 46 66 47 65 48 36 50 58 51 43 52 57 53 44 54 47 55
REMARK SMILES IDX 56 56 70 57 45 58 46 59 55 61 71 62 48 63 37 64 38 65 42 66
REMARK SMILES IDX 39 67 41 68 40 69 59 70 60 71 64 72 61 73 63 74 62 75 49 76
REMARK SMILES IDX 50 77 54 78 51 79 53 80 52 81
REMARK H PARENT 18 6 25 30 69 49 47 60
REMARK Flexibility Score: inf
ROOT
ATOM      1  C   UNL A   1      33.225  28.166  27.205  1.00  0.00     0.021 C 
ENDROOT
BRANCH   1   2
ATOM      2  C   UNL A   1      31.747  28.176  27.575  1.00  0.00     0.116 C 
BRANCH   2   3
ATOM      3  N   UNL A   1      31.029  27.078  26.954  1.00  0.00    -0.354 N 
ATOM      4  C   UNL A   1      30.784  26.843  25.632  1.00  0.00     0.242 C 
ATOM      5  O   UNL A   1      30.301  25.752  25.319  1.00  0.00    -0.273 OA
ATOM      6  H   UNL A   1      30.666  26.406  27.575  1.00  0.00     0.163 HD
BRANCH   4   7
ATOM      7  C   UNL A   1      31.173  27.899  24.584  1.00  0.00     0.174 C 
ATOM      8  N   UNL A   1      31.979  27.322  23.507  1.00  0.00    -0.327 N 
ATOM      9  C   UNL A   1      31.170  27.127  22.318  1.00  0.00     0.121 C 
ATOM     10  C   UNL A   1      30.213  28.302  22.373  1.00  0.00     0.024 C 
ATOM     11  C   UNL A   1      29.923  28.452  23.867  1.00  0.00     0.037 C 
BRANCH   8  12
ATOM     12  C   UNL A   1      33.327  27.075  23.678  1.00  0.00     0.254 C 
ATOM     13  O   UNL A   1      34.186  27.931  23.481  1.00  0.00    -0.269 OA
BRANCH  12  14
ATOM     14  C   UNL A   1      33.797  25.683  23.922  1.00  0.00     0.040 A 
ATOM     15  C   UNL A   1      35.009  23.191  24.363  1.00  0.00     0.119 A 
ATOM     16  C   UNL A   1      34.866  24.087  25.420  1.00  0.00     0.047 A 
ATOM     17  C   UNL A   1      34.514  23.522  23.106  1.00  0.00     0.047 A 
ATOM     18  C   UNL A   1      34.261  25.331  25.201  1.00  0.00     0.017 A 
ATOM     19  C   UNL A   1      33.960  24.775  22.875  1.00  0.00     0.017 A 
BRANCH  15  20
ATOM     20  O   UNL A   1      35.578  21.970  24.610  1.00  0.00    -0.490 OA
BRANCH  20  21
ATOM     21  C   UNL A   1      35.178  21.394  25.866  1.00  0.00     0.257 C 
BRANCH  21  22
ATOM     22  C   UNL A   1      33.987  20.487  25.708  1.00  0.00     0.006 C 
ATOM     23  C   UNL A   1      33.773  19.701  24.643  1.00  0.00     0.007 C 
ENDBRANCH  21  22
ENDBRANCH  20  21
ENDBRANCH  15  20
ENDBRANCH  12  14
ENDBRANCH   8  12
ENDBRANCH   4   7
ENDBRANCH   2   3
ENDBRANCH   1   2
BRANCH   1  24
ATOM     24  C   UNL A   1      33.753  29.517  26.714  1.00  0.00     0.002 C 
BRANCH  24  25
ATOM     25  C   UNL A   1      32.733  30.661  26.736  1.00  0.00     0.002 C 
BRANCH  25  26
ATOM     26  C   UNL A   1      33.034  31.780  27.734  1.00  0.00     0.021 C 
BRANCH  26  27
ATOM     27  C   UNL A   1      33.211  33.155  27.104  1.00  0.00     0.116 C 
BRANCH  27  28
ATOM     28  N   UNL A   1      32.761  34.227  27.978  1.00  0.00    -0.352 N 
ATOM     29  C   UNL A   1      33.280  34.629  29.183  1.00  0.00     0.251 C 
ATOM     30  H   UNL A   1      31.977  34.733  27.662  1.00  0.00     0.163 HD
ATOM     31  O   UNL A   1      32.686  35.441  29.885  1.00  0.00    -0.269 OA
BRANCH  29  32
ATOM     32  C   UNL A   1      34.560  34.052  29.640  1.00  0.00     0.039 A 
ATOM     33  C   UNL A   1      34.570  33.218  30.762  1.00  0.00     0.014 A 
ATOM     34  C   UNL A   1      35.740  34.314  28.941  1.00  0.00     0.014 A 
ATOM     35  C   UNL A   1      35.759  32.594  31.146  1.00  0.00     0.010 A 
ATOM     36  C   UNL A   1      36.904  33.633  29.278  1.00  0.00     0.010 A 
ATOM     37  C   UNL A   1      36.927  32.770  30.386  1.00  0.00    -0.014 A 
BRANCH  37  38
ATOM     38  C   UNL A   1      38.197  32.086  30.732  1.00  0.00     0.031 A 
ATOM     39  C   UNL A   1      39.165  32.745  31.674  1.00  0.00     0.074 A 
ATOM     40  C   UNL A   1      38.521  30.921  30.135  1.00  0.00     0.049 A 
ATOM     41  N   UNL A   1      40.380  32.384  32.000  1.00  0.00    -0.248 NA
ATOM     42  C   UNL A   1      38.718  33.995  32.312  1.00  0.00     0.031 C 
ATOM     43  C   UNL A   1      37.680  30.189  29.186  1.00  0.00     0.029 A 
ATOM     44  N   UNL A   1      39.658  30.157  30.229  1.00  0.00    -0.354 N 
ATOM     45  C   UNL A   1      40.849  33.372  32.855  1.00  0.00     0.074 A 
ATOM     46  C   UNL A   1      39.809  34.372  32.961  1.00  0.00     0.031 C 
ATOM     47  C   UNL A   1      38.323  29.075  28.799  1.00  0.00     0.029 A 
ATOM     48  C   UNL A   1      39.638  29.039  29.432  1.00  0.00     0.049 A 
ATOM     49  H   UNL A   1      40.415  30.390  30.814  1.00  0.00     0.167 HD
ATOM     50  C   UNL A   1      42.034  33.436  33.508  1.00  0.00     0.031 A 
ATOM     51  C   UNL A   1      40.580  28.101  29.219  1.00  0.00     0.031 A 
ATOM     52  C   UNL A   1      43.061  32.436  33.412  1.00  0.00     0.049 A 
ATOM     53  C   UNL A   1      41.899  28.208  29.935  1.00  0.00     0.074 A 
ATOM     54  C   UNL A   1      44.275  32.383  34.074  1.00  0.00     0.029 A 
ATOM     55  N   UNL A   1      42.995  31.311  32.603  1.00  0.00    -0.354 N 
ATOM     56  N   UNL A   1      42.309  29.122  30.781  1.00  0.00    -0.248 NA
ATOM     57  C   UNL A   1      42.883  27.149  29.671  1.00  0.00     0.031 C 
ATOM     58  C   UNL A   1      44.968  31.255  33.623  1.00  0.00     0.029 A 
ATOM     59  C   UNL A   1      44.157  30.571  32.732  1.00  0.00     0.049 A 
ATOM     60  H   UNL A   1      42.235  31.076  32.025  1.00  0.00     0.167 HD
ATOM     61  C   UNL A   1      43.580  28.727  31.180  1.00  0.00     0.074 A 
ATOM     62  C   UNL A   1      43.871  27.488  30.488  1.00  0.00     0.031 C 
ATOM     63  C   UNL A   1      44.427  29.334  32.046  1.00  0.00     0.031 A 
BRANCH  50  64
ATOM     64  C   UNL A   1      42.283  34.639  34.375  1.00  0.00    -0.014 A 
ATOM     65  C   UNL A   1      42.852  35.811  33.852  1.00  0.00     0.009 A 
ATOM     66  C   UNL A   1      41.915  34.609  35.729  1.00  0.00     0.009 A 
ATOM     67  C   UNL A   1      43.085  36.914  34.677  1.00  0.00     0.001 A 
ATOM     68  C   UNL A   1      42.119  35.725  36.543  1.00  0.00     0.001 A 
ATOM     69  C   UNL A   1      42.713  36.872  36.019  1.00  0.00     0.000 A 
ENDBRANCH  50  64
BRANCH  51  70
ATOM     70  C   UNL A   1      40.312  26.970  28.292  1.00  0.00    -0.014 A 
ATOM     71  C   UNL A   1      39.607  25.840  28.733  1.00  0.00     0.009 A 
ATOM     72  C   UNL A   1      40.770  27.006  26.965  1.00  0.00     0.009 A 
ATOM     73  C   UNL A   1      39.392  24.758  27.875  1.00  0.00     0.001 A 
ATOM     74  C   UNL A   1      40.527  25.937  26.100  1.00  0.00     0.001 A 
ATOM     75  C   UNL A   1      39.848  24.810  26.559  1.00  0.00     0.000 A 
ENDBRANCH  51  70
BRANCH  63  76
ATOM     76  C   UNL A   1      45.728  28.642  32.345  1.00  0.00    -0.014 A 
ATOM     77  C   UNL A   1      45.831  27.675  33.356  1.00  0.00     0.009 A 
ATOM     78  C   UNL A   1      46.853  28.921  31.552  1.00  0.00     0.009 A 
ATOM     79  C   UNL A   1      47.043  27.020  33.584  1.00  0.00     0.001 A 
ATOM     80  C   UNL A   1      48.053  28.242  31.761  1.00  0.00     0.001 A 
ATOM     81  C   UNL A   1      48.150  27.299  32.782  1.00  0.00     0.000 A 
ENDBRANCH  63  76
ENDBRANCH  37  38
ENDBRANCH  29  32
ENDBRANCH  27  28
ENDBRANCH  26  27
ENDBRANCH  25  26
ENDBRANCH  24  25
ENDBRANCH   1  24
TORSDOF 18
ENDMDL
