MODEL 1
REMARK VINA RESULT:     -11.9      0.000      0.000
REMARK SMILES COc1ccc(F)cc1-c1ccc(C[C@]2(C(=O)NCCCCCCNC(=O)c3ccc(-c4c5nc(c(-c6ccccc6)c6ccc([nH]6)c(-c6ccccc6)c6nc(c(-c7ccccc7)c7ccc4[nH]7)C=C6)C=C5)cc3)CCCO2)cc1
REMARK SMILES IDX 20 1 19 2 18 3 16 4 17 5 15 7 76 8 79 9 77 10 78 11 14 12
REMARK SMILES IDX 13 13 10 14 11 15 81 16 12 17 80 18 9 19 3 20 4 21 5 22 8 23
REMARK SMILES IDX 6 24 7 25 2 26 1 27 21 28 22 29 23 30 24 31 25 32 26 33
REMARK SMILES IDX 27 35 28 36 29 37 75 38 30 39 74 40 31 41 32 42 33 43 68 44
REMARK SMILES IDX 34 45 73 46 67 47 69 48 35 49 72 50 66 51 65 52 36 54 58 55
REMARK SMILES IDX 43 56 57 57 44 58 47 59 56 60 70 61 45 62 46 63 55 65 71 66
REMARK SMILES IDX 48 67 37 68 38 69 42 70 39 71 41 72 40 73 59 74 60 75 64 76
REMARK SMILES IDX 61 77 63 78 62 79 49 80 50 81 54 82 51 83 53 84 52 85
REMARK H PARENT 18 6 25 34 69 53 47 64
REMARK Flexibility Score: inf
ROOT
ATOM      1  C   UNL A   1      33.344  28.833  27.288  1.00  0.00     0.021 C 
ENDROOT
BRANCH   1   2
ATOM      2  C   UNL A   1      33.184  27.521  26.520  1.00  0.00     0.116 C 
BRANCH   2   3
ATOM      3  N   UNL A   1      31.928  26.882  26.843  1.00  0.00    -0.354 N 
ATOM      4  C   UNL A   1      31.048  26.204  26.048  1.00  0.00     0.252 C 
ATOM      5  O   UNL A   1      30.000  25.839  26.591  1.00  0.00    -0.272 OA
ATOM      6  H   UNL A   1      31.663  26.947  27.789  1.00  0.00     0.163 HD
BRANCH   4   7
ATOM      7  C   UNL A   1      31.332  25.942  24.533  1.00  0.00     0.150 C 
ATOM      8  C   UNL A   1      31.011  27.180  23.692  1.00  0.00     0.048 C 
ATOM      9  O   UNL A   1      32.732  25.654  24.347  1.00  0.00    -0.365 OA
ATOM     10  C   UNL A   1      32.271  27.489  22.915  1.00  0.00     0.032 C 
ATOM     11  C   UNL A   1      33.192  26.318  23.168  1.00  0.00     0.162 C 
BRANCH   7  12
ATOM     12  C   UNL A   1      30.486  24.697  24.123  1.00  0.00     0.081 C 
BRANCH  12  13
ATOM     13  C   UNL A   1      31.168  23.346  24.183  1.00  0.00    -0.045 A 
ATOM     14  C   UNL A   1      32.504  20.858  24.343  1.00  0.00    -0.015 A 
ATOM     15  C   UNL A   1      32.381  21.530  23.121  1.00  0.00     0.009 A 
ATOM     16  C   UNL A   1      31.921  21.432  25.480  1.00  0.00     0.009 A 
ATOM     17  C   UNL A   1      31.702  22.745  23.037  1.00  0.00     0.004 A 
ATOM     18  C   UNL A   1      31.269  22.665  25.404  1.00  0.00     0.004 A 
BRANCH  14  19
ATOM     19  C   UNL A   1      33.241  19.592  24.415  1.00  0.00     0.027 A 
ATOM     20  C   UNL A   1      34.639  19.541  24.578  1.00  0.00     0.126 A 
ATOM     21  C   UNL A   1      35.303  18.313  24.698  1.00  0.00     0.050 A 
ATOM     22  C   UNL A   1      34.582  17.122  24.626  1.00  0.00     0.043 A 
ATOM     23  C   UNL A   1      32.535  18.380  24.339  1.00  0.00     0.051 A 
ATOM     24  C   UNL A   1      33.206  17.167  24.444  1.00  0.00     0.124 A 
ATOM     25  F   UNL A   1      32.511  16.024  24.383  1.00  0.00    -0.207 F 
BRANCH  20  26
ATOM     26  O   UNL A   1      35.330  20.717  24.726  1.00  0.00    -0.496 OA
ATOM     27  C   UNL A   1      36.708  20.497  25.023  1.00  0.00     0.278 C 
ENDBRANCH  20  26
ENDBRANCH  14  19
ENDBRANCH  12  13
ENDBRANCH   7  12
ENDBRANCH   4   7
ENDBRANCH   2   3
ENDBRANCH   1   2
BRANCH   1  28
ATOM     28  C   UNL A   1      33.189  30.077  26.411  1.00  0.00     0.002 C 
BRANCH  28  29
ATOM     29  C   UNL A   1      31.743  30.548  26.223  1.00  0.00     0.002 C 
BRANCH  29  30
ATOM     30  C   UNL A   1      31.462  31.968  26.722  1.00  0.00     0.021 C 
BRANCH  30  31
ATOM     31  C   UNL A   1      32.670  32.656  27.349  1.00  0.00     0.116 C 
BRANCH  31  32
ATOM     32  N   UNL A   1      32.418  34.071  27.582  1.00  0.00    -0.352 N 
ATOM     33  C   UNL A   1      32.969  34.905  28.522  1.00  0.00     0.251 C 
ATOM     34  H   UNL A   1      31.759  34.487  26.982  1.00  0.00     0.163 HD
ATOM     35  O   UNL A   1      32.468  35.998  28.758  1.00  0.00    -0.269 OA
BRANCH  33  36
ATOM     36  C   UNL A   1      34.172  34.467  29.257  1.00  0.00     0.039 A 
ATOM     37  C   UNL A   1      34.029  33.917  30.532  1.00  0.00     0.014 A 
ATOM     38  C   UNL A   1      35.436  34.593  28.675  1.00  0.00     0.014 A 
ATOM     39  C   UNL A   1      35.152  33.425  31.197  1.00  0.00     0.010 A 
ATOM     40  C   UNL A   1      36.543  34.039  29.307  1.00  0.00     0.010 A 
ATOM     41  C   UNL A   1      36.410  33.445  30.573  1.00  0.00    -0.014 A 
BRANCH  41  42
ATOM     42  C   UNL A   1      37.598  32.826  31.209  1.00  0.00     0.031 A 
ATOM     43  C   UNL A   1      38.238  31.613  30.597  1.00  0.00     0.074 A 
ATOM     44  C   UNL A   1      38.045  33.306  32.385  1.00  0.00     0.049 A 
ATOM     45  N   UNL A   1      39.223  30.881  31.053  1.00  0.00    -0.248 NA
ATOM     46  C   UNL A   1      37.680  31.145  29.317  1.00  0.00     0.031 C 
ATOM     47  C   UNL A   1      37.481  34.453  33.101  1.00  0.00     0.029 A 
ATOM     48  N   UNL A   1      39.066  32.877  33.195  1.00  0.00    -0.354 N 
ATOM     49  C   UNL A   1      39.392  29.861  30.126  1.00  0.00     0.074 A 
ATOM     50  C   UNL A   1      38.378  30.037  29.110  1.00  0.00     0.031 C 
ATOM     51  C   UNL A   1      38.173  34.646  34.235  1.00  0.00     0.029 A 
ATOM     52  C   UNL A   1      39.196  33.611  34.349  1.00  0.00     0.049 A 
ATOM     53  H   UNL A   1      39.648  32.116  32.971  1.00  0.00     0.167 HD
ATOM     54  C   UNL A   1      40.320  28.873  30.115  1.00  0.00     0.031 A 
ATOM     55  C   UNL A   1      40.032  33.458  35.393  1.00  0.00     0.031 A 
ATOM     56  C   UNL A   1      41.325  28.698  31.129  1.00  0.00     0.049 A 
ATOM     57  C   UNL A   1      41.032  32.336  35.373  1.00  0.00     0.074 A 
ATOM     58  C   UNL A   1      42.346  27.766  31.178  1.00  0.00     0.029 A 
ATOM     59  N   UNL A   1      41.428  29.466  32.279  1.00  0.00    -0.354 N 
ATOM     60  N   UNL A   1      41.231  31.425  34.453  1.00  0.00    -0.248 NA
ATOM     61  C   UNL A   1      41.927  32.227  36.534  1.00  0.00     0.031 C 
ATOM     62  C   UNL A   1      43.029  27.929  32.389  1.00  0.00     0.029 A 
ATOM     63  C   UNL A   1      42.473  29.006  33.062  1.00  0.00     0.049 A 
ATOM     64  H   UNL A   1      40.845  30.227  32.504  1.00  0.00     0.167 HD
ATOM     65  C   UNL A   1      42.287  30.648  34.911  1.00  0.00     0.074 A 
ATOM     66  C   UNL A   1      42.697  31.207  36.182  1.00  0.00     0.031 C 
ATOM     67  C   UNL A   1      42.865  29.568  34.329  1.00  0.00     0.031 A 
BRANCH  54  68
ATOM     68  C   UNL A   1      40.274  27.896  28.972  1.00  0.00    -0.014 A 
ATOM     69  C   UNL A   1      39.577  26.680  29.078  1.00  0.00     0.009 A 
ATOM     70  C   UNL A   1      40.916  28.205  27.763  1.00  0.00     0.009 A 
ATOM     71  C   UNL A   1      39.563  25.777  28.013  1.00  0.00     0.001 A 
ATOM     72  C   UNL A   1      40.871  27.314  26.688  1.00  0.00     0.001 A 
ATOM     73  C   UNL A   1      40.206  26.097  26.818  1.00  0.00     0.000 A 
ENDBRANCH  54  68
BRANCH  55  74
ATOM     74  C   UNL A   1      39.952  34.389  36.549  1.00  0.00    -0.014 A 
ATOM     75  C   UNL A   1      39.193  34.060  37.682  1.00  0.00     0.009 A 
ATOM     76  C   UNL A   1      40.645  35.611  36.528  1.00  0.00     0.009 A 
ATOM     77  C   UNL A   1      39.110  34.946  38.760  1.00  0.00     0.001 A 
ATOM     78  C   UNL A   1      40.585  36.480  37.620  1.00  0.00     0.001 A 
ATOM     79  C   UNL A   1      39.810  36.151  38.730  1.00  0.00     0.000 A 
ENDBRANCH  55  74
BRANCH  67  80
ATOM     80  C   UNL A   1      44.019  28.931  35.053  1.00  0.00    -0.014 A 
ATOM     81  C   UNL A   1      43.817  27.889  35.971  1.00  0.00     0.009 A 
ATOM     82  C   UNL A   1      45.329  29.346  34.769  1.00  0.00     0.009 A 
ATOM     83  C   UNL A   1      44.906  27.294  36.612  1.00  0.00     0.001 A 
ATOM     84  C   UNL A   1      46.417  28.728  35.389  1.00  0.00     0.001 A 
ATOM     85  C   UNL A   1      46.204  27.709  36.315  1.00  0.00     0.000 A 
ENDBRANCH  67  80
ENDBRANCH  41  42
ENDBRANCH  33  36
ENDBRANCH  31  32
ENDBRANCH  30  31
ENDBRANCH  29  30
ENDBRANCH  28  29
ENDBRANCH   1  28
TORSDOF 17
ENDMDL
MODEL 2
REMARK VINA RESULT:     -11.7      0.797      5.753
REMARK SMILES COc1ccc(F)cc1-c1ccc(C[C@]2(C(=O)NCCCCCCNC(=O)c3ccc(-c4c5nc(c(-c6ccccc6)c6ccc([nH]6)c(-c6ccccc6)c6nc(c(-c7ccccc7)c7ccc4[nH]7)C=C6)C=C5)cc3)CCCO2)cc1
REMARK SMILES IDX 20 1 19 2 18 3 16 4 17 5 15 7 76 8 79 9 77 10 78 11 14 12
REMARK SMILES IDX 13 13 10 14 11 15 81 16 12 17 80 18 9 19 3 20 4 21 5 22 8 23
REMARK SMILES IDX 6 24 7 25 2 26 1 27 21 28 22 29 23 30 24 31 25 32 26 33
REMARK SMILES IDX 27 35 28 36 29 37 75 38 30 39 74 40 31 41 32 42 33 43 68 44
REMARK SMILES IDX 34 45 73 46 67 47 69 48 35 49 72 50 66 51 65 52 36 54 58 55
REMARK SMILES IDX 43 56 57 57 44 58 47 59 56 60 70 61 45 62 46 63 55 65 71 66
REMARK SMILES IDX 48 67 37 68 38 69 42 70 39 71 41 72 40 73 59 74 60 75 64 76
REMARK SMILES IDX 61 77 63 78 62 79 49 80 50 81 54 82 51 83 53 84 52 85
REMARK H PARENT 18 6 25 34 69 53 47 64
REMARK Flexibility Score: inf
ROOT
ATOM      1  C   UNL A   1      32.102  29.066  27.060  1.00  0.00     0.021 C 
ENDROOT
BRANCH   1   2
ATOM      2  C   UNL A   1      32.429  27.598  26.786  1.00  0.00     0.116 C 
BRANCH   2   3
ATOM      3  N   UNL A   1      31.258  26.768  26.956  1.00  0.00    -0.354 N 
ATOM      4  C   UNL A   1      30.535  26.056  26.041  1.00  0.00     0.252 C 
ATOM      5  O   UNL A   1      29.517  25.502  26.469  1.00  0.00    -0.272 OA
ATOM      6  H   UNL A   1      30.927  26.704  27.881  1.00  0.00     0.163 HD
BRANCH   4   7
ATOM      7  C   UNL A   1      30.949  25.982  24.535  1.00  0.00     0.150 C 
ATOM      8  C   UNL A   1      30.490  27.230  23.777  1.00  0.00     0.048 C 
ATOM      9  O   UNL A   1      32.385  25.926  24.432  1.00  0.00    -0.365 OA
ATOM     10  C   UNL A   1      31.731  27.796  23.124  1.00  0.00     0.032 C 
ATOM     11  C   UNL A   1      32.807  26.758  23.348  1.00  0.00     0.162 C 
BRANCH   7  12
ATOM     12  C   UNL A   1      30.335  24.667  23.961  1.00  0.00     0.081 C 
BRANCH  12  13
ATOM     13  C   UNL A   1      31.175  23.410  24.061  1.00  0.00    -0.045 A 
ATOM     14  C   UNL A   1      32.687  21.023  24.190  1.00  0.00    -0.015 A 
ATOM     15  C   UNL A   1      31.991  21.494  25.310  1.00  0.00     0.009 A 
ATOM     16  C   UNL A   1      32.642  21.779  23.011  1.00  0.00     0.009 A 
ATOM     17  C   UNL A   1      31.265  22.684  25.254  1.00  0.00     0.004 A 
ATOM     18  C   UNL A   1      31.888  22.953  22.944  1.00  0.00     0.004 A 
BRANCH  14  19
ATOM     19  C   UNL A   1      33.427  19.759  24.263  1.00  0.00     0.027 A 
ATOM     20  C   UNL A   1      34.776  19.695  24.664  1.00  0.00     0.126 A 
ATOM     21  C   UNL A   1      35.434  18.464  24.774  1.00  0.00     0.050 A 
ATOM     22  C   UNL A   1      34.763  17.285  24.454  1.00  0.00     0.043 A 
ATOM     23  C   UNL A   1      32.771  18.559  23.940  1.00  0.00     0.051 A 
ATOM     24  C   UNL A   1      33.440  17.344  24.037  1.00  0.00     0.124 A 
ATOM     25  F   UNL A   1      32.791  16.211  23.737  1.00  0.00    -0.207 F 
BRANCH  20  26
ATOM     26  O   UNL A   1      35.405  20.852  25.051  1.00  0.00    -0.496 OA
ATOM     27  C   UNL A   1      36.824  20.710  25.071  1.00  0.00     0.278 C 
ENDBRANCH  20  26
ENDBRANCH  14  19
ENDBRANCH  12  13
ENDBRANCH   7  12
ENDBRANCH   4   7
ENDBRANCH   2   3
ENDBRANCH   1   2
BRANCH   1  28
ATOM     28  C   UNL A   1      32.275  29.969  25.837  1.00  0.00     0.002 C 
BRANCH  28  29
ATOM     29  C   UNL A   1      31.328  31.172  25.795  1.00  0.00     0.002 C 
BRANCH  29  30
ATOM     30  C   UNL A   1      31.375  32.068  27.036  1.00  0.00     0.021 C 
BRANCH  30  31
ATOM     31  C   UNL A   1      32.705  32.788  27.232  1.00  0.00     0.116 C 
BRANCH  31  32
ATOM     32  N   UNL A   1      32.508  34.176  27.626  1.00  0.00    -0.352 N 
ATOM     33  C   UNL A   1      33.101  34.879  28.644  1.00  0.00     0.251 C 
ATOM     34  H   UNL A   1      31.858  34.680  27.086  1.00  0.00     0.163 HD
ATOM     35  O   UNL A   1      32.644  35.956  29.007  1.00  0.00    -0.269 OA
BRANCH  33  36
ATOM     36  C   UNL A   1      34.296  34.319  29.306  1.00  0.00     0.039 A 
ATOM     37  C   UNL A   1      34.141  33.585  30.484  1.00  0.00     0.014 A 
ATOM     38  C   UNL A   1      35.563  34.513  28.752  1.00  0.00     0.014 A 
ATOM     39  C   UNL A   1      35.254  32.983  31.069  1.00  0.00     0.010 A 
ATOM     40  C   UNL A   1      36.660  33.855  29.295  1.00  0.00     0.010 A 
ATOM     41  C   UNL A   1      36.515  33.080  30.456  1.00  0.00    -0.014 A 
BRANCH  41  42
ATOM     42  C   UNL A   1      37.692  32.355  30.994  1.00  0.00     0.031 A 
ATOM     43  C   UNL A   1      38.437  32.897  32.181  1.00  0.00     0.074 A 
ATOM     44  C   UNL A   1      38.141  31.257  30.356  1.00  0.00     0.049 A 
ATOM     45  N   UNL A   1      39.537  32.456  32.735  1.00  0.00    -0.248 NA
ATOM     46  C   UNL A   1      37.887  34.108  32.810  1.00  0.00     0.031 C 
ATOM     47  C   UNL A   1      37.530  30.657  29.168  1.00  0.00     0.029 A 
ATOM     48  N   UNL A   1      39.229  30.460  30.609  1.00  0.00    -0.354 N 
ATOM     49  C   UNL A   1      39.818  33.342  33.767  1.00  0.00     0.074 A 
ATOM     50  C   UNL A   1      38.804  34.373  33.730  1.00  0.00     0.031 C 
ATOM     51  C   UNL A   1      38.242  29.579  28.805  1.00  0.00     0.029 A 
ATOM     52  C   UNL A   1      39.383  29.438  29.704  1.00  0.00     0.049 A 
ATOM     53  H   UNL A   1      39.840  30.606  31.367  1.00  0.00     0.167 HD
ATOM     54  C   UNL A   1      40.823  33.293  34.674  1.00  0.00     0.031 A 
ATOM     55  C   UNL A   1      40.346  28.504  29.595  1.00  0.00     0.031 A 
ATOM     56  C   UNL A   1      41.833  32.268  34.706  1.00  0.00     0.049 A 
ATOM     57  C   UNL A   1      41.468  28.488  30.594  1.00  0.00     0.074 A 
ATOM     58  C   UNL A   1      42.858  32.098  35.619  1.00  0.00     0.029 A 
ATOM     59  N   UNL A   1      41.951  31.248  33.776  1.00  0.00    -0.354 N 
ATOM     60  N   UNL A   1      41.679  29.288  31.611  1.00  0.00    -0.248 NA
ATOM     61  C   UNL A   1      42.483  27.437  30.434  1.00  0.00     0.031 C 
ATOM     62  C   UNL A   1      43.634  31.010  35.206  1.00  0.00     0.029 A 
ATOM     63  C   UNL A   1      43.053  30.464  34.072  1.00  0.00     0.049 A 
ATOM     64  H   UNL A   1      41.340  31.101  33.017  1.00  0.00     0.167 HD
ATOM     65  C   UNL A   1      42.835  28.823  32.226  1.00  0.00     0.074 A 
ATOM     66  C   UNL A   1      43.269  27.662  31.477  1.00  0.00     0.031 C 
ATOM     67  C   UNL A   1      43.478  29.316  33.313  1.00  0.00     0.031 A 
BRANCH  54  68
ATOM     68  C   UNL A   1      40.885  34.395  35.697  1.00  0.00    -0.014 A 
ATOM     69  C   UNL A   1      40.283  34.255  36.959  1.00  0.00     0.009 A 
ATOM     70  C   UNL A   1      41.574  35.581  35.404  1.00  0.00     0.009 A 
ATOM     71  C   UNL A   1      40.334  35.297  37.887  1.00  0.00     0.001 A 
ATOM     72  C   UNL A   1      41.652  36.608  36.347  1.00  0.00     0.001 A 
ATOM     73  C   UNL A   1      41.022  36.470  37.582  1.00  0.00     0.000 A 
ENDBRANCH  54  68
BRANCH  55  74
ATOM     74  C   UNL A   1      40.292  27.509  28.492  1.00  0.00    -0.014 A 
ATOM     75  C   UNL A   1      39.606  26.296  28.655  1.00  0.00     0.009 A 
ATOM     76  C   UNL A   1      40.918  27.774  27.262  1.00  0.00     0.009 A 
ATOM     77  C   UNL A   1      39.570  25.359  27.619  1.00  0.00     0.001 A 
ATOM     78  C   UNL A   1      40.853  26.848  26.219  1.00  0.00     0.001 A 
ATOM     79  C   UNL A   1      40.188  25.638  26.402  1.00  0.00     0.000 A 
ENDBRANCH  55  74
BRANCH  67  80
ATOM     80  C   UNL A   1      44.710  28.588  33.772  1.00  0.00    -0.014 A 
ATOM     81  C   UNL A   1      45.987  28.961  33.325  1.00  0.00     0.009 A 
ATOM     82  C   UNL A   1      44.593  27.548  34.707  1.00  0.00     0.009 A 
ATOM     83  C   UNL A   1      47.121  28.288  33.785  1.00  0.00     0.001 A 
ATOM     84  C   UNL A   1      45.731  26.897  35.188  1.00  0.00     0.001 A 
ATOM     85  C   UNL A   1      46.992  27.262  34.722  1.00  0.00     0.000 A 
ENDBRANCH  67  80
ENDBRANCH  41  42
ENDBRANCH  33  36
ENDBRANCH  31  32
ENDBRANCH  30  31
ENDBRANCH  29  30
ENDBRANCH  28  29
ENDBRANCH   1  28
TORSDOF 17
ENDMDL
MODEL 3
REMARK VINA RESULT:     -11.6      5.213     10.290
REMARK SMILES COc1ccc(F)cc1-c1ccc(C[C@]2(C(=O)NCCCCCCNC(=O)c3ccc(-c4c5nc(c(-c6ccccc6)c6ccc([nH]6)c(-c6ccccc6)c6nc(c(-c7ccccc7)c7ccc4[nH]7)C=C6)C=C5)cc3)CCCO2)cc1
REMARK SMILES IDX 20 1 19 2 18 3 16 4 17 5 15 7 76 8 79 9 77 10 78 11 14 12
REMARK SMILES IDX 13 13 10 14 11 15 81 16 12 17 80 18 9 19 3 20 4 21 5 22 8 23
REMARK SMILES IDX 6 24 7 25 2 26 1 27 21 28 22 29 23 30 24 31 25 32 26 33
REMARK SMILES IDX 27 35 28 36 29 37 75 38 30 39 74 40 31 41 32 42 33 43 68 44
REMARK SMILES IDX 34 45 73 46 67 47 69 48 35 49 72 50 66 51 65 52 36 54 58 55
REMARK SMILES IDX 43 56 57 57 44 58 47 59 56 60 70 61 45 62 46 63 55 65 71 66
REMARK SMILES IDX 48 67 37 68 38 69 42 70 39 71 41 72 40 73 59 74 60 75 64 76
REMARK SMILES IDX 61 77 63 78 62 79 49 80 50 81 54 82 51 83 53 84 52 85
REMARK H PARENT 18 6 25 34 69 53 47 64
REMARK Flexibility Score: inf
ROOT
ATOM      1  C   UNL A   1      36.377  23.679  24.889  1.00  0.00     0.021 C 
ENDROOT
BRANCH   1   2
ATOM      2  C   UNL A   1      34.870  23.804  25.113  1.00  0.00     0.116 C 
BRANCH   2   3
ATOM      3  N   UNL A   1      34.502  23.327  26.427  1.00  0.00    -0.354 N 
ATOM      4  C   UNL A   1      33.540  22.434  26.809  1.00  0.00     0.252 C 
ATOM      5  O   UNL A   1      33.395  22.285  28.026  1.00  0.00    -0.272 OA
ATOM      6  H   UNL A   1      35.029  23.706  27.167  1.00  0.00     0.163 HD
BRANCH   4   7
ATOM      7  C   UNL A   1      32.651  21.679  25.769  1.00  0.00     0.150 C 
ATOM      8  C   UNL A   1      33.220  21.817  24.355  1.00  0.00     0.048 C 
ATOM      9  O   UNL A   1      32.630  20.273  26.083  1.00  0.00    -0.365 OA
ATOM     10  C   UNL A   1      33.387  20.406  23.837  1.00  0.00     0.032 C 
ATOM     11  C   UNL A   1      32.724  19.523  24.869  1.00  0.00     0.162 C 
BRANCH   7  12
ATOM     12  C   UNL A   1      31.209  22.262  25.899  1.00  0.00     0.081 C 
BRANCH  12  13
ATOM     13  C   UNL A   1      30.940  23.600  25.243  1.00  0.00    -0.045 A 
ATOM     14  C   UNL A   1      30.364  26.105  24.062  1.00  0.00    -0.015 A 
ATOM     15  C   UNL A   1      30.391  24.937  23.291  1.00  0.00     0.009 A 
ATOM     16  C   UNL A   1      30.661  26.009  25.429  1.00  0.00     0.009 A 
ATOM     17  C   UNL A   1      30.699  23.705  23.868  1.00  0.00     0.004 A 
ATOM     18  C   UNL A   1      30.936  24.771  26.014  1.00  0.00     0.004 A 
BRANCH  14  19
ATOM     19  C   UNL A   1      30.017  27.388  23.442  1.00  0.00     0.027 A 
ATOM     20  C   UNL A   1      30.980  28.222  22.841  1.00  0.00     0.126 A 
ATOM     21  C   UNL A   1      30.603  29.414  22.209  1.00  0.00     0.050 A 
ATOM     22  C   UNL A   1      29.264  29.803  22.200  1.00  0.00     0.043 A 
ATOM     23  C   UNL A   1      28.674  27.802  23.426  1.00  0.00     0.051 A 
ATOM     24  C   UNL A   1      28.314  28.996  22.810  1.00  0.00     0.124 A 
ATOM     25  F   UNL A   1      27.026  29.365  22.794  1.00  0.00    -0.207 F 
BRANCH  20  26
ATOM     26  O   UNL A   1      32.283  27.793  22.787  1.00  0.00    -0.496 OA
ATOM     27  C   UNL A   1      33.205  28.841  23.078  1.00  0.00     0.278 C 
ENDBRANCH  20  26
ENDBRANCH  14  19
ENDBRANCH  12  13
ENDBRANCH   7  12
ENDBRANCH   4   7
ENDBRANCH   2   3
ENDBRANCH   1   2
BRANCH   1  28
ATOM     28  C   UNL A   1      36.980  22.404  25.485  1.00  0.00     0.002 C 
BRANCH  28  29
ATOM     29  C   UNL A   1      36.976  21.197  24.541  1.00  0.00     0.002 C 
BRANCH  29  30
ATOM     30  C   UNL A   1      37.849  20.025  24.997  1.00  0.00     0.021 C 
BRANCH  30  31
ATOM     31  C   UNL A   1      39.090  20.443  25.781  1.00  0.00     0.116 C 
BRANCH  31  32
ATOM     32  N   UNL A   1      40.040  19.347  25.899  1.00  0.00    -0.352 N 
ATOM     33  C   UNL A   1      41.399  19.396  26.090  1.00  0.00     0.251 C 
ATOM     34  H   UNL A   1      39.655  18.444  25.833  1.00  0.00     0.163 HD
ATOM     35  O   UNL A   1      42.091  18.401  25.912  1.00  0.00    -0.269 OA
BRANCH  33  36
ATOM     36  C   UNL A   1      42.022  20.668  26.506  1.00  0.00     0.039 A 
ATOM     37  C   UNL A   1      42.509  21.539  25.529  1.00  0.00     0.014 A 
ATOM     38  C   UNL A   1      42.111  20.997  27.860  1.00  0.00     0.014 A 
ATOM     39  C   UNL A   1      43.023  22.778  25.910  1.00  0.00     0.010 A 
ATOM     40  C   UNL A   1      42.558  22.260  28.233  1.00  0.00     0.010 A 
ATOM     41  C   UNL A   1      43.013  23.164  27.261  1.00  0.00    -0.014 A 
BRANCH  41  42
ATOM     42  C   UNL A   1      43.447  24.519  27.680  1.00  0.00     0.031 A 
ATOM     43  C   UNL A   1      42.428  25.564  28.036  1.00  0.00     0.074 A 
ATOM     44  C   UNL A   1      44.757  24.831  27.655  1.00  0.00     0.049 A 
ATOM     45  N   UNL A   1      42.610  26.824  28.337  1.00  0.00    -0.248 NA
ATOM     46  C   UNL A   1      41.018  25.142  28.025  1.00  0.00     0.031 C 
ATOM     47  C   UNL A   1      45.840  23.917  27.287  1.00  0.00     0.029 A 
ATOM     48  N   UNL A   1      45.398  26.013  27.928  1.00  0.00    -0.354 N 
ATOM     49  C   UNL A   1      41.340  27.349  28.537  1.00  0.00     0.074 A 
ATOM     50  C   UNL A   1      40.395  26.286  28.274  1.00  0.00     0.031 C 
ATOM     51  C   UNL A   1      47.011  24.566  27.372  1.00  0.00     0.029 A 
ATOM     52  C   UNL A   1      46.760  25.952  27.755  1.00  0.00     0.049 A 
ATOM     53  H   UNL A   1      44.928  26.827  28.220  1.00  0.00     0.167 HD
ATOM     54  C   UNL A   1      40.992  28.601  28.920  1.00  0.00     0.031 A 
ATOM     55  C   UNL A   1      47.700  26.909  27.870  1.00  0.00     0.031 A 
ATOM     56  C   UNL A   1      41.934  29.658  29.177  1.00  0.00     0.049 A 
ATOM     57  C   UNL A   1      47.287  28.298  28.266  1.00  0.00     0.074 A 
ATOM     58  C   UNL A   1      41.686  30.942  29.626  1.00  0.00     0.029 A 
ATOM     59  N   UNL A   1      43.304  29.554  28.996  1.00  0.00    -0.354 N 
ATOM     60  N   UNL A   1      46.089  28.760  28.527  1.00  0.00    -0.248 NA
ATOM     61  C   UNL A   1      48.358  29.296  28.390  1.00  0.00     0.031 C 
ATOM     62  C   UNL A   1      42.901  31.636  29.657  1.00  0.00     0.029 A 
ATOM     63  C   UNL A   1      43.912  30.763  29.290  1.00  0.00     0.049 A 
ATOM     64  H   UNL A   1      43.776  28.740  28.703  1.00  0.00     0.167 HD
ATOM     65  C   UNL A   1      46.263  30.095  28.867  1.00  0.00     0.074 A 
ATOM     66  C   UNL A   1      47.685  30.363  28.797  1.00  0.00     0.031 C 
ATOM     67  C   UNL A   1      45.328  31.017  29.207  1.00  0.00     0.031 A 
BRANCH  54  68
ATOM     68  C   UNL A   1      39.524  28.896  29.066  1.00  0.00    -0.014 A 
ATOM     69  C   UNL A   1      38.765  29.383  27.988  1.00  0.00     0.009 A 
ATOM     70  C   UNL A   1      38.884  28.660  30.292  1.00  0.00     0.009 A 
ATOM     71  C   UNL A   1      37.408  29.668  28.149  1.00  0.00     0.001 A 
ATOM     72  C   UNL A   1      37.519  28.916  30.441  1.00  0.00     0.001 A 
ATOM     73  C   UNL A   1      36.785  29.431  29.374  1.00  0.00     0.000 A 
ENDBRANCH  54  68
BRANCH  55  74
ATOM     74  C   UNL A   1      49.125  26.583  27.600  1.00  0.00    -0.014 A 
ATOM     75  C   UNL A   1      49.645  26.670  26.300  1.00  0.00     0.009 A 
ATOM     76  C   UNL A   1      49.977  26.192  28.647  1.00  0.00     0.009 A 
ATOM     77  C   UNL A   1      50.982  26.349  26.050  1.00  0.00     0.001 A 
ATOM     78  C   UNL A   1      51.319  25.902  28.398  1.00  0.00     0.001 A 
ATOM     79  C   UNL A   1      51.818  25.971  27.099  1.00  0.00     0.000 A 
ENDBRANCH  55  74
BRANCH  67  80
ATOM     80  C   UNL A   1      45.815  32.396  29.552  1.00  0.00    -0.014 A 
ATOM     81  C   UNL A   1      45.850  33.418  28.589  1.00  0.00     0.009 A 
ATOM     82  C   UNL A   1      46.192  32.690  30.871  1.00  0.00     0.009 A 
ATOM     83  C   UNL A   1      46.281  34.700  28.937  1.00  0.00     0.001 A 
ATOM     84  C   UNL A   1      46.593  33.981  31.222  1.00  0.00     0.001 A 
ATOM     85  C   UNL A   1      46.644  34.982  30.254  1.00  0.00     0.000 A 
ENDBRANCH  67  80
ENDBRANCH  41  42
ENDBRANCH  33  36
ENDBRANCH  31  32
ENDBRANCH  30  31
ENDBRANCH  29  30
ENDBRANCH  28  29
ENDBRANCH   1  28
TORSDOF 17
ENDMDL
