MODEL 1
REMARK VINA RESULT:     -10.8      0.000      0.000
REMARK SMILES O=C(C[C@H](c1ccsc1)n1cccc1)NCCCCCCNC(=O)c1ccc(-c2c3nc(c(-c4ccccc4)c4ccc([nH]4)c(-c4ccccc4)c4nc(c(-c5ccccc5)c5ccc2[nH]5)C=C4)C=C3)cc1
REMARK SMILES IDX 18 1 17 2 16 3 15 4 1 5 2 6 3 8 4 9 10 10 11 11 14 12 12 13
REMARK SMILES IDX 13 14 5 15 6 16 9 17 7 18 8 19 19 20 20 21 21 22 22 23 23 24
REMARK SMILES IDX 24 26 25 27 26 28 72 29 27 30 71 31 28 32 29 33 30 34 65 35
REMARK SMILES IDX 31 36 70 37 64 38 66 39 32 40 69 41 63 42 62 43 33 45 55 46
REMARK SMILES IDX 40 47 54 48 41 49 44 50 53 51 67 52 42 53 43 54 52 56 68 57
REMARK SMILES IDX 45 58 34 59 35 60 39 61 36 62 38 63 37 64 56 65 57 66 61 67
REMARK SMILES IDX 58 68 60 69 59 70 46 71 47 72 51 73 48 74 50 75 49 76
REMARK H PARENT 15 7 22 25 66 44 44 55
REMARK Flexibility Score: inf
ROOT
ATOM      1  C   UNL A   1      31.551  28.801  24.773  1.00  0.00     0.002 C 
ENDROOT
BRANCH   1   2
ATOM      2  C   UNL A   1      31.743  27.314  25.103  1.00  0.00     0.021 C 
BRANCH   2   3
ATOM      3  C   UNL A   1      30.447  26.511  25.214  1.00  0.00     0.116 C 
BRANCH   3   4
ATOM      4  N   UNL A   1      30.696  25.092  25.052  1.00  0.00    -0.356 N 
ATOM      5  O   UNL A   1      31.206  24.702  27.238  1.00  0.00    -0.275 OA
ATOM      6  C   UNL A   1      31.065  24.279  26.091  1.00  0.00     0.222 C 
ATOM      7  H   UNL A   1      30.594  24.695  24.157  1.00  0.00     0.163 HD
BRANCH   6   8
ATOM      8  C   UNL A   1      31.382  22.831  25.774  1.00  0.00     0.130 C 
BRANCH   8   9
ATOM      9  C   UNL A   1      32.396  22.593  24.646  1.00  0.00     0.127 C 
BRANCH   9  10
ATOM     10  N   UNL A   1      33.766  23.067  24.902  1.00  0.00    -0.346 N 
ATOM     11  C   UNL A   1      34.306  23.190  26.164  1.00  0.00     0.086 A 
ATOM     12  C   UNL A   1      34.729  23.403  23.982  1.00  0.00     0.086 A 
ATOM     13  C   UNL A   1      35.609  23.622  26.041  1.00  0.00     0.019 A 
ATOM     14  C   UNL A   1      35.878  23.749  24.661  1.00  0.00     0.019 A 
ENDBRANCH   9  10
BRANCH   9  15
ATOM     15  C   UNL A   1      32.441  21.128  24.247  1.00  0.00    -0.014 A 
ATOM     16  C   UNL A   1      32.644  20.025  25.145  1.00  0.00     0.017 A 
ATOM     17  C   UNL A   1      32.274  20.674  22.950  1.00  0.00     0.070 A 
ATOM     18  C   UNL A   1      32.622  18.808  24.502  1.00  0.00     0.065 A 
ATOM     19  S   UNL A   1      32.359  18.972  22.823  1.00  0.00    -0.152 S 
ENDBRANCH   9  15
ENDBRANCH   8   9
ENDBRANCH   6   8
ENDBRANCH   3   4
ENDBRANCH   2   3
ENDBRANCH   1   2
BRANCH   1  20
ATOM     20  C   UNL A   1      32.275  29.779  25.704  1.00  0.00     0.002 C 
BRANCH  20  21
ATOM     21  C   UNL A   1      32.790  29.169  27.015  1.00  0.00     0.021 C 
BRANCH  21  22
ATOM     22  C   UNL A   1      34.307  29.254  27.183  1.00  0.00     0.116 C 
BRANCH  22  23
ATOM     23  N   UNL A   1      34.678  30.402  27.992  1.00  0.00    -0.352 N 
ATOM     24  C   UNL A   1      35.807  30.625  28.736  1.00  0.00     0.251 C 
ATOM     25  H   UNL A   1      34.017  31.132  28.009  1.00  0.00     0.163 HD
ATOM     26  O   UNL A   1      35.779  31.460  29.633  1.00  0.00    -0.269 OA
BRANCH  24  27
ATOM     27  C   UNL A   1      37.057  29.877  28.485  1.00  0.00     0.039 A 
ATOM     28  C   UNL A   1      37.567  29.087  29.524  1.00  0.00     0.014 A 
ATOM     29  C   UNL A   1      37.779  30.028  27.296  1.00  0.00     0.014 A 
ATOM     30  C   UNL A   1      38.768  28.405  29.351  1.00  0.00     0.010 A 
ATOM     31  C   UNL A   1      38.970  29.331  27.111  1.00  0.00     0.010 A 
ATOM     32  C   UNL A   1      39.455  28.509  28.134  1.00  0.00    -0.014 A 
BRANCH  32  33
ATOM     33  C   UNL A   1      40.586  27.591  27.877  1.00  0.00     0.031 A 
ATOM     34  C   UNL A   1      41.927  28.345  27.834  1.00  0.00     0.074 A 
ATOM     35  C   UNL A   1      40.291  26.268  27.686  1.00  0.00     0.049 A 
ATOM     36  N   UNL A   1      43.041  28.019  27.259  1.00  0.00    -0.248 NA
ATOM     37  C   UNL A   1      42.039  29.685  28.482  1.00  0.00     0.031 C 
ATOM     38  C   UNL A   1      38.935  25.686  27.808  1.00  0.00     0.029 A 
ATOM     39  N   UNL A   1      41.036  25.151  27.355  1.00  0.00    -0.354 N 
ATOM     40  C   UNL A   1      44.004  29.004  27.577  1.00  0.00     0.074 A 
ATOM     41  C   UNL A   1      43.308  30.043  28.271  1.00  0.00     0.031 C 
ATOM     42  C   UNL A   1      38.939  24.374  27.484  1.00  0.00     0.029 A 
ATOM     43  C   UNL A   1      40.283  23.966  27.128  1.00  0.00     0.049 A 
ATOM     44  H   UNL A   1      42.017  25.174  27.281  1.00  0.00     0.167 HD
ATOM     45  C   UNL A   1      45.339  28.839  27.342  1.00  0.00     0.031 A 
ATOM     46  C   UNL A   1      40.698  22.755  26.643  1.00  0.00     0.031 A 
ATOM     47  C   UNL A   1      45.563  27.628  26.633  1.00  0.00     0.049 A 
ATOM     48  C   UNL A   1      42.160  22.831  26.544  1.00  0.00     0.074 A 
ATOM     49  C   UNL A   1      45.282  27.245  25.348  1.00  0.00     0.029 A 
ATOM     50  N   UNL A   1      45.798  26.515  27.401  1.00  0.00    -0.354 N 
ATOM     51  N   UNL A   1      42.978  22.779  27.549  1.00  0.00    -0.248 NA
ATOM     52  C   UNL A   1      42.769  23.026  25.221  1.00  0.00     0.031 C 
ATOM     53  C   UNL A   1      44.848  25.913  25.506  1.00  0.00     0.029 A 
ATOM     54  C   UNL A   1      45.112  25.486  26.812  1.00  0.00     0.049 A 
ATOM     55  H   UNL A   1      46.350  26.466  28.214  1.00  0.00     0.167 HD
ATOM     56  C   UNL A   1      44.112  23.339  27.018  1.00  0.00     0.074 A 
ATOM     57  C   UNL A   1      44.043  23.139  25.586  1.00  0.00     0.031 C 
ATOM     58  C   UNL A   1      44.684  24.395  27.651  1.00  0.00     0.031 A 
BRANCH  45  59
ATOM     59  C   UNL A   1      46.552  29.534  27.898  1.00  0.00    -0.014 A 
ATOM     60  C   UNL A   1      46.917  30.771  27.308  1.00  0.00     0.009 A 
ATOM     61  C   UNL A   1      47.513  28.895  28.686  1.00  0.00     0.009 A 
ATOM     62  C   UNL A   1      48.216  31.273  27.385  1.00  0.00     0.001 A 
ATOM     63  C   UNL A   1      48.809  29.421  28.797  1.00  0.00     0.001 A 
ATOM     64  C   UNL A   1      49.171  30.583  28.117  1.00  0.00     0.000 A 
ENDBRANCH  45  59
BRANCH  46  65
ATOM     65  C   UNL A   1      40.090  21.466  26.138  1.00  0.00    -0.014 A 
ATOM     66  C   UNL A   1      40.658  20.194  26.219  1.00  0.00     0.009 A 
ATOM     67  C   UNL A   1      38.780  21.510  25.576  1.00  0.00     0.009 A 
ATOM     68  C   UNL A   1      39.922  19.043  25.852  1.00  0.00     0.001 A 
ATOM     69  C   UNL A   1      38.030  20.376  25.258  1.00  0.00     0.001 A 
ATOM     70  C   UNL A   1      38.602  19.130  25.410  1.00  0.00     0.000 A 
ENDBRANCH  46  65
BRANCH  58  71
ATOM     71  C   UNL A   1      44.407  24.486  29.143  1.00  0.00    -0.014 A 
ATOM     72  C   UNL A   1      44.318  25.748  29.753  1.00  0.00     0.009 A 
ATOM     73  C   UNL A   1      44.342  23.361  29.985  1.00  0.00     0.009 A 
ATOM     74  C   UNL A   1      44.189  25.882  31.142  1.00  0.00     0.001 A 
ATOM     75  C   UNL A   1      44.211  23.491  31.377  1.00  0.00     0.001 A 
ATOM     76  C   UNL A   1      44.137  24.755  31.955  1.00  0.00     0.000 A 
ENDBRANCH  58  71
ENDBRANCH  32  33
ENDBRANCH  24  27
ENDBRANCH  22  23
ENDBRANCH  21  22
ENDBRANCH  20  21
ENDBRANCH   1  20
TORSDOF 16
ENDMDL
MODEL 2
REMARK VINA RESULT:     -10.7      1.570      2.244
REMARK SMILES O=C(C[C@H](c1ccsc1)n1cccc1)NCCCCCCNC(=O)c1ccc(-c2c3nc(c(-c4ccccc4)c4ccc([nH]4)c(-c4ccccc4)c4nc(c(-c5ccccc5)c5ccc2[nH]5)C=C4)C=C3)cc1
REMARK SMILES IDX 18 1 17 2 16 3 15 4 1 5 2 6 3 8 4 9 10 10 11 11 14 12 12 13
REMARK SMILES IDX 13 14 5 15 6 16 9 17 7 18 8 19 19 20 20 21 21 22 22 23 23 24
REMARK SMILES IDX 24 26 25 27 26 28 72 29 27 30 71 31 28 32 29 33 30 34 65 35
REMARK SMILES IDX 31 36 70 37 64 38 66 39 32 40 69 41 63 42 62 43 33 45 55 46
REMARK SMILES IDX 40 47 54 48 41 49 44 50 53 51 67 52 42 53 43 54 52 56 68 57
REMARK SMILES IDX 45 58 34 59 35 60 39 61 36 62 38 63 37 64 56 65 57 66 61 67
REMARK SMILES IDX 58 68 60 69 59 70 46 71 47 72 51 73 48 74 50 75 49 76
REMARK H PARENT 15 7 22 25 66 44 44 55
REMARK Flexibility Score: inf
ROOT
ATOM      1  C   UNL A   1      31.757  28.727  27.171  1.00  0.00     0.002 C 
ENDROOT
BRANCH   1   2
ATOM      2  C   UNL A   1      31.705  27.788  25.959  1.00  0.00     0.021 C 
BRANCH   2   3
ATOM      3  C   UNL A   1      31.176  26.385  26.257  1.00  0.00     0.116 C 
BRANCH   3   4
ATOM      4  N   UNL A   1      32.253  25.416  26.292  1.00  0.00    -0.356 N 
ATOM      5  O   UNL A   1      31.037  23.765  27.284  1.00  0.00    -0.275 OA
ATOM      6  C   UNL A   1      32.104  24.158  26.813  1.00  0.00     0.222 C 
ATOM      7  H   UNL A   1      33.130  25.672  25.925  1.00  0.00     0.163 HD
BRANCH   6   8
ATOM      8  C   UNL A   1      33.331  23.269  26.872  1.00  0.00     0.130 C 
BRANCH   8   9
ATOM      9  C   UNL A   1      34.008  22.964  25.528  1.00  0.00     0.127 C 
BRANCH   9  10
ATOM     10  N   UNL A   1      35.472  22.808  25.567  1.00  0.00    -0.346 N 
ATOM     11  C   UNL A   1      36.350  23.870  25.608  1.00  0.00     0.086 A 
ATOM     12  C   UNL A   1      36.196  21.643  25.623  1.00  0.00     0.086 A 
ATOM     13  C   UNL A   1      37.633  23.373  25.673  1.00  0.00     0.019 A 
ATOM     14  C   UNL A   1      37.535  21.965  25.691  1.00  0.00     0.019 A 
ENDBRANCH   9  10
BRANCH   9  15
ATOM     15  C   UNL A   1      33.395  21.742  24.869  1.00  0.00    -0.014 A 
ATOM     16  C   UNL A   1      33.104  20.497  25.524  1.00  0.00     0.017 A 
ATOM     17  C   UNL A   1      33.022  21.688  23.536  1.00  0.00     0.070 A 
ATOM     18  C   UNL A   1      32.534  19.572  24.678  1.00  0.00     0.065 A 
ATOM     19  S   UNL A   1      32.342  20.183  23.095  1.00  0.00    -0.152 S 
ENDBRANCH   9  15
ENDBRANCH   8   9
ENDBRANCH   6   8
ENDBRANCH   3   4
ENDBRANCH   2   3
ENDBRANCH   1   2
BRANCH   1  20
ATOM     20  C   UNL A   1      33.022  29.585  27.285  1.00  0.00     0.002 C 
BRANCH  20  21
ATOM     21  C   UNL A   1      34.343  28.818  27.138  1.00  0.00     0.021 C 
BRANCH  21  22
ATOM     22  C   UNL A   1      35.584  29.663  27.425  1.00  0.00     0.116 C 
BRANCH  22  23
ATOM     23  N   UNL A   1      35.699  29.957  28.843  1.00  0.00    -0.352 N 
ATOM     24  C   UNL A   1      36.579  29.470  29.773  1.00  0.00     0.251 C 
ATOM     25  H   UNL A   1      35.044  30.606  29.189  1.00  0.00     0.163 HD
ATOM     26  O   UNL A   1      36.292  29.537  30.963  1.00  0.00    -0.269 OA
BRANCH  24  27
ATOM     27  C   UNL A   1      37.865  28.860  29.374  1.00  0.00     0.039 A 
ATOM     28  C   UNL A   1      38.335  29.112  28.078  1.00  0.00     0.014 A 
ATOM     29  C   UNL A   1      38.546  27.966  30.208  1.00  0.00     0.014 A 
ATOM     30  C   UNL A   1      39.515  28.517  27.641  1.00  0.00     0.010 A 
ATOM     31  C   UNL A   1      39.738  27.386  29.783  1.00  0.00     0.010 A 
ATOM     32  C   UNL A   1      40.228  27.674  28.504  1.00  0.00    -0.014 A 
BRANCH  32  33
ATOM     33  C   UNL A   1      41.593  27.254  28.119  1.00  0.00     0.031 A 
ATOM     34  C   UNL A   1      42.544  28.459  28.008  1.00  0.00     0.074 A 
ATOM     35  C   UNL A   1      41.800  25.920  27.893  1.00  0.00     0.049 A 
ATOM     36  N   UNL A   1      43.643  28.584  27.334  1.00  0.00    -0.248 NA
ATOM     37  C   UNL A   1      42.202  29.733  28.705  1.00  0.00     0.031 C 
ATOM     38  C   UNL A   1      40.777  24.868  28.092  1.00  0.00     0.029 A 
ATOM     39  N   UNL A   1      42.876  25.171  27.456  1.00  0.00    -0.354 N 
ATOM     40  C   UNL A   1      44.192  29.856  27.622  1.00  0.00     0.074 A 
ATOM     41  C   UNL A   1      43.221  30.546  28.413  1.00  0.00     0.031 C 
ATOM     42  C   UNL A   1      41.244  23.658  27.711  1.00  0.00     0.029 A 
ATOM     43  C   UNL A   1      42.606  23.793  27.234  1.00  0.00     0.049 A 
ATOM     44  H   UNL A   1      43.766  25.564  27.308  1.00  0.00     0.167 HD
ATOM     45  C   UNL A   1      45.465  30.210  27.278  1.00  0.00     0.031 A 
ATOM     46  C   UNL A   1      43.400  22.833  26.664  1.00  0.00     0.031 A 
ATOM     47  C   UNL A   1      46.063  29.182  26.500  1.00  0.00     0.049 A 
ATOM     48  C   UNL A   1      44.712  23.457  26.456  1.00  0.00     0.074 A 
ATOM     49  C   UNL A   1      45.833  28.738  25.224  1.00  0.00     0.029 A 
ATOM     50  N   UNL A   1      46.764  28.230  27.196  1.00  0.00    -0.354 N 
ATOM     51  N   UNL A   1      45.575  23.704  27.393  1.00  0.00    -0.248 NA
ATOM     52  C   UNL A   1      45.084  23.884  25.101  1.00  0.00     0.031 C 
ATOM     53  C   UNL A   1      45.946  27.338  25.354  1.00  0.00     0.029 A 
ATOM     54  C   UNL A   1      46.465  27.025  26.616  1.00  0.00     0.049 A 
ATOM     55  H   UNL A   1      47.364  28.382  27.962  1.00  0.00     0.167 HD
ATOM     56  C   UNL A   1      46.364  24.658  26.802  1.00  0.00     0.074 A 
ATOM     57  C   UNL A   1      46.250  24.464  25.372  1.00  0.00     0.031 C 
ATOM     58  C   UNL A   1      46.553  25.843  27.436  1.00  0.00     0.031 A 
BRANCH  45  59
ATOM     59  C   UNL A   1      46.373  31.304  27.769  1.00  0.00    -0.014 A 
ATOM     60  C   UNL A   1      47.058  32.066  26.789  1.00  0.00     0.009 A 
ATOM     61  C   UNL A   1      46.842  31.383  29.082  1.00  0.00     0.009 A 
ATOM     62  C   UNL A   1      48.234  32.759  27.079  1.00  0.00     0.001 A 
ATOM     63  C   UNL A   1      48.003  32.114  29.383  1.00  0.00     0.001 A 
ATOM     64  C   UNL A   1      48.718  32.765  28.378  1.00  0.00     0.000 A 
ENDBRANCH  45  59
BRANCH  46  65
ATOM     65  C   UNL A   1      43.277  21.417  26.150  1.00  0.00    -0.014 A 
ATOM     66  C   UNL A   1      44.230  20.720  25.406  1.00  0.00     0.009 A 
ATOM     67  C   UNL A   1      42.113  20.669  26.496  1.00  0.00     0.009 A 
ATOM     68  C   UNL A   1      44.066  19.346  25.117  1.00  0.00     0.001 A 
ATOM     69  C   UNL A   1      41.966  19.302  26.257  1.00  0.00     0.001 A 
ATOM     70  C   UNL A   1      42.958  18.631  25.573  1.00  0.00     0.000 A 
ENDBRANCH  46  65
BRANCH  58  71
ATOM     71  C   UNL A   1      46.395  25.804  28.947  1.00  0.00    -0.014 A 
ATOM     72  C   UNL A   1      45.122  25.986  29.513  1.00  0.00     0.009 A 
ATOM     73  C   UNL A   1      47.482  25.704  29.833  1.00  0.00     0.009 A 
ATOM     74  C   UNL A   1      44.945  26.081  30.900  1.00  0.00     0.001 A 
ATOM     75  C   UNL A   1      47.308  25.798  31.224  1.00  0.00     0.001 A 
ATOM     76  C   UNL A   1      46.037  25.990  31.756  1.00  0.00     0.000 A 
ENDBRANCH  58  71
ENDBRANCH  32  33
ENDBRANCH  24  27
ENDBRANCH  22  23
ENDBRANCH  21  22
ENDBRANCH  20  21
ENDBRANCH   1  20
TORSDOF 16
ENDMDL
MODEL 3
REMARK VINA RESULT:     -10.4      1.793      2.666
REMARK SMILES O=C(C[C@H](c1ccsc1)n1cccc1)NCCCCCCNC(=O)c1ccc(-c2c3nc(c(-c4ccccc4)c4ccc([nH]4)c(-c4ccccc4)c4nc(c(-c5ccccc5)c5ccc2[nH]5)C=C4)C=C3)cc1
REMARK SMILES IDX 18 1 17 2 16 3 15 4 1 5 2 6 3 8 4 9 10 10 11 11 14 12 12 13
REMARK SMILES IDX 13 14 5 15 6 16 9 17 7 18 8 19 19 20 20 21 21 22 22 23 23 24
REMARK SMILES IDX 24 26 25 27 26 28 72 29 27 30 71 31 28 32 29 33 30 34 65 35
REMARK SMILES IDX 31 36 70 37 64 38 66 39 32 40 69 41 63 42 62 43 33 45 55 46
REMARK SMILES IDX 40 47 54 48 41 49 44 50 53 51 67 52 42 53 43 54 52 56 68 57
REMARK SMILES IDX 45 58 34 59 35 60 39 61 36 62 38 63 37 64 56 65 57 66 61 67
REMARK SMILES IDX 58 68 60 69 59 70 46 71 47 72 51 73 48 74 50 75 49 76
REMARK H PARENT 15 7 22 25 66 44 44 55
REMARK Flexibility Score: inf
ROOT
ATOM      1  C   UNL A   1      31.370  28.516  25.280  1.00  0.00     0.002 C 
ENDROOT
BRANCH   1   2
ATOM      2  C   UNL A   1      30.847  28.915  23.893  1.00  0.00     0.021 C 
BRANCH   2   3
ATOM      3  C   UNL A   1      31.596  28.281  22.720  1.00  0.00     0.116 C 
BRANCH   3   4
ATOM      4  N   UNL A   1      32.110  26.973  23.073  1.00  0.00    -0.356 N 
ATOM      5  O   UNL A   1      33.785  26.967  21.529  1.00  0.00    -0.275 OA
ATOM      6  C   UNL A   1      33.183  26.401  22.440  1.00  0.00     0.222 C 
ATOM      7  H   UNL A   1      31.671  26.474  23.799  1.00  0.00     0.163 HD
BRANCH   6   8
ATOM      8  C   UNL A   1      33.568  24.991  22.842  1.00  0.00     0.130 C 
BRANCH   8   9
ATOM      9  C   UNL A   1      33.831  24.763  24.337  1.00  0.00     0.127 C 
BRANCH   9  10
ATOM     10  N   UNL A   1      32.715  24.186  25.106  1.00  0.00    -0.346 N 
ATOM     11  C   UNL A   1      32.175  22.944  24.850  1.00  0.00     0.086 A 
ATOM     12  C   UNL A   1      32.076  24.722  26.197  1.00  0.00     0.086 A 
ATOM     13  C   UNL A   1      31.180  22.703  25.771  1.00  0.00     0.019 A 
ATOM     14  C   UNL A   1      31.123  23.823  26.627  1.00  0.00     0.019 A 
ENDBRANCH   9  10
BRANCH   9  15
ATOM     15  C   UNL A   1      35.075  23.920  24.554  1.00  0.00    -0.014 A 
ATOM     16  C   UNL A   1      35.856  23.879  25.760  1.00  0.00     0.017 A 
ATOM     17  C   UNL A   1      35.604  23.063  23.604  1.00  0.00     0.070 A 
ATOM     18  C   UNL A   1      36.920  23.009  25.673  1.00  0.00     0.065 A 
ATOM     19  S   UNL A   1      36.995  22.236  24.152  1.00  0.00    -0.152 S 
ENDBRANCH   9  15
ENDBRANCH   8   9
ENDBRANCH   6   8
ENDBRANCH   3   4
ENDBRANCH   2   3
ENDBRANCH   1   2
BRANCH   1  20
ATOM     20  C   UNL A   1      32.309  29.528  25.944  1.00  0.00     0.002 C 
BRANCH  20  21
ATOM     21  C   UNL A   1      33.789  29.120  25.972  1.00  0.00     0.021 C 
BRANCH  21  22
ATOM     22  C   UNL A   1      34.353  28.932  27.380  1.00  0.00     0.116 C 
BRANCH  22  23
ATOM     23  N   UNL A   1      34.499  30.209  28.057  1.00  0.00    -0.352 N 
ATOM     24  C   UNL A   1      35.529  30.683  28.827  1.00  0.00     0.251 C 
ATOM     25  H   UNL A   1      33.741  30.829  27.947  1.00  0.00     0.163 HD
ATOM     26  O   UNL A   1      35.319  31.603  29.609  1.00  0.00    -0.269 OA
BRANCH  24  27
ATOM     27  C   UNL A   1      36.887  30.106  28.739  1.00  0.00     0.039 A 
ATOM     28  C   UNL A   1      37.479  29.641  29.920  1.00  0.00     0.014 A 
ATOM     29  C   UNL A   1      37.616  30.119  27.544  1.00  0.00     0.014 A 
ATOM     30  C   UNL A   1      38.776  29.137  29.894  1.00  0.00     0.010 A 
ATOM     31  C   UNL A   1      38.906  29.596  27.509  1.00  0.00     0.010 A 
ATOM     32  C   UNL A   1      39.478  29.093  28.682  1.00  0.00    -0.014 A 
BRANCH  32  33
ATOM     33  C   UNL A   1      40.745  28.332  28.623  1.00  0.00     0.031 A 
ATOM     34  C   UNL A   1      41.968  29.266  28.676  1.00  0.00     0.074 A 
ATOM     35  C   UNL A   1      40.657  26.971  28.500  1.00  0.00     0.049 A 
ATOM     36  N   UNL A   1      43.177  29.069  28.256  1.00  0.00    -0.248 NA
ATOM     37  C   UNL A   1      41.818  30.643  29.230  1.00  0.00     0.031 C 
ATOM     38  C   UNL A   1      39.387  26.210  28.512  1.00  0.00     0.029 A 
ATOM     39  N   UNL A   1      41.580  25.955  28.340  1.00  0.00    -0.354 N 
ATOM     40  C   UNL A   1      43.953  30.198  28.606  1.00  0.00     0.074 A 
ATOM     41  C   UNL A   1      43.043  31.166  29.137  1.00  0.00     0.031 C 
ATOM     42  C   UNL A   1      39.607  24.895  28.291  1.00  0.00     0.029 A 
ATOM     43  C   UNL A   1      41.028  24.663  28.120  1.00  0.00     0.049 A 
ATOM     44  H   UNL A   1      42.550  26.114  28.376  1.00  0.00     0.167 HD
ATOM     45  C   UNL A   1      45.317  30.212  28.536  1.00  0.00     0.031 A 
ATOM     46  C   UNL A   1      41.658  23.497  27.776  1.00  0.00     0.031 A 
ATOM     47  C   UNL A   1      45.786  29.006  27.949  1.00  0.00     0.049 A 
ATOM     48  C   UNL A   1      43.098  23.775  27.837  1.00  0.00     0.074 A 
ATOM     49  C   UNL A   1      45.718  28.512  26.673  1.00  0.00     0.029 A 
ATOM     50  N   UNL A   1      46.073  27.985  28.820  1.00  0.00    -0.354 N 
ATOM     51  N   UNL A   1      43.786  23.899  28.929  1.00  0.00    -0.248 NA
ATOM     52  C   UNL A   1      43.831  23.978  26.581  1.00  0.00     0.031 C 
ATOM     53  C   UNL A   1      45.452  27.143  26.880  1.00  0.00     0.029 A 
ATOM     54  C   UNL A   1      45.610  26.835  28.236  1.00  0.00     0.049 A 
ATOM     55  H   UNL A   1      46.524  28.062  29.691  1.00  0.00     0.167 HD
ATOM     56  C   UNL A   1      44.890  24.584  28.489  1.00  0.00     0.074 A 
ATOM     57  C   UNL A   1      45.024  24.292  27.077  1.00  0.00     0.031 C 
ATOM     58  C   UNL A   1      45.233  25.746  29.101  1.00  0.00     0.031 A 
BRANCH  45  59
ATOM     59  C   UNL A   1      46.348  31.104  29.171  1.00  0.00    -0.014 A 
ATOM     60  C   UNL A   1      46.847  32.176  28.387  1.00  0.00     0.009 A 
ATOM     61  C   UNL A   1      47.079  30.749  30.307  1.00  0.00     0.009 A 
ATOM     62  C   UNL A   1      48.084  32.769  28.647  1.00  0.00     0.001 A 
ATOM     63  C   UNL A   1      48.304  31.373  30.591  1.00  0.00     0.001 A 
ATOM     64  C   UNL A   1      48.823  32.350  29.742  1.00  0.00     0.000 A 
ENDBRANCH  45  59
BRANCH  46  65
ATOM     65  C   UNL A   1      41.295  22.108  27.304  1.00  0.00    -0.014 A 
ATOM     66  C   UNL A   1      40.236  21.770  26.459  1.00  0.00     0.009 A 
ATOM     67  C   UNL A   1      42.134  21.021  27.688  1.00  0.00     0.009 A 
ATOM     68  C   UNL A   1      40.094  20.454  25.961  1.00  0.00     0.001 A 
ATOM     69  C   UNL A   1      42.028  19.731  27.163  1.00  0.00     0.001 A 
ATOM     70  C   UNL A   1      41.006  19.449  26.281  1.00  0.00     0.000 A 
ENDBRANCH  46  65
BRANCH  58  71
ATOM     71  C   UNL A   1      44.767  25.883  30.541  1.00  0.00    -0.014 A 
ATOM     72  C   UNL A   1      45.146  24.914  31.485  1.00  0.00     0.009 A 
ATOM     73  C   UNL A   1      43.873  26.880  30.970  1.00  0.00     0.009 A 
ATOM     74  C   UNL A   1      44.641  24.929  32.792  1.00  0.00     0.001 A 
ATOM     75  C   UNL A   1      43.366  26.900  32.280  1.00  0.00     0.001 A 
ATOM     76  C   UNL A   1      43.750  25.921  33.191  1.00  0.00     0.000 A 
ENDBRANCH  58  71
ENDBRANCH  32  33
ENDBRANCH  24  27
ENDBRANCH  22  23
ENDBRANCH  21  22
ENDBRANCH  20  21
ENDBRANCH   1  20
TORSDOF 16
ENDMDL
