MODEL 1
REMARK VINA RESULT:     -11.0      0.000      0.000
REMARK SMILES CCc1ccccc1NC(=O)CCN1C[C@H](C(=O)NCCCCCCNC(=O)c2ccc(-c3c4nc(c(-c5ccccc5)c5ccc([nH]5)c(-c5ccccc5)c5nc(c(-c6ccccc6)c6ccc3[nH]6)C=C5)C=C4)cc2)CC1=O
REMARK SMILES IDX 21 1 20 2 19 3 17 4 18 5 16 7 14 8 15 9 78 10 77 11 79 12
REMARK SMILES IDX 13 13 12 14 10 15 9 16 11 18 8 19 3 20 4 21 5 22 7 23 6 24
REMARK SMILES IDX 2 25 1 26 22 27 23 28 24 29 25 30 26 31 27 32 28 34 29 35
REMARK SMILES IDX 30 36 76 37 31 38 75 39 32 40 33 41 34 42 69 43 35 44 74 45
REMARK SMILES IDX 68 46 70 47 36 48 73 49 67 50 66 51 37 53 59 54 44 55 58 56
REMARK SMILES IDX 45 57 48 58 57 59 71 60 46 61 47 62 56 64 72 65 49 66 38 67
REMARK SMILES IDX 39 68 43 69 40 70 42 71 41 72 60 73 61 74 65 75 62 76 64 77
REMARK SMILES IDX 63 78 50 79 51 80 55 81 52 82 54 83 53 84
REMARK H PARENT 19 6 9 17 26 33 70 52 48 63
REMARK Flexibility Score: inf
ROOT
ATOM      1  C   UNL A   1      35.039  31.765  28.409  1.00  0.00     0.021 C 
ENDROOT
BRANCH   1   2
ATOM      2  C   UNL A   1      33.670  31.523  27.790  1.00  0.00     0.116 C 
BRANCH   2   3
ATOM      3  N   UNL A   1      33.377  30.094  27.533  1.00  0.00    -0.356 N 
ATOM      4  C   UNL A   1      32.953  29.180  26.487  1.00  0.00     0.225 C 
ATOM      5  O   UNL A   1      33.274  28.148  27.189  1.00  0.00    -0.275 OA
ATOM      6  H   UNL A   1      33.519  29.585  28.364  1.00  0.00     0.163 HD
BRANCH   4   7
ATOM      7  C   UNL A   1      32.008  29.324  24.514  1.00  0.00     0.107 C 
ATOM      8  N   UNL A   1      31.072  27.696  22.835  1.00  0.00    -0.341 N 
ATOM      9  C   UNL A   1      32.256  28.483  23.050  1.00  0.00     0.133 C 
ATOM     10  C   UNL A   1      29.937  28.291  23.344  1.00  0.00     0.223 C 
ATOM     11  C   UNL A   1      30.351  29.569  24.016  1.00  0.00     0.115 C 
ATOM     12  O   UNL A   1      28.795  27.866  23.286  1.00  0.00    -0.275 OA
BRANCH   8  13
ATOM     13  C   UNL A   1      31.127  26.305  22.444  1.00  0.00     0.129 C 
BRANCH  13  14
ATOM     14  C   UNL A   1      32.443  25.621  22.814  1.00  0.00     0.122 C 
BRANCH  14  15
ATOM     15  C   UNL A   1      33.069  24.811  21.695  1.00  0.00     0.226 C 
ATOM     16  N   UNL A   1      33.495  23.520  21.847  1.00  0.00    -0.326 N 
ATOM     17  H   UNL A   1      33.842  23.112  21.022  1.00  0.00     0.169 HD
ATOM     18  O   UNL A   1      33.150  25.311  20.566  1.00  0.00    -0.275 OA
BRANCH  16  19
ATOM     19  C   UNL A   1      33.528  22.670  22.965  1.00  0.00     0.044 A 
ATOM     20  C   UNL A   1      35.075  22.457  23.858  1.00  0.00    -0.025 A 
ATOM     21  C   UNL A   1      35.256  21.056  25.006  1.00  0.00     0.006 A 
ATOM     22  C   UNL A   1      33.808  20.012  25.418  1.00  0.00     0.000 A 
ATOM     23  C   UNL A   1      32.102  21.677  23.425  1.00  0.00     0.026 A 
ATOM     24  C   UNL A   1      32.240  20.364  24.642  1.00  0.00     0.002 A 
BRANCH  20  25
ATOM     25  C   UNL A   1      36.239  23.431  23.816  1.00  0.00     0.034 C 
ATOM     26  C   UNL A   1      37.049  23.636  25.087  1.00  0.00     0.009 C 
ENDBRANCH  20  25
ENDBRANCH  16  19
ENDBRANCH  14  15
ENDBRANCH  13  14
ENDBRANCH   8  13
ENDBRANCH   4   7
ENDBRANCH   2   3
ENDBRANCH   1   2
BRANCH   1  27
ATOM     27  C   UNL A   1      35.668  33.115  28.085  1.00  0.00     0.002 C 
BRANCH  27  28
ATOM     28  C   UNL A   1      35.524  34.192  29.165  1.00  0.00     0.002 C 
BRANCH  28  29
ATOM     29  C   UNL A   1      34.323  35.134  29.025  1.00  0.00     0.021 C 
BRANCH  29  30
ATOM     30  C   UNL A   1      33.039  34.649  29.686  1.00  0.00     0.116 C 
BRANCH  30  31
ATOM     31  N   UNL A   1      32.584  35.558  30.722  1.00  0.00    -0.352 N 
ATOM     32  C   UNL A   1      32.982  35.656  32.029  1.00  0.00     0.251 C 
ATOM     33  H   UNL A   1      31.890  36.198  30.444  1.00  0.00     0.163 HD
ATOM     34  O   UNL A   1      32.335  36.327  32.826  1.00  0.00    -0.269 OA
BRANCH  32  35
ATOM     35  C   UNL A   1      34.186  34.931  32.478  1.00  0.00     0.039 A 
ATOM     36  C   UNL A   1      34.056  33.606  32.898  1.00  0.00     0.014 A 
ATOM     37  C   UNL A   1      35.436  35.557  32.479  1.00  0.00     0.014 A 
ATOM     38  C   UNL A   1      35.194  32.888  33.264  1.00  0.00     0.010 A 
ATOM     39  C   UNL A   1      36.576  34.819  32.772  1.00  0.00     0.010 A 
ATOM     40  C   UNL A   1      36.466  33.477  33.167  1.00  0.00    -0.014 A 
BRANCH  40  41
ATOM     41  C   UNL A   1      37.691  32.690  33.446  1.00  0.00     0.031 A 
ATOM     42  C   UNL A   1      38.477  32.925  34.705  1.00  0.00     0.074 A 
ATOM     43  C   UNL A   1      38.124  31.802  32.530  1.00  0.00     0.049 A 
ATOM     44  N   UNL A   1      39.589  32.358  35.099  1.00  0.00    -0.248 NA
ATOM     45  C   UNL A   1      37.961  33.945  35.633  1.00  0.00     0.031 C 
ATOM     46  C   UNL A   1      37.468  31.516  31.252  1.00  0.00     0.029 A 
ATOM     47  N   UNL A   1      39.220  30.977  32.532  1.00  0.00    -0.354 N 
ATOM     48  C   UNL A   1      39.910  32.957  36.310  1.00  0.00     0.074 A 
ATOM     49  C   UNL A   1      38.904  33.966  36.563  1.00  0.00     0.031 C 
ATOM     50  C   UNL A   1      38.159  30.562  30.607  1.00  0.00     0.029 A 
ATOM     51  C   UNL A   1      39.328  30.204  31.401  1.00  0.00     0.049 A 
ATOM     52  H   UNL A   1      39.868  30.943  33.273  1.00  0.00     0.167 HD
ATOM     53  C   UNL A   1      40.941  32.681  37.143  1.00  0.00     0.031 A 
ATOM     54  C   UNL A   1      40.272  29.315  31.037  1.00  0.00     0.031 A 
ATOM     55  C   UNL A   1      41.938  31.676  36.885  1.00  0.00     0.049 A 
ATOM     56  C   UNL A   1      41.423  29.051  31.967  1.00  0.00     0.074 A 
ATOM     57  C   UNL A   1      42.987  31.276  37.697  1.00  0.00     0.029 A 
ATOM     58  N   UNL A   1      42.020  30.921  35.725  1.00  0.00    -0.354 N 
ATOM     59  N   UNL A   1      41.665  29.566  33.149  1.00  0.00    -0.248 NA
ATOM     60  C   UNL A   1      42.428  28.080  31.515  1.00  0.00     0.031 C 
ATOM     61  C   UNL A   1      43.742  30.331  36.997  1.00  0.00     0.029 A 
ATOM     62  C   UNL A   1      43.126  30.090  35.781  1.00  0.00     0.049 A 
ATOM     63  H   UNL A   1      41.385  30.970  34.975  1.00  0.00     0.167 HD
ATOM     64  C   UNL A   1      42.837  28.966  33.590  1.00  0.00     0.074 A 
ATOM     65  C   UNL A   1      43.242  28.030  32.560  1.00  0.00     0.031 C 
ATOM     66  C   UNL A   1      43.520  29.174  34.741  1.00  0.00     0.031 A 
BRANCH  53  67
ATOM     67  C   UNL A   1      41.052  33.490  38.407  1.00  0.00    -0.014 A 
ATOM     68  C   UNL A   1      40.420  33.085  39.593  1.00  0.00     0.009 A 
ATOM     69  C   UNL A   1      41.843  34.649  38.423  1.00  0.00     0.009 A 
ATOM     70  C   UNL A   1      40.547  33.843  40.759  1.00  0.00     0.001 A 
ATOM     71  C   UNL A   1      41.995  35.388  39.598  1.00  0.00     0.001 A 
ATOM     72  C   UNL A   1      41.340  34.990  40.762  1.00  0.00     0.000 A 
ENDBRANCH  53  67
BRANCH  54  73
ATOM     73  C   UNL A   1      40.173  28.617  29.729  1.00  0.00    -0.014 A 
ATOM     74  C   UNL A   1      39.544  27.366  29.628  1.00  0.00     0.009 A 
ATOM     75  C   UNL A   1      40.717  29.195  28.570  1.00  0.00     0.009 A 
ATOM     76  C   UNL A   1      39.490  26.697  28.404  1.00  0.00     0.001 A 
ATOM     77  C   UNL A   1      40.632  28.539  27.341  1.00  0.00     0.001 A 
ATOM     78  C   UNL A   1      40.028  27.286  27.261  1.00  0.00     0.000 A 
ENDBRANCH  54  73
BRANCH  66  79
ATOM     79  C   UNL A   1      44.768  28.362  34.956  1.00  0.00    -0.014 A 
ATOM     80  C   UNL A   1      44.702  26.993  35.257  1.00  0.00     0.009 A 
ATOM     81  C   UNL A   1      46.026  28.967  34.815  1.00  0.00     0.009 A 
ATOM     82  C   UNL A   1      45.873  26.255  35.445  1.00  0.00     0.001 A 
ATOM     83  C   UNL A   1      47.194  28.220  34.970  1.00  0.00     0.001 A 
ATOM     84  C   UNL A   1      47.117  26.867  35.295  1.00  0.00     0.000 A 
ENDBRANCH  66  79
ENDBRANCH  40  41
ENDBRANCH  32  35
ENDBRANCH  30  31
ENDBRANCH  29  30
ENDBRANCH  28  29
ENDBRANCH  27  28
ENDBRANCH   1  27
TORSDOF 18
ENDMDL
MODEL 2
REMARK VINA RESULT:     -11.0      0.387      5.766
REMARK SMILES CCc1ccccc1NC(=O)CCN1C[C@H](C(=O)NCCCCCCNC(=O)c2ccc(-c3c4nc(c(-c5ccccc5)c5ccc([nH]5)c(-c5ccccc5)c5nc(c(-c6ccccc6)c6ccc3[nH]6)C=C5)C=C4)cc2)CC1=O
REMARK SMILES IDX 21 1 20 2 19 3 17 4 18 5 16 7 14 8 15 9 78 10 77 11 79 12
REMARK SMILES IDX 13 13 12 14 10 15 9 16 11 18 8 19 3 20 4 21 5 22 7 23 6 24
REMARK SMILES IDX 2 25 1 26 22 27 23 28 24 29 25 30 26 31 27 32 28 34 29 35
REMARK SMILES IDX 30 36 76 37 31 38 75 39 32 40 33 41 34 42 69 43 35 44 74 45
REMARK SMILES IDX 68 46 70 47 36 48 73 49 67 50 66 51 37 53 59 54 44 55 58 56
REMARK SMILES IDX 45 57 48 58 57 59 71 60 46 61 47 62 56 64 72 65 49 66 38 67
REMARK SMILES IDX 39 68 43 69 40 70 42 71 41 72 60 73 61 74 65 75 62 76 64 77
REMARK SMILES IDX 63 78 50 79 51 80 55 81 52 82 54 83 53 84
REMARK H PARENT 19 6 9 17 26 33 70 52 48 63
REMARK Flexibility Score: inf
ROOT
ATOM      1  C   UNL A   1      34.986  31.749  28.596  1.00  0.00     0.021 C 
ENDROOT
BRANCH   1   2
ATOM      2  C   UNL A   1      33.730  31.565  27.757  1.00  0.00     0.116 C 
BRANCH   2   3
ATOM      3  N   UNL A   1      33.352  30.147  27.555  1.00  0.00    -0.356 N 
ATOM      4  C   UNL A   1      32.887  29.217  26.541  1.00  0.00     0.225 C 
ATOM      5  O   UNL A   1      33.133  28.198  27.291  1.00  0.00    -0.275 OA
ATOM      6  H   UNL A   1      33.452  29.665  28.408  1.00  0.00     0.163 HD
BRANCH   4   7
ATOM      7  C   UNL A   1      31.979  29.336  24.549  1.00  0.00     0.107 C 
ATOM      8  N   UNL A   1      31.002  27.693  22.908  1.00  0.00    -0.341 N 
ATOM      9  C   UNL A   1      32.214  28.438  23.117  1.00  0.00     0.133 C 
ATOM     10  C   UNL A   1      29.885  28.350  23.378  1.00  0.00     0.223 C 
ATOM     11  C   UNL A   1      30.341  29.632  24.016  1.00  0.00     0.115 C 
ATOM     12  O   UNL A   1      28.728  27.970  23.315  1.00  0.00    -0.275 OA
BRANCH   8  13
ATOM     13  C   UNL A   1      31.006  26.290  22.562  1.00  0.00     0.129 C 
BRANCH  13  14
ATOM     14  C   UNL A   1      32.191  25.522  23.147  1.00  0.00     0.122 C 
BRANCH  14  15
ATOM     15  C   UNL A   1      33.206  25.052  22.123  1.00  0.00     0.226 C 
ATOM     16  N   UNL A   1      33.835  23.839  22.187  1.00  0.00    -0.326 N 
ATOM     17  H   UNL A   1      34.436  23.658  21.430  1.00  0.00     0.169 HD
ATOM     18  O   UNL A   1      33.442  25.767  21.140  1.00  0.00    -0.275 OA
BRANCH  16  19
ATOM     19  C   UNL A   1      33.780  22.805  23.136  1.00  0.00     0.044 A 
ATOM     20  C   UNL A   1      35.269  22.375  24.051  1.00  0.00    -0.025 A 
ATOM     21  C   UNL A   1      35.343  20.789  24.939  1.00  0.00     0.006 A 
ATOM     22  C   UNL A   1      33.842  19.748  25.089  1.00  0.00     0.000 A 
ATOM     23  C   UNL A   1      32.301  21.805  23.344  1.00  0.00     0.026 A 
ATOM     24  C   UNL A   1      32.331  20.295  24.314  1.00  0.00     0.002 A 
BRANCH  20  25
ATOM     25  C   UNL A   1      36.463  23.294  24.238  1.00  0.00     0.034 C 
ATOM     26  C   UNL A   1      36.772  23.790  25.642  1.00  0.00     0.009 C 
ENDBRANCH  20  25
ENDBRANCH  16  19
ENDBRANCH  14  15
ENDBRANCH  13  14
ENDBRANCH   8  13
ENDBRANCH   4   7
ENDBRANCH   2   3
ENDBRANCH   1   2
BRANCH   1  27
ATOM     27  C   UNL A   1      35.824  32.976  28.249  1.00  0.00     0.002 C 
BRANCH  27  28
ATOM     28  C   UNL A   1      35.712  34.153  29.223  1.00  0.00     0.002 C 
BRANCH  28  29
ATOM     29  C   UNL A   1      34.497  35.069  29.039  1.00  0.00     0.021 C 
BRANCH  29  30
ATOM     30  C   UNL A   1      33.185  34.521  29.585  1.00  0.00     0.116 C 
BRANCH  30  31
ATOM     31  N   UNL A   1      32.619  35.383  30.607  1.00  0.00    -0.352 N 
ATOM     32  C   UNL A   1      32.944  35.488  31.934  1.00  0.00     0.251 C 
ATOM     33  H   UNL A   1      31.898  35.980  30.302  1.00  0.00     0.163 HD
ATOM     34  O   UNL A   1      32.215  36.103  32.705  1.00  0.00    -0.269 OA
BRANCH  32  35
ATOM     35  C   UNL A   1      34.170  34.838  32.435  1.00  0.00     0.039 A 
ATOM     36  C   UNL A   1      34.132  33.476  32.742  1.00  0.00     0.014 A 
ATOM     37  C   UNL A   1      35.351  35.570  32.594  1.00  0.00     0.014 A 
ATOM     38  C   UNL A   1      35.299  32.834  33.155  1.00  0.00     0.010 A 
ATOM     39  C   UNL A   1      36.527  34.913  32.934  1.00  0.00     0.010 A 
ATOM     40  C   UNL A   1      36.512  33.539  33.217  1.00  0.00    -0.014 A 
BRANCH  40  41
ATOM     41  C   UNL A   1      37.779  32.843  33.547  1.00  0.00     0.031 A 
ATOM     42  C   UNL A   1      38.354  31.822  32.606  1.00  0.00     0.074 A 
ATOM     43  C   UNL A   1      38.378  33.093  34.728  1.00  0.00     0.049 A 
ATOM     44  N   UNL A   1      39.431  31.090  32.745  1.00  0.00    -0.248 NA
ATOM     45  C   UNL A   1      37.615  31.574  31.357  1.00  0.00     0.031 C 
ATOM     46  C   UNL A   1      37.892  34.032  35.741  1.00  0.00     0.029 A 
ATOM     47  N   UNL A   1      39.525  32.577  35.276  1.00  0.00    -0.354 N 
ATOM     48  C   UNL A   1      39.491  30.290  31.611  1.00  0.00     0.074 A 
ATOM     49  C   UNL A   1      38.318  30.589  30.818  1.00  0.00     0.031 C 
ATOM     50  C   UNL A   1      38.749  34.046  36.774  1.00  0.00     0.029 A 
ATOM     51  C   UNL A   1      39.816  33.085  36.519  1.00  0.00     0.049 A 
ATOM     52  H   UNL A   1      40.085  31.906  34.823  1.00  0.00     0.167 HD
ATOM     53  C   UNL A   1      40.446  29.399  31.255  1.00  0.00     0.031 A 
ATOM     54  C   UNL A   1      40.823  32.800  37.366  1.00  0.00     0.031 A 
ATOM     55  C   UNL A   1      41.611  29.105  32.048  1.00  0.00     0.049 A 
ATOM     56  C   UNL A   1      41.852  31.782  36.959  1.00  0.00     0.074 A 
ATOM     57  C   UNL A   1      42.668  28.264  31.746  1.00  0.00     0.029 A 
ATOM     58  N   UNL A   1      41.865  29.633  33.305  1.00  0.00    -0.354 N 
ATOM     59  N   UNL A   1      41.940  31.097  35.845  1.00  0.00    -0.248 NA
ATOM     60  C   UNL A   1      42.923  31.503  37.925  1.00  0.00     0.031 C 
ATOM     61  C   UNL A   1      43.526  28.229  32.849  1.00  0.00     0.029 A 
ATOM     62  C   UNL A   1      43.040  29.101  33.809  1.00  0.00     0.049 A 
ATOM     63  H   UNL A   1      41.295  30.287  33.768  1.00  0.00     0.167 HD
ATOM     64  C   UNL A   1      43.085  30.321  35.967  1.00  0.00     0.074 A 
ATOM     65  C   UNL A   1      43.673  30.641  37.253  1.00  0.00     0.031 C 
ATOM     66  C   UNL A   1      43.603  29.422  35.096  1.00  0.00     0.031 A 
BRANCH  53  67
ATOM     67  C   UNL A   1      40.263  28.661  29.956  1.00  0.00    -0.014 A 
ATOM     68  C   UNL A   1      39.628  27.410  29.910  1.00  0.00     0.009 A 
ATOM     69  C   UNL A   1      40.688  29.249  28.756  1.00  0.00     0.009 A 
ATOM     70  C   UNL A   1      39.455  26.747  28.692  1.00  0.00     0.001 A 
ATOM     71  C   UNL A   1      40.485  28.601  27.536  1.00  0.00     0.001 A 
ATOM     72  C   UNL A   1      39.878  27.346  27.506  1.00  0.00     0.000 A 
ENDBRANCH  53  67
BRANCH  54  73
ATOM     73  C   UNL A   1      40.904  33.480  38.685  1.00  0.00    -0.014 A 
ATOM     74  C   UNL A   1      41.639  34.666  38.839  1.00  0.00     0.009 A 
ATOM     75  C   UNL A   1      40.250  32.940  39.805  1.00  0.00     0.009 A 
ATOM     76  C   UNL A   1      41.744  35.277  40.089  1.00  0.00     0.001 A 
ATOM     77  C   UNL A   1      40.329  33.572  41.047  1.00  0.00     0.001 A 
ATOM     78  C   UNL A   1      41.085  34.734  41.191  1.00  0.00     0.000 A 
ENDBRANCH  54  73
BRANCH  66  79
ATOM     79  C   UNL A   1      44.877  28.731  35.498  1.00  0.00    -0.014 A 
ATOM     80  C   UNL A   1      44.864  27.433  36.031  1.00  0.00     0.009 A 
ATOM     81  C   UNL A   1      46.110  29.373  35.302  1.00  0.00     0.009 A 
ATOM     82  C   UNL A   1      46.058  26.805  36.391  1.00  0.00     0.001 A 
ATOM     83  C   UNL A   1      47.304  28.730  35.631  1.00  0.00     0.001 A 
ATOM     84  C   UNL A   1      47.277  27.451  36.184  1.00  0.00     0.000 A 
ENDBRANCH  66  79
ENDBRANCH  40  41
ENDBRANCH  32  35
ENDBRANCH  30  31
ENDBRANCH  29  30
ENDBRANCH  28  29
ENDBRANCH  27  28
ENDBRANCH   1  27
TORSDOF 18
ENDMDL
MODEL 3
REMARK VINA RESULT:     -10.9      1.251      6.059
REMARK SMILES CCc1ccccc1NC(=O)CCN1C[C@H](C(=O)NCCCCCCNC(=O)c2ccc(-c3c4nc(c(-c5ccccc5)c5ccc([nH]5)c(-c5ccccc5)c5nc(c(-c6ccccc6)c6ccc3[nH]6)C=C5)C=C4)cc2)CC1=O
REMARK SMILES IDX 21 1 20 2 19 3 17 4 18 5 16 7 14 8 15 9 78 10 77 11 79 12
REMARK SMILES IDX 13 13 12 14 10 15 9 16 11 18 8 19 3 20 4 21 5 22 7 23 6 24
REMARK SMILES IDX 2 25 1 26 22 27 23 28 24 29 25 30 26 31 27 32 28 34 29 35
REMARK SMILES IDX 30 36 76 37 31 38 75 39 32 40 33 41 34 42 69 43 35 44 74 45
REMARK SMILES IDX 68 46 70 47 36 48 73 49 67 50 66 51 37 53 59 54 44 55 58 56
REMARK SMILES IDX 45 57 48 58 57 59 71 60 46 61 47 62 56 64 72 65 49 66 38 67
REMARK SMILES IDX 39 68 43 69 40 70 42 71 41 72 60 73 61 74 65 75 62 76 64 77
REMARK SMILES IDX 63 78 50 79 51 80 55 81 52 82 54 83 53 84
REMARK H PARENT 19 6 9 17 26 33 70 52 48 63
REMARK Flexibility Score: inf
ROOT
ATOM      1  C   UNL A   1      34.755  31.645  28.343  1.00  0.00     0.021 C 
ENDROOT
BRANCH   1   2
ATOM      2  C   UNL A   1      33.774  31.240  27.252  1.00  0.00     0.116 C 
BRANCH   2   3
ATOM      3  N   UNL A   1      33.003  30.016  27.569  1.00  0.00    -0.356 N 
ATOM      4  C   UNL A   1      32.432  28.829  26.957  1.00  0.00     0.225 C 
ATOM      5  O   UNL A   1      32.221  28.278  28.102  1.00  0.00    -0.275 OA
ATOM      6  H   UNL A   1      32.810  30.002  28.534  1.00  0.00     0.163 HD
BRANCH   4   7
ATOM      7  C   UNL A   1      31.932  28.148  24.933  1.00  0.00     0.107 C 
ATOM      8  N   UNL A   1      30.820  26.122  23.932  1.00  0.00    -0.341 N 
ATOM      9  C   UNL A   1      32.139  26.655  24.133  1.00  0.00     0.133 C 
ATOM     10  C   UNL A   1      29.869  27.105  23.759  1.00  0.00     0.223 C 
ATOM     11  C   UNL A   1      30.553  28.436  23.900  1.00  0.00     0.115 C 
ATOM     12  O   UNL A   1      28.678  26.947  23.546  1.00  0.00    -0.275 OA
BRANCH   8  13
ATOM     13  C   UNL A   1      30.488  24.745  24.221  1.00  0.00     0.129 C 
BRANCH  13  14
ATOM     14  C   UNL A   1      30.870  24.311  25.636  1.00  0.00     0.122 C 
BRANCH  14  15
ATOM     15  C   UNL A   1      31.082  22.819  25.803  1.00  0.00     0.226 C 
ATOM     16  N   UNL A   1      32.303  22.214  25.679  1.00  0.00    -0.326 N 
ATOM     17  H   UNL A   1      32.291  21.246  25.855  1.00  0.00     0.169 HD
ATOM     18  O   UNL A   1      30.123  22.109  26.128  1.00  0.00    -0.275 OA
BRANCH  16  19
ATOM     19  C   UNL A   1      33.570  22.720  25.345  1.00  0.00     0.044 A 
ATOM     20  C   UNL A   1      34.067  22.770  23.617  1.00  0.00    -0.025 A 
ATOM     21  C   UNL A   1      35.824  22.995  23.201  1.00  0.00     0.006 A 
ATOM     22  C   UNL A   1      37.037  23.395  24.515  1.00  0.00     0.000 A 
ATOM     23  C   UNL A   1      34.758  23.173  26.616  1.00  0.00     0.026 A 
ATOM     24  C   UNL A   1      36.473  23.510  26.204  1.00  0.00     0.002 A 
BRANCH  20  25
ATOM     25  C   UNL A   1      33.107  22.745  22.441  1.00  0.00     0.034 C 
ATOM     26  C   UNL A   1      32.927  24.022  21.635  1.00  0.00     0.009 C 
ENDBRANCH  20  25
ENDBRANCH  16  19
ENDBRANCH  14  15
ENDBRANCH  13  14
ENDBRANCH   8  13
ENDBRANCH   4   7
ENDBRANCH   2   3
ENDBRANCH   1   2
BRANCH   1  27
ATOM     27  C   UNL A   1      35.642  32.839  28.008  1.00  0.00     0.002 C 
BRANCH  27  28
ATOM     28  C   UNL A   1      35.604  33.996  29.012  1.00  0.00     0.002 C 
BRANCH  28  29
ATOM     29  C   UNL A   1      34.421  34.962  28.885  1.00  0.00     0.021 C 
BRANCH  29  30
ATOM     30  C   UNL A   1      33.115  34.469  29.496  1.00  0.00     0.116 C 
BRANCH  30  31
ATOM     31  N   UNL A   1      32.600  35.388  30.495  1.00  0.00    -0.352 N 
ATOM     32  C   UNL A   1      32.965  35.539  31.807  1.00  0.00     0.251 C 
ATOM     33  H   UNL A   1      31.887  35.991  30.184  1.00  0.00     0.163 HD
ATOM     34  O   UNL A   1      32.275  36.206  32.570  1.00  0.00    -0.269 OA
BRANCH  32  35
ATOM     35  C   UNL A   1      34.187  34.878  32.301  1.00  0.00     0.039 A 
ATOM     36  C   UNL A   1      34.108  33.552  32.732  1.00  0.00     0.014 A 
ATOM     37  C   UNL A   1      35.406  35.564  32.335  1.00  0.00     0.014 A 
ATOM     38  C   UNL A   1      35.267  32.893  33.142  1.00  0.00     0.010 A 
ATOM     39  C   UNL A   1      36.570  34.884  32.673  1.00  0.00     0.010 A 
ATOM     40  C   UNL A   1      36.511  33.542  33.079  1.00  0.00    -0.014 A 
BRANCH  40  41
ATOM     41  C   UNL A   1      37.763  32.818  33.405  1.00  0.00     0.031 A 
ATOM     42  C   UNL A   1      38.309  31.779  32.467  1.00  0.00     0.074 A 
ATOM     43  C   UNL A   1      38.374  33.059  34.582  1.00  0.00     0.049 A 
ATOM     44  N   UNL A   1      39.369  31.023  32.603  1.00  0.00    -0.248 NA
ATOM     45  C   UNL A   1      37.558  31.543  31.223  1.00  0.00     0.031 C 
ATOM     46  C   UNL A   1      37.914  34.014  35.593  1.00  0.00     0.029 A 
ATOM     47  N   UNL A   1      39.510  32.518  35.127  1.00  0.00    -0.354 N 
ATOM     48  C   UNL A   1      39.405  30.217  31.473  1.00  0.00     0.074 A 
ATOM     49  C   UNL A   1      38.235  30.540  30.685  1.00  0.00     0.031 C 
ATOM     50  C   UNL A   1      38.777  34.013  36.622  1.00  0.00     0.029 A 
ATOM     51  C   UNL A   1      39.820  33.025  36.366  1.00  0.00     0.049 A 
ATOM     52  H   UNL A   1      40.052  31.833  34.674  1.00  0.00     0.167 HD
ATOM     53  C   UNL A   1      40.336  29.301  31.116  1.00  0.00     0.031 A 
ATOM     54  C   UNL A   1      40.824  32.721  37.209  1.00  0.00     0.031 A 
ATOM     55  C   UNL A   1      41.498  28.984  31.905  1.00  0.00     0.049 A 
ATOM     56  C   UNL A   1      41.827  31.677  36.802  1.00  0.00     0.074 A 
ATOM     57  C   UNL A   1      42.533  28.117  31.601  1.00  0.00     0.029 A 
ATOM     58  N   UNL A   1      41.771  29.511  33.158  1.00  0.00    -0.354 N 
ATOM     59  N   UNL A   1      41.893  30.984  35.691  1.00  0.00    -0.248 NA
ATOM     60  C   UNL A   1      42.895  31.376  37.764  1.00  0.00     0.031 C 
ATOM     61  C   UNL A   1      43.395  28.067  32.700  1.00  0.00     0.029 A 
ATOM     62  C   UNL A   1      42.936  28.954  33.659  1.00  0.00     0.049 A 
ATOM     63  H   UNL A   1      41.219  30.181  33.621  1.00  0.00     0.167 HD
ATOM     64  C   UNL A   1      43.020  30.183  35.811  1.00  0.00     0.074 A 
ATOM     65  C   UNL A   1      43.621  30.494  37.093  1.00  0.00     0.031 C 
ATOM     66  C   UNL A   1      43.512  29.267  34.942  1.00  0.00     0.031 A 
BRANCH  53  67
ATOM     67  C   UNL A   1      40.129  28.562  29.822  1.00  0.00    -0.014 A 
ATOM     68  C   UNL A   1      40.601  29.075  28.603  1.00  0.00     0.009 A 
ATOM     69  C   UNL A   1      39.494  27.311  29.829  1.00  0.00     0.009 A 
ATOM     70  C   UNL A   1      40.410  28.367  27.415  1.00  0.00     0.001 A 
ATOM     71  C   UNL A   1      39.334  26.589  28.645  1.00  0.00     0.001 A 
ATOM     72  C   UNL A   1      39.782  27.122  27.437  1.00  0.00     0.000 A 
ENDBRANCH  53  67
BRANCH  54  73
ATOM     73  C   UNL A   1      40.928  33.404  38.525  1.00  0.00    -0.014 A 
ATOM     74  C   UNL A   1      40.269  32.892  39.654  1.00  0.00     0.009 A 
ATOM     75  C   UNL A   1      41.683  34.581  38.659  1.00  0.00     0.009 A 
ATOM     76  C   UNL A   1      40.337  33.560  40.878  1.00  0.00     0.001 A 
ATOM     77  C   UNL A   1      41.777  35.229  39.892  1.00  0.00     0.001 A 
ATOM     78  C   UNL A   1      41.095  34.724  40.998  1.00  0.00     0.000 A 
ENDBRANCH  54  73
BRANCH  66  79
ATOM     79  C   UNL A   1      44.771  28.548  35.340  1.00  0.00    -0.014 A 
ATOM     80  C   UNL A   1      46.037  29.091  35.066  1.00  0.00     0.009 A 
ATOM     81  C   UNL A   1      44.690  27.332  36.035  1.00  0.00     0.009 A 
ATOM     82  C   UNL A   1      47.195  28.412  35.451  1.00  0.00     0.001 A 
ATOM     83  C   UNL A   1      45.848  26.672  36.449  1.00  0.00     0.001 A 
ATOM     84  C   UNL A   1      47.099  27.207  36.148  1.00  0.00     0.000 A 
ENDBRANCH  66  79
ENDBRANCH  40  41
ENDBRANCH  32  35
ENDBRANCH  30  31
ENDBRANCH  29  30
ENDBRANCH  28  29
ENDBRANCH  27  28
ENDBRANCH   1  27
TORSDOF 18
ENDMDL
