MODEL 1
REMARK VINA RESULT:     -11.2      0.000      0.000
REMARK SMILES CCn1cccc1C(=O)N(C)c1snc(C)c1C(=O)NCCCCCCNC(=O)c1ccc(-c2c3nc(c(-c4ccccc4)c4ccc([nH]4)c(-c4ccccc4)c4nc(c(-c5ccccc5)c5ccc2[nH]5)C=C4)C=C3)cc1
REMARK SMILES IDX 22 1 21 2 20 3 18 4 19 5 17 7 12 8 13 9 14 10 15 11 16 12
REMARK SMILES IDX 10 13 11 14 8 15 9 16 7 17 3 18 4 19 5 20 6 21 2 22 1 23
REMARK SMILES IDX 23 24 24 25 25 26 26 27 27 28 28 29 29 31 30 32 31 33 77 34
REMARK SMILES IDX 32 35 76 36 33 37 34 38 35 39 70 40 36 41 75 42 69 43 71 44
REMARK SMILES IDX 37 45 74 46 68 47 67 48 38 50 60 51 45 52 59 53 46 54 49 55
REMARK SMILES IDX 58 56 72 57 47 58 48 59 57 61 73 62 50 63 39 64 40 65 44 66
REMARK SMILES IDX 41 67 43 68 42 69 61 70 62 71 66 72 63 73 65 74 64 75 51 76
REMARK SMILES IDX 52 77 56 78 53 79 55 80 54 81
REMARK H PARENT 20 6 27 30 71 49 49 60
REMARK Flexibility Score: inf
ROOT
ATOM      1  C   UNL A   1      33.788  27.719  25.855  1.00  0.00     0.021 C 
ENDROOT
BRANCH   1   2
ATOM      2  C   UNL A   1      33.841  28.387  24.488  1.00  0.00     0.116 C 
BRANCH   2   3
ATOM      3  N   UNL A   1      33.891  27.518  23.346  1.00  0.00    -0.352 N 
ATOM      4  C   UNL A   1      32.866  26.993  22.586  1.00  0.00     0.256 C 
ATOM      5  O   UNL A   1      33.208  26.496  21.511  1.00  0.00    -0.269 OA
ATOM      6  H   UNL A   1      34.796  27.256  23.062  1.00  0.00     0.163 HD
BRANCH   4   7
ATOM      7  C   UNL A   1      31.482  26.862  23.072  1.00  0.00     0.097 A 
ATOM      8  C   UNL A   1      30.829  25.807  23.728  1.00  0.00     0.131 A 
ATOM      9  S   UNL A   1      29.173  26.245  23.914  1.00  0.00    -0.017 S 
ATOM     10  N   UNL A   1      29.281  27.755  23.314  1.00  0.00    -0.195 NA
ATOM     11  C   UNL A   1      30.531  27.973  22.910  1.00  0.00     0.066 A 
ATOM     12  C   UNL A   1      30.775  29.324  22.313  1.00  0.00     0.069 C 
BRANCH   8  13
ATOM     13  N   UNL A   1      31.203  24.549  24.292  1.00  0.00    -0.300 N 
ATOM     14  C   UNL A   1      30.927  23.299  23.590  1.00  0.00     0.154 C 
BRANCH  13  15
ATOM     15  C   UNL A   1      31.670  24.579  25.624  1.00  0.00     0.275 C 
ATOM     16  O   UNL A   1      31.104  25.321  26.433  1.00  0.00    -0.267 OA
BRANCH  15  17
ATOM     17  C   UNL A   1      32.814  23.772  26.125  1.00  0.00     0.107 A 
ATOM     18  N   UNL A   1      34.165  23.638  25.796  1.00  0.00    -0.344 N 
ATOM     19  C   UNL A   1      34.780  22.765  26.680  1.00  0.00     0.086 A 
ATOM     20  C   UNL A   1      33.889  22.428  27.662  1.00  0.00     0.020 A 
ATOM     21  C   UNL A   1      32.677  23.044  27.317  1.00  0.00     0.033 A 
BRANCH  18  22
ATOM     22  C   UNL A   1      35.005  24.404  24.886  1.00  0.00     0.119 C 
ATOM     23  C   UNL A   1      35.136  23.772  23.506  1.00  0.00     0.027 C 
ENDBRANCH  18  22
ENDBRANCH  15  17
ENDBRANCH  13  15
ENDBRANCH   8  13
ENDBRANCH   4   7
ENDBRANCH   2   3
ENDBRANCH   1   2
BRANCH   1  24
ATOM     24  C   UNL A   1      32.854  28.333  26.905  1.00  0.00     0.002 C 
BRANCH  24  25
ATOM     25  C   UNL A   1      32.428  29.801  26.742  1.00  0.00     0.002 C 
BRANCH  25  26
ATOM     26  C   UNL A   1      33.386  30.875  27.260  1.00  0.00     0.021 C 
BRANCH  26  27
ATOM     27  C   UNL A   1      34.700  30.373  27.840  1.00  0.00     0.116 C 
BRANCH  27  28
ATOM     28  N   UNL A   1      35.174  31.197  28.931  1.00  0.00    -0.352 N 
ATOM     29  C   UNL A   1      36.254  31.003  29.759  1.00  0.00     0.251 C 
ATOM     30  H   UNL A   1      34.650  32.013  29.102  1.00  0.00     0.163 HD
ATOM     31  O   UNL A   1      36.271  31.560  30.849  1.00  0.00    -0.269 OA
BRANCH  29  32
ATOM     32  C   UNL A   1      37.398  30.140  29.366  1.00  0.00     0.039 A 
ATOM     33  C   UNL A   1      38.054  29.422  30.377  1.00  0.00     0.014 A 
ATOM     34  C   UNL A   1      37.907  30.118  28.063  1.00  0.00     0.014 A 
ATOM     35  C   UNL A   1      39.187  28.670  30.076  1.00  0.00     0.010 A 
ATOM     36  C   UNL A   1      39.008  29.335  27.746  1.00  0.00     0.010 A 
ATOM     37  C   UNL A   1      39.648  28.617  28.755  1.00  0.00    -0.014 A 
BRANCH  37  38
ATOM     38  C   UNL A   1      40.742  27.691  28.407  1.00  0.00     0.031 A 
ATOM     39  C   UNL A   1      42.103  28.412  28.396  1.00  0.00     0.074 A 
ATOM     40  C   UNL A   1      40.377  26.399  28.134  1.00  0.00     0.049 A 
ATOM     41  N   UNL A   1      43.193  28.108  27.767  1.00  0.00    -0.248 NA
ATOM     42  C   UNL A   1      42.272  29.682  29.160  1.00  0.00     0.031 C 
ATOM     43  C   UNL A   1      39.000  25.863  28.273  1.00  0.00     0.029 A 
ATOM     44  N   UNL A   1      41.053  25.279  27.693  1.00  0.00    -0.354 N 
ATOM     45  C   UNL A   1      44.191  29.039  28.137  1.00  0.00     0.074 A 
ATOM     46  C   UNL A   1      43.546  30.025  28.948  1.00  0.00     0.031 C 
ATOM     47  C   UNL A   1      38.931  24.580  27.849  1.00  0.00     0.029 A 
ATOM     48  C   UNL A   1      40.238  24.153  27.394  1.00  0.00     0.049 A 
ATOM     49  H   UNL A   1      42.033  25.261  27.591  1.00  0.00     0.167 HD
ATOM     50  C   UNL A   1      45.510  28.876  27.822  1.00  0.00     0.031 A 
ATOM     51  C   UNL A   1      40.577  22.983  26.769  1.00  0.00     0.031 A 
ATOM     52  C   UNL A   1      45.674  27.726  27.002  1.00  0.00     0.049 A 
ATOM     53  C   UNL A   1      42.030  23.039  26.584  1.00  0.00     0.074 A 
ATOM     54  C   UNL A   1      45.351  27.483  25.694  1.00  0.00     0.029 A 
ATOM     55  N   UNL A   1      45.863  26.533  27.655  1.00  0.00    -0.354 N 
ATOM     56  N   UNL A   1      42.904  22.876  27.527  1.00  0.00    -0.248 NA
ATOM     57  C   UNL A   1      42.561  23.379  25.258  1.00  0.00     0.031 C 
ATOM     58  C   UNL A   1      44.838  26.171  25.737  1.00  0.00     0.029 A 
ATOM     59  C   UNL A   1      45.113  25.600  26.986  1.00  0.00     0.049 A 
ATOM     60  H   UNL A   1      46.427  26.377  28.447  1.00  0.00     0.167 HD
ATOM     61  C   UNL A   1      44.010  23.492  26.998  1.00  0.00     0.074 A 
ATOM     62  C   UNL A   1      43.855  23.454  25.559  1.00  0.00     0.031 C 
ATOM     63  C   UNL A   1      44.649  24.449  27.719  1.00  0.00     0.031 A 
BRANCH  50  64
ATOM     64  C   UNL A   1      46.764  29.524  28.331  1.00  0.00    -0.014 A 
ATOM     65  C   UNL A   1      47.183  29.188  29.643  1.00  0.00     0.009 A 
ATOM     66  C   UNL A   1      47.324  30.666  27.752  1.00  0.00     0.009 A 
ATOM     67  C   UNL A   1      48.017  30.022  30.390  1.00  0.00     0.001 A 
ATOM     68  C   UNL A   1      48.190  31.487  28.490  1.00  0.00     0.001 A 
ATOM     69  C   UNL A   1      48.505  31.186  29.817  1.00  0.00     0.000 A 
ENDBRANCH  50  64
BRANCH  51  70
ATOM     70  C   UNL A   1      39.896  21.776  26.168  1.00  0.00    -0.014 A 
ATOM     71  C   UNL A   1      40.367  20.463  26.183  1.00  0.00     0.009 A 
ATOM     72  C   UNL A   1      38.613  21.953  25.572  1.00  0.00     0.009 A 
ATOM     73  C   UNL A   1      39.562  19.394  25.725  1.00  0.00     0.001 A 
ATOM     74  C   UNL A   1      37.793  20.899  25.162  1.00  0.00     0.001 A 
ATOM     75  C   UNL A   1      38.266  19.607  25.253  1.00  0.00     0.000 A 
ENDBRANCH  51  70
BRANCH  63  76
ATOM     76  C   UNL A   1      44.416  24.388  29.224  1.00  0.00    -0.014 A 
ATOM     77  C   UNL A   1      44.569  25.550  29.998  1.00  0.00     0.009 A 
ATOM     78  C   UNL A   1      44.181  23.187  29.918  1.00  0.00     0.009 A 
ATOM     79  C   UNL A   1      44.524  25.511  31.399  1.00  0.00     0.001 A 
ATOM     80  C   UNL A   1      44.131  23.143  31.322  1.00  0.00     0.001 A 
ATOM     81  C   UNL A   1      44.309  24.307  32.063  1.00  0.00     0.000 A 
ENDBRANCH  63  76
ENDBRANCH  37  38
ENDBRANCH  29  32
ENDBRANCH  27  28
ENDBRANCH  26  27
ENDBRANCH  25  26
ENDBRANCH  24  25
ENDBRANCH   1  24
TORSDOF 17
ENDMDL
MODEL 2
REMARK VINA RESULT:     -11.0      1.871      2.588
REMARK SMILES CCn1cccc1C(=O)N(C)c1snc(C)c1C(=O)NCCCCCCNC(=O)c1ccc(-c2c3nc(c(-c4ccccc4)c4ccc([nH]4)c(-c4ccccc4)c4nc(c(-c5ccccc5)c5ccc2[nH]5)C=C4)C=C3)cc1
REMARK SMILES IDX 22 1 21 2 20 3 18 4 19 5 17 7 12 8 13 9 14 10 15 11 16 12
REMARK SMILES IDX 10 13 11 14 8 15 9 16 7 17 3 18 4 19 5 20 6 21 2 22 1 23
REMARK SMILES IDX 23 24 24 25 25 26 26 27 27 28 28 29 29 31 30 32 31 33 77 34
REMARK SMILES IDX 32 35 76 36 33 37 34 38 35 39 70 40 36 41 75 42 69 43 71 44
REMARK SMILES IDX 37 45 74 46 68 47 67 48 38 50 60 51 45 52 59 53 46 54 49 55
REMARK SMILES IDX 58 56 72 57 47 58 48 59 57 61 73 62 50 63 39 64 40 65 44 66
REMARK SMILES IDX 41 67 43 68 42 69 61 70 62 71 66 72 63 73 65 74 64 75 51 76
REMARK SMILES IDX 52 77 56 78 53 79 55 80 54 81
REMARK H PARENT 20 6 27 30 71 49 49 60
REMARK Flexibility Score: inf
ROOT
ATOM      1  C   UNL A   1      32.776  29.220  23.426  1.00  0.00     0.021 C 
ENDROOT
BRANCH   1   2
ATOM      2  C   UNL A   1      33.686  28.166  22.810  1.00  0.00     0.116 C 
BRANCH   2   3
ATOM      3  N   UNL A   1      33.094  27.287  21.842  1.00  0.00    -0.352 N 
ATOM      4  C   UNL A   1      32.031  26.416  21.969  1.00  0.00     0.256 C 
ATOM      5  O   UNL A   1      31.572  25.988  20.908  1.00  0.00    -0.269 OA
ATOM      6  H   UNL A   1      33.509  27.310  20.950  1.00  0.00     0.163 HD
BRANCH   4   7
ATOM      7  C   UNL A   1      31.570  25.884  23.261  1.00  0.00     0.097 A 
ATOM      8  C   UNL A   1      32.085  24.864  24.077  1.00  0.00     0.131 A 
ATOM      9  S   UNL A   1      31.004  24.650  25.401  1.00  0.00    -0.017 S 
ATOM     10  N   UNL A   1      29.987  25.872  25.049  1.00  0.00    -0.195 NA
ATOM     11  C   UNL A   1      30.380  26.451  23.916  1.00  0.00     0.066 A 
ATOM     12  C   UNL A   1      29.521  27.586  23.456  1.00  0.00     0.069 C 
BRANCH   8  13
ATOM     13  N   UNL A   1      33.254  24.044  24.094  1.00  0.00    -0.300 N 
ATOM     14  C   UNL A   1      34.520  24.551  24.616  1.00  0.00     0.154 C 
BRANCH  13  15
ATOM     15  C   UNL A   1      33.160  22.810  23.413  1.00  0.00     0.275 C 
ATOM     16  O   UNL A   1      33.032  22.820  22.184  1.00  0.00    -0.267 OA
BRANCH  15  17
ATOM     17  C   UNL A   1      33.197  21.483  24.083  1.00  0.00     0.107 A 
ATOM     18  N   UNL A   1      33.697  20.983  25.288  1.00  0.00    -0.344 N 
ATOM     19  C   UNL A   1      33.364  19.643  25.415  1.00  0.00     0.086 A 
ATOM     20  C   UNL A   1      32.542  19.290  24.380  1.00  0.00     0.020 A 
ATOM     21  C   UNL A   1      32.444  20.422  23.557  1.00  0.00     0.033 A 
BRANCH  18  22
ATOM     22  C   UNL A   1      34.258  21.668  26.444  1.00  0.00     0.119 C 
ATOM     23  C   UNL A   1      33.207  22.099  27.460  1.00  0.00     0.027 C 
ENDBRANCH  18  22
ENDBRANCH  15  17
ENDBRANCH  13  15
ENDBRANCH   8  13
ENDBRANCH   4   7
ENDBRANCH   2   3
ENDBRANCH   1   2
BRANCH   1  24
ATOM     24  C   UNL A   1      32.975  29.545  24.911  1.00  0.00     0.002 C 
BRANCH  24  25
ATOM     25  C   UNL A   1      33.854  28.609  25.757  1.00  0.00     0.002 C 
BRANCH  25  26
ATOM     26  C   UNL A   1      34.116  29.010  27.210  1.00  0.00     0.021 C 
BRANCH  26  27
ATOM     27  C   UNL A   1      35.562  29.320  27.566  1.00  0.00     0.116 C 
BRANCH  27  28
ATOM     28  N   UNL A   1      35.722  29.697  28.954  1.00  0.00    -0.352 N 
ATOM     29  C   UNL A   1      36.709  29.340  29.842  1.00  0.00     0.251 C 
ATOM     30  H   UNL A   1      35.025  30.293  29.312  1.00  0.00     0.163 HD
ATOM     31  O   UNL A   1      36.479  29.411  31.042  1.00  0.00    -0.269 OA
BRANCH  29  32
ATOM     32  C   UNL A   1      38.044  28.876  29.385  1.00  0.00     0.039 A 
ATOM     33  C   UNL A   1      38.935  28.389  30.352  1.00  0.00     0.014 A 
ATOM     34  C   UNL A   1      38.475  29.020  28.061  1.00  0.00     0.014 A 
ATOM     35  C   UNL A   1      40.229  28.025  29.990  1.00  0.00     0.010 A 
ATOM     36  C   UNL A   1      39.748  28.617  27.683  1.00  0.00     0.010 A 
ATOM     37  C   UNL A   1      40.624  28.126  28.650  1.00  0.00    -0.014 A 
BRANCH  37  38
ATOM     38  C   UNL A   1      41.933  27.586  28.238  1.00  0.00     0.031 A 
ATOM     39  C   UNL A   1      42.966  28.711  28.042  1.00  0.00     0.074 A 
ATOM     40  C   UNL A   1      42.003  26.227  28.077  1.00  0.00     0.049 A 
ATOM     41  N   UNL A   1      44.039  28.730  27.318  1.00  0.00    -0.248 NA
ATOM     42  C   UNL A   1      42.760  30.028  28.713  1.00  0.00     0.031 C 
ATOM     43  C   UNL A   1      40.904  25.282  28.391  1.00  0.00     0.029 A 
ATOM     44  N   UNL A   1      42.978  25.359  27.628  1.00  0.00    -0.354 N 
ATOM     45  C   UNL A   1      44.692  29.966  27.528  1.00  0.00     0.074 A 
ATOM     46  C   UNL A   1      43.822  30.751  28.348  1.00  0.00     0.031 C 
ATOM     47  C   UNL A   1      41.235  24.016  28.048  1.00  0.00     0.029 A 
ATOM     48  C   UNL A   1      42.567  24.005  27.480  1.00  0.00     0.049 A 
ATOM     49  H   UNL A   1      43.894  25.656  27.423  1.00  0.00     0.167 HD
ATOM     50  C   UNL A   1      45.959  30.220  27.083  1.00  0.00     0.031 A 
ATOM     51  C   UNL A   1      43.227  22.963  26.887  1.00  0.00     0.031 A 
ATOM     52  C   UNL A   1      46.432  29.122  26.314  1.00  0.00     0.049 A 
ATOM     53  C   UNL A   1      44.557  23.478  26.545  1.00  0.00     0.074 A 
ATOM     54  C   UNL A   1      46.103  28.673  25.063  1.00  0.00     0.029 A 
ATOM     55  N   UNL A   1      47.065  28.119  27.008  1.00  0.00    -0.354 N 
ATOM     56  N   UNL A   1      45.509  23.696  27.397  1.00  0.00    -0.248 NA
ATOM     57  C   UNL A   1      44.831  23.857  25.153  1.00  0.00     0.031 C 
ATOM     58  C   UNL A   1      46.067  27.274  25.233  1.00  0.00     0.029 A 
ATOM     59  C   UNL A   1      46.620  26.937  26.475  1.00  0.00     0.049 A 
ATOM     60  H   UNL A   1      47.712  28.228  27.742  1.00  0.00     0.167 HD
ATOM     61  C   UNL A   1      46.296  24.593  26.720  1.00  0.00     0.074 A 
ATOM     62  C   UNL A   1      46.045  24.381  25.310  1.00  0.00     0.031 C 
ATOM     63  C   UNL A   1      46.632  25.766  27.315  1.00  0.00     0.031 A 
BRANCH  50  64
ATOM     64  C   UNL A   1      46.959  31.287  27.419  1.00  0.00    -0.014 A 
ATOM     65  C   UNL A   1      47.528  31.259  28.717  1.00  0.00     0.009 A 
ATOM     66  C   UNL A   1      47.089  32.471  26.687  1.00  0.00     0.009 A 
ATOM     67  C   UNL A   1      48.083  32.396  29.307  1.00  0.00     0.001 A 
ATOM     68  C   UNL A   1      47.678  33.605  27.267  1.00  0.00     0.001 A 
ATOM     69  C   UNL A   1      48.138  33.579  28.585  1.00  0.00     0.000 A 
ENDBRANCH  50  64
BRANCH  51  70
ATOM     70  C   UNL A   1      42.946  21.551  26.430  1.00  0.00    -0.014 A 
ATOM     71  C   UNL A   1      43.725  20.788  25.559  1.00  0.00     0.009 A 
ATOM     72  C   UNL A   1      41.809  20.881  26.970  1.00  0.00     0.009 A 
ATOM     73  C   UNL A   1      43.439  19.422  25.332  1.00  0.00     0.001 A 
ATOM     74  C   UNL A   1      41.547  19.522  26.789  1.00  0.00     0.001 A 
ATOM     75  C   UNL A   1      42.378  18.782  25.974  1.00  0.00     0.000 A 
ENDBRANCH  51  70
BRANCH  63  76
ATOM     76  C   UNL A   1      46.558  25.763  28.837  1.00  0.00    -0.014 A 
ATOM     77  C   UNL A   1      45.313  25.906  29.472  1.00  0.00     0.009 A 
ATOM     78  C   UNL A   1      47.696  25.759  29.663  1.00  0.00     0.009 A 
ATOM     79  C   UNL A   1      45.211  26.070  30.861  1.00  0.00     0.001 A 
ATOM     80  C   UNL A   1      47.599  25.919  31.056  1.00  0.00     0.001 A 
ATOM     81  C   UNL A   1      46.354  26.081  31.654  1.00  0.00     0.000 A 
ENDBRANCH  63  76
ENDBRANCH  37  38
ENDBRANCH  29  32
ENDBRANCH  27  28
ENDBRANCH  26  27
ENDBRANCH  25  26
ENDBRANCH  24  25
ENDBRANCH   1  24
TORSDOF 17
ENDMDL
MODEL 3
REMARK VINA RESULT:     -10.9      4.192      8.500
REMARK SMILES CCn1cccc1C(=O)N(C)c1snc(C)c1C(=O)NCCCCCCNC(=O)c1ccc(-c2c3nc(c(-c4ccccc4)c4ccc([nH]4)c(-c4ccccc4)c4nc(c(-c5ccccc5)c5ccc2[nH]5)C=C4)C=C3)cc1
REMARK SMILES IDX 22 1 21 2 20 3 18 4 19 5 17 7 12 8 13 9 14 10 15 11 16 12
REMARK SMILES IDX 10 13 11 14 8 15 9 16 7 17 3 18 4 19 5 20 6 21 2 22 1 23
REMARK SMILES IDX 23 24 24 25 25 26 26 27 27 28 28 29 29 31 30 32 31 33 77 34
REMARK SMILES IDX 32 35 76 36 33 37 34 38 35 39 70 40 36 41 75 42 69 43 71 44
REMARK SMILES IDX 37 45 74 46 68 47 67 48 38 50 60 51 45 52 59 53 46 54 49 55
REMARK SMILES IDX 58 56 72 57 47 58 48 59 57 61 73 62 50 63 39 64 40 65 44 66
REMARK SMILES IDX 41 67 43 68 42 69 61 70 62 71 66 72 63 73 65 74 64 75 51 76
REMARK SMILES IDX 52 77 56 78 53 79 55 80 54 81
REMARK H PARENT 20 6 27 30 71 49 49 60
REMARK Flexibility Score: inf
ROOT
ATOM      1  C   UNL A   1      33.094  28.805  26.630  1.00  0.00     0.021 C 
ENDROOT
BRANCH   1   2
ATOM      2  C   UNL A   1      32.959  27.341  26.234  1.00  0.00     0.116 C 
BRANCH   2   3
ATOM      3  N   UNL A   1      31.648  26.765  26.330  1.00  0.00    -0.352 N 
ATOM      4  C   UNL A   1      30.942  26.008  25.417  1.00  0.00     0.256 C 
ATOM      5  O   UNL A   1      29.953  25.426  25.868  1.00  0.00    -0.269 OA
ATOM      6  H   UNL A   1      31.180  26.935  27.179  1.00  0.00     0.163 HD
BRANCH   4   7
ATOM      7  C   UNL A   1      31.221  26.017  23.972  1.00  0.00     0.097 A 
ATOM      8  C   UNL A   1      31.852  25.073  23.147  1.00  0.00     0.131 A 
ATOM      9  S   UNL A   1      31.968  25.747  21.565  1.00  0.00    -0.017 S 
ATOM     10  N   UNL A   1      31.147  27.122  21.857  1.00  0.00    -0.195 NA
ATOM     11  C   UNL A   1      30.800  27.157  23.141  1.00  0.00     0.066 A 
ATOM     12  C   UNL A   1      30.051  28.383  23.560  1.00  0.00     0.069 C 
BRANCH   8  13
ATOM     13  N   UNL A   1      32.345  23.740  23.289  1.00  0.00    -0.300 N 
ATOM     14  C   UNL A   1      31.537  22.704  23.925  1.00  0.00     0.154 C 
BRANCH  13  15
ATOM     15  C   UNL A   1      33.704  23.540  22.960  1.00  0.00     0.275 C 
ATOM     16  O   UNL A   1      33.994  23.258  21.792  1.00  0.00    -0.267 OA
BRANCH  15  17
ATOM     17  C   UNL A   1      34.822  23.641  23.935  1.00  0.00     0.107 A 
ATOM     18  N   UNL A   1      34.934  23.836  25.313  1.00  0.00    -0.344 N 
ATOM     19  C   UNL A   1      36.266  23.765  25.691  1.00  0.00     0.086 A 
ATOM     20  C   UNL A   1      37.015  23.394  24.609  1.00  0.00     0.020 A 
ATOM     21  C   UNL A   1      36.127  23.324  23.525  1.00  0.00     0.033 A 
BRANCH  18  22
ATOM     22  C   UNL A   1      33.920  23.859  26.358  1.00  0.00     0.119 C 
ATOM     23  C   UNL A   1      33.919  22.607  27.227  1.00  0.00     0.027 C 
ENDBRANCH  18  22
ENDBRANCH  15  17
ENDBRANCH  13  15
ENDBRANCH   8  13
ENDBRANCH   4   7
ENDBRANCH   2   3
ENDBRANCH   1   2
BRANCH   1  24
ATOM     24  C   UNL A   1      31.802  29.587  26.895  1.00  0.00     0.002 C 
BRANCH  24  25
ATOM     25  C   UNL A   1      31.422  30.727  25.937  1.00  0.00     0.002 C 
BRANCH  25  26
ATOM     26  C   UNL A   1      31.391  32.147  26.507  1.00  0.00     0.021 C 
BRANCH  26  27
ATOM     27  C   UNL A   1      32.644  32.599  27.240  1.00  0.00     0.116 C 
BRANCH  27  28
ATOM     28  N   UNL A   1      32.554  33.969  27.698  1.00  0.00    -0.352 N 
ATOM     29  C   UNL A   1      33.183  34.571  28.761  1.00  0.00     0.251 C 
ATOM     30  H   UNL A   1      31.958  34.551  27.174  1.00  0.00     0.163 HD
ATOM     31  O   UNL A   1      32.698  35.589  29.237  1.00  0.00    -0.269 OA
BRANCH  29  32
ATOM     32  C   UNL A   1      34.436  34.024  29.344  1.00  0.00     0.039 A 
ATOM     33  C   UNL A   1      34.333  33.240  30.502  1.00  0.00     0.014 A 
ATOM     34  C   UNL A   1      35.702  34.360  28.850  1.00  0.00     0.014 A 
ATOM     35  C   UNL A   1      35.482  32.777  31.138  1.00  0.00     0.010 A 
ATOM     36  C   UNL A   1      36.850  33.866  29.451  1.00  0.00     0.010 A 
ATOM     37  C   UNL A   1      36.737  33.080  30.597  1.00  0.00    -0.014 A 
BRANCH  37  38
ATOM     38  C   UNL A   1      37.943  32.453  31.171  1.00  0.00     0.031 A 
ATOM     39  C   UNL A   1      38.244  31.102  30.498  1.00  0.00     0.074 A 
ATOM     40  C   UNL A   1      38.556  33.138  32.187  1.00  0.00     0.049 A 
ATOM     41  N   UNL A   1      38.904  30.083  30.950  1.00  0.00    -0.248 NA
ATOM     42  C   UNL A   1      37.699  30.816  29.139  1.00  0.00     0.031 C 
ATOM     43  C   UNL A   1      38.156  34.487  32.658  1.00  0.00     0.029 A 
ATOM     44  N   UNL A   1      39.616  32.868  33.029  1.00  0.00    -0.354 N 
ATOM     45  C   UNL A   1      38.967  29.109  29.928  1.00  0.00     0.074 A 
ATOM     46  C   UNL A   1      38.149  29.589  28.857  1.00  0.00     0.031 C 
ATOM     47  C   UNL A   1      38.888  34.867  33.730  1.00  0.00     0.029 A 
ATOM     48  C   UNL A   1      39.828  33.818  34.066  1.00  0.00     0.049 A 
ATOM     49  H   UNL A   1      40.185  32.072  32.920  1.00  0.00     0.167 HD
ATOM     50  C   UNL A   1      39.773  28.008  30.001  1.00  0.00     0.031 A 
ATOM     51  C   UNL A   1      40.656  33.739  35.153  1.00  0.00     0.031 A 
ATOM     52  C   UNL A   1      40.414  27.961  31.269  1.00  0.00     0.049 A 
ATOM     53  C   UNL A   1      41.431  32.507  34.973  1.00  0.00     0.074 A 
ATOM     54  C   UNL A   1      39.941  27.675  32.522  1.00  0.00     0.029 A 
ATOM     55  N   UNL A   1      41.611  28.627  31.373  1.00  0.00    -0.354 N 
ATOM     56  N   UNL A   1      42.402  32.359  34.127  1.00  0.00    -0.248 NA
ATOM     57  C   UNL A   1      41.050  31.314  35.739  1.00  0.00     0.031 C 
ATOM     58  C   UNL A   1      40.588  28.636  33.326  1.00  0.00     0.029 A 
ATOM     59  C   UNL A   1      41.595  29.267  32.585  1.00  0.00     0.049 A 
ATOM     60  H   UNL A   1      42.337  28.642  30.708  1.00  0.00     0.167 HD
ATOM     61  C   UNL A   1      42.446  30.996  33.981  1.00  0.00     0.074 A 
ATOM     62  C   UNL A   1      41.882  30.433  35.190  1.00  0.00     0.031 C 
ATOM     63  C   UNL A   1      42.394  30.457  32.736  1.00  0.00     0.031 A 
BRANCH  50  64
ATOM     64  C   UNL A   1      40.242  27.021  28.972  1.00  0.00    -0.014 A 
ATOM     65  C   UNL A   1      41.235  27.456  28.059  1.00  0.00     0.009 A 
ATOM     66  C   UNL A   1      39.530  25.863  28.644  1.00  0.00     0.009 A 
ATOM     67  C   UNL A   1      41.417  26.844  26.818  1.00  0.00     0.001 A 
ATOM     68  C   UNL A   1      39.738  25.227  27.410  1.00  0.00     0.001 A 
ATOM     69  C   UNL A   1      40.651  25.737  26.485  1.00  0.00     0.000 A 
ENDBRANCH  50  64
BRANCH  51  70
ATOM     70  C   UNL A   1      40.904  34.472  36.450  1.00  0.00    -0.014 A 
ATOM     71  C   UNL A   1      42.060  35.170  36.803  1.00  0.00     0.009 A 
ATOM     72  C   UNL A   1      39.847  34.527  37.406  1.00  0.00     0.009 A 
ATOM     73  C   UNL A   1      42.109  35.948  37.983  1.00  0.00     0.001 A 
ATOM     74  C   UNL A   1      39.870  35.331  38.548  1.00  0.00     0.001 A 
ATOM     75  C   UNL A   1      41.007  36.060  38.831  1.00  0.00     0.000 A 
ENDBRANCH  51  70
BRANCH  63  76
ATOM     76  C   UNL A   1      42.817  31.392  31.609  1.00  0.00    -0.014 A 
ATOM     77  C   UNL A   1      44.177  31.698  31.433  1.00  0.00     0.009 A 
ATOM     78  C   UNL A   1      41.900  32.087  30.800  1.00  0.00     0.009 A 
ATOM     79  C   UNL A   1      44.599  32.673  30.519  1.00  0.00     0.001 A 
ATOM     80  C   UNL A   1      42.318  33.062  29.879  1.00  0.00     0.001 A 
ATOM     81  C   UNL A   1      43.670  33.359  29.743  1.00  0.00     0.000 A 
ENDBRANCH  63  76
ENDBRANCH  37  38
ENDBRANCH  29  32
ENDBRANCH  27  28
ENDBRANCH  26  27
ENDBRANCH  25  26
ENDBRANCH  24  25
ENDBRANCH   1  24
TORSDOF 17
ENDMDL
