MODEL 1
REMARK VINA RESULT:      -8.2      0.000      0.000
REMARK SMILES CC(C)Cc1ccc([C@H](C)C(=O)NCCCCCCNC(=O)c2ccc(-c3c4nc(c(-c5ccccc5)c5ccc([nH]5)c(-c5ccccc5)c5nc(c(-c6ccccc6)c6ccc3[nH]6)C=C5)C=C4)cc2)cc1
REMARK SMILES IDX 16 1 15 2 14 3 13 4 11 5 12 6 9 8 10 9 8 10 5 11 6 12 72 13
REMARK SMILES IDX 7 14 71 15 4 16 2 17 1 18 3 19 17 20 18 21 19 22 20 23 21 24
REMARK SMILES IDX 22 26 23 27 24 28 70 29 25 30 69 31 26 32 27 33 28 34 63 35
REMARK SMILES IDX 29 36 68 37 62 38 64 39 30 40 67 41 61 42 60 43 31 45 53 46
REMARK SMILES IDX 38 47 52 48 39 49 42 50 51 51 65 52 40 53 41 54 50 56 66 57
REMARK SMILES IDX 43 58 32 59 33 60 37 61 34 62 36 63 35 64 54 65 55 66 59 67
REMARK SMILES IDX 56 68 58 69 57 70 44 71 45 72 49 73 46 74 48 75 47 76
REMARK H PARENT 13 7 20 25 64 44 42 55
REMARK Flexibility Score: inf
ROOT
ATOM      1  C   UNL A   1      35.068  35.356  32.998  1.00  0.00     0.002 C 
ENDROOT
BRANCH   1   2
ATOM      2  C   UNL A   1      35.578  34.614  34.237  1.00  0.00     0.021 C 
BRANCH   2   3
ATOM      3  C   UNL A   1      36.675  33.590  33.958  1.00  0.00     0.116 C 
BRANCH   3   4
ATOM      4  N   UNL A   1      36.748  32.586  34.999  1.00  0.00    -0.356 N 
ATOM      5  C   UNL A   1      37.780  32.242  35.820  1.00  0.00     0.227 C 
ATOM      6  O   UNL A   1      37.562  31.381  36.679  1.00  0.00    -0.274 OA
ATOM      7  H   UNL A   1      35.921  32.068  35.135  1.00  0.00     0.163 HD
BRANCH   5   8
ATOM      8  C   UNL A   1      39.170  32.885  35.693  1.00  0.00     0.105 C 
ATOM      9  C   UNL A   1      39.376  33.930  36.793  1.00  0.00     0.023 C 
BRANCH   8  10
ATOM     10  C   UNL A   1      40.264  31.843  35.490  1.00  0.00    -0.036 A 
ATOM     11  C   UNL A   1      42.085  29.702  35.186  1.00  0.00    -0.048 A 
ATOM     12  C   UNL A   1      40.987  29.823  34.330  1.00  0.00     0.004 A 
ATOM     13  C   UNL A   1      42.305  30.694  36.148  1.00  0.00     0.004 A 
ATOM     14  C   UNL A   1      40.089  30.880  34.482  1.00  0.00     0.005 A 
ATOM     15  C   UNL A   1      41.413  31.762  36.288  1.00  0.00     0.005 A 
BRANCH  11  16
ATOM     16  C   UNL A   1      42.985  28.493  35.107  1.00  0.00     0.038 C 
BRANCH  16  17
ATOM     17  C   UNL A   1      42.207  27.160  35.072  1.00  0.00    -0.013 C 
ATOM     18  C   UNL A   1      43.044  26.008  34.505  1.00  0.00     0.008 C 
ATOM     19  C   UNL A   1      41.731  26.800  36.481  1.00  0.00     0.008 C 
ENDBRANCH  16  17
ENDBRANCH  11  16
ENDBRANCH   8  10
ENDBRANCH   5   8
ENDBRANCH   3   4
ENDBRANCH   2   3
ENDBRANCH   1   2
BRANCH   1  20
ATOM     20  C   UNL A   1      33.553  35.304  32.777  1.00  0.00     0.002 C 
BRANCH  20  21
ATOM     21  C   UNL A   1      32.974  36.406  31.885  1.00  0.00     0.021 C 
BRANCH  21  22
ATOM     22  C   UNL A   1      33.550  36.473  30.473  1.00  0.00     0.116 C 
BRANCH  22  23
ATOM     23  N   UNL A   1      32.794  35.672  29.524  1.00  0.00    -0.352 N 
ATOM     24  C   UNL A   1      33.165  34.539  28.849  1.00  0.00     0.251 C 
ATOM     25  H   UNL A   1      31.882  35.991  29.341  1.00  0.00     0.163 HD
ATOM     26  O   UNL A   1      32.433  34.084  27.967  1.00  0.00    -0.269 OA
BRANCH  24  27
ATOM     27  C   UNL A   1      34.447  33.866  29.149  1.00  0.00     0.039 A 
ATOM     28  C   UNL A   1      35.546  34.124  28.326  1.00  0.00     0.014 A 
ATOM     29  C   UNL A   1      34.564  32.966  30.212  1.00  0.00     0.014 A 
ATOM     30  C   UNL A   1      36.776  33.522  28.600  1.00  0.00     0.010 A 
ATOM     31  C   UNL A   1      35.806  32.413  30.521  1.00  0.00     0.010 A 
ATOM     32  C   UNL A   1      36.923  32.682  29.716  1.00  0.00    -0.014 A 
BRANCH  32  33
ATOM     33  C   UNL A   1      38.241  32.086  30.052  1.00  0.00     0.031 A 
ATOM     34  C   UNL A   1      39.218  32.833  30.917  1.00  0.00     0.074 A 
ATOM     35  C   UNL A   1      38.579  30.890  29.536  1.00  0.00     0.049 A 
ATOM     36  N   UNL A   1      40.420  32.479  31.297  1.00  0.00    -0.248 NA
ATOM     37  C   UNL A   1      38.800  34.158  31.399  1.00  0.00     0.031 C 
ATOM     38  C   UNL A   1      37.741  30.083  28.645  1.00  0.00     0.029 A 
ATOM     39  N   UNL A   1      39.721  30.145  29.682  1.00  0.00    -0.354 N 
ATOM     40  C   UNL A   1      40.907  33.542  32.046  1.00  0.00     0.074 A 
ATOM     41  C   UNL A   1      39.889  34.571  32.032  1.00  0.00     0.031 C 
ATOM     42  C   UNL A   1      38.387  28.944  28.348  1.00  0.00     0.029 A 
ATOM     43  C   UNL A   1      39.693  28.954  29.000  1.00  0.00     0.049 A 
ATOM     44  H   UNL A   1      40.489  30.436  30.226  1.00  0.00     0.167 HD
ATOM     45  C   UNL A   1      42.088  33.649  32.702  1.00  0.00     0.031 A 
ATOM     46  C   UNL A   1      40.614  27.977  28.908  1.00  0.00     0.031 A 
ATOM     47  C   UNL A   1      43.097  32.624  32.729  1.00  0.00     0.049 A 
ATOM     48  C   UNL A   1      41.912  28.112  29.652  1.00  0.00     0.074 A 
ATOM     49  C   UNL A   1      44.298  32.613  33.419  1.00  0.00     0.029 A 
ATOM     50  N   UNL A   1      43.024  31.426  32.035  1.00  0.00    -0.354 N 
ATOM     51  N   UNL A   1      42.326  29.094  30.415  1.00  0.00    -0.248 NA
ATOM     52  C   UNL A   1      42.861  26.998  29.532  1.00  0.00     0.031 C 
ATOM     53  C   UNL A   1      44.972  31.427  33.106  1.00  0.00     0.029 A 
ATOM     54  C   UNL A   1      44.168  30.679  32.260  1.00  0.00     0.049 A 
ATOM     55  H   UNL A   1      42.270  31.149  31.466  1.00  0.00     0.167 HD
ATOM     56  C   UNL A   1      43.575  28.707  30.883  1.00  0.00     0.074 A 
ATOM     57  C   UNL A   1      43.841  27.394  30.333  1.00  0.00     0.031 C 
ATOM     58  C   UNL A   1      44.424  29.379  31.699  1.00  0.00     0.031 A 
BRANCH  45  59
ATOM     59  C   UNL A   1      42.352  34.931  33.440  1.00  0.00    -0.014 A 
ATOM     60  C   UNL A   1      43.003  36.008  32.816  1.00  0.00     0.009 A 
ATOM     61  C   UNL A   1      41.923  35.074  34.768  1.00  0.00     0.009 A 
ATOM     62  C   UNL A   1      43.253  37.187  33.522  1.00  0.00     0.001 A 
ATOM     63  C   UNL A   1      42.150  36.264  35.463  1.00  0.00     0.001 A 
ATOM     64  C   UNL A   1      42.822  37.315  34.842  1.00  0.00     0.000 A 
ENDBRANCH  45  59
BRANCH  46  65
ATOM     65  C   UNL A   1      40.329  26.766  28.097  1.00  0.00    -0.014 A 
ATOM     66  C   UNL A   1      39.588  25.707  28.641  1.00  0.00     0.009 A 
ATOM     67  C   UNL A   1      40.792  26.667  26.775  1.00  0.00     0.009 A 
ATOM     68  C   UNL A   1      39.333  24.560  27.884  1.00  0.00     0.001 A 
ATOM     69  C   UNL A   1      40.514  25.530  26.012  1.00  0.00     0.001 A 
ATOM     70  C   UNL A   1      39.793  24.475  26.570  1.00  0.00     0.000 A 
ENDBRANCH  46  65
BRANCH  58  71
ATOM     71  C   UNL A   1      45.710  28.692  32.059  1.00  0.00    -0.014 A 
ATOM     72  C   UNL A   1      46.875  28.887  31.300  1.00  0.00     0.009 A 
ATOM     73  C   UNL A   1      45.762  27.859  33.187  1.00  0.00     0.009 A 
ATOM     74  C   UNL A   1      48.058  28.232  31.646  1.00  0.00     0.001 A 
ATOM     75  C   UNL A   1      46.954  27.228  33.545  1.00  0.00     0.001 A 
ATOM     76  C   UNL A   1      48.097  27.407  32.770  1.00  0.00     0.000 A 
ENDBRANCH  58  71
ENDBRANCH  32  33
ENDBRANCH  24  27
ENDBRANCH  22  23
ENDBRANCH  21  22
ENDBRANCH  20  21
ENDBRANCH   1  20
TORSDOF 16
ENDMDL
MODEL 2
REMARK VINA RESULT:      -8.0      4.979      8.791
REMARK SMILES CC(C)Cc1ccc([C@H](C)C(=O)NCCCCCCNC(=O)c2ccc(-c3c4nc(c(-c5ccccc5)c5ccc([nH]5)c(-c5ccccc5)c5nc(c(-c6ccccc6)c6ccc3[nH]6)C=C5)C=C4)cc2)cc1
REMARK SMILES IDX 16 1 15 2 14 3 13 4 11 5 12 6 9 8 10 9 8 10 5 11 6 12 72 13
REMARK SMILES IDX 7 14 71 15 4 16 2 17 1 18 3 19 17 20 18 21 19 22 20 23 21 24
REMARK SMILES IDX 22 26 23 27 24 28 70 29 25 30 69 31 26 32 27 33 28 34 63 35
REMARK SMILES IDX 29 36 68 37 62 38 64 39 30 40 67 41 61 42 60 43 31 45 53 46
REMARK SMILES IDX 38 47 52 48 39 49 42 50 51 51 65 52 40 53 41 54 50 56 66 57
REMARK SMILES IDX 43 58 32 59 33 60 37 61 34 62 36 63 35 64 54 65 55 66 59 67
REMARK SMILES IDX 56 68 58 69 57 70 44 71 45 72 49 73 46 74 48 75 47 76
REMARK H PARENT 13 7 20 25 64 44 42 55
REMARK Flexibility Score: inf
ROOT
ATOM      1  C   UNL A   1      33.938  25.971  24.356  1.00  0.00     0.002 C 
ENDROOT
BRANCH   1   2
ATOM      2  C   UNL A   1      34.775  24.692  24.262  1.00  0.00     0.021 C 
BRANCH   2   3
ATOM      3  C   UNL A   1      34.518  23.681  25.376  1.00  0.00     0.116 C 
BRANCH   3   4
ATOM      4  N   UNL A   1      33.956  22.449  24.862  1.00  0.00    -0.356 N 
ATOM      5  C   UNL A   1      32.730  21.888  25.065  1.00  0.00     0.227 C 
ATOM      6  O   UNL A   1      32.472  20.847  24.452  1.00  0.00    -0.274 OA
ATOM      7  H   UNL A   1      34.554  21.934  24.272  1.00  0.00     0.163 HD
BRANCH   5   8
ATOM      8  C   UNL A   1      31.700  22.508  26.022  1.00  0.00     0.105 C 
ATOM      9  C   UNL A   1      32.303  22.669  27.420  1.00  0.00     0.023 C 
BRANCH   8  10
ATOM     10  C   UNL A   1      31.003  23.715  25.405  1.00  0.00    -0.036 A 
ATOM     11  C   UNL A   1      29.976  26.024  24.139  1.00  0.00    -0.048 A 
ATOM     12  C   UNL A   1      30.440  24.949  23.379  1.00  0.00     0.004 A 
ATOM     13  C   UNL A   1      29.963  25.911  25.535  1.00  0.00     0.004 A 
ATOM     14  C   UNL A   1      30.948  23.810  24.004  1.00  0.00     0.005 A 
ATOM     15  C   UNL A   1      30.456  24.761  26.160  1.00  0.00     0.005 A 
BRANCH  11  16
ATOM     16  C   UNL A   1      29.546  27.306  23.468  1.00  0.00     0.038 C 
BRANCH  16  17
ATOM     17  C   UNL A   1      30.523  28.476  23.716  1.00  0.00    -0.013 C 
ATOM     18  C   UNL A   1      31.721  28.450  22.761  1.00  0.00     0.008 C 
ATOM     19  C   UNL A   1      29.784  29.808  23.572  1.00  0.00     0.008 C 
ENDBRANCH  16  17
ENDBRANCH  11  16
ENDBRANCH   8  10
ENDBRANCH   5   8
ENDBRANCH   3   4
ENDBRANCH   2   3
ENDBRANCH   1   2
BRANCH   1  20
ATOM     20  C   UNL A   1      33.630  26.453  25.777  1.00  0.00     0.002 C 
BRANCH  20  21
ATOM     21  C   UNL A   1      33.724  27.965  26.000  1.00  0.00     0.021 C 
BRANCH  21  22
ATOM     22  C   UNL A   1      33.374  28.440  27.409  1.00  0.00     0.116 C 
BRANCH  22  23
ATOM     23  N   UNL A   1      33.388  29.888  27.529  1.00  0.00    -0.352 N 
ATOM     24  C   UNL A   1      34.381  30.717  27.980  1.00  0.00     0.251 C 
ATOM     25  H   UNL A   1      32.562  30.340  27.243  1.00  0.00     0.163 HD
ATOM     26  O   UNL A   1      34.149  31.916  28.149  1.00  0.00    -0.269 OA
BRANCH  24  27
ATOM     27  C   UNL A   1      35.725  30.185  28.292  1.00  0.00     0.039 A 
ATOM     28  C   UNL A   1      36.692  30.178  27.284  1.00  0.00     0.014 A 
ATOM     29  C   UNL A   1      36.027  29.671  29.556  1.00  0.00     0.014 A 
ATOM     30  C   UNL A   1      37.977  29.704  27.555  1.00  0.00     0.010 A 
ATOM     31  C   UNL A   1      37.327  29.255  29.844  1.00  0.00     0.010 A 
ATOM     32  C   UNL A   1      38.313  29.264  28.846  1.00  0.00    -0.014 A 
BRANCH  32  33
ATOM     33  C   UNL A   1      39.693  28.817  29.163  1.00  0.00     0.031 A 
ATOM     34  C   UNL A   1      40.644  29.730  29.886  1.00  0.00     0.074 A 
ATOM     35  C   UNL A   1      40.107  27.604  28.754  1.00  0.00     0.049 A 
ATOM     36  N   UNL A   1      41.890  29.519  30.228  1.00  0.00    -0.248 NA
ATOM     37  C   UNL A   1      40.138  31.061  30.253  1.00  0.00     0.031 C 
ATOM     38  C   UNL A   1      39.299  26.639  28.003  1.00  0.00     0.029 A 
ATOM     39  N   UNL A   1      41.317  26.974  28.908  1.00  0.00    -0.354 N 
ATOM     40  C   UNL A   1      42.320  30.693  30.832  1.00  0.00     0.074 A 
ATOM     41  C   UNL A   1      41.217  31.627  30.773  1.00  0.00     0.031 C 
ATOM     42  C   UNL A   1      40.026  25.531  27.788  1.00  0.00     0.029 A 
ATOM     43  C   UNL A   1      41.358  25.718  28.356  1.00  0.00     0.049 A 
ATOM     44  H   UNL A   1      42.083  27.384  29.372  1.00  0.00     0.167 HD
ATOM     45  C   UNL A   1      43.519  30.965  31.401  1.00  0.00     0.031 A 
ATOM     46  C   UNL A   1      42.355  24.815  28.311  1.00  0.00     0.031 A 
ATOM     47  C   UNL A   1      44.614  30.035  31.475  1.00  0.00     0.049 A 
ATOM     48  C   UNL A   1      43.672  25.135  28.958  1.00  0.00     0.074 A 
ATOM     49  C   UNL A   1      45.845  30.197  32.088  1.00  0.00     0.029 A 
ATOM     50  N   UNL A   1      44.611  28.767  30.914  1.00  0.00    -0.354 N 
ATOM     51  N   UNL A   1      44.037  26.225  29.588  1.00  0.00    -0.248 NA
ATOM     52  C   UNL A   1      44.707  24.095  28.897  1.00  0.00     0.031 C 
ATOM     53  C   UNL A   1      46.603  29.042  31.860  1.00  0.00     0.029 A 
ATOM     54  C   UNL A   1      45.825  28.144  31.147  1.00  0.00     0.049 A 
ATOM     55  H   UNL A   1      43.856  28.369  30.422  1.00  0.00     0.167 HD
ATOM     56  C   UNL A   1      45.337  25.993  30.019  1.00  0.00     0.074 A 
ATOM     57  C   UNL A   1      45.688  24.654  29.593  1.00  0.00     0.031 C 
ATOM     58  C   UNL A   1      46.165  26.816  30.708  1.00  0.00     0.031 A 
BRANCH  45  59
ATOM     59  C   UNL A   1      43.708  32.337  31.985  1.00  0.00    -0.014 A 
ATOM     60  C   UNL A   1      44.197  33.398  31.206  1.00  0.00     0.009 A 
ATOM     61  C   UNL A   1      43.369  32.579  33.326  1.00  0.00     0.009 A 
ATOM     62  C   UNL A   1      44.379  34.663  31.769  1.00  0.00     0.001 A 
ATOM     63  C   UNL A   1      43.527  33.851  33.878  1.00  0.00     0.001 A 
ATOM     64  C   UNL A   1      44.040  34.890  33.103  1.00  0.00     0.000 A 
ENDBRANCH  45  59
BRANCH  46  65
ATOM     65  C   UNL A   1      42.135  23.504  27.648  1.00  0.00    -0.014 A 
ATOM     66  C   UNL A   1      41.511  22.456  28.340  1.00  0.00     0.009 A 
ATOM     67  C   UNL A   1      42.544  23.298  26.321  1.00  0.00     0.009 A 
ATOM     68  C   UNL A   1      41.319  21.217  27.723  1.00  0.00     0.001 A 
ATOM     69  C   UNL A   1      42.328  22.066  25.698  1.00  0.00     0.001 A 
ATOM     70  C   UNL A   1      41.724  21.025  26.402  1.00  0.00     0.000 A 
ENDBRANCH  46  65
BRANCH  58  71
ATOM     71  C   UNL A   1      47.522  26.279  31.060  1.00  0.00    -0.014 A 
ATOM     72  C   UNL A   1      47.776  25.709  32.317  1.00  0.00     0.009 A 
ATOM     73  C   UNL A   1      48.555  26.322  30.110  1.00  0.00     0.009 A 
ATOM     74  C   UNL A   1      49.048  25.224  32.627  1.00  0.00     0.001 A 
ATOM     75  C   UNL A   1      49.817  25.812  30.414  1.00  0.00     0.001 A 
ATOM     76  C   UNL A   1      50.065  25.272  31.674  1.00  0.00     0.000 A 
ENDBRANCH  58  71
ENDBRANCH  32  33
ENDBRANCH  24  27
ENDBRANCH  22  23
ENDBRANCH  21  22
ENDBRANCH  20  21
ENDBRANCH   1  20
TORSDOF 16
ENDMDL
MODEL 3
REMARK VINA RESULT:      -8.0      4.420      8.194
REMARK SMILES CC(C)Cc1ccc([C@H](C)C(=O)NCCCCCCNC(=O)c2ccc(-c3c4nc(c(-c5ccccc5)c5ccc([nH]5)c(-c5ccccc5)c5nc(c(-c6ccccc6)c6ccc3[nH]6)C=C5)C=C4)cc2)cc1
REMARK SMILES IDX 16 1 15 2 14 3 13 4 11 5 12 6 9 8 10 9 8 10 5 11 6 12 72 13
REMARK SMILES IDX 7 14 71 15 4 16 2 17 1 18 3 19 17 20 18 21 19 22 20 23 21 24
REMARK SMILES IDX 22 26 23 27 24 28 70 29 25 30 69 31 26 32 27 33 28 34 63 35
REMARK SMILES IDX 29 36 68 37 62 38 64 39 30 40 67 41 61 42 60 43 31 45 53 46
REMARK SMILES IDX 38 47 52 48 39 49 42 50 51 51 65 52 40 53 41 54 50 56 66 57
REMARK SMILES IDX 43 58 32 59 33 60 37 61 34 62 36 63 35 64 54 65 55 66 59 67
REMARK SMILES IDX 56 68 58 69 57 70 44 71 45 72 49 73 46 74 48 75 47 76
REMARK H PARENT 13 7 20 25 64 44 42 55
REMARK Flexibility Score: inf
ROOT
ATOM      1  C   UNL A   1      31.192  29.387  24.501  1.00  0.00     0.002 C 
ENDROOT
BRANCH   1   2
ATOM      2  C   UNL A   1      30.850  29.225  23.016  1.00  0.00     0.021 C 
BRANCH   2   3
ATOM      3  C   UNL A   1      30.578  27.789  22.580  1.00  0.00     0.116 C 
BRANCH   3   4
ATOM      4  N   UNL A   1      31.741  27.189  21.959  1.00  0.00    -0.356 N 
ATOM      5  C   UNL A   1      32.398  26.032  22.255  1.00  0.00     0.227 C 
ATOM      6  O   UNL A   1      33.339  25.708  21.522  1.00  0.00    -0.274 OA
ATOM      7  H   UNL A   1      32.117  27.697  21.204  1.00  0.00     0.163 HD
BRANCH   5   8
ATOM      8  C   UNL A   1      32.004  25.155  23.453  1.00  0.00     0.105 C 
ATOM      9  C   UNL A   1      30.697  24.412  23.163  1.00  0.00     0.023 C 
BRANCH   8  10
ATOM     10  C   UNL A   1      33.182  24.342  23.977  1.00  0.00    -0.036 A 
ATOM     11  C   UNL A   1      35.164  22.659  25.089  1.00  0.00    -0.048 A 
ATOM     12  C   UNL A   1      34.256  22.159  24.152  1.00  0.00     0.004 A 
ATOM     13  C   UNL A   1      35.119  24.020  25.414  1.00  0.00     0.004 A 
ATOM     14  C   UNL A   1      33.278  22.990  23.605  1.00  0.00     0.005 A 
ATOM     15  C   UNL A   1      34.149  24.856  24.851  1.00  0.00     0.005 A 
BRANCH  11  16
ATOM     16  C   UNL A   1      36.138  21.735  25.777  1.00  0.00     0.038 C 
BRANCH  16  17
ATOM     17  C   UNL A   1      37.562  21.805  25.184  1.00  0.00    -0.013 C 
ATOM     18  C   UNL A   1      38.533  22.576  26.084  1.00  0.00     0.008 C 
ATOM     19  C   UNL A   1      38.096  20.391  24.948  1.00  0.00     0.008 C 
ENDBRANCH  16  17
ENDBRANCH  11  16
ENDBRANCH   8  10
ENDBRANCH   5   8
ENDBRANCH   3   4
ENDBRANCH   2   3
ENDBRANCH   1   2
BRANCH   1  20
ATOM     20  C   UNL A   1      32.521  28.766  24.942  1.00  0.00     0.002 C 
BRANCH  20  21
ATOM     21  C   UNL A   1      32.479  27.968  26.249  1.00  0.00     0.021 C 
BRANCH  21  22
ATOM     22  C   UNL A   1      33.501  28.388  27.302  1.00  0.00     0.116 C 
BRANCH  22  23
ATOM     23  N   UNL A   1      33.477  29.817  27.565  1.00  0.00    -0.352 N 
ATOM     24  C   UNL A   1      34.449  30.623  28.095  1.00  0.00     0.251 C 
ATOM     25  H   UNL A   1      32.638  30.272  27.327  1.00  0.00     0.163 HD
ATOM     26  O   UNL A   1      34.186  31.794  28.382  1.00  0.00    -0.269 OA
BRANCH  24  27
ATOM     27  C   UNL A   1      35.808  30.100  28.350  1.00  0.00     0.039 A 
ATOM     28  C   UNL A   1      36.753  30.162  27.323  1.00  0.00     0.014 A 
ATOM     29  C   UNL A   1      36.147  29.526  29.579  1.00  0.00     0.014 A 
ATOM     30  C   UNL A   1      38.051  29.697  27.543  1.00  0.00     0.010 A 
ATOM     31  C   UNL A   1      37.458  29.119  29.818  1.00  0.00     0.010 A 
ATOM     32  C   UNL A   1      38.423  29.197  28.801  1.00  0.00    -0.014 A 
BRANCH  32  33
ATOM     33  C   UNL A   1      39.816  28.758  29.065  1.00  0.00     0.031 A 
ATOM     34  C   UNL A   1      40.799  29.690  29.719  1.00  0.00     0.074 A 
ATOM     35  C   UNL A   1      40.212  27.534  28.670  1.00  0.00     0.049 A 
ATOM     36  N   UNL A   1      42.060  29.488  30.007  1.00  0.00    -0.248 NA
ATOM     37  C   UNL A   1      40.309  31.031  30.072  1.00  0.00     0.031 C 
ATOM     38  C   UNL A   1      39.371  26.550  27.984  1.00  0.00     0.029 A 
ATOM     39  N   UNL A   1      41.428  26.909  28.785  1.00  0.00    -0.354 N 
ATOM     40  C   UNL A   1      42.516  30.678  30.560  1.00  0.00     0.074 A 
ATOM     41  C   UNL A   1      41.411  31.610  30.526  1.00  0.00     0.031 C 
ATOM     42  C   UNL A   1      40.089  25.437  27.765  1.00  0.00     0.029 A 
ATOM     43  C   UNL A   1      41.445  25.638  28.265  1.00  0.00     0.049 A 
ATOM     44  H   UNL A   1      42.215  27.331  29.202  1.00  0.00     0.167 HD
ATOM     45  C   UNL A   1      43.740  30.965  31.065  1.00  0.00     0.031 A 
ATOM     46  C   UNL A   1      42.440  24.734  28.198  1.00  0.00     0.031 A 
ATOM     47  C   UNL A   1      44.838  30.037  31.112  1.00  0.00     0.049 A 
ATOM     48  C   UNL A   1      43.785  25.072  28.774  1.00  0.00     0.074 A 
ATOM     49  C   UNL A   1      46.096  30.215  31.663  1.00  0.00     0.029 A 
ATOM     50  N   UNL A   1      44.810  28.755  30.586  1.00  0.00    -0.354 N 
ATOM     51  N   UNL A   1      44.179  26.177  29.358  1.00  0.00    -0.248 NA
ATOM     52  C   UNL A   1      44.818  24.030  28.693  1.00  0.00     0.031 C 
ATOM     53  C   UNL A   1      46.844  29.055  31.431  1.00  0.00     0.029 A 
ATOM     54  C   UNL A   1      46.035  28.138  30.779  1.00  0.00     0.049 A 
ATOM     55  H   UNL A   1      44.033  28.344  30.141  1.00  0.00     0.167 HD
ATOM     56  C   UNL A   1      45.497  25.957  29.733  1.00  0.00     0.074 A 
ATOM     57  C   UNL A   1      45.830  24.607  29.327  1.00  0.00     0.031 C 
ATOM     58  C   UNL A   1      46.355  26.798  30.361  1.00  0.00     0.031 A 
BRANCH  45  59
ATOM     59  C   UNL A   1      43.954  32.352  31.602  1.00  0.00    -0.014 A 
ATOM     60  C   UNL A   1      43.703  32.657  32.950  1.00  0.00     0.009 A 
ATOM     61  C   UNL A   1      44.439  33.362  30.756  1.00  0.00     0.009 A 
ATOM     62  C   UNL A   1      43.894  33.955  33.428  1.00  0.00     0.001 A 
ATOM     63  C   UNL A   1      44.655  34.652  31.244  1.00  0.00     0.001 A 
ATOM     64  C   UNL A   1      44.374  34.950  32.576  1.00  0.00     0.000 A 
ENDBRANCH  45  59
BRANCH  46  65
ATOM     65  C   UNL A   1      42.191  23.406  27.581  1.00  0.00    -0.014 A 
ATOM     66  C   UNL A   1      41.672  22.354  28.350  1.00  0.00     0.009 A 
ATOM     67  C   UNL A   1      42.467  23.187  26.223  1.00  0.00     0.009 A 
ATOM     68  C   UNL A   1      41.454  21.099  27.775  1.00  0.00     0.001 A 
ATOM     69  C   UNL A   1      42.224  21.939  25.644  1.00  0.00     0.001 A 
ATOM     70  C   UNL A   1      41.725  20.895  26.422  1.00  0.00     0.000 A 
ENDBRANCH  46  65
BRANCH  58  71
ATOM     71  C   UNL A   1      47.728  26.271  30.663  1.00  0.00    -0.014 A 
ATOM     72  C   UNL A   1      48.739  26.276  29.690  1.00  0.00     0.009 A 
ATOM     73  C   UNL A   1      48.020  25.786  31.947  1.00  0.00     0.009 A 
ATOM     74  C   UNL A   1      50.007  25.774  29.988  1.00  0.00     0.001 A 
ATOM     75  C   UNL A   1      49.296  25.308  32.249  1.00  0.00     0.001 A 
ATOM     76  C   UNL A   1      50.285  25.294  31.268  1.00  0.00     0.000 A 
ENDBRANCH  58  71
ENDBRANCH  32  33
ENDBRANCH  24  27
ENDBRANCH  22  23
ENDBRANCH  21  22
ENDBRANCH  20  21
ENDBRANCH   1  20
TORSDOF 16
ENDMDL
