MODEL 1
REMARK VINA RESULT:     -12.8      0.000      0.000
REMARK SMILES COc1ccc(-c2cc(Cl)cc3c2O[C@@H](C(F)(F)F)C(C(=O)NCCCCCCNC(=O)c2ccc(-c4c5nc(c(-c6ccccc6)c6ccc([nH]6)c(-c6ccccc6)c6nc(c(-c7ccccc7)c7ccc4[nH]7)C=C6)C=C5)cc2)=C3)cc1C
REMARK SMILES IDX 26 1 25 2 24 3 23 4 21 5 22 6 20 8 7 9 8 10 13 11 9 12 12 13
REMARK SMILES IDX 14 14 10 15 11 16 81 17 15 18 6 19 3 20 4 21 83 22 5 23
REMARK SMILES IDX 82 24 84 25 2 26 1 27 16 28 17 29 18 30 19 31 27 32 28 33
REMARK SMILES IDX 29 34 30 35 31 36 32 38 33 39 34 40 80 41 35 42 79 43 36 44
REMARK SMILES IDX 37 45 38 46 73 47 39 48 78 49 72 50 74 51 40 52 77 53 71 54
REMARK SMILES IDX 70 55 41 57 63 58 48 59 62 60 49 61 52 62 61 63 75 64 50 65
REMARK SMILES IDX 51 66 60 68 76 69 53 70 42 71 43 72 47 73 44 74 46 75 45 76
REMARK SMILES IDX 64 77 65 78 69 79 66 80 68 81 67 82 54 83 55 84 59 85 56 86
REMARK SMILES IDX 58 87 57 88
REMARK H PARENT 23 7 30 37 74 56 52 67
REMARK Flexibility Score: inf
ROOT
ATOM      1  C   UNL A   1      31.838  29.690  25.164  1.00  0.00     0.002 C 
ENDROOT
BRANCH   1   2
ATOM      2  C   UNL A   1      33.056  28.887  24.713  1.00  0.00     0.021 C 
BRANCH   2   3
ATOM      3  C   UNL A   1      32.963  27.825  23.619  1.00  0.00     0.116 C 
BRANCH   3   4
ATOM      4  N   UNL A   1      33.766  26.627  23.699  1.00  0.00    -0.352 N 
ATOM      5  C   UNL A   1      33.438  25.305  23.522  1.00  0.00     0.251 C 
ATOM      6  O   UNL A   1      34.375  24.545  23.256  1.00  0.00    -0.270 OA
ATOM      7  H   UNL A   1      34.712  26.785  23.920  1.00  0.00     0.163 HD
BRANCH   5   8
ATOM      8  C   UNL A   1      32.024  24.711  23.695  1.00  0.00     0.067 C 
ATOM      9  C   UNL A   1      33.884  21.998  25.951  1.00  0.00     0.026 A 
ATOM     10  C   UNL A   1      33.503  20.641  25.924  1.00  0.00     0.033 A 
ATOM     11  C   UNL A   1      33.003  22.859  25.302  1.00  0.00     0.135 A 
ATOM     12  C   UNL A   1      32.588  20.188  24.965  1.00  0.00     0.042 A 
ATOM     13  C   UNL A   1      32.353  22.420  24.122  1.00  0.00     0.019 A 
ATOM     14  O   UNL A   1      32.608  24.081  25.896  1.00  0.00    -0.475 OA
ATOM     15  Cl  UNL A   1      32.207  18.512  24.886  1.00  0.00    -0.084 Cl
ATOM     16  C   UNL A   1      32.093  21.060  23.991  1.00  0.00     0.032 A 
ATOM     17  C   UNL A   1      31.917  23.473  23.136  1.00  0.00     0.025 C 
ATOM     18  C   UNL A   1      31.491  24.616  25.111  1.00  0.00     0.314 C 
BRANCH   9  19
ATOM     19  C   UNL A   1      35.355  22.193  25.746  1.00  0.00    -0.014 A 
ATOM     20  C   UNL A   1      38.197  22.201  25.656  1.00  0.00     0.121 A 
ATOM     21  C   UNL A   1      37.466  23.322  26.091  1.00  0.00     0.047 A 
ATOM     22  C   UNL A   1      37.516  21.055  25.244  1.00  0.00    -0.008 A 
ATOM     23  C   UNL A   1      36.060  23.325  26.139  1.00  0.00     0.013 A 
ATOM     24  C   UNL A   1      36.108  21.093  25.256  1.00  0.00     0.016 A 
ATOM     25  C   UNL A   1      38.175  19.759  24.865  1.00  0.00     0.048 C 
BRANCH  20  26
ATOM     26  O   UNL A   1      39.554  22.323  25.806  1.00  0.00    -0.496 OA
ATOM     27  C   UNL A   1      40.115  21.792  27.000  1.00  0.00     0.278 C 
ENDBRANCH  20  26
ENDBRANCH   9  19
BRANCH  18  28
ATOM     28  C   UNL A   1      30.597  25.787  25.564  1.00  0.00     0.429 C 
ATOM     29  F   UNL A   1      30.227  26.533  24.487  1.00  0.00    -0.167 F 
ATOM     30  F   UNL A   1      29.459  25.377  26.162  1.00  0.00    -0.167 F 
ATOM     31  F   UNL A   1      31.223  26.651  26.397  1.00  0.00    -0.167 F 
ENDBRANCH  18  28
ENDBRANCH   5   8
ENDBRANCH   3   4
ENDBRANCH   2   3
ENDBRANCH   1   2
BRANCH   1  32
ATOM     32  C   UNL A   1      31.894  30.459  26.485  1.00  0.00     0.002 C 
BRANCH  32  33
ATOM     33  C   UNL A   1      33.036  30.134  27.443  1.00  0.00     0.021 C 
BRANCH  33  34
ATOM     34  C   UNL A   1      34.246  31.058  27.374  1.00  0.00     0.116 C 
BRANCH  34  35
ATOM     35  N   UNL A   1      34.611  31.658  28.654  1.00  0.00    -0.352 N 
ATOM     36  C   UNL A   1      35.618  31.289  29.532  1.00  0.00     0.251 C 
ATOM     37  H   UNL A   1      34.069  32.431  28.931  1.00  0.00     0.163 HD
ATOM     38  O   UNL A   1      35.832  31.928  30.548  1.00  0.00    -0.269 OA
BRANCH  36  39
ATOM     39  C   UNL A   1      36.518  30.173  29.153  1.00  0.00     0.039 A 
ATOM     40  C   UNL A   1      36.781  29.188  30.111  1.00  0.00     0.014 A 
ATOM     41  C   UNL A   1      37.249  30.218  27.969  1.00  0.00     0.014 A 
ATOM     42  C   UNL A   1      37.938  28.423  29.996  1.00  0.00     0.010 A 
ATOM     43  C   UNL A   1      38.447  29.533  27.901  1.00  0.00     0.010 A 
ATOM     44  C   UNL A   1      38.826  28.695  28.954  1.00  0.00    -0.014 A 
BRANCH  44  45
ATOM     45  C   UNL A   1      40.228  28.291  28.994  1.00  0.00     0.031 A 
ATOM     46  C   UNL A   1      40.670  27.007  28.420  1.00  0.00     0.074 A 
ATOM     47  C   UNL A   1      41.142  29.121  29.546  1.00  0.00     0.049 A 
ATOM     48  N   UNL A   1      41.667  26.318  28.871  1.00  0.00    -0.248 NA
ATOM     49  C   UNL A   1      39.984  26.378  27.297  1.00  0.00     0.031 C 
ATOM     50  C   UNL A   1      42.597  28.991  29.493  1.00  0.00     0.029 A 
ATOM     51  N   UNL A   1      40.929  30.137  30.481  1.00  0.00    -0.354 N 
ATOM     52  C   UNL A   1      41.938  25.347  27.935  1.00  0.00     0.074 A 
ATOM     53  C   UNL A   1      40.814  25.367  27.023  1.00  0.00     0.031 C 
ATOM     54  C   UNL A   1      43.119  29.636  30.549  1.00  0.00     0.029 A 
ATOM     55  C   UNL A   1      42.009  30.085  31.373  1.00  0.00     0.049 A 
ATOM     56  H   UNL A   1      40.171  30.765  30.507  1.00  0.00     0.167 HD
ATOM     57  C   UNL A   1      43.152  24.729  27.910  1.00  0.00     0.031 A 
ATOM     58  C   UNL A   1      41.874  29.861  32.712  1.00  0.00     0.031 A 
ATOM     59  C   UNL A   1      44.038  25.192  28.969  1.00  0.00     0.049 A 
ATOM     60  C   UNL A   1      42.659  28.661  33.194  1.00  0.00     0.074 A 
ATOM     61  C   UNL A   1      45.077  26.109  28.989  1.00  0.00     0.029 A 
ATOM     62  N   UNL A   1      43.725  24.923  30.295  1.00  0.00    -0.354 N 
ATOM     63  N   UNL A   1      43.129  27.736  32.405  1.00  0.00    -0.248 NA
ATOM     64  C   UNL A   1      42.907  28.368  34.605  1.00  0.00     0.031 C 
ATOM     65  C   UNL A   1      45.337  26.451  30.339  1.00  0.00     0.029 A 
ATOM     66  C   UNL A   1      44.475  25.721  31.138  1.00  0.00     0.049 A 
ATOM     67  H   UNL A   1      43.063  24.259  30.592  1.00  0.00     0.167 HD
ATOM     68  C   UNL A   1      43.724  26.756  33.154  1.00  0.00     0.074 A 
ATOM     69  C   UNL A   1      43.565  27.198  34.527  1.00  0.00     0.031 C 
ATOM     70  C   UNL A   1      44.290  25.656  32.579  1.00  0.00     0.031 A 
BRANCH  57  71
ATOM     71  C   UNL A   1      43.609  23.961  26.698  1.00  0.00    -0.014 A 
ATOM     72  C   UNL A   1      43.667  22.556  26.737  1.00  0.00     0.009 A 
ATOM     73  C   UNL A   1      44.053  24.574  25.514  1.00  0.00     0.009 A 
ATOM     74  C   UNL A   1      44.244  21.812  25.701  1.00  0.00     0.001 A 
ATOM     75  C   UNL A   1      44.670  23.839  24.493  1.00  0.00     0.001 A 
ATOM     76  C   UNL A   1      44.777  22.456  24.593  1.00  0.00     0.000 A 
ENDBRANCH  57  71
BRANCH  58  77
ATOM     77  C   UNL A   1      40.570  30.284  33.286  1.00  0.00    -0.014 A 
ATOM     78  C   UNL A   1      40.311  31.661  33.423  1.00  0.00     0.009 A 
ATOM     79  C   UNL A   1      39.494  29.388  33.358  1.00  0.00     0.009 A 
ATOM     80  C   UNL A   1      39.001  32.136  33.528  1.00  0.00     0.001 A 
ATOM     81  C   UNL A   1      38.183  29.868  33.469  1.00  0.00     0.001 A 
ATOM     82  C   UNL A   1      37.936  31.239  33.523  1.00  0.00     0.000 A 
ENDBRANCH  58  77
BRANCH  70  83
ATOM     83  C   UNL A   1      44.801  24.447  33.315  1.00  0.00    -0.014 A 
ATOM     84  C   UNL A   1      46.122  24.299  33.756  1.00  0.00     0.009 A 
ATOM     85  C   UNL A   1      43.880  23.453  33.712  1.00  0.00     0.009 A 
ATOM     86  C   UNL A   1      46.514  23.185  34.510  1.00  0.00     0.001 A 
ATOM     87  C   UNL A   1      44.258  22.363  34.498  1.00  0.00     0.001 A 
ATOM     88  C   UNL A   1      45.582  22.223  34.888  1.00  0.00     0.000 A 
ENDBRANCH  70  83
ENDBRANCH  44  45
ENDBRANCH  36  39
ENDBRANCH  34  35
ENDBRANCH  33  34
ENDBRANCH  32  33
ENDBRANCH   1  32
TORSDOF 16
ENDMDL
MODEL 2
REMARK VINA RESULT:     -12.7      3.306      8.886
REMARK SMILES COc1ccc(-c2cc(Cl)cc3c2O[C@@H](C(F)(F)F)C(C(=O)NCCCCCCNC(=O)c2ccc(-c4c5nc(c(-c6ccccc6)c6ccc([nH]6)c(-c6ccccc6)c6nc(c(-c7ccccc7)c7ccc4[nH]7)C=C6)C=C5)cc2)=C3)cc1C
REMARK SMILES IDX 26 1 25 2 24 3 23 4 21 5 22 6 20 8 7 9 8 10 13 11 9 12 12 13
REMARK SMILES IDX 14 14 10 15 11 16 81 17 15 18 6 19 3 20 4 21 83 22 5 23
REMARK SMILES IDX 82 24 84 25 2 26 1 27 16 28 17 29 18 30 19 31 27 32 28 33
REMARK SMILES IDX 29 34 30 35 31 36 32 38 33 39 34 40 80 41 35 42 79 43 36 44
REMARK SMILES IDX 37 45 38 46 73 47 39 48 78 49 72 50 74 51 40 52 77 53 71 54
REMARK SMILES IDX 70 55 41 57 63 58 48 59 62 60 49 61 52 62 61 63 75 64 50 65
REMARK SMILES IDX 51 66 60 68 76 69 53 70 42 71 43 72 47 73 44 74 46 75 45 76
REMARK SMILES IDX 64 77 65 78 69 79 66 80 68 81 67 82 54 83 55 84 59 85 56 86
REMARK SMILES IDX 58 87 57 88
REMARK H PARENT 23 7 30 37 74 56 52 67
REMARK Flexibility Score: inf
ROOT
ATOM      1  C   UNL A   1      37.038  23.165  24.816  1.00  0.00     0.002 C 
ENDROOT
BRANCH   1   2
ATOM      2  C   UNL A   1      36.057  23.684  25.864  1.00  0.00     0.021 C 
BRANCH   2   3
ATOM      3  C   UNL A   1      34.551  23.457  25.742  1.00  0.00     0.116 C 
BRANCH   3   4
ATOM      4  N   UNL A   1      33.624  24.426  26.280  1.00  0.00    -0.352 N 
ATOM      5  C   UNL A   1      32.298  24.659  26.005  1.00  0.00     0.251 C 
ATOM      6  O   UNL A   1      31.662  25.261  26.876  1.00  0.00    -0.270 OA
ATOM      7  H   UNL A   1      34.009  25.023  26.960  1.00  0.00     0.163 HD
BRANCH   5   8
ATOM      8  C   UNL A   1      31.587  24.287  24.687  1.00  0.00     0.067 C 
ATOM      9  C   UNL A   1      31.964  28.172  23.865  1.00  0.00     0.026 A 
ATOM     10  C   UNL A   1      30.942  28.880  23.201  1.00  0.00     0.033 A 
ATOM     11  C   UNL A   1      31.799  26.789  23.872  1.00  0.00     0.135 A 
ATOM     12  C   UNL A   1      29.697  28.276  22.983  1.00  0.00     0.042 A 
ATOM     13  C   UNL A   1      30.494  26.251  23.988  1.00  0.00     0.019 A 
ATOM     14  O   UNL A   1      32.882  25.925  23.580  1.00  0.00    -0.475 OA
ATOM     15  Cl  UNL A   1      28.432  29.187  22.255  1.00  0.00    -0.084 Cl
ATOM     16  C   UNL A   1      29.436  26.994  23.475  1.00  0.00     0.032 A 
ATOM     17  C   UNL A   1      30.362  24.873  24.584  1.00  0.00     0.025 C 
ATOM     18  C   UNL A   1      32.337  24.576  23.401  1.00  0.00     0.314 C 
BRANCH   9  19
ATOM     19  C   UNL A   1      32.412  28.844  25.126  1.00  0.00    -0.014 A 
ATOM     20  C   UNL A   1      33.319  30.504  27.251  1.00  0.00     0.121 A 
ATOM     21  C   UNL A   1      33.999  29.326  26.887  1.00  0.00     0.047 A 
ATOM     22  C   UNL A   1      32.160  30.867  26.563  1.00  0.00    -0.008 A 
ATOM     23  C   UNL A   1      33.556  28.502  25.836  1.00  0.00     0.013 A 
ATOM     24  C   UNL A   1      31.707  30.005  25.546  1.00  0.00     0.016 A 
ATOM     25  C   UNL A   1      31.405  32.149  26.777  1.00  0.00     0.048 C 
BRANCH  20  26
ATOM     26  O   UNL A   1      33.964  31.255  28.198  1.00  0.00    -0.496 OA
ATOM     27  C   UNL A   1      34.984  32.131  27.732  1.00  0.00     0.278 C 
ENDBRANCH  20  26
ENDBRANCH   9  19
BRANCH  18  28
ATOM     28  C   UNL A   1      33.132  23.393  22.815  1.00  0.00     0.429 C 
ATOM     29  F   UNL A   1      34.465  23.664  22.854  1.00  0.00    -0.167 F 
ATOM     30  F   UNL A   1      32.950  22.247  23.505  1.00  0.00    -0.167 F 
ATOM     31  F   UNL A   1      32.855  23.149  21.513  1.00  0.00    -0.167 F 
ENDBRANCH  18  28
ENDBRANCH   5   8
ENDBRANCH   3   4
ENDBRANCH   2   3
ENDBRANCH   1   2
BRANCH   1  32
ATOM     32  C   UNL A   1      37.359  21.670  24.766  1.00  0.00     0.002 C 
BRANCH  32  33
ATOM     33  C   UNL A   1      38.659  21.205  25.417  1.00  0.00     0.021 C 
BRANCH  33  34
ATOM     34  C   UNL A   1      39.291  22.173  26.409  1.00  0.00     0.116 C 
BRANCH  34  35
ATOM     35  N   UNL A   1      40.689  22.485  26.129  1.00  0.00    -0.352 N 
ATOM     36  C   UNL A   1      41.350  23.698  26.249  1.00  0.00     0.251 C 
ATOM     37  H   UNL A   1      41.238  21.732  25.813  1.00  0.00     0.163 HD
ATOM     38  O   UNL A   1      42.544  23.788  26.022  1.00  0.00    -0.269 OA
BRANCH  36  39
ATOM     39  C   UNL A   1      40.605  24.865  26.781  1.00  0.00     0.039 A 
ATOM     40  C   UNL A   1      40.752  26.091  26.125  1.00  0.00     0.014 A 
ATOM     41  C   UNL A   1      39.959  24.796  28.013  1.00  0.00     0.014 A 
ATOM     42  C   UNL A   1      40.487  27.267  26.821  1.00  0.00     0.010 A 
ATOM     43  C   UNL A   1      39.792  25.959  28.741  1.00  0.00     0.010 A 
ATOM     44  C   UNL A   1      40.131  27.188  28.169  1.00  0.00    -0.014 A 
BRANCH  44  45
ATOM     45  C   UNL A   1      40.272  28.316  29.084  1.00  0.00     0.031 A 
ATOM     46  C   UNL A   1      39.192  29.307  29.249  1.00  0.00     0.074 A 
ATOM     47  C   UNL A   1      41.405  28.443  29.812  1.00  0.00     0.049 A 
ATOM     48  N   UNL A   1      39.391  30.552  29.534  1.00  0.00    -0.248 NA
ATOM     49  C   UNL A   1      37.786  28.965  29.065  1.00  0.00     0.031 C 
ATOM     50  C   UNL A   1      41.645  29.368  30.917  1.00  0.00     0.029 A 
ATOM     51  N   UNL A   1      42.667  27.909  29.540  1.00  0.00    -0.354 N 
ATOM     52  C   UNL A   1      38.168  31.086  29.868  1.00  0.00     0.074 A 
ATOM     53  C   UNL A   1      37.193  30.090  29.476  1.00  0.00     0.031 C 
ATOM     54  C   UNL A   1      42.967  29.579  31.015  1.00  0.00     0.029 A 
ATOM     55  C   UNL A   1      43.596  28.896  29.897  1.00  0.00     0.049 A 
ATOM     56  H   UNL A   1      42.864  27.017  29.172  1.00  0.00     0.167 HD
ATOM     57  C   UNL A   1      38.089  32.237  30.592  1.00  0.00     0.031 A 
ATOM     58  C   UNL A   1      44.478  29.457  29.020  1.00  0.00     0.031 A 
ATOM     59  C   UNL A   1      39.398  32.795  30.903  1.00  0.00     0.049 A 
ATOM     60  C   UNL A   1      44.354  30.962  28.936  1.00  0.00     0.074 A 
ATOM     61  C   UNL A   1      40.197  32.739  32.034  1.00  0.00     0.029 A 
ATOM     62  N   UNL A   1      40.200  33.280  29.878  1.00  0.00    -0.354 N 
ATOM     63  N   UNL A   1      43.321  31.630  29.366  1.00  0.00    -0.248 NA
ATOM     64  C   UNL A   1      45.346  31.823  28.293  1.00  0.00     0.031 C 
ATOM     65  C   UNL A   1      41.510  33.123  31.665  1.00  0.00     0.029 A 
ATOM     66  C   UNL A   1      41.501  33.436  30.318  1.00  0.00     0.049 A 
ATOM     67  H   UNL A   1      39.887  33.483  28.968  1.00  0.00     0.167 HD
ATOM     68  C   UNL A   1      43.485  32.959  29.079  1.00  0.00     0.074 A 
ATOM     69  C   UNL A   1      44.771  33.033  28.411  1.00  0.00     0.031 C 
ATOM     70  C   UNL A   1      42.542  33.888  29.408  1.00  0.00     0.031 A 
BRANCH  57  71
ATOM     71  C   UNL A   1      36.813  32.633  31.288  1.00  0.00    -0.014 A 
ATOM     72  C   UNL A   1      35.953  33.575  30.695  1.00  0.00     0.009 A 
ATOM     73  C   UNL A   1      36.441  32.155  32.556  1.00  0.00     0.009 A 
ATOM     74  C   UNL A   1      34.849  34.099  31.378  1.00  0.00     0.001 A 
ATOM     75  C   UNL A   1      35.363  32.706  33.261  1.00  0.00     0.001 A 
ATOM     76  C   UNL A   1      34.574  33.689  32.675  1.00  0.00     0.000 A 
ENDBRANCH  57  71
BRANCH  58  77
ATOM     77  C   UNL A   1      44.851  28.591  27.870  1.00  0.00    -0.014 A 
ATOM     78  C   UNL A   1      45.821  27.590  28.070  1.00  0.00     0.009 A 
ATOM     79  C   UNL A   1      44.032  28.516  26.735  1.00  0.00     0.009 A 
ATOM     80  C   UNL A   1      45.902  26.491  27.211  1.00  0.00     0.001 A 
ATOM     81  C   UNL A   1      44.121  27.416  25.873  1.00  0.00     0.001 A 
ATOM     82  C   UNL A   1      45.032  26.391  26.128  1.00  0.00     0.000 A 
ENDBRANCH  58  77
BRANCH  70  83
ATOM     83  C   UNL A   1      42.544  35.330  28.979  1.00  0.00    -0.014 A 
ATOM     84  C   UNL A   1      43.291  36.333  29.607  1.00  0.00     0.009 A 
ATOM     85  C   UNL A   1      41.864  35.687  27.793  1.00  0.00     0.009 A 
ATOM     86  C   UNL A   1      43.315  37.642  29.106  1.00  0.00     0.001 A 
ATOM     87  C   UNL A   1      41.918  36.980  27.268  1.00  0.00     0.001 A 
ATOM     88  C   UNL A   1      42.636  37.963  27.934  1.00  0.00     0.000 A 
ENDBRANCH  70  83
ENDBRANCH  44  45
ENDBRANCH  36  39
ENDBRANCH  34  35
ENDBRANCH  33  34
ENDBRANCH  32  33
ENDBRANCH   1  32
TORSDOF 16
ENDMDL
MODEL 3
REMARK VINA RESULT:     -12.4      1.951      3.214
REMARK SMILES COc1ccc(-c2cc(Cl)cc3c2O[C@@H](C(F)(F)F)C(C(=O)NCCCCCCNC(=O)c2ccc(-c4c5nc(c(-c6ccccc6)c6ccc([nH]6)c(-c6ccccc6)c6nc(c(-c7ccccc7)c7ccc4[nH]7)C=C6)C=C5)cc2)=C3)cc1C
REMARK SMILES IDX 26 1 25 2 24 3 23 4 21 5 22 6 20 8 7 9 8 10 13 11 9 12 12 13
REMARK SMILES IDX 14 14 10 15 11 16 81 17 15 18 6 19 3 20 4 21 83 22 5 23
REMARK SMILES IDX 82 24 84 25 2 26 1 27 16 28 17 29 18 30 19 31 27 32 28 33
REMARK SMILES IDX 29 34 30 35 31 36 32 38 33 39 34 40 80 41 35 42 79 43 36 44
REMARK SMILES IDX 37 45 38 46 73 47 39 48 78 49 72 50 74 51 40 52 77 53 71 54
REMARK SMILES IDX 70 55 41 57 63 58 48 59 62 60 49 61 52 62 61 63 75 64 50 65
REMARK SMILES IDX 51 66 60 68 76 69 53 70 42 71 43 72 47 73 44 74 46 75 45 76
REMARK SMILES IDX 64 77 65 78 69 79 66 80 68 81 67 82 54 83 55 84 59 85 56 86
REMARK SMILES IDX 58 87 57 88
REMARK H PARENT 23 7 30 37 74 56 52 67
REMARK Flexibility Score: inf
ROOT
ATOM      1  C   UNL A   1      34.422  29.217  26.374  1.00  0.00     0.002 C 
ENDROOT
BRANCH   1   2
ATOM      2  C   UNL A   1      33.681  27.889  26.247  1.00  0.00     0.021 C 
BRANCH   2   3
ATOM      3  C   UNL A   1      33.238  27.338  24.893  1.00  0.00     0.116 C 
BRANCH   3   4
ATOM      4  N   UNL A   1      33.960  26.246  24.281  1.00  0.00    -0.352 N 
ATOM      5  C   UNL A   1      33.522  25.165  23.556  1.00  0.00     0.251 C 
ATOM      6  O   UNL A   1      34.361  24.623  22.829  1.00  0.00    -0.270 OA
ATOM      7  H   UNL A   1      34.936  26.283  24.407  1.00  0.00     0.163 HD
BRANCH   5   8
ATOM      8  C   UNL A   1      32.106  24.557  23.639  1.00  0.00     0.067 C 
ATOM      9  C   UNL A   1      33.927  21.616  25.624  1.00  0.00     0.026 A 
ATOM     10  C   UNL A   1      33.549  20.270  25.444  1.00  0.00     0.033 A 
ATOM     11  C   UNL A   1      33.058  22.543  25.055  1.00  0.00     0.135 A 
ATOM     12  C   UNL A   1      32.652  19.923  24.425  1.00  0.00     0.042 A 
ATOM     13  C   UNL A   1      32.430  22.233  23.823  1.00  0.00     0.019 A 
ATOM     14  O   UNL A   1      32.650  23.694  25.770  1.00  0.00    -0.475 OA
ATOM     15  Cl  UNL A   1      32.274  18.266  24.161  1.00  0.00    -0.084 Cl
ATOM     16  C   UNL A   1      32.174  20.896  23.542  1.00  0.00     0.032 A 
ATOM     17  C   UNL A   1      32.010  23.387  22.949  1.00  0.00     0.025 C 
ATOM     18  C   UNL A   1      31.547  24.311  25.027  1.00  0.00     0.314 C 
BRANCH   9  19
ATOM     19  C   UNL A   1      35.402  21.831  25.468  1.00  0.00    -0.014 A 
ATOM     20  C   UNL A   1      38.244  21.911  25.509  1.00  0.00     0.121 A 
ATOM     21  C   UNL A   1      37.466  23.050  25.789  1.00  0.00     0.047 A 
ATOM     22  C   UNL A   1      37.611  20.709  25.189  1.00  0.00    -0.008 A 
ATOM     23  C   UNL A   1      36.060  23.016  25.772  1.00  0.00     0.013 A 
ATOM     24  C   UNL A   1      36.204  20.708  25.132  1.00  0.00     0.016 A 
ATOM     25  C   UNL A   1      38.318  19.400  24.978  1.00  0.00     0.048 C 
BRANCH  20  26
ATOM     26  O   UNL A   1      39.589  22.086  25.708  1.00  0.00    -0.496 OA
ATOM     27  C   UNL A   1      40.079  21.827  27.018  1.00  0.00     0.278 C 
ENDBRANCH  20  26
ENDBRANCH   9  19
BRANCH  18  28
ATOM     28  C   UNL A   1      30.644  25.428  25.587  1.00  0.00     0.429 C 
ATOM     29  F   UNL A   1      31.244  26.016  26.658  1.00  0.00    -0.167 F 
ATOM     30  F   UNL A   1      30.405  26.407  24.690  1.00  0.00    -0.167 F 
ATOM     31  F   UNL A   1      29.454  24.978  26.047  1.00  0.00    -0.167 F 
ENDBRANCH  18  28
ENDBRANCH   5   8
ENDBRANCH   3   4
ENDBRANCH   2   3
ENDBRANCH   1   2
BRANCH   1  32
ATOM     32  C   UNL A   1      35.328  29.458  27.582  1.00  0.00     0.002 C 
BRANCH  32  33
ATOM     33  C   UNL A   1      35.006  30.649  28.481  1.00  0.00     0.021 C 
BRANCH  33  34
ATOM     34  C   UNL A   1      34.854  31.992  27.778  1.00  0.00     0.116 C 
BRANCH  34  35
ATOM     35  N   UNL A   1      33.969  32.928  28.464  1.00  0.00    -0.352 N 
ATOM     36  C   UNL A   1      34.222  33.698  29.589  1.00  0.00     0.251 C 
ATOM     37  H   UNL A   1      33.070  33.026  28.076  1.00  0.00     0.163 HD
ATOM     38  O   UNL A   1      33.388  34.477  30.017  1.00  0.00    -0.269 OA
BRANCH  36  39
ATOM     39  C   UNL A   1      35.575  33.652  30.193  1.00  0.00     0.039 A 
ATOM     40  C   UNL A   1      36.623  34.268  29.500  1.00  0.00     0.014 A 
ATOM     41  C   UNL A   1      35.837  32.841  31.293  1.00  0.00     0.014 A 
ATOM     42  C   UNL A   1      37.931  33.861  29.750  1.00  0.00     0.010 A 
ATOM     43  C   UNL A   1      37.121  32.362  31.475  1.00  0.00     0.010 A 
ATOM     44  C   UNL A   1      38.153  32.816  30.648  1.00  0.00    -0.014 A 
BRANCH  44  45
ATOM     45  C   UNL A   1      39.381  32.029  30.647  1.00  0.00     0.031 A 
ATOM     46  C   UNL A   1      39.468  30.747  29.924  1.00  0.00     0.074 A 
ATOM     47  C   UNL A   1      40.469  32.495  31.302  1.00  0.00     0.049 A 
ATOM     48  N   UNL A   1      40.212  29.756  30.294  1.00  0.00    -0.248 NA
ATOM     49  C   UNL A   1      38.679  30.472  28.728  1.00  0.00     0.031 C 
ATOM     50  C   UNL A   1      41.829  31.965  31.243  1.00  0.00     0.029 A 
ATOM     51  N   UNL A   1      40.512  33.415  32.352  1.00  0.00    -0.354 N 
ATOM     52  C   UNL A   1      40.236  28.863  29.249  1.00  0.00     0.074 A 
ATOM     53  C   UNL A   1      39.202  29.305  28.339  1.00  0.00     0.031 C 
ATOM     54  C   UNL A   1      42.469  32.309  32.372  1.00  0.00     0.029 A 
ATOM     55  C   UNL A   1      41.498  32.957  33.238  1.00  0.00     0.049 A 
ATOM     56  H   UNL A   1      39.961  34.226  32.450  1.00  0.00     0.167 HD
ATOM     57  C   UNL A   1      41.228  27.933  29.156  1.00  0.00     0.031 A 
ATOM     58  C   UNL A   1      41.251  32.628  34.539  1.00  0.00     0.031 A 
ATOM     59  C   UNL A   1      42.165  27.999  30.269  1.00  0.00     0.049 A 
ATOM     60  C   UNL A   1      41.646  31.208  34.876  1.00  0.00     0.074 A 
ATOM     61  C   UNL A   1      43.418  28.575  30.407  1.00  0.00     0.029 A 
ATOM     62  N   UNL A   1      41.735  27.679  31.551  1.00  0.00    -0.354 N 
ATOM     63  N   UNL A   1      41.869  30.285  33.983  1.00  0.00    -0.248 NA
ATOM     64  C   UNL A   1      41.745  30.696  36.243  1.00  0.00     0.031 C 
ATOM     65  C   UNL A   1      43.708  28.671  31.791  1.00  0.00     0.029 A 
ATOM     66  C   UNL A   1      42.644  28.130  32.489  1.00  0.00     0.049 A 
ATOM     67  H   UNL A   1      40.901  27.201  31.761  1.00  0.00     0.167 HD
ATOM     68  C   UNL A   1      42.134  29.097  34.611  1.00  0.00     0.074 A 
ATOM     69  C   UNL A   1      42.049  29.404  36.027  1.00  0.00     0.031 C 
ATOM     70  C   UNL A   1      42.390  27.955  33.910  1.00  0.00     0.031 A 
BRANCH  57  71
ATOM     71  C   UNL A   1      41.499  27.211  27.862  1.00  0.00    -0.014 A 
ATOM     72  C   UNL A   1      42.442  27.727  26.955  1.00  0.00     0.009 A 
ATOM     73  C   UNL A   1      40.810  26.055  27.461  1.00  0.00     0.009 A 
ATOM     74  C   UNL A   1      42.603  27.189  25.672  1.00  0.00     0.001 A 
ATOM     75  C   UNL A   1      40.937  25.537  26.164  1.00  0.00     0.001 A 
ATOM     76  C   UNL A   1      41.825  26.115  25.264  1.00  0.00     0.000 A 
ENDBRANCH  57  71
BRANCH  58  77
ATOM     77  C   UNL A   1      40.096  33.335  35.153  1.00  0.00    -0.014 A 
ATOM     78  C   UNL A   1      38.834  32.712  35.125  1.00  0.00     0.009 A 
ATOM     79  C   UNL A   1      40.298  34.403  36.039  1.00  0.00     0.009 A 
ATOM     80  C   UNL A   1      37.834  33.080  36.028  1.00  0.00     0.001 A 
ATOM     81  C   UNL A   1      39.291  34.772  36.939  1.00  0.00     0.001 A 
ATOM     82  C   UNL A   1      38.073  34.092  36.954  1.00  0.00     0.000 A 
ENDBRANCH  58  77
BRANCH  70  83
ATOM     83  C   UNL A   1      42.511  26.574  34.498  1.00  0.00    -0.014 A 
ATOM     84  C   UNL A   1      41.515  25.960  35.266  1.00  0.00     0.009 A 
ATOM     85  C   UNL A   1      43.631  25.785  34.153  1.00  0.00     0.009 A 
ATOM     86  C   UNL A   1      41.655  24.639  35.714  1.00  0.00     0.001 A 
ATOM     87  C   UNL A   1      43.755  24.456  34.563  1.00  0.00     0.001 A 
ATOM     88  C   UNL A   1      42.769  23.886  35.356  1.00  0.00     0.000 A 
ENDBRANCH  70  83
ENDBRANCH  44  45
ENDBRANCH  36  39
ENDBRANCH  34  35
ENDBRANCH  33  34
ENDBRANCH  32  33
ENDBRANCH   1  32
TORSDOF 16
ENDMDL
