MODEL 1
REMARK VINA RESULT:     -12.7      0.000      0.000
REMARK SMILES O=C(NCCCCCCNC(=O)[C@H]1[C@H]2CC[C@H](CC2)[C@@H]1C(=O)Nc1sc2c(c1C(=O)N1CCCCC1)CCCC2)c1ccc(-c2c3nc(c(-c4ccccc4)c4ccc([nH]4)c(-c4ccccc4)c4nc(c(-c5ccccc5)c5ccc2[nH]5)C=C4)C=C3)cc1
REMARK SMILES IDX 7 1 6 2 5 3 4 4 3 5 1 6 2 7 41 9 42 10 88 11 43 12 87 13
REMARK SMILES IDX 44 14 45 15 46 16 81 17 47 18 86 19 80 20 82 21 48 22 85 23
REMARK SMILES IDX 79 24 78 25 49 27 71 28 56 29 70 30 57 31 60 32 69 33 83 34
REMARK SMILES IDX 58 35 59 36 68 38 84 39 61 40 50 41 51 42 55 43 52 44 54 45
REMARK SMILES IDX 53 46 72 47 73 48 77 49 74 50 76 51 75 52 62 53 63 54 67 55
REMARK SMILES IDX 64 56 66 57 65 58 8 59 9 60 10 61 11 62 12 64 13 65 14 66
REMARK SMILES IDX 20 67 15 68 19 69 17 70 16 71 18 72 21 73 22 74 23 75 24 77
REMARK SMILES IDX 25 78 28 79 26 80 27 81 40 82 37 83 39 84 38 85 29 86 30 87
REMARK SMILES IDX 31 88 32 89 36 90 33 91 35 92 34 93
REMARK H PARENT 3 8 82 26 60 37 10 63 23 76
REMARK Flexibility Score: inf
ROOT
ATOM      1  C   UNL A   1      36.846  22.172  23.986  1.00  0.00     0.002 C 
ENDROOT
BRANCH   1   2
ATOM      2  C   UNL A   1      36.580  20.870  24.752  1.00  0.00     0.002 C 
BRANCH   2   3
ATOM      3  C   UNL A   1      37.729  19.868  24.868  1.00  0.00     0.021 C 
BRANCH   3   4
ATOM      4  C   UNL A   1      38.892  20.262  25.767  1.00  0.00     0.116 C 
BRANCH   4   5
ATOM      5  N   UNL A   1      39.987  19.310  25.753  1.00  0.00    -0.352 N 
ATOM      6  O   UNL A   1      42.106  18.562  25.915  1.00  0.00    -0.269 OA
ATOM      7  C   UNL A   1      41.312  19.478  26.086  1.00  0.00     0.251 C 
ATOM      8  H   UNL A   1      39.744  18.402  25.459  1.00  0.00     0.163 HD
BRANCH   7   9
ATOM      9  C   UNL A   1      41.791  20.776  26.615  1.00  0.00     0.039 A 
ATOM     10  C   UNL A   1      41.872  21.019  27.987  1.00  0.00     0.014 A 
ATOM     11  C   UNL A   1      42.175  21.771  25.709  1.00  0.00     0.014 A 
ATOM     12  C   UNL A   1      42.174  22.298  28.447  1.00  0.00     0.010 A 
ATOM     13  C   UNL A   1      42.566  23.030  26.176  1.00  0.00     0.010 A 
ATOM     14  C   UNL A   1      42.525  23.318  27.549  1.00  0.00    -0.014 A 
BRANCH  14  15
ATOM     15  C   UNL A   1      42.870  24.666  28.072  1.00  0.00     0.031 A 
ATOM     16  C   UNL A   1      44.302  25.077  28.285  1.00  0.00     0.074 A 
ATOM     17  C   UNL A   1      41.877  25.543  28.316  1.00  0.00     0.049 A 
ATOM     18  N   UNL A   1      44.777  26.235  28.674  1.00  0.00    -0.248 NA
ATOM     19  C   UNL A   1      45.336  24.060  28.039  1.00  0.00     0.031 C 
ATOM     20  C   UNL A   1      40.447  25.265  28.158  1.00  0.00     0.029 A 
ATOM     21  N   UNL A   1      41.917  26.853  28.722  1.00  0.00    -0.354 N 
ATOM     22  C   UNL A   1      46.157  26.078  28.744  1.00  0.00     0.074 A 
ATOM     23  C   UNL A   1      46.441  24.707  28.379  1.00  0.00     0.031 C 
ATOM     24  C   UNL A   1      39.752  26.387  28.402  1.00  0.00     0.029 A 
ATOM     25  C   UNL A   1      40.679  27.444  28.790  1.00  0.00     0.049 A 
ATOM     26  H   UNL A   1      42.753  27.324  28.942  1.00  0.00     0.167 HD
ATOM     27  C   UNL A   1      47.100  26.992  29.077  1.00  0.00     0.031 A 
ATOM     28  C   UNL A   1      40.323  28.696  29.130  1.00  0.00     0.031 A 
ATOM     29  C   UNL A   1      46.819  28.360  29.431  1.00  0.00     0.049 A 
ATOM     30  C   UNL A   1      41.389  29.683  29.505  1.00  0.00     0.074 A 
ATOM     31  C   UNL A   1      47.712  29.370  29.747  1.00  0.00     0.029 A 
ATOM     32  N   UNL A   1      45.549  28.906  29.522  1.00  0.00    -0.354 N 
ATOM     33  N   UNL A   1      42.689  29.528  29.523  1.00  0.00    -0.248 NA
ATOM     34  C   UNL A   1      40.933  31.023  29.899  1.00  0.00     0.031 C 
ATOM     35  C   UNL A   1      46.978  30.515  30.074  1.00  0.00     0.029 A 
ATOM     36  C   UNL A   1      45.633  30.234  29.908  1.00  0.00     0.049 A 
ATOM     37  H   UNL A   1      44.710  28.424  29.338  1.00  0.00     0.167 HD
ATOM     38  C   UNL A   1      43.210  30.756  29.908  1.00  0.00     0.074 A 
ATOM     39  C   UNL A   1      42.085  31.649  30.094  1.00  0.00     0.031 C 
ATOM     40  C   UNL A   1      44.505  31.111  30.091  1.00  0.00     0.031 A 
BRANCH  27  41
ATOM     41  C   UNL A   1      48.534  26.535  29.101  1.00  0.00    -0.014 A 
ATOM     42  C   UNL A   1      49.358  26.646  27.971  1.00  0.00     0.009 A 
ATOM     43  C   UNL A   1      49.078  26.022  30.289  1.00  0.00     0.009 A 
ATOM     44  C   UNL A   1      50.689  26.222  28.021  1.00  0.00     0.001 A 
ATOM     45  C   UNL A   1      50.416  25.625  30.345  1.00  0.00     0.001 A 
ATOM     46  C   UNL A   1      51.217  25.716  29.209  1.00  0.00     0.000 A 
ENDBRANCH  27  41
BRANCH  28  47
ATOM     47  C   UNL A   1      38.889  29.086  29.122  1.00  0.00    -0.014 A 
ATOM     48  C   UNL A   1      38.110  28.956  30.281  1.00  0.00     0.009 A 
ATOM     49  C   UNL A   1      38.296  29.595  27.957  1.00  0.00     0.009 A 
ATOM     50  C   UNL A   1      36.758  29.309  30.266  1.00  0.00     0.001 A 
ATOM     51  C   UNL A   1      36.954  29.976  27.953  1.00  0.00     0.001 A 
ATOM     52  C   UNL A   1      36.184  29.824  29.105  1.00  0.00     0.000 A 
ENDBRANCH  28  47
BRANCH  40  53
ATOM     53  C   UNL A   1      44.771  32.539  30.473  1.00  0.00    -0.014 A 
ATOM     54  C   UNL A   1      44.872  32.930  31.817  1.00  0.00     0.009 A 
ATOM     55  C   UNL A   1      44.938  33.505  29.468  1.00  0.00     0.009 A 
ATOM     56  C   UNL A   1      45.094  34.268  32.147  1.00  0.00     0.001 A 
ATOM     57  C   UNL A   1      45.189  34.837  29.801  1.00  0.00     0.001 A 
ATOM     58  C   UNL A   1      45.255  35.219  31.140  1.00  0.00     0.000 A 
ENDBRANCH  40  53
ENDBRANCH  14  15
ENDBRANCH   7   9
ENDBRANCH   4   5
ENDBRANCH   3   4
ENDBRANCH   2   3
ENDBRANCH   1   2
BRANCH   1  59
ATOM     59  C   UNL A   1      37.245  23.406  24.798  1.00  0.00     0.021 C 
BRANCH  59  60
ATOM     60  C   UNL A   1      36.490  23.642  26.100  1.00  0.00     0.116 C 
BRANCH  60  61
ATOM     61  N   UNL A   1      35.529  24.719  26.066  1.00  0.00    -0.356 N 
ATOM     62  C   UNL A   1      34.268  24.798  25.564  1.00  0.00     0.224 C 
ATOM     63  H   UNL A   1      35.846  25.552  26.486  1.00  0.00     0.163 HD
ATOM     64  O   UNL A   1      33.587  25.722  26.032  1.00  0.00    -0.275 OA
BRANCH  62  65
ATOM     65  C   UNL A   1      33.666  23.933  24.431  1.00  0.00     0.094 C 
ATOM     66  C   UNL A   1      33.119  22.512  24.695  1.00  0.00     0.002 C 
ATOM     67  C   UNL A   1      32.566  24.761  23.677  1.00  0.00     0.094 C 
ATOM     68  C   UNL A   1      31.771  22.540  25.447  1.00  0.00     0.005 C 
ATOM     69  C   UNL A   1      32.860  21.844  23.328  1.00  0.00     0.005 C 
ATOM     70  C   UNL A   1      31.340  23.847  23.366  1.00  0.00     0.002 C 
ATOM     71  C   UNL A   1      30.743  23.383  24.696  1.00  0.00     0.005 C 
ATOM     72  C   UNL A   1      31.780  22.610  22.564  1.00  0.00     0.005 C 
BRANCH  67  73
ATOM     73  C   UNL A   1      33.037  25.398  22.351  1.00  0.00     0.229 C 
ATOM     74  O   UNL A   1      33.326  24.703  21.372  1.00  0.00    -0.274 OA
ATOM     75  N   UNL A   1      32.931  26.763  22.176  1.00  0.00    -0.317 N 
ATOM     76  H   UNL A   1      32.964  27.080  21.244  1.00  0.00     0.170 HD
BRANCH  75  77
ATOM     77  C   UNL A   1      32.782  27.742  23.142  1.00  0.00     0.108 A 
ATOM     78  S   UNL A   1      34.154  28.174  24.044  1.00  0.00    -0.122 S 
ATOM     79  C   UNL A   1      31.665  28.530  23.426  1.00  0.00     0.078 A 
ATOM     80  C   UNL A   1      33.236  29.143  25.073  1.00  0.00     0.011 A 
ATOM     81  C   UNL A   1      31.950  29.349  24.604  1.00  0.00    -0.019 A 
ATOM     82  C   UNL A   1      33.829  29.719  26.321  1.00  0.00     0.047 C 
ATOM     83  C   UNL A   1      31.025  30.265  25.352  1.00  0.00     0.037 C 
ATOM     84  C   UNL A   1      32.720  30.235  27.244  1.00  0.00     0.006 C 
ATOM     85  C   UNL A   1      31.717  31.076  26.457  1.00  0.00     0.005 C 
BRANCH  79  86
ATOM     86  C   UNL A   1      30.398  28.337  22.682  1.00  0.00     0.257 C 
ATOM     87  O   UNL A   1      30.060  27.231  22.258  1.00  0.00    -0.269 OA
ATOM     88  N   UNL A   1      29.523  29.422  22.604  1.00  0.00    -0.339 N 
ATOM     89  C   UNL A   1      28.139  29.165  22.978  1.00  0.00     0.120 C 
ATOM     90  C   UNL A   1      29.657  30.354  21.490  1.00  0.00     0.120 C 
ATOM     91  C   UNL A   1      27.459  30.461  23.407  1.00  0.00     0.022 C 
ATOM     92  C   UNL A   1      28.995  31.696  21.814  1.00  0.00     0.022 C 
ATOM     93  C   UNL A   1      27.559  31.527  22.314  1.00  0.00     0.004 C 
ENDBRANCH  79  86
ENDBRANCH  75  77
ENDBRANCH  67  73
ENDBRANCH  62  65
ENDBRANCH  60  61
ENDBRANCH  59  60
ENDBRANCH   1  59
TORSDOF 16
ENDMDL
MODEL 2
REMARK VINA RESULT:     -12.5      0.349      5.505
REMARK SMILES O=C(NCCCCCCNC(=O)[C@H]1[C@H]2CC[C@H](CC2)[C@@H]1C(=O)Nc1sc2c(c1C(=O)N1CCCCC1)CCCC2)c1ccc(-c2c3nc(c(-c4ccccc4)c4ccc([nH]4)c(-c4ccccc4)c4nc(c(-c5ccccc5)c5ccc2[nH]5)C=C4)C=C3)cc1
REMARK SMILES IDX 7 1 6 2 5 3 4 4 3 5 1 6 2 7 41 9 42 10 88 11 43 12 87 13
REMARK SMILES IDX 44 14 45 15 46 16 81 17 47 18 86 19 80 20 82 21 48 22 85 23
REMARK SMILES IDX 79 24 78 25 49 27 71 28 56 29 70 30 57 31 60 32 69 33 83 34
REMARK SMILES IDX 58 35 59 36 68 38 84 39 61 40 50 41 51 42 55 43 52 44 54 45
REMARK SMILES IDX 53 46 72 47 73 48 77 49 74 50 76 51 75 52 62 53 63 54 67 55
REMARK SMILES IDX 64 56 66 57 65 58 8 59 9 60 10 61 11 62 12 64 13 65 14 66
REMARK SMILES IDX 20 67 15 68 19 69 17 70 16 71 18 72 21 73 22 74 23 75 24 77
REMARK SMILES IDX 25 78 28 79 26 80 27 81 40 82 37 83 39 84 38 85 29 86 30 87
REMARK SMILES IDX 31 88 32 89 36 90 33 91 35 92 34 93
REMARK H PARENT 3 8 82 26 60 37 10 63 23 76
REMARK Flexibility Score: inf
ROOT
ATOM      1  C   UNL A   1      36.775  21.867  23.998  1.00  0.00     0.002 C 
ENDROOT
BRANCH   1   2
ATOM      2  C   UNL A   1      36.664  20.676  24.957  1.00  0.00     0.002 C 
BRANCH   2   3
ATOM      3  C   UNL A   1      37.853  19.719  25.040  1.00  0.00     0.021 C 
BRANCH   3   4
ATOM      4  C   UNL A   1      39.104  20.241  25.734  1.00  0.00     0.116 C 
BRANCH   4   5
ATOM      5  N   UNL A   1      40.184  19.273  25.793  1.00  0.00    -0.352 N 
ATOM      6  O   UNL A   1      42.287  18.503  26.030  1.00  0.00    -0.269 OA
ATOM      7  C   UNL A   1      41.506  19.440  26.133  1.00  0.00     0.251 C 
ATOM      8  H   UNL A   1      39.929  18.352  25.552  1.00  0.00     0.163 HD
BRANCH   7   9
ATOM      9  C   UNL A   1      42.000  20.761  26.588  1.00  0.00     0.039 A 
ATOM     10  C   UNL A   1      41.968  21.127  27.934  1.00  0.00     0.014 A 
ATOM     11  C   UNL A   1      42.514  21.649  25.637  1.00  0.00     0.014 A 
ATOM     12  C   UNL A   1      42.291  22.430  28.305  1.00  0.00     0.010 A 
ATOM     13  C   UNL A   1      42.924  22.929  26.025  1.00  0.00     0.010 A 
ATOM     14  C   UNL A   1      42.773  23.347  27.356  1.00  0.00    -0.014 A 
BRANCH  14  15
ATOM     15  C   UNL A   1      43.136  24.722  27.788  1.00  0.00     0.031 A 
ATOM     16  C   UNL A   1      42.078  25.744  28.105  1.00  0.00     0.074 A 
ATOM     17  C   UNL A   1      44.438  25.035  27.937  1.00  0.00     0.049 A 
ATOM     18  N   UNL A   1      42.223  26.967  28.555  1.00  0.00    -0.248 NA
ATOM     19  C   UNL A   1      40.678  25.352  27.883  1.00  0.00     0.031 C 
ATOM     20  C   UNL A   1      45.560  24.137  27.655  1.00  0.00     0.029 A 
ATOM     21  N   UNL A   1      45.038  26.184  28.388  1.00  0.00    -0.354 N 
ATOM     22  C   UNL A   1      40.941  27.496  28.644  1.00  0.00     0.074 A 
ATOM     23  C   UNL A   1      40.031  26.470  28.180  1.00  0.00     0.031 C 
ATOM     24  C   UNL A   1      46.706  24.744  27.998  1.00  0.00     0.029 A 
ATOM     25  C   UNL A   1      46.406  26.092  28.466  1.00  0.00     0.049 A 
ATOM     26  H   UNL A   1      44.536  26.995  28.632  1.00  0.00     0.167 HD
ATOM     27  C   UNL A   1      40.555  28.721  29.076  1.00  0.00     0.031 A 
ATOM     28  C   UNL A   1      47.322  26.991  28.868  1.00  0.00     0.031 A 
ATOM     29  C   UNL A   1      41.458  29.739  29.546  1.00  0.00     0.049 A 
ATOM     30  C   UNL A   1      46.867  28.344  29.331  1.00  0.00     0.074 A 
ATOM     31  C   UNL A   1      41.158  30.998  30.040  1.00  0.00     0.029 A 
ATOM     32  N   UNL A   1      42.838  29.618  29.576  1.00  0.00    -0.354 N 
ATOM     33  N   UNL A   1      45.648  28.810  29.448  1.00  0.00    -0.248 NA
ATOM     34  C   UNL A   1      47.918  29.293  29.723  1.00  0.00     0.031 C 
ATOM     35  C   UNL A   1      42.359  31.655  30.324  1.00  0.00     0.029 A 
ATOM     36  C   UNL A   1      43.405  30.786  30.060  1.00  0.00     0.049 A 
ATOM     37  H   UNL A   1      43.342  28.820  29.296  1.00  0.00     0.167 HD
ATOM     38  C   UNL A   1      45.783  30.097  29.950  1.00  0.00     0.074 A 
ATOM     39  C   UNL A   1      47.201  30.330  30.132  1.00  0.00     0.031 C 
ATOM     40  C   UNL A   1      44.818  31.004  30.235  1.00  0.00     0.031 A 
BRANCH  27  41
ATOM     41  C   UNL A   1      39.085  29.042  29.035  1.00  0.00    -0.014 A 
ATOM     42  C   UNL A   1      38.260  28.846  30.153  1.00  0.00     0.009 A 
ATOM     43  C   UNL A   1      38.527  29.589  27.869  1.00  0.00     0.009 A 
ATOM     44  C   UNL A   1      36.900  29.159  30.093  1.00  0.00     0.001 A 
ATOM     45  C   UNL A   1      37.173  29.928  27.820  1.00  0.00     0.001 A 
ATOM     46  C   UNL A   1      36.359  29.704  28.929  1.00  0.00     0.000 A 
ENDBRANCH  27  41
BRANCH  28  47
ATOM     47  C   UNL A   1      48.765  26.634  28.857  1.00  0.00    -0.014 A 
ATOM     48  C   UNL A   1      49.539  26.840  27.705  1.00  0.00     0.009 A 
ATOM     49  C   UNL A   1      49.374  26.093  29.999  1.00  0.00     0.009 A 
ATOM     50  C   UNL A   1      50.892  26.489  27.693  1.00  0.00     0.001 A 
ATOM     51  C   UNL A   1      50.732  25.772  29.993  1.00  0.00     0.001 A 
ATOM     52  C   UNL A   1      51.487  25.961  28.837  1.00  0.00     0.000 A 
ENDBRANCH  28  47
BRANCH  40  53
ATOM     53  C   UNL A   1      45.267  32.316  30.811  1.00  0.00    -0.014 A 
ATOM     54  C   UNL A   1      45.551  33.418  29.990  1.00  0.00     0.009 A 
ATOM     55  C   UNL A   1      45.392  32.454  32.203  1.00  0.00     0.009 A 
ATOM     56  C   UNL A   1      45.992  34.620  30.549  1.00  0.00     0.001 A 
ATOM     57  C   UNL A   1      45.805  33.665  32.761  1.00  0.00     0.001 A 
ATOM     58  C   UNL A   1      46.116  34.742  31.932  1.00  0.00     0.000 A 
ENDBRANCH  40  53
ENDBRANCH  14  15
ENDBRANCH   7   9
ENDBRANCH   4   5
ENDBRANCH   3   4
ENDBRANCH   2   3
ENDBRANCH   1   2
BRANCH   1  59
ATOM     59  C   UNL A   1      37.122  23.232  24.597  1.00  0.00     0.021 C 
BRANCH  59  60
ATOM     60  C   UNL A   1      36.552  23.540  25.976  1.00  0.00     0.116 C 
BRANCH  60  61
ATOM     61  N   UNL A   1      35.590  24.616  26.016  1.00  0.00    -0.356 N 
ATOM     62  C   UNL A   1      34.311  24.712  25.567  1.00  0.00     0.224 C 
ATOM     63  H   UNL A   1      35.924  25.435  26.452  1.00  0.00     0.163 HD
ATOM     64  O   UNL A   1      33.649  25.618  26.092  1.00  0.00    -0.275 OA
BRANCH  62  65
ATOM     65  C   UNL A   1      33.665  23.886  24.429  1.00  0.00     0.094 C 
ATOM     66  C   UNL A   1      33.057  22.488  24.681  1.00  0.00     0.002 C 
ATOM     67  C   UNL A   1      32.599  24.770  23.688  1.00  0.00     0.094 C 
ATOM     68  C   UNL A   1      31.715  22.569  25.440  1.00  0.00     0.005 C 
ATOM     69  C   UNL A   1      32.760  21.847  23.308  1.00  0.00     0.005 C 
ATOM     70  C   UNL A   1      31.332  23.915  23.375  1.00  0.00     0.002 C 
ATOM     71  C   UNL A   1      30.722  23.464  24.704  1.00  0.00     0.005 C 
ATOM     72  C   UNL A   1      31.712  22.668  22.558  1.00  0.00     0.005 C 
BRANCH  67  73
ATOM     73  C   UNL A   1      33.091  25.399  22.366  1.00  0.00     0.229 C 
ATOM     74  O   UNL A   1      33.395  24.698  21.396  1.00  0.00    -0.274 OA
ATOM     75  N   UNL A   1      32.990  26.763  22.182  1.00  0.00    -0.317 N 
ATOM     76  H   UNL A   1      33.038  27.075  21.249  1.00  0.00     0.170 HD
BRANCH  75  77
ATOM     77  C   UNL A   1      32.827  27.748  23.140  1.00  0.00     0.108 A 
ATOM     78  S   UNL A   1      34.190  28.200  24.045  1.00  0.00    -0.122 S 
ATOM     79  C   UNL A   1      31.701  28.527  23.413  1.00  0.00     0.078 A 
ATOM     80  C   UNL A   1      33.258  29.168  25.062  1.00  0.00     0.011 A 
ATOM     81  C   UNL A   1      31.973  29.358  24.585  1.00  0.00    -0.019 A 
ATOM     82  C   UNL A   1      33.839  29.759  26.309  1.00  0.00     0.047 C 
ATOM     83  C   UNL A   1      31.035  30.270  25.322  1.00  0.00     0.037 C 
ATOM     84  C   UNL A   1      32.721  30.271  27.222  1.00  0.00     0.006 C 
ATOM     85  C   UNL A   1      31.713  31.097  26.424  1.00  0.00     0.005 C 
BRANCH  79  86
ATOM     86  C   UNL A   1      30.440  28.316  22.663  1.00  0.00     0.257 C 
ATOM     87  O   UNL A   1      30.132  27.211  22.215  1.00  0.00    -0.269 OA
ATOM     88  N   UNL A   1      29.536  29.378  22.610  1.00  0.00    -0.339 N 
ATOM     89  C   UNL A   1      28.159  29.076  22.977  1.00  0.00     0.120 C 
ATOM     90  C   UNL A   1      29.643  30.338  21.517  1.00  0.00     0.120 C 
ATOM     91  C   UNL A   1      27.444  30.343  23.434  1.00  0.00     0.022 C 
ATOM     92  C   UNL A   1      28.945  31.655  21.871  1.00  0.00     0.022 C 
ATOM     93  C   UNL A   1      27.515  31.435  22.366  1.00  0.00     0.004 C 
ENDBRANCH  79  86
ENDBRANCH  75  77
ENDBRANCH  67  73
ENDBRANCH  62  65
ENDBRANCH  60  61
ENDBRANCH  59  60
ENDBRANCH   1  59
TORSDOF 16
ENDMDL
MODEL 3
REMARK VINA RESULT:     -12.5      4.230      9.867
REMARK SMILES O=C(NCCCCCCNC(=O)[C@H]1[C@H]2CC[C@H](CC2)[C@@H]1C(=O)Nc1sc2c(c1C(=O)N1CCCCC1)CCCC2)c1ccc(-c2c3nc(c(-c4ccccc4)c4ccc([nH]4)c(-c4ccccc4)c4nc(c(-c5ccccc5)c5ccc2[nH]5)C=C4)C=C3)cc1
REMARK SMILES IDX 7 1 6 2 5 3 4 4 3 5 1 6 2 7 41 9 42 10 88 11 43 12 87 13
REMARK SMILES IDX 44 14 45 15 46 16 81 17 47 18 86 19 80 20 82 21 48 22 85 23
REMARK SMILES IDX 79 24 78 25 49 27 71 28 56 29 70 30 57 31 60 32 69 33 83 34
REMARK SMILES IDX 58 35 59 36 68 38 84 39 61 40 50 41 51 42 55 43 52 44 54 45
REMARK SMILES IDX 53 46 72 47 73 48 77 49 74 50 76 51 75 52 62 53 63 54 67 55
REMARK SMILES IDX 64 56 66 57 65 58 8 59 9 60 10 61 11 62 12 64 13 65 14 66
REMARK SMILES IDX 20 67 15 68 19 69 17 70 16 71 18 72 21 73 22 74 23 75 24 77
REMARK SMILES IDX 25 78 28 79 26 80 27 81 40 82 37 83 39 84 38 85 29 86 30 87
REMARK SMILES IDX 31 88 32 89 36 90 33 91 35 92 34 93
REMARK H PARENT 3 8 82 26 60 37 10 63 23 76
REMARK Flexibility Score: inf
ROOT
ATOM      1  C   UNL A   1      32.188  30.017  25.420  1.00  0.00     0.002 C 
ENDROOT
BRANCH   1   2
ATOM      2  C   UNL A   1      31.372  30.724  26.509  1.00  0.00     0.002 C 
BRANCH   2   3
ATOM      3  C   UNL A   1      31.388  32.252  26.527  1.00  0.00     0.021 C 
BRANCH   3   4
ATOM      4  C   UNL A   1      32.591  32.916  27.183  1.00  0.00     0.116 C 
BRANCH   4   5
ATOM      5  N   UNL A   1      32.321  34.252  27.678  1.00  0.00    -0.352 N 
ATOM      6  O   UNL A   1      32.527  36.077  28.984  1.00  0.00    -0.269 OA
ATOM      7  C   UNL A   1      32.973  34.990  28.640  1.00  0.00     0.251 C 
ATOM      8  H   UNL A   1      31.550  34.701  27.261  1.00  0.00     0.163 HD
BRANCH   7   9
ATOM      9  C   UNL A   1      34.193  34.458  29.290  1.00  0.00     0.039 A 
ATOM     10  C   UNL A   1      35.461  34.669  28.746  1.00  0.00     0.014 A 
ATOM     11  C   UNL A   1      34.059  33.736  30.481  1.00  0.00     0.014 A 
ATOM     12  C   UNL A   1      36.566  34.023  29.294  1.00  0.00     0.010 A 
ATOM     13  C   UNL A   1      35.185  33.162  31.082  1.00  0.00     0.010 A 
ATOM     14  C   UNL A   1      36.443  33.263  30.468  1.00  0.00    -0.014 A 
BRANCH  14  15
ATOM     15  C   UNL A   1      37.646  32.609  31.045  1.00  0.00     0.031 A 
ATOM     16  C   UNL A   1      38.228  33.065  32.356  1.00  0.00     0.074 A 
ATOM     17  C   UNL A   1      38.192  31.562  30.397  1.00  0.00     0.049 A 
ATOM     18  N   UNL A   1      39.235  32.563  33.029  1.00  0.00    -0.248 NA
ATOM     19  C   UNL A   1      37.611  34.239  32.992  1.00  0.00     0.031 C 
ATOM     20  C   UNL A   1      37.727  31.027  29.114  1.00  0.00     0.029 A 
ATOM     21  N   UNL A   1      39.237  30.742  30.738  1.00  0.00    -0.354 N 
ATOM     22  C   UNL A   1      39.387  33.372  34.149  1.00  0.00     0.074 A 
ATOM     23  C   UNL A   1      38.384  34.411  34.055  1.00  0.00     0.031 C 
ATOM     24  C   UNL A   1      38.441  29.934  28.809  1.00  0.00     0.029 A 
ATOM     25  C   UNL A   1      39.451  29.725  29.840  1.00  0.00     0.049 A 
ATOM     26  H   UNL A   1      39.781  30.870  31.548  1.00  0.00     0.167 HD
ATOM     27  C   UNL A   1      40.276  33.257  35.166  1.00  0.00     0.031 A 
ATOM     28  C   UNL A   1      40.360  28.733  29.841  1.00  0.00     0.031 A 
ATOM     29  C   UNL A   1      41.269  32.218  35.265  1.00  0.00     0.049 A 
ATOM     30  C   UNL A   1      41.339  28.637  30.973  1.00  0.00     0.074 A 
ATOM     31  C   UNL A   1      42.188  31.997  36.277  1.00  0.00     0.029 A 
ATOM     32  N   UNL A   1      41.473  31.229  34.317  1.00  0.00    -0.354 N 
ATOM     33  N   UNL A   1      41.439  29.385  32.044  1.00  0.00    -0.248 NA
ATOM     34  C   UNL A   1      42.328  27.553  30.898  1.00  0.00     0.031 C 
ATOM     35  C   UNL A   1      42.981  30.903  35.916  1.00  0.00     0.029 A 
ATOM     36  C   UNL A   1      42.518  30.407  34.709  1.00  0.00     0.049 A 
ATOM     37  H   UNL A   1      40.953  31.123  33.487  1.00  0.00     0.167 HD
ATOM     38  C   UNL A   1      42.485  28.850  32.782  1.00  0.00     0.074 A 
ATOM     39  C   UNL A   1      42.974  27.702  32.045  1.00  0.00     0.031 C 
ATOM     40  C   UNL A   1      42.995  29.270  33.965  1.00  0.00     0.031 A 
BRANCH  27  41
ATOM     41  C   UNL A   1      40.236  34.304  36.246  1.00  0.00    -0.014 A 
ATOM     42  C   UNL A   1      40.993  35.482  36.155  1.00  0.00     0.009 A 
ATOM     43  C   UNL A   1      39.393  34.124  37.355  1.00  0.00     0.009 A 
ATOM     44  C   UNL A   1      40.933  36.443  37.167  1.00  0.00     0.001 A 
ATOM     45  C   UNL A   1      39.313  35.099  38.352  1.00  0.00     0.001 A 
ATOM     46  C   UNL A   1      40.090  36.252  38.263  1.00  0.00     0.000 A 
ENDBRANCH  27  41
BRANCH  28  47
ATOM     47  C   UNL A   1      40.377  27.745  28.731  1.00  0.00    -0.014 A 
ATOM     48  C   UNL A   1      39.652  26.548  28.832  1.00  0.00     0.009 A 
ATOM     49  C   UNL A   1      41.114  27.997  27.564  1.00  0.00     0.009 A 
ATOM     50  C   UNL A   1      39.683  25.614  27.793  1.00  0.00     0.001 A 
ATOM     51  C   UNL A   1      41.118  27.076  26.515  1.00  0.00     0.001 A 
ATOM     52  C   UNL A   1      40.411  25.881  26.635  1.00  0.00     0.000 A 
ENDBRANCH  28  47
BRANCH  40  53
ATOM     53  C   UNL A   1      44.114  28.457  34.551  1.00  0.00    -0.014 A 
ATOM     54  C   UNL A   1      43.861  27.363  35.392  1.00  0.00     0.009 A 
ATOM     55  C   UNL A   1      45.443  28.785  34.240  1.00  0.00     0.009 A 
ATOM     56  C   UNL A   1      44.919  26.639  35.945  1.00  0.00     0.001 A 
ATOM     57  C   UNL A   1      46.499  28.041  34.772  1.00  0.00     0.001 A 
ATOM     58  C   UNL A   1      46.235  26.977  35.632  1.00  0.00     0.000 A 
ENDBRANCH  40  53
ENDBRANCH  14  15
ENDBRANCH   7   9
ENDBRANCH   4   5
ENDBRANCH   3   4
ENDBRANCH   2   3
ENDBRANCH   1   2
BRANCH   1  59
ATOM     59  C   UNL A   1      33.623  29.610  25.759  1.00  0.00     0.021 C 
BRANCH  59  60
ATOM     60  C   UNL A   1      33.795  28.473  26.759  1.00  0.00     0.116 C 
BRANCH  60  61
ATOM     61  N   UNL A   1      34.264  27.228  26.198  1.00  0.00    -0.356 N 
ATOM     62  C   UNL A   1      33.692  26.343  25.340  1.00  0.00     0.224 C 
ATOM     63  H   UNL A   1      35.169  26.973  26.492  1.00  0.00     0.163 HD
ATOM     64  O   UNL A   1      34.494  25.590  24.768  1.00  0.00    -0.275 OA
BRANCH  62  65
ATOM     65  C   UNL A   1      32.177  26.132  25.101  1.00  0.00     0.094 C 
ATOM     66  C   UNL A   1      31.414  26.894  23.995  1.00  0.00     0.002 C 
ATOM     67  C   UNL A   1      31.888  24.596  24.942  1.00  0.00     0.094 C 
ATOM     68  C   UNL A   1      31.753  26.363  22.585  1.00  0.00     0.005 C 
ATOM     69  C   UNL A   1      29.904  26.658  24.215  1.00  0.00     0.005 C 
ATOM     70  C   UNL A   1      30.859  24.371  23.791  1.00  0.00     0.002 C 
ATOM     71  C   UNL A   1      31.489  24.863  22.486  1.00  0.00     0.005 C 
ATOM     72  C   UNL A   1      29.574  25.174  24.052  1.00  0.00     0.005 C 
BRANCH  67  73
ATOM     73  C   UNL A   1      31.342  23.910  26.213  1.00  0.00     0.229 C 
ATOM     74  O   UNL A   1      30.265  24.248  26.713  1.00  0.00    -0.274 OA
ATOM     75  N   UNL A   1      31.949  22.761  26.681  1.00  0.00    -0.317 N 
ATOM     76  H   UNL A   1      31.411  22.212  27.296  1.00  0.00     0.170 HD
BRANCH  75  77
ATOM     77  C   UNL A   1      33.215  22.283  26.395  1.00  0.00     0.108 A 
ATOM     78  S   UNL A   1      34.541  23.131  27.031  1.00  0.00    -0.122 S 
ATOM     79  C   UNL A   1      33.578  21.111  25.728  1.00  0.00     0.078 A 
ATOM     80  C   UNL A   1      35.629  22.194  26.150  1.00  0.00     0.011 A 
ATOM     81  C   UNL A   1      35.032  21.087  25.572  1.00  0.00    -0.019 A 
ATOM     82  C   UNL A   1      37.079  22.559  26.080  1.00  0.00     0.047 C 
ATOM     83  C   UNL A   1      35.876  20.094  24.826  1.00  0.00     0.037 C 
ATOM     84  C   UNL A   1      37.765  21.787  24.948  1.00  0.00     0.006 C 
ATOM     85  C   UNL A   1      37.386  20.309  25.001  1.00  0.00     0.005 C 
BRANCH  79  86
ATOM     86  C   UNL A   1      32.543  20.211  25.169  1.00  0.00     0.257 C 
ATOM     87  O   UNL A   1      31.402  20.608  24.929  1.00  0.00    -0.269 OA
ATOM     88  N   UNL A   1      32.942  18.931  24.780  1.00  0.00    -0.339 N 
ATOM     89  C   UNL A   1      32.558  18.513  23.438  1.00  0.00     0.120 C 
ATOM     90  C   UNL A   1      32.890  17.850  25.758  1.00  0.00     0.120 C 
ATOM     91  C   UNL A   1      33.496  17.421  22.936  1.00  0.00     0.022 C 
ATOM     92  C   UNL A   1      33.797  16.689  25.343  1.00  0.00     0.022 C 
ATOM     93  C   UNL A   1      33.538  16.238  23.905  1.00  0.00     0.004 C 
ENDBRANCH  79  86
ENDBRANCH  75  77
ENDBRANCH  67  73
ENDBRANCH  62  65
ENDBRANCH  60  61
ENDBRANCH  59  60
ENDBRANCH   1  59
TORSDOF 16
ENDMDL
