MODEL 1
REMARK VINA RESULT:      -9.7      0.000      0.000
REMARK SMILES COc1cccc([C@@H](C)[NH+]2CC[NH+](CCC(=O)NCCCCCCNC(=O)c3ccc(-c4c5nc(c(-c6ccccc6)c6ccc([nH]6)c(-c6ccccc6)c6nc(c(-c7ccccc7)c7ccc4[nH]7)C=C6)C=C5)cc3)CC2)c1
REMARK SMILES IDX 20 1 19 2 18 3 16 4 17 5 15 7 14 8 13 9 10 10 11 11 77 12
REMARK SMILES IDX 12 14 76 15 8 17 9 18 7 19 3 20 4 21 78 22 5 23 6 24 2 25
REMARK SMILES IDX 1 26 21 27 22 28 23 29 24 30 25 31 26 32 27 34 28 35 29 36
REMARK SMILES IDX 75 37 30 38 74 39 31 40 32 41 33 42 68 43 34 44 73 45 67 46
REMARK SMILES IDX 69 47 35 48 72 49 66 50 65 51 36 53 58 54 43 55 57 56 44 57
REMARK SMILES IDX 47 58 56 59 70 60 45 61 46 62 55 64 71 65 48 66 37 67 38 68
REMARK SMILES IDX 42 69 39 70 41 71 40 72 59 73 60 74 64 75 61 76 63 77 62 78
REMARK SMILES IDX 49 79 50 80 54 81 51 82 53 83 52 84
REMARK H PARENT 18 6 10 13 13 16 25 33 69 52 47 63
REMARK Flexibility Score: inf
ROOT
ATOM      1  C   UNL A   1      33.778  35.209  29.283  1.00  0.00     0.021 C 
ENDROOT
BRANCH   1   2
ATOM      2  C   UNL A   1      33.578  36.725  29.015  1.00  0.00     0.116 C 
BRANCH   2   3
ATOM      3  N   UNL A   1      33.280  37.471  30.273  1.00  0.00    -0.356 N 
ATOM      4  C   UNL A   1      33.410  37.413  31.631  1.00  0.00     0.225 C 
ATOM      5  O   UNL A   1      32.890  38.377  32.218  1.00  0.00    -0.275 OA
ATOM      6  H   UNL A   1      32.824  38.311  30.038  1.00  0.00     0.163 HD
BRANCH   4   7
ATOM      7  C   UNL A   1      34.193  36.404  32.493  1.00  0.00     0.161 C 
BRANCH   7   8
ATOM      8  C   UNL A   1      33.605  34.987  32.837  1.00  0.00     0.272 C 
BRANCH   8   9
ATOM      9  N   UNL A   1      34.483  33.905  33.291  1.00  0.00    -0.325 N 
ATOM     10  N   UNL A   1      37.483  33.797  32.665  1.00  0.00    -0.320 N 
ATOM     11  C   UNL A   1      36.383  34.013  31.755  1.00  0.00     0.325 C 
ATOM     12  C   UNL A   1      37.036  34.130  34.033  1.00  0.00     0.325 C 
ATOM     13  H   UNL A   1      38.241  34.452  32.474  1.00  0.00     0.348 HD
ATOM     14  C   UNL A   1      35.130  33.244  32.199  1.00  0.00     0.324 C 
ATOM     15  C   UNL A   1      35.475  34.084  34.378  1.00  0.00     0.324 C 
ATOM     16  H   UNL A   1      33.763  33.357  33.761  1.00  0.00     0.348 HD
BRANCH  10  17
ATOM     17  C   UNL A   1      38.307  32.598  32.418  1.00  0.00     0.212 C 
ATOM     18  C   UNL A   1      38.142  31.560  33.554  1.00  0.00     0.081 C 
BRANCH  17  19
ATOM     19  C   UNL A   1      39.779  32.830  32.081  1.00  0.00     0.013 A 
ATOM     20  C   UNL A   1      41.432  33.854  30.611  1.00  0.00     0.119 A 
ATOM     21  C   UNL A   1      42.456  33.474  31.476  1.00  0.00     0.046 A 
ATOM     22  C   UNL A   1      40.104  33.546  30.925  1.00  0.00     0.056 A 
ATOM     23  C   UNL A   1      42.165  32.744  32.617  1.00  0.00     0.004 A 
ATOM     24  C   UNL A   1      40.843  32.388  32.881  1.00  0.00     0.010 A 
BRANCH  20  25
ATOM     25  O   UNL A   1      41.844  34.533  29.499  1.00  0.00    -0.497 OA
ATOM     26  C   UNL A   1      40.858  35.331  28.857  1.00  0.00     0.278 C 
ENDBRANCH  20  25
ENDBRANCH  17  19
ENDBRANCH  10  17
ENDBRANCH   8   9
ENDBRANCH   7   8
ENDBRANCH   4   7
ENDBRANCH   2   3
ENDBRANCH   1   2
BRANCH   1  27
ATOM     27  C   UNL A   1      33.752  34.186  28.112  1.00  0.00     0.002 C 
BRANCH  27  28
ATOM     28  C   UNL A   1      33.717  32.668  28.359  1.00  0.00     0.002 C 
BRANCH  28  29
ATOM     29  C   UNL A   1      34.506  31.667  27.477  1.00  0.00     0.021 C 
BRANCH  29  30
ATOM     30  C   UNL A   1      35.183  30.427  28.069  1.00  0.00     0.116 C 
BRANCH  30  31
ATOM     31  N   UNL A   1      35.307  30.498  29.513  1.00  0.00    -0.352 N 
ATOM     32  C   UNL A   1      36.278  29.991  30.346  1.00  0.00     0.251 C 
ATOM     33  H   UNL A   1      34.581  30.984  29.968  1.00  0.00     0.163 HD
ATOM     34  O   UNL A   1      36.052  29.948  31.553  1.00  0.00    -0.269 OA
BRANCH  32  35
ATOM     35  C   UNL A   1      37.595  29.499  29.846  1.00  0.00     0.039 A 
ATOM     36  C   UNL A   1      38.502  28.978  30.779  1.00  0.00     0.014 A 
ATOM     37  C   UNL A   1      38.006  29.654  28.520  1.00  0.00     0.014 A 
ATOM     38  C   UNL A   1      39.797  28.608  30.390  1.00  0.00     0.010 A 
ATOM     39  C   UNL A   1      39.287  29.240  28.120  1.00  0.00     0.010 A 
ATOM     40  C   UNL A   1      40.205  28.731  29.053  1.00  0.00    -0.014 A 
BRANCH  40  41
ATOM     41  C   UNL A   1      41.592  28.361  28.642  1.00  0.00     0.031 A 
ATOM     42  C   UNL A   1      41.922  26.952  28.217  1.00  0.00     0.074 A 
ATOM     43  C   UNL A   1      42.571  29.288  28.656  1.00  0.00     0.049 A 
ATOM     44  N   UNL A   1      43.069  26.450  27.825  1.00  0.00    -0.248 NA
ATOM     45  C   UNL A   1      40.823  25.975  28.251  1.00  0.00     0.031 C 
ATOM     46  C   UNL A   1      42.407  30.685  29.060  1.00  0.00     0.029 A 
ATOM     47  N   UNL A   1      43.901  29.194  28.320  1.00  0.00    -0.354 N 
ATOM     48  C   UNL A   1      42.833  25.102  27.583  1.00  0.00     0.074 A 
ATOM     49  C   UNL A   1      41.445  24.855  27.910  1.00  0.00     0.031 C 
ATOM     50  C   UNL A   1      43.582  31.322  28.924  1.00  0.00     0.029 A 
ATOM     51  C   UNL A   1      44.591  30.374  28.458  1.00  0.00     0.049 A 
ATOM     52  H   UNL A   1      44.320  28.359  28.008  1.00  0.00     0.167 HD
ATOM     53  C   UNL A   1      43.686  24.154  27.119  1.00  0.00     0.031 A 
ATOM     54  C   UNL A   1      45.888  30.667  28.240  1.00  0.00     0.031 A 
ATOM     55  C   UNL A   1      45.066  24.390  26.784  1.00  0.00     0.049 A 
ATOM     56  C   UNL A   1      46.819  29.595  27.742  1.00  0.00     0.074 A 
ATOM     57  C   UNL A   1      45.991  23.502  26.257  1.00  0.00     0.029 A 
ATOM     58  N   UNL A   1      45.724  25.598  26.950  1.00  0.00    -0.354 N 
ATOM     59  N   UNL A   1      46.562  28.342  27.459  1.00  0.00    -0.248 NA
ATOM     60  C   UNL A   1      48.221  29.985  27.522  1.00  0.00     0.031 C 
ATOM     61  C   UNL A   1      47.221  24.160  26.152  1.00  0.00     0.029 A 
ATOM     62  C   UNL A   1      47.048  25.473  26.561  1.00  0.00     0.049 A 
ATOM     63  H   UNL A   1      45.312  26.424  27.293  1.00  0.00     0.167 HD
ATOM     64  C   UNL A   1      47.758  27.801  27.004  1.00  0.00     0.074 A 
ATOM     65  C   UNL A   1      48.738  28.867  27.034  1.00  0.00     0.031 C 
ATOM     66  C   UNL A   1      48.019  26.536  26.598  1.00  0.00     0.031 A 
BRANCH  53  67
ATOM     67  C   UNL A   1      43.149  22.756  26.956  1.00  0.00    -0.014 A 
ATOM     68  C   UNL A   1      43.388  22.015  25.789  1.00  0.00     0.009 A 
ATOM     69  C   UNL A   1      42.425  22.160  28.001  1.00  0.00     0.009 A 
ATOM     70  C   UNL A   1      42.881  20.719  25.656  1.00  0.00     0.001 A 
ATOM     71  C   UNL A   1      41.944  20.854  27.877  1.00  0.00     0.001 A 
ATOM     72  C   UNL A   1      42.163  20.139  26.701  1.00  0.00     0.000 A 
ENDBRANCH  53  67
BRANCH  54  73
ATOM     73  C   UNL A   1      46.388  32.045  28.481  1.00  0.00    -0.014 A 
ATOM     74  C   UNL A   1      46.809  32.439  29.761  1.00  0.00     0.009 A 
ATOM     75  C   UNL A   1      46.444  32.978  27.433  1.00  0.00     0.009 A 
ATOM     76  C   UNL A   1      47.254  33.744  29.991  1.00  0.00     0.001 A 
ATOM     77  C   UNL A   1      46.914  34.273  27.659  1.00  0.00     0.001 A 
ATOM     78  C   UNL A   1      47.311  34.657  28.940  1.00  0.00     0.000 A 
ENDBRANCH  54  73
BRANCH  66  79
ATOM     79  C   UNL A   1      49.414  26.236  26.123  1.00  0.00    -0.014 A 
ATOM     80  C   UNL A   1      50.324  25.535  26.930  1.00  0.00     0.009 A 
ATOM     81  C   UNL A   1      49.809  26.627  24.835  1.00  0.00     0.009 A 
ATOM     82  C   UNL A   1      51.613  25.262  26.467  1.00  0.00     0.001 A 
ATOM     83  C   UNL A   1      51.089  26.329  24.364  1.00  0.00     0.001 A 
ATOM     84  C   UNL A   1      51.993  25.655  25.183  1.00  0.00     0.000 A 
ENDBRANCH  66  79
ENDBRANCH  40  41
ENDBRANCH  32  35
ENDBRANCH  30  31
ENDBRANCH  29  30
ENDBRANCH  28  29
ENDBRANCH  27  28
ENDBRANCH   1  27
TORSDOF 18
ENDMDL
MODEL 2
REMARK VINA RESULT:      -9.6      5.194     11.971
REMARK SMILES COc1cccc([C@@H](C)[NH+]2CC[NH+](CCC(=O)NCCCCCCNC(=O)c3ccc(-c4c5nc(c(-c6ccccc6)c6ccc([nH]6)c(-c6ccccc6)c6nc(c(-c7ccccc7)c7ccc4[nH]7)C=C6)C=C5)cc3)CC2)c1
REMARK SMILES IDX 20 1 19 2 18 3 16 4 17 5 15 7 14 8 13 9 10 10 11 11 77 12
REMARK SMILES IDX 12 14 76 15 8 17 9 18 7 19 3 20 4 21 78 22 5 23 6 24 2 25
REMARK SMILES IDX 1 26 21 27 22 28 23 29 24 30 25 31 26 32 27 34 28 35 29 36
REMARK SMILES IDX 75 37 30 38 74 39 31 40 32 41 33 42 68 43 34 44 73 45 67 46
REMARK SMILES IDX 69 47 35 48 72 49 66 50 65 51 36 53 58 54 43 55 57 56 44 57
REMARK SMILES IDX 47 58 56 59 70 60 45 61 46 62 55 64 71 65 48 66 37 67 38 68
REMARK SMILES IDX 42 69 39 70 41 71 40 72 59 73 60 74 64 75 61 76 63 77 62 78
REMARK SMILES IDX 49 79 50 80 54 81 51 82 53 83 52 84
REMARK H PARENT 18 6 10 13 13 16 25 33 69 52 47 63
REMARK Flexibility Score: inf
ROOT
ATOM      1  C   UNL A   1      39.485  24.189  27.082  1.00  0.00     0.021 C 
ENDROOT
BRANCH   1   2
ATOM      2  C   UNL A   1      38.202  23.798  26.301  1.00  0.00     0.116 C 
BRANCH   2   3
ATOM      3  N   UNL A   1      38.283  22.404  25.775  1.00  0.00    -0.356 N 
ATOM      4  C   UNL A   1      37.551  21.422  25.172  1.00  0.00     0.225 C 
ATOM      5  O   UNL A   1      38.185  20.367  25.002  1.00  0.00    -0.275 OA
ATOM      6  H   UNL A   1      39.198  22.070  25.915  1.00  0.00     0.163 HD
BRANCH   4   7
ATOM      7  C   UNL A   1      36.127  21.488  24.586  1.00  0.00     0.161 C 
BRANCH   7   8
ATOM      8  C   UNL A   1      34.900  20.854  25.337  1.00  0.00     0.272 C 
BRANCH   8   9
ATOM      9  N   UNL A   1      33.608  21.546  25.372  1.00  0.00    -0.325 N 
ATOM     10  N   UNL A   1      33.323  24.591  25.159  1.00  0.00    -0.320 N 
ATOM     11  C   UNL A   1      34.187  23.829  26.029  1.00  0.00     0.325 C 
ATOM     12  C   UNL A   1      32.939  23.742  24.013  1.00  0.00     0.325 C 
ATOM     13  H   UNL A   1      33.831  25.372  24.744  1.00  0.00     0.348 HD
ATOM     14  C   UNL A   1      33.538  22.498  26.438  1.00  0.00     0.324 C 
ATOM     15  C   UNL A   1      32.993  22.151  24.167  1.00  0.00     0.324 C 
ATOM     16  H   UNL A   1      33.032  20.714  25.499  1.00  0.00     0.348 HD
BRANCH  10  17
ATOM     17  C   UNL A   1      32.324  25.449  25.824  1.00  0.00     0.212 C 
ATOM     18  C   UNL A   1      30.882  24.997  25.484  1.00  0.00     0.081 C 
BRANCH  17  19
ATOM     19  C   UNL A   1      32.490  26.958  25.658  1.00  0.00     0.013 A 
ATOM     20  C   UNL A   1      31.513  29.089  24.987  1.00  0.00     0.119 A 
ATOM     21  C   UNL A   1      32.623  29.769  25.485  1.00  0.00     0.046 A 
ATOM     22  C   UNL A   1      31.446  27.695  25.091  1.00  0.00     0.056 A 
ATOM     23  C   UNL A   1      33.683  29.063  26.030  1.00  0.00     0.004 A 
ATOM     24  C   UNL A   1      33.628  27.669  26.066  1.00  0.00     0.010 A 
BRANCH  20  25
ATOM     25  O   UNL A   1      30.551  29.888  24.437  1.00  0.00    -0.497 OA
ATOM     26  C   UNL A   1      30.082  29.501  23.152  1.00  0.00     0.278 C 
ENDBRANCH  20  25
ENDBRANCH  17  19
ENDBRANCH  10  17
ENDBRANCH   8   9
ENDBRANCH   7   8
ENDBRANCH   4   7
ENDBRANCH   2   3
ENDBRANCH   1   2
BRANCH   1  27
ATOM     27  C   UNL A   1      40.230  25.519  26.771  1.00  0.00     0.002 C 
BRANCH  27  28
ATOM     28  C   UNL A   1      41.531  25.550  25.951  1.00  0.00     0.002 C 
BRANCH  28  29
ATOM     29  C   UNL A   1      42.317  24.263  25.598  1.00  0.00     0.021 C 
BRANCH  29  30
ATOM     30  C   UNL A   1      43.603  24.303  24.767  1.00  0.00     0.116 C 
BRANCH  30  31
ATOM     31  N   UNL A   1      44.675  23.530  25.366  1.00  0.00    -0.352 N 
ATOM     32  C   UNL A   1      45.359  23.726  26.544  1.00  0.00     0.251 C 
ATOM     33  H   UNL A   1      44.959  22.743  24.846  1.00  0.00     0.163 HD
ATOM     34  O   UNL A   1      46.398  23.097  26.732  1.00  0.00    -0.269 OA
BRANCH  32  35
ATOM     35  C   UNL A   1      44.887  24.662  27.606  1.00  0.00     0.039 A 
ATOM     36  C   UNL A   1      44.077  24.148  28.627  1.00  0.00     0.014 A 
ATOM     37  C   UNL A   1      45.110  26.041  27.552  1.00  0.00     0.014 A 
ATOM     38  C   UNL A   1      43.506  24.997  29.586  1.00  0.00     0.010 A 
ATOM     39  C   UNL A   1      44.579  26.886  28.540  1.00  0.00     0.010 A 
ATOM     40  C   UNL A   1      43.754  26.378  29.558  1.00  0.00    -0.014 A 
BRANCH  40  41
ATOM     41  C   UNL A   1      43.128  27.286  30.562  1.00  0.00     0.031 A 
ATOM     42  C   UNL A   1      43.767  27.502  31.912  1.00  0.00     0.074 A 
ATOM     43  C   UNL A   1      41.972  27.917  30.276  1.00  0.00     0.049 A 
ATOM     44  N   UNL A   1      43.368  28.257  32.908  1.00  0.00    -0.248 NA
ATOM     45  C   UNL A   1      45.010  26.765  32.182  1.00  0.00     0.031 C 
ATOM     46  C   UNL A   1      41.228  27.791  29.022  1.00  0.00     0.029 A 
ATOM     47  N   UNL A   1      41.218  28.794  31.021  1.00  0.00    -0.354 N 
ATOM     48  C   UNL A   1      44.297  28.072  33.924  1.00  0.00     0.074 A 
ATOM     49  C   UNL A   1      45.259  27.104  33.440  1.00  0.00     0.031 C 
ATOM     50  C   UNL A   1      40.141  28.579  29.075  1.00  0.00     0.029 A 
ATOM     51  C   UNL A   1      40.090  29.240  30.377  1.00  0.00     0.049 A 
ATOM     52  H   UNL A   1      41.465  29.076  31.932  1.00  0.00     0.167 HD
ATOM     53  C   UNL A   1      44.358  28.659  35.146  1.00  0.00     0.031 A 
ATOM     54  C   UNL A   1      39.119  30.081  30.781  1.00  0.00     0.031 A 
ATOM     55  C   UNL A   1      43.412  29.627  35.635  1.00  0.00     0.049 A 
ATOM     56  C   UNL A   1      39.198  30.707  32.147  1.00  0.00     0.074 A 
ATOM     57  C   UNL A   1      43.424  30.315  36.838  1.00  0.00     0.029 A 
ATOM     58  N   UNL A   1      42.280  30.041  34.952  1.00  0.00    -0.354 N 
ATOM     59  N   UNL A   1      40.120  30.568  33.068  1.00  0.00    -0.248 NA
ATOM     60  C   UNL A   1      38.107  31.620  32.523  1.00  0.00     0.031 C 
ATOM     61  C   UNL A   1      42.272  31.106  36.903  1.00  0.00     0.029 A 
ATOM     62  C   UNL A   1      41.573  30.954  35.717  1.00  0.00     0.049 A 
ATOM     63  H   UNL A   1      42.018  29.733  34.054  1.00  0.00     0.167 HD
ATOM     64  C   UNL A   1      39.735  31.390  34.119  1.00  0.00     0.074 A 
ATOM     65  C   UNL A   1      38.504  32.039  33.716  1.00  0.00     0.031 C 
ATOM     66  C   UNL A   1      40.347  31.591  35.311  1.00  0.00     0.031 A 
BRANCH  53  67
ATOM     67  C   UNL A   1      45.491  28.257  36.054  1.00  0.00    -0.014 A 
ATOM     68  C   UNL A   1      45.360  27.191  36.956  1.00  0.00     0.009 A 
ATOM     69  C   UNL A   1      46.721  28.932  35.977  1.00  0.00     0.009 A 
ATOM     70  C   UNL A   1      46.422  26.833  37.790  1.00  0.00     0.001 A 
ATOM     71  C   UNL A   1      47.790  28.554  36.791  1.00  0.00     0.001 A 
ATOM     72  C   UNL A   1      47.637  27.513  37.705  1.00  0.00     0.000 A 
ENDBRANCH  53  67
BRANCH  54  73
ATOM     73  C   UNL A   1      37.983  30.395  29.875  1.00  0.00    -0.014 A 
ATOM     74  C   UNL A   1      37.984  31.570  29.109  1.00  0.00     0.009 A 
ATOM     75  C   UNL A   1      36.888  29.522  29.776  1.00  0.00     0.009 A 
ATOM     76  C   UNL A   1      36.903  31.876  28.278  1.00  0.00     0.001 A 
ATOM     77  C   UNL A   1      35.821  29.816  28.924  1.00  0.00     0.001 A 
ATOM     78  C   UNL A   1      35.826  30.997  28.183  1.00  0.00     0.000 A 
ENDBRANCH  54  73
BRANCH  66  79
ATOM     79  C   UNL A   1      39.713  32.573  36.257  1.00  0.00    -0.014 A 
ATOM     80  C   UNL A   1      38.694  32.182  37.140  1.00  0.00     0.009 A 
ATOM     81  C   UNL A   1      40.170  33.899  36.292  1.00  0.00     0.009 A 
ATOM     82  C   UNL A   1      38.123  33.109  38.015  1.00  0.00     0.001 A 
ATOM     83  C   UNL A   1      39.617  34.817  37.187  1.00  0.00     0.001 A 
ATOM     84  C   UNL A   1      38.589  34.424  38.041  1.00  0.00     0.000 A 
ENDBRANCH  66  79
ENDBRANCH  40  41
ENDBRANCH  32  35
ENDBRANCH  30  31
ENDBRANCH  29  30
ENDBRANCH  28  29
ENDBRANCH  27  28
ENDBRANCH   1  27
TORSDOF 18
ENDMDL
MODEL 3
REMARK VINA RESULT:      -9.6      3.318      6.404
REMARK SMILES COc1cccc([C@@H](C)[NH+]2CC[NH+](CCC(=O)NCCCCCCNC(=O)c3ccc(-c4c5nc(c(-c6ccccc6)c6ccc([nH]6)c(-c6ccccc6)c6nc(c(-c7ccccc7)c7ccc4[nH]7)C=C6)C=C5)cc3)CC2)c1
REMARK SMILES IDX 20 1 19 2 18 3 16 4 17 5 15 7 14 8 13 9 10 10 11 11 77 12
REMARK SMILES IDX 12 14 76 15 8 17 9 18 7 19 3 20 4 21 78 22 5 23 6 24 2 25
REMARK SMILES IDX 1 26 21 27 22 28 23 29 24 30 25 31 26 32 27 34 28 35 29 36
REMARK SMILES IDX 75 37 30 38 74 39 31 40 32 41 33 42 68 43 34 44 73 45 67 46
REMARK SMILES IDX 69 47 35 48 72 49 66 50 65 51 36 53 58 54 43 55 57 56 44 57
REMARK SMILES IDX 47 58 56 59 70 60 45 61 46 62 55 64 71 65 48 66 37 67 38 68
REMARK SMILES IDX 42 69 39 70 41 71 40 72 59 73 60 74 64 75 61 76 63 77 62 78
REMARK SMILES IDX 49 79 50 80 54 81 51 82 53 83 52 84
REMARK H PARENT 18 6 10 13 13 16 25 33 69 52 47 63
REMARK Flexibility Score: inf
ROOT
ATOM      1  C   UNL A   1      36.600  34.098  34.213  1.00  0.00     0.021 C 
ENDROOT
BRANCH   1   2
ATOM      2  C   UNL A   1      35.098  34.489  34.272  1.00  0.00     0.116 C 
BRANCH   2   3
ATOM      3  N   UNL A   1      34.543  34.738  32.909  1.00  0.00    -0.356 N 
ATOM      4  C   UNL A   1      34.455  34.208  31.654  1.00  0.00     0.225 C 
ATOM      5  O   UNL A   1      33.861  34.944  30.848  1.00  0.00    -0.275 OA
ATOM      6  H   UNL A   1      34.067  35.600  32.919  1.00  0.00     0.163 HD
BRANCH   4   7
ATOM      7  C   UNL A   1      34.876  32.813  31.154  1.00  0.00     0.161 C 
BRANCH   7   8
ATOM      8  C   UNL A   1      36.343  32.523  30.667  1.00  0.00     0.272 C 
BRANCH   8   9
ATOM      9  N   UNL A   1      36.933  31.191  30.827  1.00  0.00    -0.325 N 
ATOM     10  N   UNL A   1      38.908  29.972  28.824  1.00  0.00    -0.320 N 
ATOM     11  C   UNL A   1      37.627  30.584  28.562  1.00  0.00     0.325 C 
ATOM     12  C   UNL A   1      39.399  30.446  30.134  1.00  0.00     0.325 C 
ATOM     13  H   UNL A   1      39.605  30.298  28.154  1.00  0.00     0.348 HD
ATOM     14  C   UNL A   1      36.643  30.338  29.715  1.00  0.00     0.324 C 
ATOM     15  C   UNL A   1      38.348  30.985  31.213  1.00  0.00     0.324 C 
ATOM     16  H   UNL A   1      36.449  30.950  31.692  1.00  0.00     0.348 HD
BRANCH  10  17
ATOM     17  C   UNL A   1      39.042  28.553  28.443  1.00  0.00     0.212 C 
ATOM     18  C   UNL A   1      39.049  27.636  29.690  1.00  0.00     0.081 C 
BRANCH  17  19
ATOM     19  C   UNL A   1      40.175  28.201  27.482  1.00  0.00     0.013 A 
ATOM     20  C   UNL A   1      41.328  26.496  26.175  1.00  0.00     0.119 A 
ATOM     21  C   UNL A   1      42.115  27.474  25.569  1.00  0.00     0.046 A 
ATOM     22  C   UNL A   1      40.357  26.864  27.112  1.00  0.00     0.056 A 
ATOM     23  C   UNL A   1      41.973  28.803  25.934  1.00  0.00     0.004 A 
ATOM     24  C   UNL A   1      41.045  29.145  26.917  1.00  0.00     0.010 A 
BRANCH  20  25
ATOM     25  O   UNL A   1      41.587  25.218  25.765  1.00  0.00    -0.497 OA
ATOM     26  C   UNL A   1      41.523  24.217  26.773  1.00  0.00     0.278 C 
ENDBRANCH  20  25
ENDBRANCH  17  19
ENDBRANCH  10  17
ENDBRANCH   8   9
ENDBRANCH   7   8
ENDBRANCH   4   7
ENDBRANCH   2   3
ENDBRANCH   1   2
BRANCH   1  27
ATOM     27  C   UNL A   1      37.070  32.682  34.652  1.00  0.00     0.002 C 
BRANCH  27  28
ATOM     28  C   UNL A   1      37.981  32.469  35.873  1.00  0.00     0.002 C 
BRANCH  28  29
ATOM     29  C   UNL A   1      37.953  33.413  37.102  1.00  0.00     0.021 C 
BRANCH  29  30
ATOM     30  C   UNL A   1      39.190  34.199  37.547  1.00  0.00     0.116 C 
BRANCH  30  31
ATOM     31  N   UNL A   1      39.267  35.509  36.927  1.00  0.00    -0.352 N 
ATOM     32  C   UNL A   1      40.040  35.948  35.875  1.00  0.00     0.251 C 
ATOM     33  H   UNL A   1      38.675  36.190  37.321  1.00  0.00     0.163 HD
ATOM     34  O   UNL A   1      40.133  37.158  35.680  1.00  0.00    -0.269 OA
BRANCH  32  35
ATOM     35  C   UNL A   1      40.762  35.018  34.959  1.00  0.00     0.039 A 
ATOM     36  C   UNL A   1      40.069  34.513  33.850  1.00  0.00     0.014 A 
ATOM     37  C   UNL A   1      42.044  34.533  35.230  1.00  0.00     0.014 A 
ATOM     38  C   UNL A   1      40.652  33.547  33.019  1.00  0.00     0.010 A 
ATOM     39  C   UNL A   1      42.647  33.600  34.371  1.00  0.00     0.010 A 
ATOM     40  C   UNL A   1      41.952  33.080  33.267  1.00  0.00    -0.014 A 
BRANCH  40  41
ATOM     41  C   UNL A   1      42.565  32.033  32.398  1.00  0.00     0.031 A 
ATOM     42  C   UNL A   1      42.715  30.614  32.887  1.00  0.00     0.074 A 
ATOM     43  C   UNL A   1      43.003  32.350  31.163  1.00  0.00     0.049 A 
ATOM     44  N   UNL A   1      43.220  29.572  32.270  1.00  0.00    -0.248 NA
ATOM     45  C   UNL A   1      42.249  30.332  34.253  1.00  0.00     0.031 C 
ATOM     46  C   UNL A   1      42.942  33.683  30.560  1.00  0.00     0.029 A 
ATOM     47  N   UNL A   1      43.586  31.573  30.189  1.00  0.00    -0.354 N 
ATOM     48  C   UNL A   1      43.148  28.520  33.176  1.00  0.00     0.074 A 
ATOM     49  C   UNL A   1      42.587  29.057  34.397  1.00  0.00     0.031 C 
ATOM     50  C   UNL A   1      43.443  33.625  29.315  1.00  0.00     0.029 A 
ATOM     51  C   UNL A   1      43.892  32.262  29.040  1.00  0.00     0.049 A 
ATOM     52  H   UNL A   1      43.766  30.611  30.304  1.00  0.00     0.167 HD
ATOM     53  C   UNL A   1      43.502  27.221  33.008  1.00  0.00     0.031 A 
ATOM     54  C   UNL A   1      44.470  31.852  27.895  1.00  0.00     0.031 A 
ATOM     55  C   UNL A   1      44.053  26.675  31.796  1.00  0.00     0.049 A 
ATOM     56  C   UNL A   1      44.870  30.410  27.738  1.00  0.00     0.074 A 
ATOM     57  C   UNL A   1      44.392  25.360  31.517  1.00  0.00     0.029 A 
ATOM     58  N   UNL A   1      44.355  27.411  30.662  1.00  0.00    -0.354 N 
ATOM     59  N   UNL A   1      44.734  29.418  28.583  1.00  0.00    -0.248 NA
ATOM     60  C   UNL A   1      45.492  30.030  26.460  1.00  0.00     0.031 C 
ATOM     61  C   UNL A   1      44.945  25.311  30.233  1.00  0.00     0.029 A 
ATOM     62  C   UNL A   1      44.899  26.586  29.692  1.00  0.00     0.049 A 
ATOM     63  H   UNL A   1      44.204  28.379  30.561  1.00  0.00     0.167 HD
ATOM     64  C   UNL A   1      45.230  28.295  27.933  1.00  0.00     0.074 A 
ATOM     65  C   UNL A   1      45.654  28.724  26.617  1.00  0.00     0.031 C 
ATOM     66  C   UNL A   1      45.323  27.021  28.386  1.00  0.00     0.031 A 
BRANCH  53  67
ATOM     67  C   UNL A   1      43.313  26.293  34.179  1.00  0.00    -0.014 A 
ATOM     68  C   UNL A   1      42.054  25.754  34.487  1.00  0.00     0.009 A 
ATOM     69  C   UNL A   1      44.418  25.923  34.962  1.00  0.00     0.009 A 
ATOM     70  C   UNL A   1      41.899  24.894  35.578  1.00  0.00     0.001 A 
ATOM     71  C   UNL A   1      44.266  25.041  36.034  1.00  0.00     0.001 A 
ATOM     72  C   UNL A   1      43.005  24.536  36.348  1.00  0.00     0.000 A 
ENDBRANCH  53  67
BRANCH  54  73
ATOM     73  C   UNL A   1      44.699  32.820  26.791  1.00  0.00    -0.014 A 
ATOM     74  C   UNL A   1      43.778  32.934  25.738  1.00  0.00     0.009 A 
ATOM     75  C   UNL A   1      45.843  33.634  26.781  1.00  0.00     0.009 A 
ATOM     76  C   UNL A   1      44.009  33.826  24.688  1.00  0.00     0.001 A 
ATOM     77  C   UNL A   1      46.057  34.544  25.744  1.00  0.00     0.001 A 
ATOM     78  C   UNL A   1      45.144  34.633  24.694  1.00  0.00     0.000 A 
ENDBRANCH  54  73
BRANCH  66  79
ATOM     79  C   UNL A   1      45.879  25.991  27.443  1.00  0.00    -0.014 A 
ATOM     80  C   UNL A   1      45.055  25.317  26.528  1.00  0.00     0.009 A 
ATOM     81  C   UNL A   1      47.256  25.718  27.445  1.00  0.00     0.009 A 
ATOM     82  C   UNL A   1      45.594  24.369  25.657  1.00  0.00     0.001 A 
ATOM     83  C   UNL A   1      47.797  24.790  26.555  1.00  0.00     0.001 A 
ATOM     84  C   UNL A   1      46.965  24.109  25.667  1.00  0.00     0.000 A 
ENDBRANCH  66  79
ENDBRANCH  40  41
ENDBRANCH  32  35
ENDBRANCH  30  31
ENDBRANCH  29  30
ENDBRANCH  28  29
ENDBRANCH  27  28
ENDBRANCH   1  27
TORSDOF 18
ENDMDL
