MODEL 1
REMARK VINA RESULT:     -12.0      0.000      0.000
REMARK SMILES O=C(CNC(=O)N1CC(NCCCCCCNC(=O)c2ccc(-c3c4nc(c(-c5ccccc5)c5ccc([nH]5)c(-c5ccccc5)c5nc(c(-c6ccccc6)c6ccc3[nH]6)C=C5)C=C4)cc2)=[NH+]c2ccccc21)N[C@H](C(=O)[O-])c1ccccc1
REMARK SMILES IDX 12 1 11 2 10 3 7 4 8 5 74 6 9 7 69 8 73 9 68 10 70 11 72 12
REMARK SMILES IDX 71 15 5 16 4 17 6 19 3 20 2 21 1 22 75 23 76 25 80 26 81 27
REMARK SMILES IDX 85 28 82 29 84 30 83 31 77 32 78 33 79 34 13 35 14 36 15 37
REMARK SMILES IDX 16 38 17 39 18 40 19 42 20 43 21 44 67 45 22 46 66 47 23 48
REMARK SMILES IDX 24 49 25 50 60 51 26 52 65 53 59 54 61 55 27 56 64 57 58 58
REMARK SMILES IDX 57 59 28 61 50 62 35 63 49 64 36 65 39 66 48 67 62 68 37 69
REMARK SMILES IDX 38 70 47 72 63 73 40 74 29 75 30 76 34 77 31 78 33 79 32 80
REMARK SMILES IDX 51 81 52 82 56 83 53 84 55 85 54 86 41 87 42 88 46 89 43 90
REMARK SMILES IDX 45 91 44 92
REMARK H PARENT 10 13 68 14 4 18 75 24 17 41 61 60 39 71
REMARK Flexibility Score: inf
ROOT
ATOM      1  C   UNL A   1      34.374  31.189  28.322  1.00  0.00     0.046 C 
ENDROOT
BRANCH   1   2
ATOM      2  C   UNL A   1      33.668  30.256  27.340  1.00  0.00     0.233 C 
BRANCH   2   3
ATOM      3  N   UNL A   1      32.532  30.909  26.740  1.00  0.00    -0.277 N 
ATOM      4  N   UNL A   1      31.458  28.954  23.839  1.00  0.00    -0.278 N 
ATOM      5  C   UNL A   1      31.795  28.993  25.250  1.00  0.00     0.255 C 
ATOM      6  C   UNL A   1      30.265  29.641  23.509  1.00  0.00     0.093 A 
ATOM      7  C   UNL A   1      31.701  30.438  25.755  1.00  0.00     0.268 C 
ATOM      8  C   UNL A   1      29.962  30.799  24.256  1.00  0.00     0.148 A 
ATOM      9  C   UNL A   1      29.431  29.230  22.462  1.00  0.00     0.031 A 
ATOM     10  N   UNL A   1      30.791  31.260  25.301  1.00  0.00    -0.241 N 
ATOM     11  C   UNL A   1      28.870  31.578  23.870  1.00  0.00     0.054 A 
ATOM     12  C   UNL A   1      28.325  30.006  22.112  1.00  0.00     0.002 A 
ATOM     13  H   UNL A   1      32.326  31.810  27.081  1.00  0.00     0.304 HD
ATOM     14  H   UNL A   1      30.686  32.165  25.674  1.00  0.00     0.312 HD
ATOM     15  C   UNL A   1      28.059  31.190  22.801  1.00  0.00     0.005 A 
BRANCH   4  16
ATOM     16  C   UNL A   1      32.290  28.271  22.992  1.00  0.00     0.323 C 
ATOM     17  N   UNL A   1      32.083  26.951  22.750  1.00  0.00    -0.329 N 
ATOM     18  H   UNL A   1      32.828  26.494  22.295  1.00  0.00     0.165 HD
ATOM     19  O   UNL A   1      33.173  28.840  22.345  1.00  0.00    -0.248 OA
BRANCH  17  20
ATOM     20  C   UNL A   1      30.937  26.097  23.056  1.00  0.00     0.218 C 
BRANCH  20  21
ATOM     21  C   UNL A   1      31.201  24.762  23.753  1.00  0.00     0.240 C 
ATOM     22  O   UNL A   1      30.531  23.774  23.453  1.00  0.00    -0.273 OA
ATOM     23  N   UNL A   1      32.253  24.730  24.634  1.00  0.00    -0.342 N 
ATOM     24  H   UNL A   1      32.870  25.494  24.698  1.00  0.00     0.164 HD
BRANCH  23  25
ATOM     25  C   UNL A   1      32.448  23.541  25.484  1.00  0.00     0.158 C 
BRANCH  25  26
ATOM     26  C   UNL A   1      33.923  23.150  25.486  1.00  0.00    -0.020 A 
ATOM     27  C   UNL A   1      34.348  21.824  25.299  1.00  0.00     0.006 A 
ATOM     28  C   UNL A   1      34.902  24.131  25.705  1.00  0.00     0.006 A 
ATOM     29  C   UNL A   1      35.704  21.493  25.305  1.00  0.00     0.000 A 
ATOM     30  C   UNL A   1      36.260  23.796  25.721  1.00  0.00     0.000 A 
ATOM     31  C   UNL A   1      36.662  22.479  25.521  1.00  0.00     0.000 A 
ENDBRANCH  25  26
BRANCH  25  32
ATOM     32  C   UNL A   1      31.888  23.700  26.950  1.00  0.00     0.068 C 
ATOM     33  O   UNL A   1      31.306  24.797  27.203  1.00  0.00    -0.548 OA
ATOM     34  O   UNL A   1      32.043  22.685  27.704  1.00  0.00    -0.548 OA
ENDBRANCH  25  32
ENDBRANCH  23  25
ENDBRANCH  20  21
ENDBRANCH  17  20
ENDBRANCH   4  16
ENDBRANCH   2   3
ENDBRANCH   1   2
BRANCH   1  35
ATOM     35  C   UNL A   1      34.323  32.675  27.937  1.00  0.00     0.004 C 
BRANCH  35  36
ATOM     36  C   UNL A   1      34.182  33.657  29.105  1.00  0.00     0.002 C 
BRANCH  36  37
ATOM     37  C   UNL A   1      33.084  34.711  28.947  1.00  0.00     0.021 C 
BRANCH  37  38
ATOM     38  C   UNL A   1      33.407  36.070  29.556  1.00  0.00     0.116 C 
BRANCH  38  39
ATOM     39  N   UNL A   1      32.519  36.412  30.658  1.00  0.00    -0.352 N 
ATOM     40  C   UNL A   1      32.550  35.975  31.960  1.00  0.00     0.251 C 
ATOM     41  H   UNL A   1      31.796  37.043  30.438  1.00  0.00     0.163 HD
ATOM     42  O   UNL A   1      31.622  36.215  32.726  1.00  0.00    -0.269 OA
BRANCH  40  43
ATOM     43  C   UNL A   1      33.703  35.181  32.432  1.00  0.00     0.039 A 
ATOM     44  C   UNL A   1      33.502  33.853  32.822  1.00  0.00     0.014 A 
ATOM     45  C   UNL A   1      34.981  35.743  32.473  1.00  0.00     0.014 A 
ATOM     46  C   UNL A   1      34.598  33.066  33.187  1.00  0.00     0.010 A 
ATOM     47  C   UNL A   1      36.077  34.939  32.769  1.00  0.00     0.010 A 
ATOM     48  C   UNL A   1      35.898  33.593  33.128  1.00  0.00    -0.014 A 
BRANCH  48  49
ATOM     49  C   UNL A   1      37.092  32.772  33.451  1.00  0.00     0.031 A 
ATOM     50  C   UNL A   1      37.837  33.017  34.734  1.00  0.00     0.074 A 
ATOM     51  C   UNL A   1      37.561  31.879  32.559  1.00  0.00     0.049 A 
ATOM     52  N   UNL A   1      38.977  32.515  35.136  1.00  0.00    -0.248 NA
ATOM     53  C   UNL A   1      37.231  33.970  35.678  1.00  0.00     0.031 C 
ATOM     54  C   UNL A   1      36.944  31.559  31.270  1.00  0.00     0.029 A 
ATOM     55  N   UNL A   1      38.685  31.090  32.592  1.00  0.00    -0.354 N 
ATOM     56  C   UNL A   1      39.240  33.118  36.361  1.00  0.00     0.074 A 
ATOM     57  C   UNL A   1      38.161  34.045  36.618  1.00  0.00     0.031 C 
ATOM     58  C   UNL A   1      37.689  30.635  30.642  1.00  0.00     0.029 A 
ATOM     59  C   UNL A   1      38.862  30.334  31.458  1.00  0.00     0.049 A 
ATOM     60  H   UNL A   1      39.304  31.067  33.357  1.00  0.00     0.167 HD
ATOM     61  C   UNL A   1      40.280  32.908  37.203  1.00  0.00     0.031 A 
ATOM     62  C   UNL A   1      39.868  29.511  31.103  1.00  0.00     0.031 A 
ATOM     63  C   UNL A   1      41.347  31.979  36.951  1.00  0.00     0.049 A 
ATOM     64  C   UNL A   1      41.029  29.319  32.041  1.00  0.00     0.074 A 
ATOM     65  C   UNL A   1      42.420  31.659  37.765  1.00  0.00     0.029 A 
ATOM     66  N   UNL A   1      41.479  31.224  35.796  1.00  0.00    -0.354 N 
ATOM     67  N   UNL A   1      41.234  29.850  33.222  1.00  0.00    -0.248 NA
ATOM     68  C   UNL A   1      42.094  28.405  31.600  1.00  0.00     0.031 C 
ATOM     69  C   UNL A   1      43.228  30.746  37.082  1.00  0.00     0.029 A 
ATOM     70  C   UNL A   1      42.625  30.452  35.869  1.00  0.00     0.049 A 
ATOM     71  H   UNL A   1      40.850  31.234  35.039  1.00  0.00     0.167 HD
ATOM     72  C   UNL A   1      42.428  29.309  33.679  1.00  0.00     0.074 A 
ATOM     73  C   UNL A   1      42.900  28.404  32.653  1.00  0.00     0.031 C 
ATOM     74  C   UNL A   1      43.071  29.539  34.850  1.00  0.00     0.031 A 
BRANCH  61  75
ATOM     75  C   UNL A   1      40.319  33.715  38.470  1.00  0.00    -0.014 A 
ATOM     76  C   UNL A   1      40.861  35.010  38.493  1.00  0.00     0.009 A 
ATOM     77  C   UNL A   1      39.777  33.186  39.651  1.00  0.00     0.009 A 
ATOM     78  C   UNL A   1      40.894  35.742  39.681  1.00  0.00     0.001 A 
ATOM     79  C   UNL A   1      39.783  33.933  40.831  1.00  0.00     0.001 A 
ATOM     80  C   UNL A   1      40.351  35.205  40.847  1.00  0.00     0.000 A 
ENDBRANCH  61  75
BRANCH  62  81
ATOM     81  C   UNL A   1      39.826  28.802  29.797  1.00  0.00    -0.014 A 
ATOM     82  C   UNL A   1      39.376  27.474  29.723  1.00  0.00     0.009 A 
ATOM     83  C   UNL A   1      40.241  29.442  28.619  1.00  0.00     0.009 A 
ATOM     84  C   UNL A   1      39.371  26.794  28.503  1.00  0.00     0.001 A 
ATOM     85  C   UNL A   1      40.206  28.770  27.396  1.00  0.00     0.001 A 
ATOM     86  C   UNL A   1      39.781  27.443  27.341  1.00  0.00     0.000 A 
ENDBRANCH  62  81
BRANCH  74  87
ATOM     87  C   UNL A   1      44.323  28.755  35.124  1.00  0.00    -0.014 A 
ATOM     88  C   UNL A   1      45.594  29.283  34.853  1.00  0.00     0.009 A 
ATOM     89  C   UNL A   1      44.225  27.500  35.745  1.00  0.00     0.009 A 
ATOM     90  C   UNL A   1      46.742  28.560  35.183  1.00  0.00     0.001 A 
ATOM     91  C   UNL A   1      45.374  26.792  36.099  1.00  0.00     0.001 A 
ATOM     92  C   UNL A   1      46.631  27.320  35.814  1.00  0.00     0.000 A 
ENDBRANCH  74  87
ENDBRANCH  48  49
ENDBRANCH  40  43
ENDBRANCH  38  39
ENDBRANCH  37  38
ENDBRANCH  36  37
ENDBRANCH  35  36
ENDBRANCH   1  35
TORSDOF 18
ENDMDL
MODEL 2
REMARK VINA RESULT:     -11.8      4.479      6.905
REMARK SMILES O=C(CNC(=O)N1CC(NCCCCCCNC(=O)c2ccc(-c3c4nc(c(-c5ccccc5)c5ccc([nH]5)c(-c5ccccc5)c5nc(c(-c6ccccc6)c6ccc3[nH]6)C=C5)C=C4)cc2)=[NH+]c2ccccc21)N[C@H](C(=O)[O-])c1ccccc1
REMARK SMILES IDX 12 1 11 2 10 3 7 4 8 5 74 6 9 7 69 8 73 9 68 10 70 11 72 12
REMARK SMILES IDX 71 15 5 16 4 17 6 19 3 20 2 21 1 22 75 23 76 25 80 26 81 27
REMARK SMILES IDX 85 28 82 29 84 30 83 31 77 32 78 33 79 34 13 35 14 36 15 37
REMARK SMILES IDX 16 38 17 39 18 40 19 42 20 43 21 44 67 45 22 46 66 47 23 48
REMARK SMILES IDX 24 49 25 50 60 51 26 52 65 53 59 54 61 55 27 56 64 57 58 58
REMARK SMILES IDX 57 59 28 61 50 62 35 63 49 64 36 65 39 66 48 67 62 68 37 69
REMARK SMILES IDX 38 70 47 72 63 73 40 74 29 75 30 76 34 77 31 78 33 79 32 80
REMARK SMILES IDX 51 81 52 82 56 83 53 84 55 85 54 86 41 87 42 88 46 89 43 90
REMARK SMILES IDX 45 91 44 92
REMARK H PARENT 10 13 68 14 4 18 75 24 17 41 61 60 39 71
REMARK Flexibility Score: inf
ROOT
ATOM      1  C   UNL A   1      30.938  27.797  25.847  1.00  0.00     0.046 C 
ENDROOT
BRANCH   1   2
ATOM      2  C   UNL A   1      30.857  26.277  25.718  1.00  0.00     0.233 C 
BRANCH   2   3
ATOM      3  N   UNL A   1      32.081  25.660  26.162  1.00  0.00    -0.277 N 
ATOM      4  N   UNL A   1      33.760  24.180  23.267  1.00  0.00    -0.278 N 
ATOM      5  C   UNL A   1      33.140  25.341  23.879  1.00  0.00     0.255 C 
ATOM      6  C   UNL A   1      34.984  23.795  23.864  1.00  0.00     0.093 A 
ATOM      7  C   UNL A   1      33.104  25.154  25.401  1.00  0.00     0.268 C 
ATOM      8  C   UNL A   1      35.109  23.985  25.256  1.00  0.00     0.148 A 
ATOM      9  C   UNL A   1      36.023  23.208  23.130  1.00  0.00     0.031 A 
ATOM     10  N   UNL A   1      34.075  24.549  26.036  1.00  0.00    -0.241 N 
ATOM     11  C   UNL A   1      36.243  23.491  25.902  1.00  0.00     0.054 A 
ATOM     12  C   UNL A   1      37.163  22.749  23.790  1.00  0.00     0.002 A 
ATOM     13  H   UNL A   1      32.198  25.593  27.138  1.00  0.00     0.304 HD
ATOM     14  H   UNL A   1      34.086  24.489  27.018  1.00  0.00     0.312 HD
ATOM     15  C   UNL A   1      37.263  22.870  25.176  1.00  0.00     0.005 A 
BRANCH   4  16
ATOM     16  C   UNL A   1      33.132  23.597  22.199  1.00  0.00     0.323 C 
ATOM     17  N   UNL A   1      31.963  22.930  22.375  1.00  0.00    -0.329 N 
ATOM     18  H   UNL A   1      31.684  22.379  21.607  1.00  0.00     0.165 HD
ATOM     19  O   UNL A   1      33.538  23.745  21.042  1.00  0.00    -0.248 OA
BRANCH  17  20
ATOM     20  C   UNL A   1      31.053  22.893  23.518  1.00  0.00     0.218 C 
BRANCH  20  21
ATOM     21  C   UNL A   1      31.449  22.044  24.725  1.00  0.00     0.240 C 
ATOM     22  O   UNL A   1      31.131  22.406  25.858  1.00  0.00    -0.273 OA
ATOM     23  N   UNL A   1      32.081  20.855  24.455  1.00  0.00    -0.342 N 
ATOM     24  H   UNL A   1      32.145  20.526  23.530  1.00  0.00     0.164 HD
BRANCH  23  25
ATOM     25  C   UNL A   1      32.664  20.078  25.565  1.00  0.00     0.158 C 
BRANCH  25  26
ATOM     26  C   UNL A   1      32.847  18.626  25.131  1.00  0.00    -0.020 A 
ATOM     27  C   UNL A   1      32.800  17.559  26.043  1.00  0.00     0.006 A 
ATOM     28  C   UNL A   1      33.099  18.330  23.782  1.00  0.00     0.006 A 
ATOM     29  C   UNL A   1      32.971  16.240  25.620  1.00  0.00     0.000 A 
ATOM     30  C   UNL A   1      33.279  17.009  23.361  1.00  0.00     0.000 A 
ATOM     31  C   UNL A   1      33.216  15.963  24.278  1.00  0.00     0.000 A 
ENDBRANCH  25  26
BRANCH  25  32
ATOM     32  C   UNL A   1      34.000  20.684  26.143  1.00  0.00     0.068 C 
ATOM     33  O   UNL A   1      35.043  20.477  25.454  1.00  0.00    -0.548 OA
ATOM     34  O   UNL A   1      33.872  21.356  27.217  1.00  0.00    -0.548 OA
ENDBRANCH  25  32
ENDBRANCH  23  25
ENDBRANCH  20  21
ENDBRANCH  17  20
ENDBRANCH   4  16
ENDBRANCH   2   3
ENDBRANCH   1   2
BRANCH   1  35
ATOM     35  C   UNL A   1      31.337  28.526  24.555  1.00  0.00     0.004 C 
BRANCH  35  36
ATOM     36  C   UNL A   1      32.625  29.351  24.631  1.00  0.00     0.002 C 
BRANCH  36  37
ATOM     37  C   UNL A   1      33.875  28.578  25.057  1.00  0.00     0.021 C 
BRANCH  37  38
ATOM     38  C   UNL A   1      34.190  28.638  26.546  1.00  0.00     0.116 C 
BRANCH  38  39
ATOM     39  N   UNL A   1      33.860  29.928  27.135  1.00  0.00    -0.352 N 
ATOM     40  C   UNL A   1      34.584  30.681  28.027  1.00  0.00     0.251 C 
ATOM     41  H   UNL A   1      32.999  30.313  26.855  1.00  0.00     0.163 HD
ATOM     42  O   UNL A   1      34.088  31.664  28.570  1.00  0.00    -0.269 OA
BRANCH  40  43
ATOM     43  C   UNL A   1      35.968  30.282  28.359  1.00  0.00     0.039 A 
ATOM     44  C   UNL A   1      36.237  29.740  29.619  1.00  0.00     0.014 A 
ATOM     45  C   UNL A   1      36.991  30.428  27.420  1.00  0.00     0.014 A 
ATOM     46  C   UNL A   1      37.524  29.279  29.913  1.00  0.00     0.010 A 
ATOM     47  C   UNL A   1      38.252  29.905  27.689  1.00  0.00     0.010 A 
ATOM     48  C   UNL A   1      38.531  29.325  28.937  1.00  0.00    -0.014 A 
BRANCH  48  49
ATOM     49  C   UNL A   1      39.894  28.791  29.191  1.00  0.00     0.031 A 
ATOM     50  C   UNL A   1      40.954  29.698  29.752  1.00  0.00     0.074 A 
ATOM     51  C   UNL A   1      40.204  27.530  28.834  1.00  0.00     0.049 A 
ATOM     52  N   UNL A   1      42.234  29.474  29.911  1.00  0.00    -0.248 NA
ATOM     53  C   UNL A   1      40.521  31.043  30.165  1.00  0.00     0.031 C 
ATOM     54  C   UNL A   1      39.274  26.554  28.264  1.00  0.00     0.029 A 
ATOM     55  N   UNL A   1      41.402  26.860  28.879  1.00  0.00    -0.354 N 
ATOM     56  C   UNL A   1      42.762  30.659  30.409  1.00  0.00     0.074 A 
ATOM     57  C   UNL A   1      41.675  31.607  30.492  1.00  0.00     0.031 C 
ATOM     58  C   UNL A   1      39.932  25.409  28.021  1.00  0.00     0.029 A 
ATOM     59  C   UNL A   1      41.339  25.584  28.371  1.00  0.00     0.049 A 
ATOM     60  H   UNL A   1      42.227  27.255  29.241  1.00  0.00     0.167 HD
ATOM     61  C   UNL A   1      44.037  30.929  30.777  1.00  0.00     0.031 A 
ATOM     62  C   UNL A   1      42.309  24.668  28.183  1.00  0.00     0.031 A 
ATOM     63  C   UNL A   1      45.117  29.982  30.703  1.00  0.00     0.049 A 
ATOM     64  C   UNL A   1      43.724  25.003  28.570  1.00  0.00     0.074 A 
ATOM     65  C   UNL A   1      46.433  30.145  31.099  1.00  0.00     0.029 A 
ATOM     66  N   UNL A   1      45.005  28.697  30.196  1.00  0.00    -0.354 N 
ATOM     67  N   UNL A   1      44.198  26.107  29.095  1.00  0.00    -0.248 NA
ATOM     68  C   UNL A   1      44.737  23.960  28.346  1.00  0.00     0.031 C 
ATOM     69  C   UNL A   1      47.130  28.975  30.785  1.00  0.00     0.029 A 
ATOM     70  C   UNL A   1      46.233  28.062  30.252  1.00  0.00     0.049 A 
ATOM     71  H   UNL A   1      44.175  28.296  29.850  1.00  0.00     0.167 HD
ATOM     72  C   UNL A   1      45.553  25.879  29.298  1.00  0.00     0.074 A 
ATOM     73  C   UNL A   1      45.825  24.531  28.845  1.00  0.00     0.031 C 
ATOM     74  C   UNL A   1      46.485  26.713  29.819  1.00  0.00     0.031 A 
BRANCH  61  75
ATOM     75  C   UNL A   1      44.335  32.314  31.277  1.00  0.00    -0.014 A 
ATOM     76  C   UNL A   1      44.304  32.617  32.648  1.00  0.00     0.009 A 
ATOM     77  C   UNL A   1      44.685  33.324  30.368  1.00  0.00     0.009 A 
ATOM     78  C   UNL A   1      44.578  33.912  33.093  1.00  0.00     0.001 A 
ATOM     79  C   UNL A   1      44.989  34.610  30.818  1.00  0.00     0.001 A 
ATOM     80  C   UNL A   1      44.925  34.905  32.179  1.00  0.00     0.000 A 
ENDBRANCH  61  75
BRANCH  62  81
ATOM     81  C   UNL A   1      41.978  23.340  27.602  1.00  0.00    -0.014 A 
ATOM     82  C   UNL A   1      42.115  23.114  26.223  1.00  0.00     0.009 A 
ATOM     83  C   UNL A   1      41.518  22.295  28.417  1.00  0.00     0.009 A 
ATOM     84  C   UNL A   1      41.769  21.879  25.669  1.00  0.00     0.001 A 
ATOM     85  C   UNL A   1      41.202  21.051  27.865  1.00  0.00     0.001 A 
ATOM     86  C   UNL A   1      41.318  20.848  26.491  1.00  0.00     0.000 A 
ENDBRANCH  62  81
BRANCH  74  87
ATOM     87  C   UNL A   1      47.879  26.180  29.995  1.00  0.00    -0.014 A 
ATOM     88  C   UNL A   1      48.807  26.191  28.943  1.00  0.00     0.009 A 
ATOM     89  C   UNL A   1      48.290  25.739  31.263  1.00  0.00     0.009 A 
ATOM     90  C   UNL A   1      50.115  25.753  29.155  1.00  0.00     0.001 A 
ATOM     91  C   UNL A   1      49.606  25.329  31.479  1.00  0.00     0.001 A 
ATOM     92  C   UNL A   1      50.517  25.332  30.424  1.00  0.00     0.000 A 
ENDBRANCH  74  87
ENDBRANCH  48  49
ENDBRANCH  40  43
ENDBRANCH  38  39
ENDBRANCH  37  38
ENDBRANCH  36  37
ENDBRANCH  35  36
ENDBRANCH   1  35
TORSDOF 18
ENDMDL
MODEL 3
REMARK VINA RESULT:     -11.7      5.173     10.865
REMARK SMILES O=C(CNC(=O)N1CC(NCCCCCCNC(=O)c2ccc(-c3c4nc(c(-c5ccccc5)c5ccc([nH]5)c(-c5ccccc5)c5nc(c(-c6ccccc6)c6ccc3[nH]6)C=C5)C=C4)cc2)=[NH+]c2ccccc21)N[C@H](C(=O)[O-])c1ccccc1
REMARK SMILES IDX 12 1 11 2 10 3 7 4 8 5 74 6 9 7 69 8 73 9 68 10 70 11 72 12
REMARK SMILES IDX 71 15 5 16 4 17 6 19 3 20 2 21 1 22 75 23 76 25 80 26 81 27
REMARK SMILES IDX 85 28 82 29 84 30 83 31 77 32 78 33 79 34 13 35 14 36 15 37
REMARK SMILES IDX 16 38 17 39 18 40 19 42 20 43 21 44 67 45 22 46 66 47 23 48
REMARK SMILES IDX 24 49 25 50 60 51 26 52 65 53 59 54 61 55 27 56 64 57 58 58
REMARK SMILES IDX 57 59 28 61 50 62 35 63 49 64 36 65 39 66 48 67 62 68 37 69
REMARK SMILES IDX 38 70 47 72 63 73 40 74 29 75 30 76 34 77 31 78 33 79 32 80
REMARK SMILES IDX 51 81 52 82 56 83 53 84 55 85 54 86 41 87 42 88 46 89 43 90
REMARK SMILES IDX 45 91 44 92
REMARK H PARENT 10 13 68 14 4 18 75 24 17 41 61 60 39 71
REMARK Flexibility Score: inf
ROOT
ATOM      1  C   UNL A   1      38.645  23.977  26.892  1.00  0.00     0.046 C 
ENDROOT
BRANCH   1   2
ATOM      2  C   UNL A   1      37.342  23.769  26.123  1.00  0.00     0.233 C 
BRANCH   2   3
ATOM      3  N   UNL A   1      37.099  22.366  25.898  1.00  0.00    -0.277 N 
ATOM      4  N   UNL A   1      33.609  21.932  24.886  1.00  0.00    -0.278 N 
ATOM      5  C   UNL A   1      34.882  22.602  24.688  1.00  0.00     0.255 C 
ATOM      6  C   UNL A   1      33.621  20.556  24.552  1.00  0.00     0.093 A 
ATOM      7  C   UNL A   1      35.998  21.772  25.335  1.00  0.00     0.268 C 
ATOM      8  C   UNL A   1      34.815  19.846  24.792  1.00  0.00     0.148 A 
ATOM      9  C   UNL A   1      32.492  19.901  24.044  1.00  0.00     0.031 A 
ATOM     10  N   UNL A   1      35.966  20.464  25.328  1.00  0.00    -0.241 N 
ATOM     11  C   UNL A   1      34.822  18.462  24.606  1.00  0.00     0.054 A 
ATOM     12  C   UNL A   1      32.528  18.522  23.834  1.00  0.00     0.002 A 
ATOM     13  H   UNL A   1      37.817  21.756  26.185  1.00  0.00     0.304 HD
ATOM     14  H   UNL A   1      36.714  19.932  25.681  1.00  0.00     0.312 HD
ATOM     15  C   UNL A   1      33.684  17.801  24.136  1.00  0.00     0.005 A 
BRANCH   4  16
ATOM     16  C   UNL A   1      32.552  22.670  25.349  1.00  0.00     0.323 C 
ATOM     17  N   UNL A   1      31.909  23.535  24.522  1.00  0.00    -0.329 N 
ATOM     18  H   UNL A   1      31.300  24.162  24.976  1.00  0.00     0.165 HD
ATOM     19  O   UNL A   1      32.083  22.502  26.478  1.00  0.00    -0.248 OA
BRANCH  17  20
ATOM     20  C   UNL A   1      31.976  23.688  23.070  1.00  0.00     0.218 C 
BRANCH  20  21
ATOM     21  C   UNL A   1      32.216  25.088  22.505  1.00  0.00     0.240 C 
ATOM     22  O   UNL A   1      33.097  25.264  21.663  1.00  0.00    -0.273 OA
ATOM     23  N   UNL A   1      31.355  26.072  22.924  1.00  0.00    -0.342 N 
ATOM     24  H   UNL A   1      30.557  25.842  23.451  1.00  0.00     0.164 HD
BRANCH  23  25
ATOM     25  C   UNL A   1      31.639  27.477  22.577  1.00  0.00     0.158 C 
BRANCH  25  26
ATOM     26  C   UNL A   1      30.341  28.279  22.589  1.00  0.00    -0.020 A 
ATOM     27  C   UNL A   1      29.149  27.771  23.129  1.00  0.00     0.006 A 
ATOM     28  C   UNL A   1      30.312  29.562  22.019  1.00  0.00     0.006 A 
ATOM     29  C   UNL A   1      27.975  28.527  23.127  1.00  0.00     0.000 A 
ATOM     30  C   UNL A   1      29.134  30.314  22.009  1.00  0.00     0.000 A 
ATOM     31  C   UNL A   1      27.965  29.798  22.562  1.00  0.00     0.000 A 
ENDBRANCH  25  26
BRANCH  25  32
ATOM     32  C   UNL A   1      32.746  28.150  23.476  1.00  0.00     0.068 C 
ATOM     33  O   UNL A   1      33.774  28.569  22.865  1.00  0.00    -0.548 OA
ATOM     34  O   UNL A   1      32.461  28.240  24.715  1.00  0.00    -0.548 OA
ENDBRANCH  25  32
ENDBRANCH  23  25
ENDBRANCH  20  21
ENDBRANCH  17  20
ENDBRANCH   4  16
ENDBRANCH   2   3
ENDBRANCH   1   2
BRANCH   1  35
ATOM     35  C   UNL A   1      39.824  23.130  26.390  1.00  0.00     0.004 C 
BRANCH  35  36
ATOM     36  C   UNL A   1      40.457  22.197  27.426  1.00  0.00     0.002 C 
BRANCH  36  37
ATOM     37  C   UNL A   1      40.718  20.767  26.949  1.00  0.00     0.021 C 
BRANCH  37  38
ATOM     38  C   UNL A   1      42.057  20.181  27.379  1.00  0.00     0.116 C 
BRANCH  38  39
ATOM     39  N   UNL A   1      42.911  19.852  26.247  1.00  0.00    -0.352 N 
ATOM     40  C   UNL A   1      43.668  20.688  25.464  1.00  0.00     0.251 C 
ATOM     41  H   UNL A   1      42.950  18.897  26.010  1.00  0.00     0.163 HD
ATOM     42  O   UNL A   1      44.193  20.281  24.432  1.00  0.00    -0.269 OA
BRANCH  40  43
ATOM     43  C   UNL A   1      43.826  22.105  25.856  1.00  0.00     0.039 A 
ATOM     44  C   UNL A   1      43.434  23.106  24.962  1.00  0.00     0.014 A 
ATOM     45  C   UNL A   1      44.343  22.439  27.109  1.00  0.00     0.014 A 
ATOM     46  C   UNL A   1      43.496  24.447  25.355  1.00  0.00     0.010 A 
ATOM     47  C   UNL A   1      44.339  23.767  27.523  1.00  0.00     0.010 A 
ATOM     48  C   UNL A   1      43.915  24.784  26.651  1.00  0.00    -0.014 A 
BRANCH  48  49
ATOM     49  C   UNL A   1      43.939  26.191  27.126  1.00  0.00     0.031 A 
ATOM     50  C   UNL A   1      45.258  26.896  27.296  1.00  0.00     0.074 A 
ATOM     51  C   UNL A   1      42.797  26.802  27.492  1.00  0.00     0.049 A 
ATOM     52  N   UNL A   1      45.507  28.064  27.830  1.00  0.00    -0.248 NA
ATOM     53  C   UNL A   1      46.454  26.180  26.824  1.00  0.00     0.031 C 
ATOM     54  C   UNL A   1      41.454  26.225  27.395  1.00  0.00     0.029 A 
ATOM     55  N   UNL A   1      42.585  28.042  28.044  1.00  0.00    -0.354 N 
ATOM     56  C   UNL A   1      46.889  28.206  27.789  1.00  0.00     0.074 A 
ATOM     57  C   UNL A   1      47.424  26.994  27.212  1.00  0.00     0.031 C 
ATOM     58  C   UNL A   1      40.559  27.111  27.860  1.00  0.00     0.029 A 
ATOM     59  C   UNL A   1      41.266  28.297  28.335  1.00  0.00     0.049 A 
ATOM     60  H   UNL A   1      43.308  28.687  28.213  1.00  0.00     0.167 HD
ATOM     61  C   UNL A   1      47.645  29.258  28.185  1.00  0.00     0.031 A 
ATOM     62  C   UNL A   1      40.692  29.356  28.939  1.00  0.00     0.031 A 
ATOM     63  C   UNL A   1      47.111  30.467  28.751  1.00  0.00     0.049 A 
ATOM     64  C   UNL A   1      41.556  30.499  29.399  1.00  0.00     0.074 A 
ATOM     65  C   UNL A   1      47.791  31.609  29.137  1.00  0.00     0.029 A 
ATOM     66  N   UNL A   1      45.769  30.689  29.014  1.00  0.00    -0.354 N 
ATOM     67  N   UNL A   1      42.855  30.645  29.301  1.00  0.00    -0.248 NA
ATOM     68  C   UNL A   1      40.872  31.628  30.048  1.00  0.00     0.031 C 
ATOM     69  C   UNL A   1      46.865  32.504  29.681  1.00  0.00     0.029 A 
ATOM     70  C   UNL A   1      45.602  31.943  29.575  1.00  0.00     0.049 A 
ATOM     71  H   UNL A   1      45.043  30.050  28.828  1.00  0.00     0.167 HD
ATOM     72  C   UNL A   1      43.138  31.894  29.839  1.00  0.00     0.074 A 
ATOM     73  C   UNL A   1      41.877  32.467  30.258  1.00  0.00     0.031 C 
ATOM     74  C   UNL A   1      44.338  32.510  29.967  1.00  0.00     0.031 A 
BRANCH  61  75
ATOM     75  C   UNL A   1      49.135  29.136  28.035  1.00  0.00    -0.014 A 
ATOM     76  C   UNL A   1      49.780  29.498  26.841  1.00  0.00     0.009 A 
ATOM     77  C   UNL A   1      49.910  28.685  29.114  1.00  0.00     0.009 A 
ATOM     78  C   UNL A   1      51.164  29.372  26.719  1.00  0.00     0.001 A 
ATOM     79  C   UNL A   1      51.298  28.589  29.000  1.00  0.00     0.001 A 
ATOM     80  C   UNL A   1      51.923  28.923  27.799  1.00  0.00     0.000 A 
ENDBRANCH  61  75
BRANCH  62  81
ATOM     81  C   UNL A   1      39.221  29.391  29.145  1.00  0.00    -0.014 A 
ATOM     82  C   UNL A   1      38.370  29.847  28.125  1.00  0.00     0.009 A 
ATOM     83  C   UNL A   1      38.656  28.977  30.361  1.00  0.00     0.009 A 
ATOM     84  C   UNL A   1      36.990  29.915  28.329  1.00  0.00     0.001 A 
ATOM     85  C   UNL A   1      37.273  29.017  30.552  1.00  0.00     0.001 A 
ATOM     86  C   UNL A   1      36.442  29.496  29.540  1.00  0.00     0.000 A 
ENDBRANCH  62  81
BRANCH  74  87
ATOM     87  C   UNL A   1      44.350  33.906  30.524  1.00  0.00    -0.014 A 
ATOM     88  C   UNL A   1      44.162  35.026  29.701  1.00  0.00     0.009 A 
ATOM     89  C   UNL A   1      44.467  34.090  31.911  1.00  0.00     0.009 A 
ATOM     90  C   UNL A   1      44.109  36.305  30.256  1.00  0.00     0.001 A 
ATOM     91  C   UNL A   1      44.385  35.367  32.466  1.00  0.00     0.001 A 
ATOM     92  C   UNL A   1      44.210  36.475  31.638  1.00  0.00     0.000 A 
ENDBRANCH  74  87
ENDBRANCH  48  49
ENDBRANCH  40  43
ENDBRANCH  38  39
ENDBRANCH  37  38
ENDBRANCH  36  37
ENDBRANCH  35  36
ENDBRANCH   1  35
TORSDOF 18
ENDMDL
