MODEL 1
REMARK VINA RESULT:     -10.9      0.000      0.000
REMARK SMILES O=C(NCCCCCCNC(=O)[C@@H](CO)N1C(=O)c2c(Cl)c(Cl)c(Cl)c(Cl)c2C1=O)c1ccc(-c2c3nc(c(-c4ccccc4)c4ccc([nH]4)c(-c4ccccc4)c4nc(c(-c5ccccc5)c5ccc2[nH]5)C=C4)C=C3)cc1
REMARK SMILES IDX 6 1 5 2 4 3 3 4 1 5 2 6 31 8 32 9 78 10 33 11 77 12 34 13
REMARK SMILES IDX 35 14 36 15 71 16 37 17 76 18 70 19 72 20 38 21 75 22 69 23
REMARK SMILES IDX 68 24 39 26 61 27 46 28 60 29 47 30 50 31 59 32 73 33 48 34
REMARK SMILES IDX 49 35 58 37 74 38 51 39 40 40 41 41 45 42 42 43 44 44 43 45
REMARK SMILES IDX 62 46 63 47 67 48 64 49 66 50 65 51 52 52 53 53 57 54 54 55
REMARK SMILES IDX 56 56 55 57 7 58 8 59 9 60 10 61 11 62 12 64 13 65 14 66
REMARK SMILES IDX 15 67 16 69 17 70 29 71 18 72 19 73 28 74 30 75 20 76 26 77
REMARK SMILES IDX 21 78 22 79 24 80 27 81 23 82 25 83
REMARK H PARENT 3 7 72 25 50 36 10 63 15 68
REMARK Flexibility Score: inf
ROOT
ATOM      1  C   UNL A   1      34.994  22.321  24.484  1.00  0.00     0.002 C 
ENDROOT
BRANCH   1   2
ATOM      2  C   UNL A   1      35.258  23.125  25.759  1.00  0.00     0.021 C 
BRANCH   2   3
ATOM      3  C   UNL A   1      36.641  23.760  25.827  1.00  0.00     0.116 C 
BRANCH   3   4
ATOM      4  N   UNL A   1      37.693  22.764  25.943  1.00  0.00    -0.352 N 
ATOM      5  O   UNL A   1      39.813  22.029  26.193  1.00  0.00    -0.269 OA
ATOM      6  C   UNL A   1      38.995  22.930  26.340  1.00  0.00     0.251 C 
ATOM      7  H   UNL A   1      37.435  21.844  25.704  1.00  0.00     0.163 HD
BRANCH   6   8
ATOM      8  C   UNL A   1      39.407  24.215  26.936  1.00  0.00     0.039 A 
ATOM      9  C   UNL A   1      39.118  24.499  28.274  1.00  0.00     0.014 A 
ATOM     10  C   UNL A   1      40.101  25.138  26.149  1.00  0.00     0.014 A 
ATOM     11  C   UNL A   1      39.430  25.748  28.797  1.00  0.00     0.010 A 
ATOM     12  C   UNL A   1      40.480  26.363  26.698  1.00  0.00     0.010 A 
ATOM     13  C   UNL A   1      40.133  26.682  28.021  1.00  0.00    -0.014 A 
BRANCH  13  14
ATOM     14  C   UNL A   1      40.580  27.956  28.633  1.00  0.00     0.031 A 
ATOM     15  C   UNL A   1      41.992  28.138  29.105  1.00  0.00     0.074 A 
ATOM     16  C   UNL A   1      39.680  28.946  28.780  1.00  0.00     0.049 A 
ATOM     17  N   UNL A   1      42.531  29.173  29.697  1.00  0.00    -0.248 NA
ATOM     18  C   UNL A   1      42.914  27.013  28.896  1.00  0.00     0.031 C 
ATOM     19  C   UNL A   1      38.274  28.874  28.368  1.00  0.00     0.029 A 
ATOM     20  N   UNL A   1      39.807  30.200  29.315  1.00  0.00    -0.354 N 
ATOM     21  C   UNL A   1      43.849  28.817  29.954  1.00  0.00     0.074 A 
ATOM     22  C   UNL A   1      44.021  27.464  29.472  1.00  0.00     0.031 C 
ATOM     23  C   UNL A   1      37.675  30.039  28.651  1.00  0.00     0.029 A 
ATOM     24  C   UNL A   1      38.633  30.912  29.317  1.00  0.00     0.049 A 
ATOM     25  H   UNL A   1      40.656  30.555  29.666  1.00  0.00     0.167 HD
ATOM     26  C   UNL A   1      44.823  29.554  30.540  1.00  0.00     0.031 A 
ATOM     27  C   UNL A   1      38.346  32.123  29.827  1.00  0.00     0.031 A 
ATOM     28  C   UNL A   1      44.638  30.897  31.027  1.00  0.00     0.049 A 
ATOM     29  C   UNL A   1      39.432  32.906  30.501  1.00  0.00     0.074 A 
ATOM     30  C   UNL A   1      45.574  31.746  31.593  1.00  0.00     0.029 A 
ATOM     31  N   UNL A   1      43.431  31.581  31.021  1.00  0.00    -0.354 N 
ATOM     32  N   UNL A   1      40.687  32.579  30.687  1.00  0.00    -0.248 NA
ATOM     33  C   UNL A   1      39.063  34.224  31.034  1.00  0.00     0.031 C 
ATOM     34  C   UNL A   1      44.921  32.920  31.982  1.00  0.00     0.029 A 
ATOM     35  C   UNL A   1      43.591  32.828  31.604  1.00  0.00     0.049 A 
ATOM     36  H   UNL A   1      42.586  31.233  30.655  1.00  0.00     0.167 HD
ATOM     37  C   UNL A   1      41.265  33.655  31.344  1.00  0.00     0.074 A 
ATOM     38  C   UNL A   1      40.225  34.652  31.510  1.00  0.00     0.031 C 
ATOM     39  C   UNL A   1      42.542  33.803  31.770  1.00  0.00     0.031 A 
BRANCH  26  40
ATOM     40  C   UNL A   1      46.166  28.905  30.725  1.00  0.00    -0.014 A 
ATOM     41  C   UNL A   1      47.163  28.983  29.738  1.00  0.00     0.009 A 
ATOM     42  C   UNL A   1      46.448  28.222  31.919  1.00  0.00     0.009 A 
ATOM     43  C   UNL A   1      48.397  28.354  29.927  1.00  0.00     0.001 A 
ATOM     44  C   UNL A   1      47.693  27.619  32.116  1.00  0.00     0.001 A 
ATOM     45  C   UNL A   1      48.661  27.675  31.116  1.00  0.00     0.000 A 
ENDBRANCH  26  40
BRANCH  27  46
ATOM     46  C   UNL A   1      36.957  32.639  29.731  1.00  0.00    -0.014 A 
ATOM     47  C   UNL A   1      36.006  32.324  30.711  1.00  0.00     0.009 A 
ATOM     48  C   UNL A   1      36.594  33.497  28.681  1.00  0.00     0.009 A 
ATOM     49  C   UNL A   1      34.715  32.853  30.636  1.00  0.00     0.001 A 
ATOM     50  C   UNL A   1      35.314  34.048  28.623  1.00  0.00     0.001 A 
ATOM     51  C   UNL A   1      34.373  33.720  29.597  1.00  0.00     0.000 A 
ENDBRANCH  27  46
BRANCH  39  52
ATOM     52  C   UNL A   1      42.894  35.102  32.439  1.00  0.00    -0.014 A 
ATOM     53  C   UNL A   1      42.705  35.285  33.817  1.00  0.00     0.009 A 
ATOM     54  C   UNL A   1      43.467  36.138  31.684  1.00  0.00     0.009 A 
ATOM     55  C   UNL A   1      43.061  36.492  34.422  1.00  0.00     0.001 A 
ATOM     56  C   UNL A   1      43.846  37.332  32.297  1.00  0.00     0.001 A 
ATOM     57  C   UNL A   1      43.637  37.511  33.663  1.00  0.00     0.000 A 
ENDBRANCH  39  52
ENDBRANCH  13  14
ENDBRANCH   6   8
ENDBRANCH   3   4
ENDBRANCH   2   3
ENDBRANCH   1   2
BRANCH   1  58
ATOM     58  C   UNL A   1      34.108  21.085  24.673  1.00  0.00     0.002 C 
BRANCH  58  59
ATOM     59  C   UNL A   1      32.812  21.090  23.853  1.00  0.00     0.021 C 
BRANCH  59  60
ATOM     60  C   UNL A   1      32.739  22.218  22.827  1.00  0.00     0.116 C 
BRANCH  60  61
ATOM     61  N   UNL A   1      31.467  22.905  22.924  1.00  0.00    -0.354 N 
ATOM     62  C   UNL A   1      31.172  24.234  22.922  1.00  0.00     0.245 C 
ATOM     63  H   UNL A   1      30.685  22.312  23.004  1.00  0.00     0.163 HD
ATOM     64  O   UNL A   1      30.027  24.550  23.268  1.00  0.00    -0.273 OA
BRANCH  62  65
ATOM     65  C   UNL A   1      32.235  25.328  22.702  1.00  0.00     0.208 C 
BRANCH  65  66
ATOM     66  C   UNL A   1      32.242  25.643  21.190  1.00  0.00     0.191 C 
BRANCH  66  67
ATOM     67  O   UNL A   1      32.935  24.657  20.422  1.00  0.00    -0.394 OA
ATOM     68  H   UNL A   1      33.772  24.435  20.861  1.00  0.00     0.210 HD
ENDBRANCH  66  67
ENDBRANCH  65  66
BRANCH  65  69
ATOM     69  N   UNL A   1      32.114  26.481  23.605  1.00  0.00    -0.259 N 
ATOM     70  C   UNL A   1      33.141  26.863  24.424  1.00  0.00     0.264 C 
ATOM     71  C   UNL A   1      31.275  27.541  23.397  1.00  0.00     0.264 C 
ATOM     72  O   UNL A   1      34.214  26.319  24.589  1.00  0.00    -0.268 OA
ATOM     73  C   UNL A   1      32.766  28.140  25.032  1.00  0.00     0.075 A 
ATOM     74  C   UNL A   1      31.622  28.571  24.384  1.00  0.00     0.075 A 
ATOM     75  O   UNL A   1      30.472  27.712  22.502  1.00  0.00    -0.268 OA
ATOM     76  C   UNL A   1      33.374  28.882  26.031  1.00  0.00     0.074 A 
ATOM     77  C   UNL A   1      31.040  29.793  24.677  1.00  0.00     0.074 A 
ATOM     78  Cl  UNL A   1      34.762  28.274  26.857  1.00  0.00    -0.082 Cl
ATOM     79  C   UNL A   1      32.801  30.126  26.359  1.00  0.00     0.080 A 
ATOM     80  C   UNL A   1      31.641  30.583  25.678  1.00  0.00     0.080 A 
ATOM     81  Cl  UNL A   1      29.619  30.313  23.845  1.00  0.00    -0.082 Cl
ATOM     82  Cl  UNL A   1      33.521  31.100  27.610  1.00  0.00    -0.081 Cl
ATOM     83  Cl  UNL A   1      30.955  32.133  26.081  1.00  0.00    -0.081 Cl
ENDBRANCH  65  69
ENDBRANCH  62  65
ENDBRANCH  60  61
ENDBRANCH  59  60
ENDBRANCH  58  59
ENDBRANCH   1  58
TORSDOF 16
ENDMDL
MODEL 2
REMARK VINA RESULT:     -10.9      2.391      6.732
REMARK SMILES O=C(NCCCCCCNC(=O)[C@@H](CO)N1C(=O)c2c(Cl)c(Cl)c(Cl)c(Cl)c2C1=O)c1ccc(-c2c3nc(c(-c4ccccc4)c4ccc([nH]4)c(-c4ccccc4)c4nc(c(-c5ccccc5)c5ccc2[nH]5)C=C4)C=C3)cc1
REMARK SMILES IDX 6 1 5 2 4 3 3 4 1 5 2 6 31 8 32 9 78 10 33 11 77 12 34 13
REMARK SMILES IDX 35 14 36 15 71 16 37 17 76 18 70 19 72 20 38 21 75 22 69 23
REMARK SMILES IDX 68 24 39 26 61 27 46 28 60 29 47 30 50 31 59 32 73 33 48 34
REMARK SMILES IDX 49 35 58 37 74 38 51 39 40 40 41 41 45 42 42 43 44 44 43 45
REMARK SMILES IDX 62 46 63 47 67 48 64 49 66 50 65 51 52 52 53 53 57 54 54 55
REMARK SMILES IDX 56 56 55 57 7 58 8 59 9 60 10 61 11 62 12 64 13 65 14 66
REMARK SMILES IDX 15 67 16 69 17 70 29 71 18 72 19 73 28 74 30 75 20 76 26 77
REMARK SMILES IDX 21 78 22 79 24 80 27 81 23 82 25 83
REMARK H PARENT 3 7 72 25 50 36 10 63 15 68
REMARK Flexibility Score: inf
ROOT
ATOM      1  C   UNL A   1      36.652  20.783  24.714  1.00  0.00     0.002 C 
ENDROOT
BRANCH   1   2
ATOM      2  C   UNL A   1      37.804  19.790  24.883  1.00  0.00     0.021 C 
BRANCH   2   3
ATOM      3  C   UNL A   1      38.908  20.262  25.820  1.00  0.00     0.116 C 
BRANCH   3   4
ATOM      4  N   UNL A   1      40.016  19.322  25.872  1.00  0.00    -0.352 N 
ATOM      5  O   UNL A   1      42.187  18.701  25.911  1.00  0.00    -0.269 OA
ATOM      6  C   UNL A   1      41.346  19.572  26.098  1.00  0.00     0.251 C 
ATOM      7  H   UNL A   1      39.780  18.378  25.723  1.00  0.00     0.163 HD
BRANCH   6   8
ATOM      8  C   UNL A   1      41.758  20.912  26.559  1.00  0.00     0.039 A 
ATOM      9  C   UNL A   1      42.101  21.904  25.635  1.00  0.00     0.014 A 
ATOM     10  C   UNL A   1      41.789  21.179  27.930  1.00  0.00     0.014 A 
ATOM     11  C   UNL A   1      42.575  23.130  26.083  1.00  0.00     0.010 A 
ATOM     12  C   UNL A   1      42.194  22.437  28.377  1.00  0.00     0.010 A 
ATOM     13  C   UNL A   1      42.605  23.416  27.456  1.00  0.00    -0.014 A 
BRANCH  13  14
ATOM     14  C   UNL A   1      42.982  24.773  27.915  1.00  0.00     0.031 A 
ATOM     15  C   UNL A   1      41.940  25.808  28.220  1.00  0.00     0.074 A 
ATOM     16  C   UNL A   1      44.290  25.069  28.030  1.00  0.00     0.049 A 
ATOM     17  N   UNL A   1      42.104  27.052  28.592  1.00  0.00    -0.248 NA
ATOM     18  C   UNL A   1      40.535  25.400  28.081  1.00  0.00     0.031 C 
ATOM     19  C   UNL A   1      45.391  24.144  27.747  1.00  0.00     0.029 A 
ATOM     20  N   UNL A   1      44.916  26.227  28.410  1.00  0.00    -0.354 N 
ATOM     21  C   UNL A   1      40.827  27.584  28.708  1.00  0.00     0.074 A 
ATOM     22  C   UNL A   1      39.899  26.533  28.348  1.00  0.00     0.031 C 
ATOM     23  C   UNL A   1      46.556  24.765  27.979  1.00  0.00     0.029 A 
ATOM     24  C   UNL A   1      46.286  26.144  28.366  1.00  0.00     0.049 A 
ATOM     25  H   UNL A   1      44.432  27.039  28.685  1.00  0.00     0.167 HD
ATOM     26  C   UNL A   1      40.463  28.835  29.081  1.00  0.00     0.031 A 
ATOM     27  C   UNL A   1      47.226  27.082  28.581  1.00  0.00     0.031 A 
ATOM     28  C   UNL A   1      41.395  29.878  29.427  1.00  0.00     0.049 A 
ATOM     29  C   UNL A   1      46.800  28.468  28.958  1.00  0.00     0.074 A 
ATOM     30  C   UNL A   1      41.127  31.164  29.862  1.00  0.00     0.029 A 
ATOM     31  N   UNL A   1      42.775  29.758  29.359  1.00  0.00    -0.354 N 
ATOM     32  N   UNL A   1      45.588  28.940  29.118  1.00  0.00    -0.248 NA
ATOM     33  C   UNL A   1      47.869  29.449  29.187  1.00  0.00     0.031 C 
ATOM     34  C   UNL A   1      42.344  31.840  30.003  1.00  0.00     0.029 A 
ATOM     35  C   UNL A   1      43.372  30.958  29.712  1.00  0.00     0.049 A 
ATOM     36  H   UNL A   1      43.260  28.942  29.100  1.00  0.00     0.167 HD
ATOM     37  C   UNL A   1      45.746  30.270  29.481  1.00  0.00     0.074 A 
ATOM     38  C   UNL A   1      47.172  30.523  29.533  1.00  0.00     0.031 C 
ATOM     39  C   UNL A   1      44.793  31.196  29.748  1.00  0.00     0.031 A 
BRANCH  26  40
ATOM     40  C   UNL A   1      38.994  29.155  29.090  1.00  0.00    -0.014 A 
ATOM     41  C   UNL A   1      38.322  29.557  27.925  1.00  0.00     0.009 A 
ATOM     42  C   UNL A   1      38.264  29.029  30.283  1.00  0.00     0.009 A 
ATOM     43  C   UNL A   1      36.959  29.867  27.965  1.00  0.00     0.001 A 
ATOM     44  C   UNL A   1      36.897  29.312  30.313  1.00  0.00     0.001 A 
ATOM     45  C   UNL A   1      36.249  29.742  29.158  1.00  0.00     0.000 A 
ENDBRANCH  26  40
BRANCH  27  46
ATOM     46  C   UNL A   1      48.657  26.725  28.412  1.00  0.00    -0.014 A 
ATOM     47  C   UNL A   1      49.404  26.224  29.488  1.00  0.00     0.009 A 
ATOM     48  C   UNL A   1      49.268  26.833  27.151  1.00  0.00     0.009 A 
ATOM     49  C   UNL A   1      50.736  25.846  29.304  1.00  0.00     0.001 A 
ATOM     50  C   UNL A   1      50.589  26.429  26.965  1.00  0.00     0.001 A 
ATOM     51  C   UNL A   1      51.325  25.942  28.044  1.00  0.00     0.000 A 
ENDBRANCH  27  46
BRANCH  39  52
ATOM     52  C   UNL A   1      45.264  32.566  30.144  1.00  0.00    -0.014 A 
ATOM     53  C   UNL A   1      45.542  32.882  31.483  1.00  0.00     0.009 A 
ATOM     54  C   UNL A   1      45.477  33.539  29.155  1.00  0.00     0.009 A 
ATOM     55  C   UNL A   1      46.002  34.155  31.825  1.00  0.00     0.001 A 
ATOM     56  C   UNL A   1      45.962  34.802  29.498  1.00  0.00     0.001 A 
ATOM     57  C   UNL A   1      46.217  35.111  30.832  1.00  0.00     0.000 A 
ENDBRANCH  39  52
ENDBRANCH  13  14
ENDBRANCH   6   8
ENDBRANCH   3   4
ENDBRANCH   2   3
ENDBRANCH   1   2
BRANCH   1  58
ATOM     58  C   UNL A   1      37.056  22.150  24.151  1.00  0.00     0.002 C 
BRANCH  58  59
ATOM     59  C   UNL A   1      35.907  22.958  23.535  1.00  0.00     0.021 C 
BRANCH  59  60
ATOM     60  C   UNL A   1      34.942  23.537  24.566  1.00  0.00     0.116 C 
BRANCH  60  61
ATOM     61  N   UNL A   1      33.572  23.261  24.184  1.00  0.00    -0.354 N 
ATOM     62  C   UNL A   1      32.683  23.999  23.463  1.00  0.00     0.245 C 
ATOM     63  H   UNL A   1      33.224  22.395  24.498  1.00  0.00     0.163 HD
ATOM     64  O   UNL A   1      31.502  23.636  23.497  1.00  0.00    -0.273 OA
BRANCH  62  65
ATOM     65  C   UNL A   1      33.056  25.335  22.790  1.00  0.00     0.208 C 
BRANCH  65  66
ATOM     66  C   UNL A   1      32.901  25.125  21.268  1.00  0.00     0.191 C 
BRANCH  66  67
ATOM     67  O   UNL A   1      32.971  23.749  20.889  1.00  0.00    -0.394 OA
ATOM     68  H   UNL A   1      32.474  23.212  21.527  1.00  0.00     0.210 HD
ENDBRANCH  66  67
ENDBRANCH  65  66
BRANCH  65  69
ATOM     69  N   UNL A   1      32.376  26.508  23.356  1.00  0.00    -0.259 N 
ATOM     70  C   UNL A   1      32.960  27.280  24.323  1.00  0.00     0.264 C 
ATOM     71  C   UNL A   1      31.418  27.236  22.705  1.00  0.00     0.264 C 
ATOM     72  O   UNL A   1      34.021  27.104  24.887  1.00  0.00    -0.268 OA
ATOM     73  C   UNL A   1      32.114  28.457  24.516  1.00  0.00     0.075 A 
ATOM     74  C   UNL A   1      31.170  28.443  23.504  1.00  0.00     0.075 A 
ATOM     75  O   UNL A   1      30.929  27.044  21.610  1.00  0.00    -0.268 OA
ATOM     76  C   UNL A   1      32.170  29.470  25.459  1.00  0.00     0.074 A 
ATOM     77  C   UNL A   1      30.247  29.465  23.358  1.00  0.00     0.074 A 
ATOM     78  Cl  UNL A   1      33.322  29.413  26.743  1.00  0.00    -0.082 Cl
ATOM     79  C   UNL A   1      31.239  30.520  25.344  1.00  0.00     0.080 A 
ATOM     80  C   UNL A   1      30.285  30.521  24.291  1.00  0.00     0.080 A 
ATOM     81  Cl  UNL A   1      29.089  29.429  22.078  1.00  0.00    -0.082 Cl
ATOM     82  Cl  UNL A   1      31.260  31.819  26.504  1.00  0.00    -0.081 Cl
ATOM     83  Cl  UNL A   1      29.153  31.838  24.149  1.00  0.00    -0.081 Cl
ENDBRANCH  65  69
ENDBRANCH  62  65
ENDBRANCH  60  61
ENDBRANCH  59  60
ENDBRANCH  58  59
ENDBRANCH   1  58
TORSDOF 16
ENDMDL
MODEL 3
REMARK VINA RESULT:     -10.9      3.036      8.115
REMARK SMILES O=C(NCCCCCCNC(=O)[C@@H](CO)N1C(=O)c2c(Cl)c(Cl)c(Cl)c(Cl)c2C1=O)c1ccc(-c2c3nc(c(-c4ccccc4)c4ccc([nH]4)c(-c4ccccc4)c4nc(c(-c5ccccc5)c5ccc2[nH]5)C=C4)C=C3)cc1
REMARK SMILES IDX 6 1 5 2 4 3 3 4 1 5 2 6 31 8 32 9 78 10 33 11 77 12 34 13
REMARK SMILES IDX 35 14 36 15 71 16 37 17 76 18 70 19 72 20 38 21 75 22 69 23
REMARK SMILES IDX 68 24 39 26 61 27 46 28 60 29 47 30 50 31 59 32 73 33 48 34
REMARK SMILES IDX 49 35 58 37 74 38 51 39 40 40 41 41 45 42 42 43 44 44 43 45
REMARK SMILES IDX 62 46 63 47 67 48 64 49 66 50 65 51 52 52 53 53 57 54 54 55
REMARK SMILES IDX 56 56 55 57 7 58 8 59 9 60 10 61 11 62 12 64 13 65 14 66
REMARK SMILES IDX 15 67 16 69 17 70 29 71 18 72 19 73 28 74 30 75 20 76 26 77
REMARK SMILES IDX 21 78 22 79 24 80 27 81 23 82 25 83
REMARK H PARENT 3 7 72 25 50 36 10 63 15 68
REMARK Flexibility Score: inf
ROOT
ATOM      1  C   UNL A   1      31.438  30.656  26.019  1.00  0.00     0.002 C 
ENDROOT
BRANCH   1   2
ATOM      2  C   UNL A   1      31.344  32.086  26.555  1.00  0.00     0.021 C 
BRANCH   2   3
ATOM      3  C   UNL A   1      32.654  32.642  27.097  1.00  0.00     0.116 C 
BRANCH   3   4
ATOM      4  N   UNL A   1      32.475  33.941  27.725  1.00  0.00    -0.352 N 
ATOM      5  O   UNL A   1      32.804  35.529  29.296  1.00  0.00    -0.269 OA
ATOM      6  C   UNL A   1      33.202  34.514  28.737  1.00  0.00     0.251 C 
ATOM      7  H   UNL A   1      31.731  34.483  27.377  1.00  0.00     0.163 HD
BRANCH   6   8
ATOM      8  C   UNL A   1      34.468  33.884  29.160  1.00  0.00     0.039 A 
ATOM      9  C   UNL A   1      35.651  34.132  28.456  1.00  0.00     0.014 A 
ATOM     10  C   UNL A   1      34.471  33.049  30.280  1.00  0.00     0.014 A 
ATOM     11  C   UNL A   1      36.815  33.462  28.808  1.00  0.00     0.010 A 
ATOM     12  C   UNL A   1      35.659  32.436  30.677  1.00  0.00     0.010 A 
ATOM     13  C   UNL A   1      36.836  32.626  29.934  1.00  0.00    -0.014 A 
BRANCH  13  14
ATOM     14  C   UNL A   1      38.115  32.026  30.380  1.00  0.00     0.031 A 
ATOM     15  C   UNL A   1      39.005  32.731  31.360  1.00  0.00     0.074 A 
ATOM     16  C   UNL A   1      38.478  30.837  29.864  1.00  0.00     0.049 A 
ATOM     17  N   UNL A   1      40.173  32.362  31.820  1.00  0.00    -0.248 NA
ATOM     18  C   UNL A   1      38.529  34.019  31.884  1.00  0.00     0.031 C 
ATOM     19  C   UNL A   1      37.697  30.066  28.892  1.00  0.00     0.029 A 
ATOM     20  N   UNL A   1      39.593  30.069  30.079  1.00  0.00    -0.354 N 
ATOM     21  C   UNL A   1      40.585  33.381  32.668  1.00  0.00     0.074 A 
ATOM     22  C   UNL A   1      39.550  34.393  32.644  1.00  0.00     0.031 C 
ATOM     23  C   UNL A   1      38.348  28.930  28.608  1.00  0.00     0.029 A 
ATOM     24  C   UNL A   1      39.616  28.921  29.328  1.00  0.00     0.049 A 
ATOM     25  H   UNL A   1      40.308  30.319  30.708  1.00  0.00     0.167 HD
ATOM     26  C   UNL A   1      41.723  33.463  33.399  1.00  0.00     0.031 A 
ATOM     27  C   UNL A   1      40.565  27.977  29.202  1.00  0.00     0.031 A 
ATOM     28  C   UNL A   1      42.752  32.455  33.408  1.00  0.00     0.049 A 
ATOM     29  C   UNL A   1      41.831  28.106  29.995  1.00  0.00     0.074 A 
ATOM     30  C   UNL A   1      43.920  32.422  34.150  1.00  0.00     0.029 A 
ATOM     31  N   UNL A   1      42.744  31.310  32.625  1.00  0.00    -0.354 N 
ATOM     32  N   UNL A   1      42.181  29.048  30.835  1.00  0.00    -0.248 NA
ATOM     33  C   UNL A   1      42.830  27.043  29.823  1.00  0.00     0.031 C 
ATOM     34  C   UNL A   1      44.646  31.287  33.773  1.00  0.00     0.029 A 
ATOM     35  C   UNL A   1      43.903  30.582  32.841  1.00  0.00     0.049 A 
ATOM     36  H   UNL A   1      42.022  31.053  32.008  1.00  0.00     0.167 HD
ATOM     37  C   UNL A   1      43.435  28.687  31.307  1.00  0.00     0.074 A 
ATOM     38  C   UNL A   1      43.775  27.430  30.669  1.00  0.00     0.031 C 
ATOM     39  C   UNL A   1      44.230  29.338  32.189  1.00  0.00     0.031 A 
BRANCH  26  40
ATOM     40  C   UNL A   1      41.932  34.707  34.217  1.00  0.00    -0.014 A 
ATOM     41  C   UNL A   1      41.514  34.787  35.555  1.00  0.00     0.009 A 
ATOM     42  C   UNL A   1      42.583  35.813  33.644  1.00  0.00     0.009 A 
ATOM     43  C   UNL A   1      41.704  35.962  36.287  1.00  0.00     0.001 A 
ATOM     44  C   UNL A   1      42.797  36.975  34.388  1.00  0.00     0.001 A 
ATOM     45  C   UNL A   1      42.347  37.053  35.704  1.00  0.00     0.000 A 
ENDBRANCH  26  40
BRANCH  27  46
ATOM     46  C   UNL A   1      40.345  26.848  28.263  1.00  0.00    -0.014 A 
ATOM     47  C   UNL A   1      39.611  25.720  28.657  1.00  0.00     0.009 A 
ATOM     48  C   UNL A   1      40.825  26.922  26.946  1.00  0.00     0.009 A 
ATOM     49  C   UNL A   1      39.370  24.685  27.750  1.00  0.00     0.001 A 
ATOM     50  C   UNL A   1      40.559  25.901  26.034  1.00  0.00     0.001 A 
ATOM     51  C   UNL A   1      39.837  24.780  26.439  1.00  0.00     0.000 A 
ENDBRANCH  27  46
BRANCH  39  52
ATOM     52  C   UNL A   1      45.540  28.690  32.536  1.00  0.00    -0.014 A 
ATOM     53  C   UNL A   1      45.637  27.758  33.582  1.00  0.00     0.009 A 
ATOM     54  C   UNL A   1      46.682  28.982  31.774  1.00  0.00     0.009 A 
ATOM     55  C   UNL A   1      46.859  27.150  33.872  1.00  0.00     0.001 A 
ATOM     56  C   UNL A   1      47.896  28.352  32.050  1.00  0.00     0.001 A 
ATOM     57  C   UNL A   1      47.986  27.442  33.102  1.00  0.00     0.000 A 
ENDBRANCH  39  52
ENDBRANCH  13  14
ENDBRANCH   6   8
ENDBRANCH   3   4
ENDBRANCH   2   3
ENDBRANCH   1   2
BRANCH   1  58
ATOM     58  C   UNL A   1      32.168  29.670  26.938  1.00  0.00     0.002 C 
BRANCH  58  59
ATOM     59  C   UNL A   1      31.621  28.237  26.909  1.00  0.00     0.021 C 
BRANCH  59  60
ATOM     60  C   UNL A   1      32.458  27.277  26.067  1.00  0.00     0.116 C 
BRANCH  60  61
ATOM     61  N   UNL A   1      31.620  26.585  25.109  1.00  0.00    -0.354 N 
ATOM     62  C   UNL A   1      31.247  25.277  25.035  1.00  0.00     0.245 C 
ATOM     63  H   UNL A   1      31.258  27.155  24.392  1.00  0.00     0.163 HD
ATOM     64  O   UNL A   1      30.728  24.906  23.975  1.00  0.00    -0.273 OA
BRANCH  62  65
ATOM     65  C   UNL A   1      31.614  24.239  26.114  1.00  0.00     0.208 C 
BRANCH  65  66
ATOM     66  C   UNL A   1      30.288  23.762  26.742  1.00  0.00     0.191 C 
BRANCH  66  67
ATOM     67  O   UNL A   1      29.248  24.738  26.651  1.00  0.00    -0.394 OA
ATOM     68  H   UNL A   1      28.731  24.739  27.473  1.00  0.00     0.210 HD
ENDBRANCH  66  67
ENDBRANCH  65  66
BRANCH  65  69
ATOM     69  N   UNL A   1      32.531  23.187  25.654  1.00  0.00    -0.259 N 
ATOM     70  C   UNL A   1      33.879  23.262  25.874  1.00  0.00     0.264 C 
ATOM     71  C   UNL A   1      32.171  21.883  25.450  1.00  0.00     0.264 C 
ATOM     72  O   UNL A   1      34.510  24.168  26.379  1.00  0.00    -0.268 OA
ATOM     73  C   UNL A   1      34.461  21.982  25.472  1.00  0.00     0.075 A 
ATOM     74  C   UNL A   1      33.406  21.120  25.228  1.00  0.00     0.075 A 
ATOM     75  O   UNL A   1      31.075  21.370  25.556  1.00  0.00    -0.268 OA
ATOM     76  C   UNL A   1      35.782  21.582  25.357  1.00  0.00     0.074 A 
ATOM     77  C   UNL A   1      33.615  19.794  24.889  1.00  0.00     0.074 A 
ATOM     78  Cl  UNL A   1      37.066  22.708  25.607  1.00  0.00    -0.082 Cl
ATOM     79  C   UNL A   1      36.029  20.241  25.005  1.00  0.00     0.080 A 
ATOM     80  C   UNL A   1      34.948  19.348  24.779  1.00  0.00     0.080 A 
ATOM     81  Cl  UNL A   1      32.280  18.737  24.603  1.00  0.00    -0.082 Cl
ATOM     82  Cl  UNL A   1      37.671  19.684  24.842  1.00  0.00    -0.081 Cl
ATOM     83  Cl  UNL A   1      35.270  17.686  24.364  1.00  0.00    -0.081 Cl
ENDBRANCH  65  69
ENDBRANCH  62  65
ENDBRANCH  60  61
ENDBRANCH  59  60
ENDBRANCH  58  59
ENDBRANCH   1  58
TORSDOF 16
ENDMDL
