MODEL 1
REMARK VINA RESULT:     -11.1      0.000      0.000
REMARK SMILES Cc1cccc([C@@H](CCC[C@@H]2CCCO2)C(=O)NCCCCCCNC(=O)c2ccc(-c3c4nc(c(-c5ccccc5)c5ccc([nH]5)c(-c5ccccc5)c5nc(c(-c6ccccc6)c6ccc3[nH]6)C=C5)C=C4)cc2)c1
REMARK SMILES IDX 20 1 19 2 18 3 16 4 17 5 7 7 6 8 1 9 2 10 3 11 76 12 4 13
REMARK SMILES IDX 5 14 8 15 9 16 10 17 11 18 12 19 15 20 13 21 14 22 21 23
REMARK SMILES IDX 22 24 23 25 24 26 25 27 26 28 27 30 28 31 29 32 75 33 30 34
REMARK SMILES IDX 74 35 31 36 32 37 33 38 68 39 34 40 73 41 67 42 69 43 35 44
REMARK SMILES IDX 72 45 66 46 65 47 36 49 58 50 43 51 57 52 44 53 47 54 56 55
REMARK SMILES IDX 70 56 45 57 46 58 55 60 71 61 48 62 37 63 38 64 42 65 39 66
REMARK SMILES IDX 41 67 40 68 59 69 60 70 64 71 61 72 63 73 62 74 49 75 50 76
REMARK SMILES IDX 54 77 51 78 53 79 52 80
REMARK H PARENT 18 6 25 29 69 48 47 59
REMARK Flexibility Score: inf
ROOT
ATOM      1  C   UNL A   1      33.732  26.332  25.179  1.00  0.00     0.021 C 
ENDROOT
BRANCH   1   2
ATOM      2  C   UNL A   1      32.422  25.557  25.117  1.00  0.00     0.116 C 
BRANCH   2   3
ATOM      3  N   UNL A   1      32.273  24.469  26.048  1.00  0.00    -0.356 N 
ATOM      4  C   UNL A   1      33.009  23.325  26.157  1.00  0.00     0.227 C 
ATOM      5  O   UNL A   1      32.990  22.770  27.264  1.00  0.00    -0.274 OA
ATOM      6  H   UNL A   1      31.537  24.565  26.696  1.00  0.00     0.163 HD
BRANCH   4   7
ATOM      7  C   UNL A   1      33.770  22.669  24.983  1.00  0.00     0.108 C 
BRANCH   7   8
ATOM      8  C   UNL A   1      35.270  22.511  25.251  1.00  0.00    -0.035 A 
ATOM      9  C   UNL A   1      37.839  19.687  24.875  1.00  0.00     0.044 C 
ATOM     10  C   UNL A   1      37.241  21.038  25.139  1.00  0.00    -0.051 A 
ATOM     11  C   UNL A   1      38.055  22.109  25.502  1.00  0.00     0.003 A 
ATOM     12  C   UNL A   1      35.864  21.255  24.991  1.00  0.00     0.008 A 
ATOM     13  C   UNL A   1      37.492  23.352  25.778  1.00  0.00     0.001 A 
ATOM     14  C   UNL A   1      36.110  23.544  25.680  1.00  0.00     0.004 A 
ENDBRANCH   7   8
BRANCH   7  15
ATOM     15  C   UNL A   1      33.038  21.667  24.050  1.00  0.00     0.018 C 
BRANCH  15  16
ATOM     16  C   UNL A   1      32.276  20.444  24.569  1.00  0.00     0.004 C 
BRANCH  16  17
ATOM     17  C   UNL A   1      32.632  19.092  23.950  1.00  0.00     0.032 C 
BRANCH  17  18
ATOM     18  C   UNL A   1      33.391  18.051  24.755  1.00  0.00     0.118 C 
ATOM     19  C   UNL A   1      34.636  17.450  24.141  1.00  0.00     0.034 C 
ATOM     20  O   UNL A   1      32.547  16.946  25.099  1.00  0.00    -0.378 OA
ATOM     21  C   UNL A   1      34.810  16.236  25.025  1.00  0.00     0.031 C 
ATOM     22  C   UNL A   1      33.377  15.784  25.238  1.00  0.00     0.160 C 
ENDBRANCH  17  18
ENDBRANCH  16  17
ENDBRANCH  15  16
ENDBRANCH   7  15
ENDBRANCH   4   7
ENDBRANCH   2   3
ENDBRANCH   1   2
BRANCH   1  23
ATOM     23  C   UNL A   1      33.729  27.520  26.162  1.00  0.00     0.002 C 
BRANCH  23  24
ATOM     24  C   UNL A   1      34.051  28.931  25.617  1.00  0.00     0.002 C 
BRANCH  24  25
ATOM     25  C   UNL A   1      33.424  30.127  26.339  1.00  0.00     0.021 C 
BRANCH  25  26
ATOM     26  C   UNL A   1      33.615  30.113  27.846  1.00  0.00     0.116 C 
BRANCH  26  27
ATOM     27  N   UNL A   1      34.354  31.259  28.368  1.00  0.00    -0.352 N 
ATOM     28  C   UNL A   1      35.671  31.307  28.797  1.00  0.00     0.251 C 
ATOM     29  H   UNL A   1      33.854  32.106  28.420  1.00  0.00     0.163 HD
ATOM     30  O   UNL A   1      36.162  32.340  29.219  1.00  0.00    -0.269 OA
BRANCH  28  31
ATOM     31  C   UNL A   1      36.508  30.099  28.610  1.00  0.00     0.039 A 
ATOM     32  C   UNL A   1      36.753  29.310  29.736  1.00  0.00     0.014 A 
ATOM     33  C   UNL A   1      37.258  29.941  27.446  1.00  0.00     0.014 A 
ATOM     34  C   UNL A   1      37.922  28.561  29.788  1.00  0.00     0.010 A 
ATOM     35  C   UNL A   1      38.462  29.271  27.529  1.00  0.00     0.010 A 
ATOM     36  C   UNL A   1      38.828  28.654  28.731  1.00  0.00    -0.014 A 
BRANCH  36  37
ATOM     37  C   UNL A   1      40.228  28.274  28.872  1.00  0.00     0.031 A 
ATOM     38  C   UNL A   1      40.709  26.979  28.366  1.00  0.00     0.074 A 
ATOM     39  C   UNL A   1      41.094  29.118  29.476  1.00  0.00     0.049 A 
ATOM     40  N   UNL A   1      41.726  26.346  28.849  1.00  0.00    -0.248 NA
ATOM     41  C   UNL A   1      40.027  26.259  27.300  1.00  0.00     0.031 C 
ATOM     42  C   UNL A   1      42.550  29.026  29.518  1.00  0.00     0.029 A 
ATOM     43  N   UNL A   1      40.784  30.121  30.389  1.00  0.00    -0.354 N 
ATOM     44  C   UNL A   1      42.011  25.315  27.986  1.00  0.00     0.074 A 
ATOM     45  C   UNL A   1      40.870  25.243  27.100  1.00  0.00     0.031 C 
ATOM     46  C   UNL A   1      42.997  29.742  30.563  1.00  0.00     0.029 A 
ATOM     47  C   UNL A   1      41.837  30.197  31.310  1.00  0.00     0.049 A 
ATOM     48  H   UNL A   1      39.971  30.676  30.389  1.00  0.00     0.167 HD
ATOM     49  C   UNL A   1      43.245  24.739  28.013  1.00  0.00     0.031 A 
ATOM     50  C   UNL A   1      41.624  29.958  32.637  1.00  0.00     0.031 A 
ATOM     51  C   UNL A   1      44.070  25.255  29.107  1.00  0.00     0.049 A 
ATOM     52  C   UNL A   1      42.390  28.771  33.182  1.00  0.00     0.074 A 
ATOM     53  C   UNL A   1      45.115  26.164  29.162  1.00  0.00     0.029 A 
ATOM     54  N   UNL A   1      43.665  25.048  30.421  1.00  0.00    -0.354 N 
ATOM     55  N   UNL A   1      42.969  27.864  32.444  1.00  0.00    -0.248 NA
ATOM     56  C   UNL A   1      42.517  28.490  34.609  1.00  0.00     0.031 C 
ATOM     57  C   UNL A   1      45.301  26.542  30.519  1.00  0.00     0.029 A 
ATOM     58  C   UNL A   1      44.387  25.845  31.289  1.00  0.00     0.049 A 
ATOM     59  H   UNL A   1      42.960  24.418  30.697  1.00  0.00     0.167 HD
ATOM     60  C   UNL A   1      43.512  26.892  33.248  1.00  0.00     0.074 A 
ATOM     61  C   UNL A   1      43.224  27.346  34.596  1.00  0.00     0.031 C 
ATOM     62  C   UNL A   1      44.130  25.791  32.724  1.00  0.00     0.031 A 
BRANCH  49  63
ATOM     63  C   UNL A   1      43.794  23.943  26.850  1.00  0.00    -0.014 A 
ATOM     64  C   UNL A   1      44.618  24.574  25.898  1.00  0.00     0.009 A 
ATOM     65  C   UNL A   1      43.480  22.598  26.589  1.00  0.00     0.009 A 
ATOM     66  C   UNL A   1      45.002  23.939  24.708  1.00  0.00     0.001 A 
ATOM     67  C   UNL A   1      43.822  21.970  25.383  1.00  0.00     0.001 A 
ATOM     68  C   UNL A   1      44.573  22.647  24.434  1.00  0.00     0.000 A 
ENDBRANCH  49  63
BRANCH  50  69
ATOM     69  C   UNL A   1      40.280  30.384  33.116  1.00  0.00    -0.014 A 
ATOM     70  C   UNL A   1      39.981  31.762  33.134  1.00  0.00     0.009 A 
ATOM     71  C   UNL A   1      39.223  29.470  33.214  1.00  0.00     0.009 A 
ATOM     72  C   UNL A   1      38.656  32.208  33.136  1.00  0.00     0.001 A 
ATOM     73  C   UNL A   1      37.897  29.921  33.227  1.00  0.00     0.001 A 
ATOM     74  C   UNL A   1      37.615  31.286  33.153  1.00  0.00     0.000 A 
ENDBRANCH  50  69
BRANCH  62  75
ATOM     75  C   UNL A   1      44.611  24.567  33.481  1.00  0.00    -0.014 A 
ATOM     76  C   UNL A   1      43.814  23.471  33.838  1.00  0.00     0.009 A 
ATOM     77  C   UNL A   1      45.991  24.450  33.777  1.00  0.00     0.009 A 
ATOM     78  C   UNL A   1      44.352  22.349  34.486  1.00  0.00     0.001 A 
ATOM     79  C   UNL A   1      46.541  23.316  34.380  1.00  0.00     0.001 A 
ATOM     80  C   UNL A   1      45.716  22.266  34.747  1.00  0.00     0.000 A 
ENDBRANCH  62  75
ENDBRANCH  36  37
ENDBRANCH  28  31
ENDBRANCH  26  27
ENDBRANCH  25  26
ENDBRANCH  24  25
ENDBRANCH  23  24
ENDBRANCH   1  23
TORSDOF 18
ENDMDL
MODEL 2
REMARK VINA RESULT:     -10.8      2.904      5.488
REMARK SMILES Cc1cccc([C@@H](CCC[C@@H]2CCCO2)C(=O)NCCCCCCNC(=O)c2ccc(-c3c4nc(c(-c5ccccc5)c5ccc([nH]5)c(-c5ccccc5)c5nc(c(-c6ccccc6)c6ccc3[nH]6)C=C5)C=C4)cc2)c1
REMARK SMILES IDX 20 1 19 2 18 3 16 4 17 5 7 7 6 8 1 9 2 10 3 11 76 12 4 13
REMARK SMILES IDX 5 14 8 15 9 16 10 17 11 18 12 19 15 20 13 21 14 22 21 23
REMARK SMILES IDX 22 24 23 25 24 26 25 27 26 28 27 30 28 31 29 32 75 33 30 34
REMARK SMILES IDX 74 35 31 36 32 37 33 38 68 39 34 40 73 41 67 42 69 43 35 44
REMARK SMILES IDX 72 45 66 46 65 47 36 49 58 50 43 51 57 52 44 53 47 54 56 55
REMARK SMILES IDX 70 56 45 57 46 58 55 60 71 61 48 62 37 63 38 64 42 65 39 66
REMARK SMILES IDX 41 67 40 68 59 69 60 70 64 71 61 72 63 73 62 74 49 75 50 76
REMARK SMILES IDX 54 77 51 78 53 79 52 80
REMARK H PARENT 18 6 25 29 69 48 47 59
REMARK Flexibility Score: inf
ROOT
ATOM      1  C   UNL A   1      31.986  28.945  26.814  1.00  0.00     0.021 C 
ENDROOT
BRANCH   1   2
ATOM      2  C   UNL A   1      32.004  27.447  27.093  1.00  0.00     0.116 C 
BRANCH   2   3
ATOM      3  N   UNL A   1      31.062  26.644  26.359  1.00  0.00    -0.356 N 
ATOM      4  C   UNL A   1      31.252  25.933  25.209  1.00  0.00     0.227 C 
ATOM      5  O   UNL A   1      30.465  24.996  25.013  1.00  0.00    -0.274 OA
ATOM      6  H   UNL A   1      30.155  26.600  26.741  1.00  0.00     0.163 HD
BRANCH   4   7
ATOM      7  C   UNL A   1      32.310  26.282  24.138  1.00  0.00     0.108 C 
BRANCH   7   8
ATOM      8  C   UNL A   1      33.355  25.180  23.941  1.00  0.00    -0.035 A 
ATOM      9  C   UNL A   1      36.408  23.918  25.892  1.00  0.00     0.044 C 
ATOM     10  C   UNL A   1      35.328  24.023  24.855  1.00  0.00    -0.051 A 
ATOM     11  C   UNL A   1      35.240  23.079  23.834  1.00  0.00     0.003 A 
ATOM     12  C   UNL A   1      34.371  25.046  24.914  1.00  0.00     0.008 A 
ATOM     13  C   UNL A   1      34.257  23.198  22.855  1.00  0.00     0.001 A 
ATOM     14  C   UNL A   1      33.340  24.255  22.893  1.00  0.00     0.004 A 
ENDBRANCH   7   8
BRANCH   7  15
ATOM     15  C   UNL A   1      31.936  27.218  22.957  1.00  0.00     0.018 C 
BRANCH  15  16
ATOM     16  C   UNL A   1      31.571  28.694  23.142  1.00  0.00     0.004 C 
BRANCH  16  17
ATOM     17  C   UNL A   1      30.099  29.017  23.395  1.00  0.00     0.032 C 
BRANCH  17  18
ATOM     18  C   UNL A   1      29.469  30.263  22.795  1.00  0.00     0.118 C 
ATOM     19  C   UNL A   1      28.174  30.761  23.397  1.00  0.00     0.034 C 
ATOM     20  O   UNL A   1      29.214  30.091  21.396  1.00  0.00    -0.378 OA
ATOM     21  C   UNL A   1      27.708  31.688  22.297  1.00  0.00     0.031 C 
ATOM     22  C   UNL A   1      28.100  30.926  21.045  1.00  0.00     0.160 C 
ENDBRANCH  17  18
ENDBRANCH  16  17
ENDBRANCH  15  16
ENDBRANCH   7  15
ENDBRANCH   4   7
ENDBRANCH   2   3
ENDBRANCH   1   2
BRANCH   1  23
ATOM     23  C   UNL A   1      33.302  29.508  26.241  1.00  0.00     0.002 C 
BRANCH  23  24
ATOM     24  C   UNL A   1      34.609  29.286  27.038  1.00  0.00     0.002 C 
BRANCH  24  25
ATOM     25  C   UNL A   1      34.927  30.276  28.162  1.00  0.00     0.021 C 
BRANCH  25  26
ATOM     26  C   UNL A   1      35.119  31.708  27.694  1.00  0.00     0.116 C 
BRANCH  26  27
ATOM     27  N   UNL A   1      34.144  32.652  28.232  1.00  0.00    -0.352 N 
ATOM     28  C   UNL A   1      34.255  33.451  29.360  1.00  0.00     0.251 C 
ATOM     29  H   UNL A   1      33.300  32.732  27.731  1.00  0.00     0.163 HD
ATOM     30  O   UNL A   1      33.352  34.195  29.700  1.00  0.00    -0.269 OA
BRANCH  28  31
ATOM     31  C   UNL A   1      35.556  33.474  30.070  1.00  0.00     0.039 A 
ATOM     32  C   UNL A   1      36.613  34.139  29.445  1.00  0.00     0.014 A 
ATOM     33  C   UNL A   1      35.781  32.615  31.144  1.00  0.00     0.014 A 
ATOM     34  C   UNL A   1      37.914  33.731  29.716  1.00  0.00     0.010 A 
ATOM     35  C   UNL A   1      37.064  32.147  31.349  1.00  0.00     0.010 A 
ATOM     36  C   UNL A   1      38.114  32.648  30.573  1.00  0.00    -0.014 A 
BRANCH  36  37
ATOM     37  C   UNL A   1      39.357  31.885  30.582  1.00  0.00     0.031 A 
ATOM     38  C   UNL A   1      39.457  30.606  29.863  1.00  0.00     0.074 A 
ATOM     39  C   UNL A   1      40.428  32.356  31.258  1.00  0.00     0.049 A 
ATOM     40  N   UNL A   1      40.263  29.652  30.191  1.00  0.00    -0.248 NA
ATOM     41  C   UNL A   1      38.592  30.275  28.739  1.00  0.00     0.031 C 
ATOM     42  C   UNL A   1      41.802  31.867  31.209  1.00  0.00     0.029 A 
ATOM     43  N   UNL A   1      40.416  33.247  32.326  1.00  0.00    -0.354 N 
ATOM     44  C   UNL A   1      40.244  28.733  29.169  1.00  0.00     0.074 A 
ATOM     45  C   UNL A   1      39.119  29.114  28.344  1.00  0.00     0.031 C 
ATOM     46  C   UNL A   1      42.440  32.259  32.324  1.00  0.00     0.029 A 
ATOM     47  C   UNL A   1      41.458  32.888  33.191  1.00  0.00     0.049 A 
ATOM     48  H   UNL A   1      39.788  33.995  32.452  1.00  0.00     0.167 HD
ATOM     49  C   UNL A   1      41.272  27.847  29.045  1.00  0.00     0.031 A 
ATOM     50  C   UNL A   1      41.200  32.509  34.477  1.00  0.00     0.031 A 
ATOM     51  C   UNL A   1      42.217  27.939  30.159  1.00  0.00     0.049 A 
ATOM     52  C   UNL A   1      41.613  31.087  34.796  1.00  0.00     0.074 A 
ATOM     53  C   UNL A   1      43.473  28.510  30.294  1.00  0.00     0.029 A 
ATOM     54  N   UNL A   1      41.783  27.644  31.446  1.00  0.00    -0.354 N 
ATOM     55  N   UNL A   1      41.912  30.186  33.902  1.00  0.00    -0.248 NA
ATOM     56  C   UNL A   1      41.671  30.561  36.156  1.00  0.00     0.031 C 
ATOM     57  C   UNL A   1      43.770  28.603  31.680  1.00  0.00     0.029 A 
ATOM     58  C   UNL A   1      42.706  28.068  32.384  1.00  0.00     0.049 A 
ATOM     59  H   UNL A   1      40.935  27.194  31.662  1.00  0.00     0.167 HD
ATOM     60  C   UNL A   1      42.173  28.989  34.521  1.00  0.00     0.074 A 
ATOM     61  C   UNL A   1      42.034  29.285  35.936  1.00  0.00     0.031 C 
ATOM     62  C   UNL A   1      42.458  27.858  33.807  1.00  0.00     0.031 A 
BRANCH  49  63
ATOM     63  C   UNL A   1      41.568  27.126  27.748  1.00  0.00    -0.014 A 
ATOM     64  C   UNL A   1      41.475  25.723  27.691  1.00  0.00     0.009 A 
ATOM     65  C   UNL A   1      42.017  27.756  26.575  1.00  0.00     0.009 A 
ATOM     66  C   UNL A   1      41.913  24.992  26.578  1.00  0.00     0.001 A 
ATOM     67  C   UNL A   1      42.499  27.033  25.474  1.00  0.00     0.001 A 
ATOM     68  C   UNL A   1      42.460  25.647  25.482  1.00  0.00     0.000 A 
ENDBRANCH  49  63
BRANCH  50  69
ATOM     69  C   UNL A   1      40.031  33.202  35.085  1.00  0.00    -0.014 A 
ATOM     70  C   UNL A   1      38.768  32.579  35.010  1.00  0.00     0.009 A 
ATOM     71  C   UNL A   1      40.206  34.249  35.999  1.00  0.00     0.009 A 
ATOM     72  C   UNL A   1      37.747  32.918  35.902  1.00  0.00     0.001 A 
ATOM     73  C   UNL A   1      39.176  34.593  36.885  1.00  0.00     0.001 A 
ATOM     74  C   UNL A   1      37.962  33.906  36.858  1.00  0.00     0.000 A 
ENDBRANCH  50  69
BRANCH  62  75
ATOM     75  C   UNL A   1      42.589  26.446  34.346  1.00  0.00    -0.014 A 
ATOM     76  C   UNL A   1      41.645  25.796  35.151  1.00  0.00     0.009 A 
ATOM     77  C   UNL A   1      43.697  25.664  33.937  1.00  0.00     0.009 A 
ATOM     78  C   UNL A   1      41.815  24.464  35.557  1.00  0.00     0.001 A 
ATOM     79  C   UNL A   1      43.849  24.323  34.299  1.00  0.00     0.001 A 
ATOM     80  C   UNL A   1      42.911  23.725  35.123  1.00  0.00     0.000 A 
ENDBRANCH  62  75
ENDBRANCH  36  37
ENDBRANCH  28  31
ENDBRANCH  26  27
ENDBRANCH  25  26
ENDBRANCH  24  25
ENDBRANCH  23  24
ENDBRANCH   1  23
TORSDOF 18
ENDMDL
MODEL 3
REMARK VINA RESULT:     -10.7      1.248      2.615
REMARK SMILES Cc1cccc([C@@H](CCC[C@@H]2CCCO2)C(=O)NCCCCCCNC(=O)c2ccc(-c3c4nc(c(-c5ccccc5)c5ccc([nH]5)c(-c5ccccc5)c5nc(c(-c6ccccc6)c6ccc3[nH]6)C=C5)C=C4)cc2)c1
REMARK SMILES IDX 20 1 19 2 18 3 16 4 17 5 7 7 6 8 1 9 2 10 3 11 76 12 4 13
REMARK SMILES IDX 5 14 8 15 9 16 10 17 11 18 12 19 15 20 13 21 14 22 21 23
REMARK SMILES IDX 22 24 23 25 24 26 25 27 26 28 27 30 28 31 29 32 75 33 30 34
REMARK SMILES IDX 74 35 31 36 32 37 33 38 68 39 34 40 73 41 67 42 69 43 35 44
REMARK SMILES IDX 72 45 66 46 65 47 36 49 58 50 43 51 57 52 44 53 47 54 56 55
REMARK SMILES IDX 70 56 45 57 46 58 55 60 71 61 48 62 37 63 38 64 42 65 39 66
REMARK SMILES IDX 41 67 40 68 59 69 60 70 64 71 61 72 63 73 62 74 49 75 50 76
REMARK SMILES IDX 54 77 51 78 53 79 52 80
REMARK H PARENT 18 6 25 29 69 48 47 59
REMARK Flexibility Score: inf
ROOT
ATOM      1  C   UNL A   1      33.385  27.206  26.039  1.00  0.00     0.021 C 
ENDROOT
BRANCH   1   2
ATOM      2  C   UNL A   1      33.068  25.721  25.924  1.00  0.00     0.116 C 
BRANCH   2   3
ATOM      3  N   UNL A   1      31.681  25.349  26.013  1.00  0.00    -0.356 N 
ATOM      4  C   UNL A   1      31.129  24.198  26.497  1.00  0.00     0.227 C 
ATOM      5  O   UNL A   1      29.952  24.277  26.876  1.00  0.00    -0.274 OA
ATOM      6  H   UNL A   1      31.041  26.019  25.678  1.00  0.00     0.163 HD
BRANCH   4   7
ATOM      7  C   UNL A   1      31.851  22.832  26.517  1.00  0.00     0.108 C 
BRANCH   7   8
ATOM      8  C   UNL A   1      32.014  22.216  25.124  1.00  0.00    -0.035 A 
ATOM      9  C   UNL A   1      32.594  18.685  23.740  1.00  0.00     0.044 C 
ATOM     10  C   UNL A   1      32.332  20.161  23.803  1.00  0.00    -0.051 A 
ATOM     11  C   UNL A   1      32.139  20.892  22.632  1.00  0.00     0.003 A 
ATOM     12  C   UNL A   1      32.241  20.824  25.035  1.00  0.00     0.008 A 
ATOM     13  C   UNL A   1      31.929  22.267  22.693  1.00  0.00     0.001 A 
ATOM     14  C   UNL A   1      31.894  22.927  23.926  1.00  0.00     0.004 A 
ENDBRANCH   7   8
BRANCH   7  15
ATOM     15  C   UNL A   1      32.887  22.521  27.630  1.00  0.00     0.018 C 
BRANCH  15  16
ATOM     16  C   UNL A   1      34.360  22.216  27.340  1.00  0.00     0.004 C 
BRANCH  16  17
ATOM     17  C   UNL A   1      35.220  23.374  26.836  1.00  0.00     0.032 C 
BRANCH  17  18
ATOM     18  C   UNL A   1      36.149  23.185  25.648  1.00  0.00     0.118 C 
ATOM     19  C   UNL A   1      35.544  23.234  24.262  1.00  0.00     0.034 C 
ATOM     20  O   UNL A   1      36.847  21.937  25.730  1.00  0.00    -0.378 OA
ATOM     21  C   UNL A   1      36.662  22.607  23.461  1.00  0.00     0.031 C 
ATOM     22  C   UNL A   1      37.153  21.514  24.393  1.00  0.00     0.160 C 
ENDBRANCH  17  18
ENDBRANCH  16  17
ENDBRANCH  15  16
ENDBRANCH   7  15
ENDBRANCH   4   7
ENDBRANCH   2   3
ENDBRANCH   1   2
BRANCH   1  23
ATOM     23  C   UNL A   1      32.148  28.128  26.043  1.00  0.00     0.002 C 
BRANCH  23  24
ATOM     24  C   UNL A   1      31.906  29.034  27.272  1.00  0.00     0.002 C 
BRANCH  24  25
ATOM     25  C   UNL A   1      32.471  30.457  27.222  1.00  0.00     0.021 C 
BRANCH  25  26
ATOM     26  C   UNL A   1      33.989  30.523  27.206  1.00  0.00     0.116 C 
BRANCH  26  27
ATOM     27  N   UNL A   1      34.560  31.452  28.177  1.00  0.00    -0.352 N 
ATOM     28  C   UNL A   1      35.694  31.288  28.957  1.00  0.00     0.251 C 
ATOM     29  H   UNL A   1      34.078  32.303  28.292  1.00  0.00     0.163 HD
ATOM     30  O   UNL A   1      36.055  32.152  29.738  1.00  0.00    -0.269 OA
BRANCH  28  31
ATOM     31  C   UNL A   1      36.532  30.088  28.723  1.00  0.00     0.039 A 
ATOM     32  C   UNL A   1      36.784  29.262  29.820  1.00  0.00     0.014 A 
ATOM     33  C   UNL A   1      37.274  29.972  27.550  1.00  0.00     0.014 A 
ATOM     34  C   UNL A   1      37.955  28.513  29.840  1.00  0.00     0.010 A 
ATOM     35  C   UNL A   1      38.480  29.301  27.603  1.00  0.00     0.010 A 
ATOM     36  C   UNL A   1      38.854  28.644  28.780  1.00  0.00    -0.014 A 
BRANCH  36  37
ATOM     37  C   UNL A   1      40.256  28.262  28.900  1.00  0.00     0.031 A 
ATOM     38  C   UNL A   1      40.727  26.966  28.388  1.00  0.00     0.074 A 
ATOM     39  C   UNL A   1      41.132  29.106  29.488  1.00  0.00     0.049 A 
ATOM     40  N   UNL A   1      41.750  26.332  28.855  1.00  0.00    -0.248 NA
ATOM     41  C   UNL A   1      40.027  26.245  27.334  1.00  0.00     0.031 C 
ATOM     42  C   UNL A   1      42.589  29.012  29.508  1.00  0.00     0.029 A 
ATOM     43  N   UNL A   1      40.839  30.110  30.405  1.00  0.00    -0.354 N 
ATOM     44  C   UNL A   1      42.019  25.299  27.989  1.00  0.00     0.074 A 
ATOM     45  C   UNL A   1      40.865  25.227  27.122  1.00  0.00     0.031 C 
ATOM     46  C   UNL A   1      43.054  29.728  30.544  1.00  0.00     0.029 A 
ATOM     47  C   UNL A   1      41.907  30.187  31.309  1.00  0.00     0.049 A 
ATOM     48  H   UNL A   1      40.027  30.667  30.417  1.00  0.00     0.167 HD
ATOM     49  C   UNL A   1      43.253  24.721  27.998  1.00  0.00     0.031 A 
ATOM     50  C   UNL A   1      41.715  29.949  32.639  1.00  0.00     0.031 A 
ATOM     51  C   UNL A   1      44.096  25.237  29.078  1.00  0.00     0.049 A 
ATOM     52  C   UNL A   1      42.487  28.762  33.173  1.00  0.00     0.074 A 
ATOM     53  C   UNL A   1      45.143  26.145  29.115  1.00  0.00     0.029 A 
ATOM     54  N   UNL A   1      43.712  25.032  30.399  1.00  0.00    -0.354 N 
ATOM     55  N   UNL A   1      43.053  27.853  32.428  1.00  0.00    -0.248 NA
ATOM     56  C   UNL A   1      42.637  28.483  34.599  1.00  0.00     0.031 C 
ATOM     57  C   UNL A   1      45.352  26.524  30.468  1.00  0.00     0.029 A 
ATOM     58  C   UNL A   1      44.450  25.830  31.253  1.00  0.00     0.049 A 
ATOM     59  H   UNL A   1      43.010  24.404  30.686  1.00  0.00     0.167 HD
ATOM     60  C   UNL A   1      43.607  26.882  33.224  1.00  0.00     0.074 A 
ATOM     61  C   UNL A   1      43.341  27.338  34.577  1.00  0.00     0.031 C 
ATOM     62  C   UNL A   1      44.215  25.778  32.693  1.00  0.00     0.031 A 
BRANCH  49  63
ATOM     63  C   UNL A   1      43.782  23.922  26.827  1.00  0.00    -0.014 A 
ATOM     64  C   UNL A   1      44.534  24.565  25.826  1.00  0.00     0.009 A 
ATOM     65  C   UNL A   1      43.514  22.560  26.609  1.00  0.00     0.009 A 
ATOM     66  C   UNL A   1      44.891  23.921  24.633  1.00  0.00     0.001 A 
ATOM     67  C   UNL A   1      43.827  21.920  25.401  1.00  0.00     0.001 A 
ATOM     68  C   UNL A   1      44.505  22.606  24.405  1.00  0.00     0.000 A 
ENDBRANCH  49  63
BRANCH  50  69
ATOM     69  C   UNL A   1      40.379  30.379  33.139  1.00  0.00    -0.014 A 
ATOM     70  C   UNL A   1      40.090  31.758  33.179  1.00  0.00     0.009 A 
ATOM     71  C   UNL A   1      39.317  29.471  33.237  1.00  0.00     0.009 A 
ATOM     72  C   UNL A   1      38.769  32.214  33.202  1.00  0.00     0.001 A 
ATOM     73  C   UNL A   1      37.994  29.931  33.270  1.00  0.00     0.001 A 
ATOM     74  C   UNL A   1      37.721  31.299  33.218  1.00  0.00     0.000 A 
ENDBRANCH  50  69
BRANCH  62  75
ATOM     75  C   UNL A   1      44.706  24.555  33.444  1.00  0.00    -0.014 A 
ATOM     76  C   UNL A   1      46.041  24.287  33.771  1.00  0.00     0.009 A 
ATOM     77  C   UNL A   1      43.749  23.642  33.952  1.00  0.00     0.009 A 
ATOM     78  C   UNL A   1      46.403  23.159  34.524  1.00  0.00     0.001 A 
ATOM     79  C   UNL A   1      44.099  22.543  34.741  1.00  0.00     0.001 A 
ATOM     80  C   UNL A   1      45.433  22.294  35.017  1.00  0.00     0.000 A 
ENDBRANCH  62  75
ENDBRANCH  36  37
ENDBRANCH  28  31
ENDBRANCH  26  27
ENDBRANCH  25  26
ENDBRANCH  24  25
ENDBRANCH  23  24
ENDBRANCH   1  23
TORSDOF 18
ENDMDL
