MODEL 1
REMARK VINA RESULT:     -10.8      0.000      0.000
REMARK SMILES COCC[C@@]1(C(=O)NCCCCCCNC(=O)c2ccc(-c3c4nc(c(-c5ccccc5)c5ccc([nH]5)c(-c5ccccc5)c5nc(c(-c6ccccc6)c6ccc3[nH]6)C=C5)C=C4)cc2)CCCN(C(=O)NCc2ccc(OC)cc2)C1
REMARK SMILES IDX 10 1 9 2 8 3 6 4 7 5 5 7 66 8 82 9 67 10 69 11 68 12 4 13
REMARK SMILES IDX 3 14 2 15 1 16 70 17 71 18 72 19 73 21 74 22 75 23 81 24
REMARK SMILES IDX 76 25 80 26 77 27 78 28 79 29 11 30 12 31 13 32 14 33 15 34
REMARK SMILES IDX 16 35 17 37 18 38 19 39 65 40 20 41 64 42 21 43 22 44 23 45
REMARK SMILES IDX 58 46 24 47 63 48 57 49 59 50 25 51 62 52 56 53 55 54 26 56
REMARK SMILES IDX 48 57 33 58 47 59 34 60 37 61 46 62 60 63 35 64 36 65 45 67
REMARK SMILES IDX 61 68 38 69 27 70 28 71 32 72 29 73 31 74 30 75 49 76 50 77
REMARK SMILES IDX 54 78 51 79 53 80 52 81 39 82 40 83 44 84 41 85 43 86 42 87
REMARK H PARENT 8 6 72 20 15 36 59 55 37 66
REMARK Flexibility Score: inf
ROOT
ATOM      1  C   UNL A   1      32.125  27.748  25.817  1.00  0.00     0.021 C 
ENDROOT
BRANCH   1   2
ATOM      2  C   UNL A   1      33.353  26.857  25.912  1.00  0.00     0.116 C 
BRANCH   2   3
ATOM      3  N   UNL A   1      33.873  26.380  24.653  1.00  0.00    -0.356 N 
ATOM      4  C   UNL A   1      34.027  25.110  24.190  1.00  0.00     0.228 C 
ATOM      5  O   UNL A   1      34.002  25.020  22.953  1.00  0.00    -0.274 OA
ATOM      6  H   UNL A   1      34.162  27.086  24.031  1.00  0.00     0.163 HD
BRANCH   4   7
ATOM      7  C   UNL A   1      34.363  23.854  25.059  1.00  0.00     0.069 C 
ATOM      8  C   UNL A   1      34.393  22.610  24.104  1.00  0.00     0.021 C 
ATOM      9  C   UNL A   1      33.374  23.464  26.197  1.00  0.00     0.138 C 
ATOM     10  C   UNL A   1      32.992  22.179  23.641  1.00  0.00     0.023 C 
ATOM     11  N   UNL A   1      32.060  23.077  25.685  1.00  0.00    -0.324 N 
ATOM     12  C   UNL A   1      32.120  21.890  24.850  1.00  0.00     0.121 C 
BRANCH   7  13
ATOM     13  C   UNL A   1      35.759  24.119  25.725  1.00  0.00     0.047 C 
BRANCH  13  14
ATOM     14  C   UNL A   1      36.985  23.418  25.125  1.00  0.00     0.161 C 
BRANCH  14  15
ATOM     15  O   UNL A   1      37.482  22.394  25.975  1.00  0.00    -0.385 OA
ATOM     16  C   UNL A   1      38.252  21.401  25.310  1.00  0.00     0.194 C 
ENDBRANCH  14  15
ENDBRANCH  13  14
ENDBRANCH   7  13
BRANCH  11  17
ATOM     17  C   UNL A   1      30.979  23.832  26.016  1.00  0.00     0.317 C 
ATOM     18  O   UNL A   1      30.531  23.864  27.167  1.00  0.00    -0.249 OA
ATOM     19  N   UNL A   1      30.380  24.670  25.159  1.00  0.00    -0.334 N 
ATOM     20  H   UNL A   1      29.765  25.285  25.618  1.00  0.00     0.165 HD
BRANCH  19  21
ATOM     21  C   UNL A   1      30.405  24.904  23.728  1.00  0.00     0.153 C 
BRANCH  21  22
ATOM     22  C   UNL A   1      29.882  26.287  23.422  1.00  0.00    -0.028 A 
ATOM     23  C   UNL A   1      28.587  26.655  23.822  1.00  0.00     0.009 A 
ATOM     24  C   UNL A   1      30.658  27.228  22.735  1.00  0.00     0.009 A 
ATOM     25  C   UNL A   1      28.066  27.904  23.495  1.00  0.00     0.047 A 
ATOM     26  C   UNL A   1      30.133  28.487  22.411  1.00  0.00     0.047 A 
ATOM     27  C   UNL A   1      28.832  28.825  22.786  1.00  0.00     0.118 A 
BRANCH  27  28
ATOM     28  O   UNL A   1      28.190  30.002  22.525  1.00  0.00    -0.497 OA
ATOM     29  C   UNL A   1      28.752  30.830  21.517  1.00  0.00     0.278 C 
ENDBRANCH  27  28
ENDBRANCH  21  22
ENDBRANCH  19  21
ENDBRANCH  11  17
ENDBRANCH   4   7
ENDBRANCH   2   3
ENDBRANCH   1   2
BRANCH   1  30
ATOM     30  C   UNL A   1      32.270  29.161  26.378  1.00  0.00     0.002 C 
BRANCH  30  31
ATOM     31  C   UNL A   1      31.408  30.247  25.726  1.00  0.00     0.002 C 
BRANCH  31  32
ATOM     32  C   UNL A   1      31.272  31.564  26.495  1.00  0.00     0.021 C 
BRANCH  32  33
ATOM     33  C   UNL A   1      32.582  32.227  26.901  1.00  0.00     0.116 C 
BRANCH  33  34
ATOM     34  N   UNL A   1      32.391  33.587  27.381  1.00  0.00    -0.352 N 
ATOM     35  C   UNL A   1      33.104  34.283  28.321  1.00  0.00     0.251 C 
ATOM     36  H   UNL A   1      31.642  34.077  26.972  1.00  0.00     0.163 HD
ATOM     37  O   UNL A   1      32.692  35.368  28.732  1.00  0.00    -0.269 OA
BRANCH  35  38
ATOM     38  C   UNL A   1      34.362  33.726  28.858  1.00  0.00     0.039 A 
ATOM     39  C   UNL A   1      34.314  32.944  30.016  1.00  0.00     0.014 A 
ATOM     40  C   UNL A   1      35.586  33.981  28.233  1.00  0.00     0.014 A 
ATOM     41  C   UNL A   1      35.487  32.375  30.515  1.00  0.00     0.010 A 
ATOM     42  C   UNL A   1      36.741  33.352  28.687  1.00  0.00     0.010 A 
ATOM     43  C   UNL A   1      36.706  32.551  29.838  1.00  0.00    -0.014 A 
BRANCH  43  44
ATOM     44  C   UNL A   1      37.954  31.915  30.328  1.00  0.00     0.031 A 
ATOM     45  C   UNL A   1      38.754  32.568  31.421  1.00  0.00     0.074 A 
ATOM     46  C   UNL A   1      38.391  30.775  29.757  1.00  0.00     0.049 A 
ATOM     47  N   UNL A   1      39.892  32.193  31.949  1.00  0.00    -0.248 NA
ATOM     48  C   UNL A   1      38.217  33.819  31.982  1.00  0.00     0.031 C 
ATOM     49  C   UNL A   1      37.722  30.059  28.669  1.00  0.00     0.029 A 
ATOM     50  N   UNL A   1      39.509  30.020  30.014  1.00  0.00    -0.354 N 
ATOM     51  C   UNL A   1      40.210  33.164  32.891  1.00  0.00     0.074 A 
ATOM     52  C   UNL A   1      39.175  34.173  32.825  1.00  0.00     0.031 C 
ATOM     53  C   UNL A   1      38.425  28.953  28.374  1.00  0.00     0.029 A 
ATOM     54  C   UNL A   1      39.614  28.906  29.216  1.00  0.00     0.049 A 
ATOM     55  H   UNL A   1      40.171  30.255  30.703  1.00  0.00     0.167 HD
ATOM     56  C   UNL A   1      41.255  33.202  33.752  1.00  0.00     0.031 A 
ATOM     57  C   UNL A   1      40.569  27.957  29.165  1.00  0.00     0.031 A 
ATOM     58  C   UNL A   1      42.281  32.196  33.819  1.00  0.00     0.049 A 
ATOM     59  C   UNL A   1      41.740  28.046  30.105  1.00  0.00     0.074 A 
ATOM     60  C   UNL A   1      43.361  32.124  34.682  1.00  0.00     0.029 A 
ATOM     61  N   UNL A   1      42.356  31.089  32.989  1.00  0.00    -0.354 N 
ATOM     62  N   UNL A   1      41.992  28.937  31.033  1.00  0.00    -0.248 NA
ATOM     63  C   UNL A   1      42.754  26.987  29.996  1.00  0.00     0.031 C 
ATOM     64  C   UNL A   1      44.120  31.001  34.337  1.00  0.00     0.029 A 
ATOM     65  C   UNL A   1      43.478  30.340  33.304  1.00  0.00     0.049 A 
ATOM     66  H   UNL A   1      41.709  30.868  32.280  1.00  0.00     0.167 HD
ATOM     67  C   UNL A   1      43.173  28.528  31.640  1.00  0.00     0.074 A 
ATOM     68  C   UNL A   1      43.576  27.300  30.987  1.00  0.00     0.031 C 
ATOM     69  C   UNL A   1      43.861  29.116  32.649  1.00  0.00     0.031 A 
BRANCH  56  70
ATOM     70  C   UNL A   1      41.339  34.374  34.690  1.00  0.00    -0.014 A 
ATOM     71  C   UNL A   1      40.756  34.327  35.967  1.00  0.00     0.009 A 
ATOM     72  C   UNL A   1      42.045  35.526  34.310  1.00  0.00     0.009 A 
ATOM     73  C   UNL A   1      40.849  35.421  36.829  1.00  0.00     0.001 A 
ATOM     74  C   UNL A   1      42.163  36.606  35.186  1.00  0.00     0.001 A 
ATOM     75  C   UNL A   1      41.557  36.557  36.441  1.00  0.00     0.000 A 
ENDBRANCH  56  70
BRANCH  57  76
ATOM     76  C   UNL A   1      40.459  26.831  28.200  1.00  0.00    -0.014 A 
ATOM     77  C   UNL A   1      41.060  26.915  26.934  1.00  0.00     0.009 A 
ATOM     78  C   UNL A   1      39.728  25.678  28.525  1.00  0.00     0.009 A 
ATOM     79  C   UNL A   1      40.899  25.887  26.002  1.00  0.00     0.001 A 
ATOM     80  C   UNL A   1      39.597  24.636  27.605  1.00  0.00     0.001 A 
ATOM     81  C   UNL A   1      40.172  24.747  26.340  1.00  0.00     0.000 A 
ENDBRANCH  57  76
BRANCH  69  82
ATOM     82  C   UNL A   1      45.095  28.413  33.142  1.00  0.00    -0.014 A 
ATOM     83  C   UNL A   1      45.028  27.435  34.148  1.00  0.00     0.009 A 
ATOM     84  C   UNL A   1      46.338  28.708  32.561  1.00  0.00     0.009 A 
ATOM     85  C   UNL A   1      46.190  26.795  34.585  1.00  0.00     0.001 A 
ATOM     86  C   UNL A   1      47.491  28.042  32.977  1.00  0.00     0.001 A 
ATOM     87  C   UNL A   1      47.418  27.094  33.996  1.00  0.00     0.000 A 
ENDBRANCH  69  82
ENDBRANCH  43  44
ENDBRANCH  35  38
ENDBRANCH  33  34
ENDBRANCH  32  33
ENDBRANCH  31  32
ENDBRANCH  30  31
ENDBRANCH   1  30
TORSDOF 20
ENDMDL
MODEL 2
REMARK VINA RESULT:     -10.7      0.956      5.828
REMARK SMILES COCC[C@@]1(C(=O)NCCCCCCNC(=O)c2ccc(-c3c4nc(c(-c5ccccc5)c5ccc([nH]5)c(-c5ccccc5)c5nc(c(-c6ccccc6)c6ccc3[nH]6)C=C5)C=C4)cc2)CCCN(C(=O)NCc2ccc(OC)cc2)C1
REMARK SMILES IDX 10 1 9 2 8 3 6 4 7 5 5 7 66 8 82 9 67 10 69 11 68 12 4 13
REMARK SMILES IDX 3 14 2 15 1 16 70 17 71 18 72 19 73 21 74 22 75 23 81 24
REMARK SMILES IDX 76 25 80 26 77 27 78 28 79 29 11 30 12 31 13 32 14 33 15 34
REMARK SMILES IDX 16 35 17 37 18 38 19 39 65 40 20 41 64 42 21 43 22 44 23 45
REMARK SMILES IDX 58 46 24 47 63 48 57 49 59 50 25 51 62 52 56 53 55 54 26 56
REMARK SMILES IDX 48 57 33 58 47 59 34 60 37 61 46 62 60 63 35 64 36 65 45 67
REMARK SMILES IDX 61 68 38 69 27 70 28 71 32 72 29 73 31 74 30 75 49 76 50 77
REMARK SMILES IDX 54 78 51 79 53 80 52 81 39 82 40 83 44 84 41 85 43 86 42 87
REMARK H PARENT 8 6 72 20 15 36 59 55 37 66
REMARK Flexibility Score: inf
ROOT
ATOM      1  C   UNL A   1      34.016  28.720  26.512  1.00  0.00     0.021 C 
ENDROOT
BRANCH   1   2
ATOM      2  C   UNL A   1      33.182  27.693  25.763  1.00  0.00     0.116 C 
BRANCH   2   3
ATOM      3  N   UNL A   1      33.661  27.347  24.446  1.00  0.00    -0.356 N 
ATOM      4  C   UNL A   1      33.583  26.171  23.764  1.00  0.00     0.228 C 
ATOM      5  O   UNL A   1      33.603  26.305  22.531  1.00  0.00    -0.274 OA
ATOM      6  H   UNL A   1      34.115  28.076  23.966  1.00  0.00     0.163 HD
BRANCH   4   7
ATOM      7  C   UNL A   1      33.618  24.742  24.397  1.00  0.00     0.069 C 
ATOM      8  C   UNL A   1      33.355  23.708  23.247  1.00  0.00     0.021 C 
ATOM      9  C   UNL A   1      32.568  24.400  25.494  1.00  0.00     0.138 C 
ATOM     10  C   UNL A   1      31.891  23.696  22.778  1.00  0.00     0.023 C 
ATOM     11  N   UNL A   1      31.199  24.419  24.980  1.00  0.00    -0.324 N 
ATOM     12  C   UNL A   1      30.979  23.411  23.957  1.00  0.00     0.121 C 
BRANCH   7  13
ATOM     13  C   UNL A   1      35.039  24.561  25.039  1.00  0.00     0.047 C 
BRANCH  13  14
ATOM     14  C   UNL A   1      35.217  23.453  26.085  1.00  0.00     0.161 C 
BRANCH  14  15
ATOM     15  O   UNL A   1      36.088  22.427  25.631  1.00  0.00    -0.385 OA
ATOM     16  C   UNL A   1      35.466  21.158  25.471  1.00  0.00     0.194 C 
ENDBRANCH  14  15
ENDBRANCH  13  14
ENDBRANCH   7  13
BRANCH  11  17
ATOM     17  C   UNL A   1      30.324  25.333  25.477  1.00  0.00     0.317 C 
ATOM     18  O   UNL A   1      29.880  25.257  26.628  1.00  0.00    -0.249 OA
ATOM     19  N   UNL A   1      29.954  26.434  24.807  1.00  0.00    -0.334 N 
ATOM     20  H   UNL A   1      29.497  27.081  25.391  1.00  0.00     0.165 HD
BRANCH  19  21
ATOM     21  C   UNL A   1      30.054  26.916  23.444  1.00  0.00     0.153 C 
BRANCH  21  22
ATOM     22  C   UNL A   1      29.395  28.270  23.325  1.00  0.00    -0.028 A 
ATOM     23  C   UNL A   1      30.148  29.439  23.520  1.00  0.00     0.009 A 
ATOM     24  C   UNL A   1      28.033  28.398  23.028  1.00  0.00     0.009 A 
ATOM     25  C   UNL A   1      29.544  30.693  23.475  1.00  0.00     0.047 A 
ATOM     26  C   UNL A   1      27.428  29.661  22.979  1.00  0.00     0.047 A 
ATOM     27  C   UNL A   1      28.184  30.813  23.208  1.00  0.00     0.118 A 
BRANCH  27  28
ATOM     28  O   UNL A   1      27.725  32.100  23.208  1.00  0.00    -0.497 OA
ATOM     29  C   UNL A   1      28.653  33.111  22.844  1.00  0.00     0.278 C 
ENDBRANCH  27  28
ENDBRANCH  21  22
ENDBRANCH  19  21
ENDBRANCH  11  17
ENDBRANCH   4   7
ENDBRANCH   2   3
ENDBRANCH   1   2
BRANCH   1  30
ATOM     30  C   UNL A   1      33.245  29.723  27.367  1.00  0.00     0.002 C 
BRANCH  30  31
ATOM     31  C   UNL A   1      31.827  30.071  26.902  1.00  0.00     0.002 C 
BRANCH  31  32
ATOM     32  C   UNL A   1      31.441  31.551  26.937  1.00  0.00     0.021 C 
BRANCH  32  33
ATOM     33  C   UNL A   1      32.583  32.534  26.709  1.00  0.00     0.116 C 
BRANCH  33  34
ATOM     34  N   UNL A   1      32.378  33.795  27.405  1.00  0.00    -0.352 N 
ATOM     35  C   UNL A   1      33.086  34.337  28.445  1.00  0.00     0.251 C 
ATOM     36  H   UNL A   1      31.622  34.336  27.082  1.00  0.00     0.163 HD
ATOM     37  O   UNL A   1      32.664  35.335  29.028  1.00  0.00    -0.269 OA
BRANCH  35  38
ATOM     38  C   UNL A   1      34.351  33.714  28.883  1.00  0.00     0.039 A 
ATOM     39  C   UNL A   1      35.538  34.064  28.232  1.00  0.00     0.014 A 
ATOM     40  C   UNL A   1      34.370  32.778  29.922  1.00  0.00     0.014 A 
ATOM     41  C   UNL A   1      36.749  33.516  28.659  1.00  0.00     0.010 A 
ATOM     42  C   UNL A   1      35.584  32.292  30.396  1.00  0.00     0.010 A 
ATOM     43  C   UNL A   1      36.785  32.648  29.763  1.00  0.00    -0.014 A 
BRANCH  43  44
ATOM     44  C   UNL A   1      38.069  32.093  30.261  1.00  0.00     0.031 A 
ATOM     45  C   UNL A   1      38.585  30.787  29.721  1.00  0.00     0.074 A 
ATOM     46  C   UNL A   1      38.745  32.739  31.230  1.00  0.00     0.049 A 
ATOM     47  N   UNL A   1      39.657  30.118  30.061  1.00  0.00    -0.248 NA
ATOM     48  C   UNL A   1      37.780  30.136  28.673  1.00  0.00     0.031 C 
ATOM     49  C   UNL A   1      38.335  33.997  31.857  1.00  0.00     0.029 A 
ATOM     50  N   UNL A   1      39.922  32.422  31.862  1.00  0.00    -0.354 N 
ATOM     51  C   UNL A   1      39.650  28.968  29.282  1.00  0.00     0.074 A 
ATOM     52  C   UNL A   1      38.438  29.001  28.491  1.00  0.00     0.031 C 
ATOM     53  C   UNL A   1      39.261  34.360  32.760  1.00  0.00     0.029 A 
ATOM     54  C   UNL A   1      40.304  33.342  32.808  1.00  0.00     0.049 A 
ATOM     55  H   UNL A   1      40.443  31.612  31.655  1.00  0.00     0.167 HD
ATOM     56  C   UNL A   1      40.577  27.983  29.212  1.00  0.00     0.031 A 
ATOM     57  C   UNL A   1      41.371  33.356  33.630  1.00  0.00     0.031 A 
ATOM     58  C   UNL A   1      41.782  27.953  29.997  1.00  0.00     0.049 A 
ATOM     59  C   UNL A   1      42.364  32.229  33.559  1.00  0.00     0.074 A 
ATOM     60  C   UNL A   1      42.803  27.019  29.971  1.00  0.00     0.029 A 
ATOM     61  N   UNL A   1      42.127  28.898  30.950  1.00  0.00    -0.354 N 
ATOM     62  N   UNL A   1      42.373  31.181  32.772  1.00  0.00    -0.248 NA
ATOM     63  C   UNL A   1      43.503  32.295  34.487  1.00  0.00     0.031 C 
ATOM     64  C   UNL A   1      43.739  27.370  30.949  1.00  0.00     0.029 A 
ATOM     65  C   UNL A   1      43.334  28.557  31.536  1.00  0.00     0.049 A 
ATOM     66  H   UNL A   1      41.592  29.694  31.177  1.00  0.00     0.167 HD
ATOM     67  C   UNL A   1      43.533  30.483  33.085  1.00  0.00     0.074 A 
ATOM     68  C   UNL A   1      44.209  31.236  34.119  1.00  0.00     0.031 C 
ATOM     69  C   UNL A   1      43.997  29.322  32.561  1.00  0.00     0.031 A 
BRANCH  56  70
ATOM     70  C   UNL A   1      40.320  26.855  28.253  1.00  0.00    -0.014 A 
ATOM     71  C   UNL A   1      39.519  25.759  28.616  1.00  0.00     0.009 A 
ATOM     72  C   UNL A   1      40.851  26.904  26.954  1.00  0.00     0.009 A 
ATOM     73  C   UNL A   1      39.285  24.722  27.711  1.00  0.00     0.001 A 
ATOM     74  C   UNL A   1      40.589  25.881  26.042  1.00  0.00     0.001 A 
ATOM     75  C   UNL A   1      39.814  24.786  26.424  1.00  0.00     0.000 A 
ENDBRANCH  56  70
BRANCH  57  76
ATOM     76  C   UNL A   1      41.569  34.479  34.585  1.00  0.00    -0.014 A 
ATOM     77  C   UNL A   1      41.033  34.416  35.881  1.00  0.00     0.009 A 
ATOM     78  C   UNL A   1      42.269  35.633  34.198  1.00  0.00     0.009 A 
ATOM     79  C   UNL A   1      41.160  35.499  36.754  1.00  0.00     0.001 A 
ATOM     80  C   UNL A   1      42.425  36.700  35.085  1.00  0.00     0.001 A 
ATOM     81  C   UNL A   1      41.859  36.637  36.358  1.00  0.00     0.000 A 
ENDBRANCH  57  76
BRANCH  69  82
ATOM     82  C   UNL A   1      45.323  28.821  33.063  1.00  0.00    -0.014 A 
ATOM     83  C   UNL A   1      46.525  29.159  32.420  1.00  0.00     0.009 A 
ATOM     84  C   UNL A   1      45.369  28.031  34.222  1.00  0.00     0.009 A 
ATOM     85  C   UNL A   1      47.743  28.682  32.910  1.00  0.00     0.001 A 
ATOM     86  C   UNL A   1      46.591  27.585  34.727  1.00  0.00     0.001 A 
ATOM     87  C   UNL A   1      47.776  27.902  34.065  1.00  0.00     0.000 A 
ENDBRANCH  69  82
ENDBRANCH  43  44
ENDBRANCH  35  38
ENDBRANCH  33  34
ENDBRANCH  32  33
ENDBRANCH  31  32
ENDBRANCH  30  31
ENDBRANCH   1  30
TORSDOF 20
ENDMDL
MODEL 3
REMARK VINA RESULT:     -10.4      3.246      9.007
REMARK SMILES COCC[C@@]1(C(=O)NCCCCCCNC(=O)c2ccc(-c3c4nc(c(-c5ccccc5)c5ccc([nH]5)c(-c5ccccc5)c5nc(c(-c6ccccc6)c6ccc3[nH]6)C=C5)C=C4)cc2)CCCN(C(=O)NCc2ccc(OC)cc2)C1
REMARK SMILES IDX 10 1 9 2 8 3 6 4 7 5 5 7 66 8 82 9 67 10 69 11 68 12 4 13
REMARK SMILES IDX 3 14 2 15 1 16 70 17 71 18 72 19 73 21 74 22 75 23 81 24
REMARK SMILES IDX 76 25 80 26 77 27 78 28 79 29 11 30 12 31 13 32 14 33 15 34
REMARK SMILES IDX 16 35 17 37 18 38 19 39 65 40 20 41 64 42 21 43 22 44 23 45
REMARK SMILES IDX 58 46 24 47 63 48 57 49 59 50 25 51 62 52 56 53 55 54 26 56
REMARK SMILES IDX 48 57 33 58 47 59 34 60 37 61 46 62 60 63 35 64 36 65 45 67
REMARK SMILES IDX 61 68 38 69 27 70 28 71 32 72 29 73 31 74 30 75 49 76 50 77
REMARK SMILES IDX 54 78 51 79 53 80 52 81 39 82 40 83 44 84 41 85 43 86 42 87
REMARK H PARENT 8 6 72 20 15 36 59 55 37 66
REMARK Flexibility Score: inf
ROOT
ATOM      1  C   UNL A   1      36.556  23.768  26.145  1.00  0.00     0.021 C 
ENDROOT
BRANCH   1   2
ATOM      2  C   UNL A   1      35.188  23.426  25.578  1.00  0.00     0.116 C 
BRANCH   2   3
ATOM      3  N   UNL A   1      34.074  23.644  26.469  1.00  0.00    -0.356 N 
ATOM      4  C   UNL A   1      32.897  24.297  26.262  1.00  0.00     0.228 C 
ATOM      5  O   UNL A   1      31.969  23.897  26.980  1.00  0.00    -0.274 OA
ATOM      6  H   UNL A   1      34.182  23.261  27.369  1.00  0.00     0.163 HD
BRANCH   4   7
ATOM      7  C   UNL A   1      32.693  25.543  25.340  1.00  0.00     0.069 C 
ATOM      8  C   UNL A   1      31.152  25.828  25.262  1.00  0.00     0.021 C 
ATOM      9  C   UNL A   1      33.159  25.443  23.858  1.00  0.00     0.138 C 
ATOM     10  C   UNL A   1      30.398  24.801  24.402  1.00  0.00     0.023 C 
ATOM     11  N   UNL A   1      32.407  24.441  23.104  1.00  0.00    -0.324 N 
ATOM     12  C   UNL A   1      30.995  24.767  23.006  1.00  0.00     0.121 C 
BRANCH   7  13
ATOM     13  C   UNL A   1      33.479  26.732  25.997  1.00  0.00     0.047 C 
BRANCH  13  14
ATOM     14  C   UNL A   1      32.843  28.128  25.947  1.00  0.00     0.161 C 
BRANCH  14  15
ATOM     15  O   UNL A   1      33.588  29.023  25.135  1.00  0.00    -0.385 OA
ATOM     16  C   UNL A   1      33.206  29.030  23.765  1.00  0.00     0.194 C 
ENDBRANCH  14  15
ENDBRANCH  13  14
ENDBRANCH   7  13
BRANCH  11  17
ATOM     17  C   UNL A   1      33.068  23.361  22.608  1.00  0.00     0.317 C 
ATOM     18  O   UNL A   1      33.886  23.461  21.686  1.00  0.00    -0.249 OA
ATOM     19  N   UNL A   1      32.967  22.133  23.136  1.00  0.00    -0.334 N 
ATOM     20  H   UNL A   1      33.667  21.531  22.797  1.00  0.00     0.165 HD
BRANCH  19  21
ATOM     21  C   UNL A   1      32.092  21.464  24.078  1.00  0.00     0.153 C 
BRANCH  21  22
ATOM     22  C   UNL A   1      32.446  19.998  24.159  1.00  0.00    -0.028 A 
ATOM     23  C   UNL A   1      32.415  19.201  23.003  1.00  0.00     0.009 A 
ATOM     24  C   UNL A   1      32.804  19.398  25.372  1.00  0.00     0.009 A 
ATOM     25  C   UNL A   1      32.678  17.836  23.071  1.00  0.00     0.047 A 
ATOM     26  C   UNL A   1      33.073  18.024  25.437  1.00  0.00     0.047 A 
ATOM     27  C   UNL A   1      33.005  17.238  24.285  1.00  0.00     0.118 A 
BRANCH  27  28
ATOM     28  O   UNL A   1      33.225  15.892  24.204  1.00  0.00    -0.497 OA
ATOM     29  C   UNL A   1      32.812  15.106  25.312  1.00  0.00     0.278 C 
ENDBRANCH  27  28
ENDBRANCH  21  22
ENDBRANCH  19  21
ENDBRANCH  11  17
ENDBRANCH   4   7
ENDBRANCH   2   3
ENDBRANCH   1   2
BRANCH   1  30
ATOM     30  C   UNL A   1      37.760  23.329  25.315  1.00  0.00     0.002 C 
BRANCH  30  31
ATOM     31  C   UNL A   1      38.752  22.381  25.998  1.00  0.00     0.002 C 
BRANCH  31  32
ATOM     32  C   UNL A   1      38.972  21.024  25.325  1.00  0.00     0.021 C 
BRANCH  32  33
ATOM     33  C   UNL A   1      39.333  19.877  26.261  1.00  0.00     0.116 C 
BRANCH  33  34
ATOM     34  N   UNL A   1      40.564  19.208  25.871  1.00  0.00    -0.352 N 
ATOM     35  C   UNL A   1      41.843  19.699  25.830  1.00  0.00     0.251 C 
ATOM     36  H   UNL A   1      40.465  18.268  25.596  1.00  0.00     0.163 HD
ATOM     37  O   UNL A   1      42.742  19.042  25.305  1.00  0.00    -0.269 OA
BRANCH  35  38
ATOM     38  C   UNL A   1      42.144  21.027  26.402  1.00  0.00     0.039 A 
ATOM     39  C   UNL A   1      42.523  22.062  25.543  1.00  0.00     0.014 A 
ATOM     40  C   UNL A   1      42.065  21.251  27.780  1.00  0.00     0.014 A 
ATOM     41  C   UNL A   1      42.772  23.335  26.060  1.00  0.00     0.010 A 
ATOM     42  C   UNL A   1      42.238  22.536  28.284  1.00  0.00     0.010 A 
ATOM     43  C   UNL A   1      42.603  23.589  27.432  1.00  0.00    -0.014 A 
BRANCH  43  44
ATOM     44  C   UNL A   1      42.817  24.946  27.992  1.00  0.00     0.031 A 
ATOM     45  C   UNL A   1      44.187  25.364  28.453  1.00  0.00     0.074 A 
ATOM     46  C   UNL A   1      41.771  25.785  28.130  1.00  0.00     0.049 A 
ATOM     47  N   UNL A   1      44.564  26.486  29.012  1.00  0.00    -0.248 NA
ATOM     48  C   UNL A   1      45.274  24.385  28.282  1.00  0.00     0.031 C 
ATOM     49  C   UNL A   1      40.389  25.488  27.749  1.00  0.00     0.029 A 
ATOM     50  N   UNL A   1      41.710  27.061  28.633  1.00  0.00    -0.354 N 
ATOM     51  C   UNL A   1      45.921  26.344  29.268  1.00  0.00     0.074 A 
ATOM     52  C   UNL A   1      46.292  25.008  28.856  1.00  0.00     0.031 C 
ATOM     53  C   UNL A   1      39.623  26.561  28.003  1.00  0.00     0.029 A 
ATOM     54  C   UNL A   1      40.447  27.603  28.605  1.00  0.00     0.049 A 
ATOM     55  H   UNL A   1      42.496  27.540  28.982  1.00  0.00     0.167 HD
ATOM     56  C   UNL A   1      46.789  27.250  29.779  1.00  0.00     0.031 A 
ATOM     57  C   UNL A   1      40.004  28.803  29.025  1.00  0.00     0.031 A 
ATOM     58  C   UNL A   1      46.420  28.580  30.186  1.00  0.00     0.049 A 
ATOM     59  C   UNL A   1      40.982  29.775  29.625  1.00  0.00     0.074 A 
ATOM     60  C   UNL A   1      47.232  29.586  30.679  1.00  0.00     0.029 A 
ATOM     61  N   UNL A   1      45.131  29.087  30.149  1.00  0.00    -0.354 N 
ATOM     62  N   UNL A   1      42.275  29.647  29.802  1.00  0.00    -0.248 NA
ATOM     63  C   UNL A   1      40.438  31.065  30.075  1.00  0.00     0.031 C 
ATOM     64  C   UNL A   1      46.424  30.683  30.993  1.00  0.00     0.029 A 
ATOM     65  C   UNL A   1      45.121  30.384  30.633  1.00  0.00     0.049 A 
ATOM     66  H   UNL A   1      44.339  28.597  29.827  1.00  0.00     0.167 HD
ATOM     67  C   UNL A   1      42.703  30.850  30.350  1.00  0.00     0.074 A 
ATOM     68  C   UNL A   1      41.536  31.700  30.459  1.00  0.00     0.031 C 
ATOM     69  C   UNL A   1      43.951  31.219  30.728  1.00  0.00     0.031 A 
BRANCH  56  70
ATOM     70  C   UNL A   1      48.225  26.829  29.927  1.00  0.00    -0.014 A 
ATOM     71  C   UNL A   1      48.677  26.184  31.091  1.00  0.00     0.009 A 
ATOM     72  C   UNL A   1      49.130  27.043  28.876  1.00  0.00     0.009 A 
ATOM     73  C   UNL A   1      50.013  25.794  31.210  1.00  0.00     0.001 A 
ATOM     74  C   UNL A   1      50.457  26.624  28.987  1.00  0.00     0.001 A 
ATOM     75  C   UNL A   1      50.899  26.008  30.157  1.00  0.00     0.000 A 
ENDBRANCH  56  70
BRANCH  57  76
ATOM     76  C   UNL A   1      38.568  29.165  28.886  1.00  0.00    -0.014 A 
ATOM     77  C   UNL A   1      38.070  29.655  27.668  1.00  0.00     0.009 A 
ATOM     78  C   UNL A   1      37.693  29.051  29.977  1.00  0.00     0.009 A 
ATOM     79  C   UNL A   1      36.738  30.059  27.558  1.00  0.00     0.001 A 
ATOM     80  C   UNL A   1      36.353  29.422  29.855  1.00  0.00     0.001 A 
ATOM     81  C   UNL A   1      35.879  29.938  28.649  1.00  0.00     0.000 A 
ENDBRANCH  57  76
BRANCH  69  82
ATOM     82  C   UNL A   1      44.128  32.618  31.248  1.00  0.00    -0.014 A 
ATOM     83  C   UNL A   1      44.068  32.902  32.622  1.00  0.00     0.009 A 
ATOM     84  C   UNL A   1      44.398  33.661  30.349  1.00  0.00     0.009 A 
ATOM     85  C   UNL A   1      44.239  34.211  33.078  1.00  0.00     0.001 A 
ATOM     86  C   UNL A   1      44.602  34.962  30.812  1.00  0.00     0.001 A 
ATOM     87  C   UNL A   1      44.512  35.237  32.175  1.00  0.00     0.000 A 
ENDBRANCH  69  82
ENDBRANCH  43  44
ENDBRANCH  35  38
ENDBRANCH  33  34
ENDBRANCH  32  33
ENDBRANCH  31  32
ENDBRANCH  30  31
ENDBRANCH   1  30
TORSDOF 20
ENDMDL
