MODEL 1
REMARK VINA RESULT:     -11.2      0.000      0.000
REMARK SMILES CC(C)(CC(=O)NCCCCCCNC(=O)c1ccc(-c2c3nc(c(-c4ccccc4)c4ccc([nH]4)c(-c4ccccc4)c4nc(c(-c5ccccc5)c5ccc2[nH]5)C=C4)C=C3)cc1)NC(=O)c1nc(C(C)(C)C)n[nH]1
REMARK SMILES IDX 9 1 8 2 7 3 5 4 6 5 4 7 2 8 1 9 3 10 65 11 66 12 67 14 68 15
REMARK SMILES IDX 69 16 76 17 70 18 75 19 71 21 72 22 73 23 74 24 10 25 11 26
REMARK SMILES IDX 12 27 13 28 14 29 15 30 16 32 17 33 18 34 64 35 19 36 63 37
REMARK SMILES IDX 20 38 21 39 22 40 57 41 23 42 62 43 56 44 58 45 24 46 61 47
REMARK SMILES IDX 55 48 54 49 25 51 47 52 32 53 46 54 33 55 36 56 45 57 59 58
REMARK SMILES IDX 34 59 35 60 44 62 60 63 37 64 26 65 27 66 31 67 28 68 30 69
REMARK SMILES IDX 29 70 48 71 49 72 53 73 50 74 52 75 51 76 38 77 39 78 43 79
REMARK SMILES IDX 40 80 42 81 41 82
REMARK H PARENT 7 6 65 13 76 20 14 31 58 50 36 61
REMARK Flexibility Score: inf
ROOT
ATOM      1  C   UNL A   1      33.011  28.391  27.186  1.00  0.00     0.021 C 
ENDROOT
BRANCH   1   2
ATOM      2  C   UNL A   1      31.563  27.912  27.108  1.00  0.00     0.116 C 
BRANCH   2   3
ATOM      3  N   UNL A   1      31.498  26.561  26.584  1.00  0.00    -0.356 N 
ATOM      4  C   UNL A   1      31.690  26.088  25.325  1.00  0.00     0.222 C 
ATOM      5  O   UNL A   1      31.500  24.889  25.116  1.00  0.00    -0.275 OA
ATOM      6  H   UNL A   1      31.278  25.872  27.252  1.00  0.00     0.163 HD
BRANCH   4   7
ATOM      7  C   UNL A   1      32.192  26.987  24.218  1.00  0.00     0.127 C 
BRANCH   7   8
ATOM      8  C   UNL A   1      31.230  27.268  23.034  1.00  0.00     0.044 C 
ATOM      9  C   UNL A   1      29.777  26.954  23.393  1.00  0.00     0.035 C 
ATOM     10  C   UNL A   1      31.260  28.806  22.809  1.00  0.00     0.035 C 
BRANCH   8  11
ATOM     11  N   UNL A   1      31.701  26.667  21.762  1.00  0.00    -0.344 N 
ATOM     12  C   UNL A   1      32.635  25.727  21.385  1.00  0.00     0.289 C 
ATOM     13  H   UNL A   1      31.221  27.037  20.985  1.00  0.00     0.164 HD
ATOM     14  O   UNL A   1      32.983  25.778  20.203  1.00  0.00    -0.266 OA
BRANCH  12  15
ATOM     15  C   UNL A   1      33.077  24.675  22.269  1.00  0.00     0.214 A 
ATOM     16  N   UNL A   1      34.234  24.641  22.911  1.00  0.00    -0.207 NA
ATOM     17  N   UNL A   1      32.518  23.434  22.348  1.00  0.00    -0.255 N 
ATOM     18  C   UNL A   1      34.325  23.351  23.380  1.00  0.00     0.156 A 
ATOM     19  N   UNL A   1      33.253  22.595  23.097  1.00  0.00    -0.158 NA
ATOM     20  H   UNL A   1      31.675  23.183  21.907  1.00  0.00     0.192 HD
BRANCH  18  21
ATOM     21  C   UNL A   1      35.554  22.806  24.080  1.00  0.00     0.024 C 
ATOM     22  C   UNL A   1      35.275  21.384  24.602  1.00  0.00     0.019 C 
ATOM     23  C   UNL A   1      36.760  22.724  23.123  1.00  0.00     0.019 C 
ATOM     24  C   UNL A   1      35.940  23.690  25.281  1.00  0.00     0.019 C 
ENDBRANCH  18  21
ENDBRANCH  12  15
ENDBRANCH   8  11
ENDBRANCH   7   8
ENDBRANCH   4   7
ENDBRANCH   2   3
ENDBRANCH   1   2
BRANCH   1  25
ATOM     25  C   UNL A   1      33.226  29.819  26.695  1.00  0.00     0.002 C 
BRANCH  25  26
ATOM     26  C   UNL A   1      31.987  30.501  26.124  1.00  0.00     0.002 C 
BRANCH  26  27
ATOM     27  C   UNL A   1      31.600  31.825  26.794  1.00  0.00     0.021 C 
BRANCH  27  28
ATOM     28  C   UNL A   1      32.753  32.704  27.283  1.00  0.00     0.116 C 
BRANCH  28  29
ATOM     29  N   UNL A   1      32.350  34.058  27.633  1.00  0.00    -0.352 N 
ATOM     30  C   UNL A   1      32.949  34.930  28.509  1.00  0.00     0.251 C 
ATOM     31  H   UNL A   1      31.541  34.394  27.182  1.00  0.00     0.163 HD
ATOM     32  O   UNL A   1      32.476  36.041  28.717  1.00  0.00    -0.269 OA
BRANCH  30  33
ATOM     33  C   UNL A   1      34.155  34.495  29.239  1.00  0.00     0.039 A 
ATOM     34  C   UNL A   1      33.999  33.950  30.515  1.00  0.00     0.014 A 
ATOM     35  C   UNL A   1      35.419  34.583  28.649  1.00  0.00     0.014 A 
ATOM     36  C   UNL A   1      35.107  33.415  31.173  1.00  0.00     0.010 A 
ATOM     37  C   UNL A   1      36.518  34.020  29.294  1.00  0.00     0.010 A 
ATOM     38  C   UNL A   1      36.365  33.410  30.549  1.00  0.00    -0.014 A 
BRANCH  38  39
ATOM     39  C   UNL A   1      37.507  32.689  31.160  1.00  0.00     0.031 A 
ATOM     40  C   UNL A   1      38.109  33.148  32.454  1.00  0.00     0.074 A 
ATOM     41  C   UNL A   1      38.043  31.645  30.497  1.00  0.00     0.049 A 
ATOM     42  N   UNL A   1      39.121  32.645  33.113  1.00  0.00    -0.248 NA
ATOM     43  C   UNL A   1      37.508  34.336  33.080  1.00  0.00     0.031 C 
ATOM     44  C   UNL A   1      37.574  31.130  29.208  1.00  0.00     0.029 A 
ATOM     45  N   UNL A   1      39.105  30.836  30.811  1.00  0.00    -0.354 N 
ATOM     46  C   UNL A   1      39.283  33.454  34.230  1.00  0.00     0.074 A 
ATOM     47  C   UNL A   1      38.289  34.503  34.138  1.00  0.00     0.031 C 
ATOM     48  C   UNL A   1      38.333  30.082  28.851  1.00  0.00     0.029 A 
ATOM     49  C   UNL A   1      39.358  29.869  29.868  1.00  0.00     0.049 A 
ATOM     50  H   UNL A   1      39.636  30.937  31.634  1.00  0.00     0.167 HD
ATOM     51  C   UNL A   1      40.171  33.326  35.245  1.00  0.00     0.031 A 
ATOM     52  C   UNL A   1      40.310  28.920  29.824  1.00  0.00     0.031 A 
ATOM     53  C   UNL A   1      41.165  32.287  35.331  1.00  0.00     0.049 A 
ATOM     54  C   UNL A   1      41.291  28.808  30.956  1.00  0.00     0.074 A 
ATOM     55  C   UNL A   1      42.075  32.046  36.347  1.00  0.00     0.029 A 
ATOM     56  N   UNL A   1      41.385  31.323  34.360  1.00  0.00    -0.354 N 
ATOM     57  N   UNL A   1      41.381  29.534  32.044  1.00  0.00    -0.248 NA
ATOM     58  C   UNL A   1      42.293  27.738  30.859  1.00  0.00     0.031 C 
ATOM     59  C   UNL A   1      42.876  30.963  35.968  1.00  0.00     0.029 A 
ATOM     60  C   UNL A   1      42.432  30.499  34.741  1.00  0.00     0.049 A 
ATOM     61  H   UNL A   1      40.872  31.236  33.524  1.00  0.00     0.167 HD
ATOM     62  C   UNL A   1      42.431  28.993  32.773  1.00  0.00     0.074 A 
ATOM     63  C   UNL A   1      42.937  27.870  32.011  1.00  0.00     0.031 C 
ATOM     64  C   UNL A   1      42.928  29.390  33.969  1.00  0.00     0.031 A 
BRANCH  51  65
ATOM     65  C   UNL A   1      40.113  34.347  36.346  1.00  0.00    -0.014 A 
ATOM     66  C   UNL A   1      40.857  35.535  36.272  1.00  0.00     0.009 A 
ATOM     67  C   UNL A   1      39.274  34.138  37.451  1.00  0.00     0.009 A 
ATOM     68  C   UNL A   1      40.787  36.479  37.299  1.00  0.00     0.001 A 
ATOM     69  C   UNL A   1      39.186  35.095  38.465  1.00  0.00     0.001 A 
ATOM     70  C   UNL A   1      39.948  36.260  38.391  1.00  0.00     0.000 A 
ENDBRANCH  51  65
BRANCH  52  71
ATOM     71  C   UNL A   1      40.369  27.983  28.674  1.00  0.00    -0.014 A 
ATOM     72  C   UNL A   1      41.087  28.322  27.518  1.00  0.00     0.009 A 
ATOM     73  C   UNL A   1      39.707  26.746  28.726  1.00  0.00     0.009 A 
ATOM     74  C   UNL A   1      41.121  27.452  26.426  1.00  0.00     0.001 A 
ATOM     75  C   UNL A   1      39.764  25.867  27.643  1.00  0.00     0.001 A 
ATOM     76  C   UNL A   1      40.464  26.224  26.491  1.00  0.00     0.000 A 
ENDBRANCH  52  71
BRANCH  64  77
ATOM     77  C   UNL A   1      44.060  28.585  34.539  1.00  0.00    -0.014 A 
ATOM     78  C   UNL A   1      45.397  28.929  34.284  1.00  0.00     0.009 A 
ATOM     79  C   UNL A   1      43.785  27.488  35.369  1.00  0.00     0.009 A 
ATOM     80  C   UNL A   1      46.435  28.167  34.825  1.00  0.00     0.001 A 
ATOM     81  C   UNL A   1      44.825  26.745  35.929  1.00  0.00     0.001 A 
ATOM     82  C   UNL A   1      46.149  27.080  35.650  1.00  0.00     0.000 A 
ENDBRANCH  64  77
ENDBRANCH  38  39
ENDBRANCH  30  33
ENDBRANCH  28  29
ENDBRANCH  27  28
ENDBRANCH  26  27
ENDBRANCH  25  26
ENDBRANCH   1  25
TORSDOF 17
ENDMDL
MODEL 2
REMARK VINA RESULT:     -10.9      2.046      7.011
REMARK SMILES CC(C)(CC(=O)NCCCCCCNC(=O)c1ccc(-c2c3nc(c(-c4ccccc4)c4ccc([nH]4)c(-c4ccccc4)c4nc(c(-c5ccccc5)c5ccc2[nH]5)C=C4)C=C3)cc1)NC(=O)c1nc(C(C)(C)C)n[nH]1
REMARK SMILES IDX 9 1 8 2 7 3 5 4 6 5 4 7 2 8 1 9 3 10 65 11 66 12 67 14 68 15
REMARK SMILES IDX 69 16 76 17 70 18 75 19 71 21 72 22 73 23 74 24 10 25 11 26
REMARK SMILES IDX 12 27 13 28 14 29 15 30 16 32 17 33 18 34 64 35 19 36 63 37
REMARK SMILES IDX 20 38 21 39 22 40 57 41 23 42 62 43 56 44 58 45 24 46 61 47
REMARK SMILES IDX 55 48 54 49 25 51 47 52 32 53 46 54 33 55 36 56 45 57 59 58
REMARK SMILES IDX 34 59 35 60 44 62 60 63 37 64 26 65 27 66 31 67 28 68 30 69
REMARK SMILES IDX 29 70 48 71 49 72 53 73 50 74 52 75 51 76 38 77 39 78 43 79
REMARK SMILES IDX 40 80 42 81 41 82
REMARK H PARENT 7 6 65 13 76 20 14 31 58 50 36 61
REMARK Flexibility Score: inf
ROOT
ATOM      1  C   UNL A   1      34.040  31.329  27.606  1.00  0.00     0.021 C 
ENDROOT
BRANCH   1   2
ATOM      2  C   UNL A   1      33.838  29.840  27.333  1.00  0.00     0.116 C 
BRANCH   2   3
ATOM      3  N   UNL A   1      34.134  29.529  25.947  1.00  0.00    -0.356 N 
ATOM      4  C   UNL A   1      33.594  28.602  25.113  1.00  0.00     0.222 C 
ATOM      5  O   UNL A   1      34.078  28.480  23.986  1.00  0.00    -0.275 OA
ATOM      6  H   UNL A   1      34.844  30.079  25.545  1.00  0.00     0.163 HD
BRANCH   4   7
ATOM      7  C   UNL A   1      32.388  27.787  25.520  1.00  0.00     0.127 C 
BRANCH   7   8
ATOM      8  C   UNL A   1      32.419  26.265  25.221  1.00  0.00     0.044 C 
ATOM      9  C   UNL A   1      33.553  25.561  25.967  1.00  0.00     0.035 C 
ATOM     10  C   UNL A   1      31.116  25.679  25.832  1.00  0.00     0.035 C 
BRANCH   8  11
ATOM     11  N   UNL A   1      32.350  25.968  23.769  1.00  0.00    -0.344 N 
ATOM     12  C   UNL A   1      31.609  26.404  22.692  1.00  0.00     0.289 C 
ATOM     13  H   UNL A   1      33.004  25.280  23.507  1.00  0.00     0.164 HD
ATOM     14  O   UNL A   1      31.597  25.645  21.721  1.00  0.00    -0.266 OA
BRANCH  12  15
ATOM     15  C   UNL A   1      30.999  27.712  22.649  1.00  0.00     0.214 A 
ATOM     16  N   UNL A   1      29.747  27.992  22.975  1.00  0.00    -0.207 NA
ATOM     17  N   UNL A   1      31.513  28.793  21.995  1.00  0.00    -0.255 N 
ATOM     18  C   UNL A   1      29.552  29.272  22.508  1.00  0.00     0.156 A 
ATOM     19  N   UNL A   1      30.643  29.816  21.947  1.00  0.00    -0.158 NA
ATOM     20  H   UNL A   1      32.415  28.820  21.604  1.00  0.00     0.192 HD
BRANCH  18  21
ATOM     21  C   UNL A   1      28.209  29.974  22.546  1.00  0.00     0.024 C 
ATOM     22  C   UNL A   1      27.103  28.971  22.927  1.00  0.00     0.019 C 
ATOM     23  C   UNL A   1      28.193  31.108  23.590  1.00  0.00     0.019 C 
ATOM     24  C   UNL A   1      27.862  30.570  21.169  1.00  0.00     0.019 C 
ENDBRANCH  18  21
ENDBRANCH  12  15
ENDBRANCH   8  11
ENDBRANCH   7   8
ENDBRANCH   4   7
ENDBRANCH   2   3
ENDBRANCH   1   2
BRANCH   1  25
ATOM     25  C   UNL A   1      34.995  31.630  28.756  1.00  0.00     0.002 C 
BRANCH  25  26
ATOM     26  C   UNL A   1      35.048  33.092  29.188  1.00  0.00     0.002 C 
BRANCH  26  27
ATOM     27  C   UNL A   1      33.737  33.871  29.030  1.00  0.00     0.021 C 
BRANCH  27  28
ATOM     28  C   UNL A   1      33.724  35.302  29.570  1.00  0.00     0.116 C 
BRANCH  28  29
ATOM     29  N   UNL A   1      32.696  35.542  30.571  1.00  0.00    -0.352 N 
ATOM     30  C   UNL A   1      32.754  35.324  31.926  1.00  0.00     0.251 C 
ATOM     31  H   UNL A   1      31.847  35.909  30.234  1.00  0.00     0.163 HD
ATOM     32  O   UNL A   1      31.789  35.557  32.645  1.00  0.00    -0.269 OA
BRANCH  30  33
ATOM     33  C   UNL A   1      33.986  34.758  32.508  1.00  0.00     0.039 A 
ATOM     34  C   UNL A   1      33.957  33.443  32.975  1.00  0.00     0.014 A 
ATOM     35  C   UNL A   1      35.167  35.505  32.548  1.00  0.00     0.014 A 
ATOM     36  C   UNL A   1      35.139  32.843  33.412  1.00  0.00     0.010 A 
ATOM     37  C   UNL A   1      36.351  34.895  32.955  1.00  0.00     0.010 A 
ATOM     38  C   UNL A   1      36.350  33.552  33.365  1.00  0.00    -0.014 A 
BRANCH  38  39
ATOM     39  C   UNL A   1      37.634  32.872  33.656  1.00  0.00     0.031 A 
ATOM     40  C   UNL A   1      38.215  31.875  32.699  1.00  0.00     0.074 A 
ATOM     41  C   UNL A   1      38.246  33.116  34.832  1.00  0.00     0.049 A 
ATOM     42  N   UNL A   1      39.316  31.175  32.809  1.00  0.00    -0.248 NA
ATOM     43  C   UNL A   1      37.453  31.615  31.468  1.00  0.00     0.031 C 
ATOM     44  C   UNL A   1      37.756  34.032  35.866  1.00  0.00     0.029 A 
ATOM     45  N   UNL A   1      39.404  32.607  35.361  1.00  0.00    -0.354 N 
ATOM     46  C   UNL A   1      39.379  30.391  31.665  1.00  0.00     0.074 A 
ATOM     47  C   UNL A   1      38.187  30.672  30.894  1.00  0.00     0.031 C 
ATOM     48  C   UNL A   1      38.618  34.033  36.895  1.00  0.00     0.029 A 
ATOM     49  C   UNL A   1      39.701  33.099  36.609  1.00  0.00     0.049 A 
ATOM     50  H   UNL A   1      39.969  31.951  34.892  1.00  0.00     0.167 HD
ATOM     51  C   UNL A   1      40.350  29.524  31.287  1.00  0.00     0.031 A 
ATOM     52  C   UNL A   1      40.729  32.826  37.433  1.00  0.00     0.031 A 
ATOM     53  C   UNL A   1      41.531  29.239  32.059  1.00  0.00     0.049 A 
ATOM     54  C   UNL A   1      41.785  31.851  36.995  1.00  0.00     0.074 A 
ATOM     55  C   UNL A   1      42.596  28.415  31.734  1.00  0.00     0.029 A 
ATOM     56  N   UNL A   1      41.801  29.762  33.314  1.00  0.00    -0.354 N 
ATOM     57  N   UNL A   1      41.869  31.175  35.875  1.00  0.00    -0.248 NA
ATOM     58  C   UNL A   1      42.892  31.612  37.931  1.00  0.00     0.031 C 
ATOM     59  C   UNL A   1      43.486  28.403  32.812  1.00  0.00     0.029 A 
ATOM     60  C   UNL A   1      43.001  29.260  33.788  1.00  0.00     0.049 A 
ATOM     61  H   UNL A   1      41.223  30.397  33.797  1.00  0.00     0.167 HD
ATOM     62  C   UNL A   1      43.051  30.452  35.959  1.00  0.00     0.074 A 
ATOM     63  C   UNL A   1      43.656  30.781  37.234  1.00  0.00     0.031 C 
ATOM     64  C   UNL A   1      43.587  29.593  35.059  1.00  0.00     0.031 A 
BRANCH  51  65
ATOM     65  C   UNL A   1      40.167  28.811  29.977  1.00  0.00    -0.014 A 
ATOM     66  C   UNL A   1      40.564  29.404  28.769  1.00  0.00     0.009 A 
ATOM     67  C   UNL A   1      39.630  27.515  29.954  1.00  0.00     0.009 A 
ATOM     68  C   UNL A   1      40.397  28.726  27.559  1.00  0.00     0.001 A 
ATOM     69  C   UNL A   1      39.486  26.829  28.746  1.00  0.00     0.001 A 
ATOM     70  C   UNL A   1      39.862  27.438  27.550  1.00  0.00     0.000 A 
ENDBRANCH  51  65
BRANCH  52  71
ATOM     71  C   UNL A   1      40.822  33.503  38.751  1.00  0.00    -0.014 A 
ATOM     72  C   UNL A   1      40.213  32.941  39.883  1.00  0.00     0.009 A 
ATOM     73  C   UNL A   1      41.517  34.715  38.883  1.00  0.00     0.009 A 
ATOM     74  C   UNL A   1      40.278  33.591  41.117  1.00  0.00     0.001 A 
ATOM     75  C   UNL A   1      41.603  35.350  40.124  1.00  0.00     0.001 A 
ATOM     76  C   UNL A   1      40.976  34.792  41.238  1.00  0.00     0.000 A 
ENDBRANCH  52  71
BRANCH  64  77
ATOM     77  C   UNL A   1      44.909  28.973  35.411  1.00  0.00    -0.014 A 
ATOM     78  C   UNL A   1      44.979  27.747  36.091  1.00  0.00     0.009 A 
ATOM     79  C   UNL A   1      46.099  29.609  35.028  1.00  0.00     0.009 A 
ATOM     80  C   UNL A   1      46.219  27.187  36.407  1.00  0.00     0.001 A 
ATOM     81  C   UNL A   1      47.336  29.034  35.323  1.00  0.00     0.001 A 
ATOM     82  C   UNL A   1      47.395  27.828  36.019  1.00  0.00     0.000 A 
ENDBRANCH  64  77
ENDBRANCH  38  39
ENDBRANCH  30  33
ENDBRANCH  28  29
ENDBRANCH  27  28
ENDBRANCH  26  27
ENDBRANCH  25  26
ENDBRANCH   1  25
TORSDOF 17
ENDMDL
MODEL 3
REMARK VINA RESULT:     -10.8      4.786      9.207
REMARK SMILES CC(C)(CC(=O)NCCCCCCNC(=O)c1ccc(-c2c3nc(c(-c4ccccc4)c4ccc([nH]4)c(-c4ccccc4)c4nc(c(-c5ccccc5)c5ccc2[nH]5)C=C4)C=C3)cc1)NC(=O)c1nc(C(C)(C)C)n[nH]1
REMARK SMILES IDX 9 1 8 2 7 3 5 4 6 5 4 7 2 8 1 9 3 10 65 11 66 12 67 14 68 15
REMARK SMILES IDX 69 16 76 17 70 18 75 19 71 21 72 22 73 23 74 24 10 25 11 26
REMARK SMILES IDX 12 27 13 28 14 29 15 30 16 32 17 33 18 34 64 35 19 36 63 37
REMARK SMILES IDX 20 38 21 39 22 40 57 41 23 42 62 43 56 44 58 45 24 46 61 47
REMARK SMILES IDX 55 48 54 49 25 51 47 52 32 53 46 54 33 55 36 56 45 57 59 58
REMARK SMILES IDX 34 59 35 60 44 62 60 63 37 64 26 65 27 66 31 67 28 68 30 69
REMARK SMILES IDX 29 70 48 71 49 72 53 73 50 74 52 75 51 76 38 77 39 78 43 79
REMARK SMILES IDX 40 80 42 81 41 82
REMARK H PARENT 7 6 65 13 76 20 14 31 58 50 36 61
REMARK Flexibility Score: inf
ROOT
ATOM      1  C   UNL A   1      35.924  23.968  25.408  1.00  0.00     0.021 C 
ENDROOT
BRANCH   1   2
ATOM      2  C   UNL A   1      34.643  23.841  24.586  1.00  0.00     0.116 C 
BRANCH   2   3
ATOM      3  N   UNL A   1      34.305  25.107  23.964  1.00  0.00    -0.356 N 
ATOM      4  C   UNL A   1      33.336  26.010  24.264  1.00  0.00     0.222 C 
ATOM      5  O   UNL A   1      33.200  26.988  23.527  1.00  0.00    -0.275 OA
ATOM      6  H   UNL A   1      34.872  25.352  23.197  1.00  0.00     0.163 HD
BRANCH   4   7
ATOM      7  C   UNL A   1      32.486  25.866  25.506  1.00  0.00     0.127 C 
BRANCH   7   8
ATOM      8  C   UNL A   1      30.986  25.519  25.310  1.00  0.00     0.044 C 
ATOM      9  C   UNL A   1      30.158  26.754  24.949  1.00  0.00     0.035 C 
ATOM     10  C   UNL A   1      30.914  24.610  24.052  1.00  0.00     0.035 C 
BRANCH   8  11
ATOM     11  N   UNL A   1      30.439  24.707  26.424  1.00  0.00    -0.344 N 
ATOM     12  C   UNL A   1      30.502  23.391  26.828  1.00  0.00     0.289 C 
ATOM     13  H   UNL A   1      29.886  25.249  27.033  1.00  0.00     0.164 HD
ATOM     14  O   UNL A   1      29.606  23.034  27.597  1.00  0.00    -0.266 OA
BRANCH  12  15
ATOM     15  C   UNL A   1      31.606  22.527  26.485  1.00  0.00     0.214 A 
ATOM     16  N   UNL A   1      31.622  21.650  25.493  1.00  0.00    -0.207 NA
ATOM     17  N   UNL A   1      32.673  22.264  27.293  1.00  0.00    -0.255 N 
ATOM     18  C   UNL A   1      32.738  20.882  25.736  1.00  0.00     0.156 A 
ATOM     19  N   UNL A   1      33.441  21.272  26.811  1.00  0.00    -0.158 NA
ATOM     20  H   UNL A   1      32.858  22.744  28.131  1.00  0.00     0.192 HD
BRANCH  18  21
ATOM     21  C   UNL A   1      33.096  19.658  24.918  1.00  0.00     0.024 C 
ATOM     22  C   UNL A   1      34.616  19.618  24.670  1.00  0.00     0.019 C 
ATOM     23  C   UNL A   1      32.708  18.356  25.647  1.00  0.00     0.019 C 
ATOM     24  C   UNL A   1      32.388  19.684  23.551  1.00  0.00     0.019 C 
ENDBRANCH  18  21
ENDBRANCH  12  15
ENDBRANCH   8  11
ENDBRANCH   7   8
ENDBRANCH   4   7
ENDBRANCH   2   3
ENDBRANCH   1   2
BRANCH   1  25
ATOM     25  C   UNL A   1      36.580  22.637  25.755  1.00  0.00     0.002 C 
BRANCH  25  26
ATOM     26  C   UNL A   1      37.478  22.054  24.668  1.00  0.00     0.002 C 
BRANCH  26  27
ATOM     27  C   UNL A   1      38.082  20.680  24.983  1.00  0.00     0.021 C 
BRANCH  27  28
ATOM     28  C   UNL A   1      39.171  20.643  26.058  1.00  0.00     0.116 C 
BRANCH  28  29
ATOM     29  N   UNL A   1      40.123  19.556  25.890  1.00  0.00    -0.352 N 
ATOM     30  C   UNL A   1      41.475  19.559  26.131  1.00  0.00     0.251 C 
ATOM     31  H   UNL A   1      39.749  18.707  25.561  1.00  0.00     0.163 HD
ATOM     32  O   UNL A   1      42.156  18.562  25.920  1.00  0.00    -0.269 OA
BRANCH  30  33
ATOM     33  C   UNL A   1      42.115  20.799  26.608  1.00  0.00     0.039 A 
ATOM     34  C   UNL A   1      42.648  21.677  25.663  1.00  0.00     0.014 A 
ATOM     35  C   UNL A   1      42.145  21.110  27.971  1.00  0.00     0.014 A 
ATOM     36  C   UNL A   1      43.144  22.914  26.078  1.00  0.00     0.010 A 
ATOM     37  C   UNL A   1      42.612  22.358  28.379  1.00  0.00     0.010 A 
ATOM     38  C   UNL A   1      43.091  23.278  27.433  1.00  0.00    -0.014 A 
BRANCH  38  39
ATOM     39  C   UNL A   1      43.448  24.652  27.860  1.00  0.00     0.031 A 
ATOM     40  C   UNL A   1      42.388  25.677  28.131  1.00  0.00     0.074 A 
ATOM     41  C   UNL A   1      44.750  24.989  27.939  1.00  0.00     0.049 A 
ATOM     42  N   UNL A   1      42.527  26.927  28.492  1.00  0.00    -0.248 NA
ATOM     43  C   UNL A   1      40.991  25.248  27.958  1.00  0.00     0.031 C 
ATOM     44  C   UNL A   1      45.874  24.091  27.657  1.00  0.00     0.029 A 
ATOM     45  N   UNL A   1      45.348  26.177  28.270  1.00  0.00    -0.354 N 
ATOM     46  C   UNL A   1      41.239  27.438  28.587  1.00  0.00     0.074 A 
ATOM     47  C   UNL A   1      40.335  26.373  28.208  1.00  0.00     0.031 C 
ATOM     48  C   UNL A   1      47.024  24.758  27.845  1.00  0.00     0.029 A 
ATOM     49  C   UNL A   1      46.721  26.132  28.230  1.00  0.00     0.049 A 
ATOM     50  H   UNL A   1      44.843  26.986  28.513  1.00  0.00     0.167 HD
ATOM     51  C   UNL A   1      40.847  28.678  28.967  1.00  0.00     0.031 A 
ATOM     52  C   UNL A   1      47.633  27.090  28.472  1.00  0.00     0.031 A 
ATOM     53  C   UNL A   1      41.749  29.739  29.335  1.00  0.00     0.049 A 
ATOM     54  C   UNL A   1      47.172  28.460  28.879  1.00  0.00     0.074 A 
ATOM     55  C   UNL A   1      41.444  31.013  29.784  1.00  0.00     0.029 A 
ATOM     56  N   UNL A   1      43.131  29.652  29.290  1.00  0.00    -0.354 N 
ATOM     57  N   UNL A   1      45.950  28.905  29.039  1.00  0.00    -0.248 NA
ATOM     58  C   UNL A   1      48.218  29.456  29.151  1.00  0.00     0.031 C 
ATOM     59  C   UNL A   1      42.641  31.712  29.965  1.00  0.00     0.029 A 
ATOM     60  C   UNL A   1      43.694  30.857  29.678  1.00  0.00     0.049 A 
ATOM     61  H   UNL A   1      43.638  28.852  29.021  1.00  0.00     0.167 HD
ATOM     62  C   UNL A   1      46.078  30.223  29.456  1.00  0.00     0.074 A 
ATOM     63  C   UNL A   1      47.498  30.501  29.536  1.00  0.00     0.031 C 
ATOM     64  C   UNL A   1      45.107  31.120  29.747  1.00  0.00     0.031 A 
BRANCH  51  65
ATOM     65  C   UNL A   1      39.371  28.958  28.994  1.00  0.00    -0.014 A 
ATOM     66  C   UNL A   1      38.619  28.764  30.163  1.00  0.00     0.009 A 
ATOM     67  C   UNL A   1      38.732  29.460  27.850  1.00  0.00     0.009 A 
ATOM     68  C   UNL A   1      37.249  29.037  30.176  1.00  0.00     0.001 A 
ATOM     69  C   UNL A   1      37.368  29.755  27.873  1.00  0.00     0.001 A 
ATOM     70  C   UNL A   1      36.627  29.536  29.033  1.00  0.00     0.000 A 
ENDBRANCH  51  65
BRANCH  52  71
ATOM     71  C   UNL A   1      49.081  26.780  28.358  1.00  0.00    -0.014 A 
ATOM     72  C   UNL A   1      49.748  26.944  27.134  1.00  0.00     0.009 A 
ATOM     73  C   UNL A   1      49.802  26.318  29.469  1.00  0.00     0.009 A 
ATOM     74  C   UNL A   1      51.103  26.628  27.020  1.00  0.00     0.001 A 
ATOM     75  C   UNL A   1      51.163  26.027  29.359  1.00  0.00     0.001 A 
ATOM     76  C   UNL A   1      51.811  26.174  28.132  1.00  0.00     0.000 A 
ENDBRANCH  52  71
BRANCH  64  77
ATOM     77  C   UNL A   1      45.549  32.480  30.209  1.00  0.00    -0.014 A 
ATOM     78  C   UNL A   1      45.740  33.530  29.298  1.00  0.00     0.009 A 
ATOM     79  C   UNL A   1      45.745  32.719  31.577  1.00  0.00     0.009 A 
ATOM     80  C   UNL A   1      46.150  34.787  29.748  1.00  0.00     0.001 A 
ATOM     81  C   UNL A   1      46.130  33.983  32.026  1.00  0.00     0.001 A 
ATOM     82  C   UNL A   1      46.340  35.013  31.111  1.00  0.00     0.000 A 
ENDBRANCH  64  77
ENDBRANCH  38  39
ENDBRANCH  30  33
ENDBRANCH  28  29
ENDBRANCH  27  28
ENDBRANCH  26  27
ENDBRANCH  25  26
ENDBRANCH   1  25
TORSDOF 17
ENDMDL
