MODEL 1
REMARK VINA RESULT:     -10.0      0.000      0.000
REMARK SMILES CC[C@H]1CCCC[C@@H]1Sc1csc(C(=O)NCCCCCCNC(=O)c2ccc(-c3c4nc(c(-c5ccccc5)c5ccc([nH]5)c(-c5ccccc5)c5nc(c(-c6ccccc6)c6ccc3[nH]6)C=C5)C=C4)cc2)c1
REMARK SMILES IDX 19 1 18 2 17 3 16 4 14 5 15 6 13 8 10 9 11 10 74 11 12 12
REMARK SMILES IDX 9 13 8 14 3 15 4 16 5 17 7 18 6 19 2 20 1 21 20 22 21 23
REMARK SMILES IDX 22 24 23 25 24 26 25 28 26 29 27 30 73 31 28 32 72 33 29 34
REMARK SMILES IDX 30 35 31 36 66 37 32 38 71 39 65 40 67 41 33 42 70 43 64 44
REMARK SMILES IDX 63 45 34 47 56 48 41 49 55 50 42 51 45 52 54 53 68 54 43 55
REMARK SMILES IDX 44 56 53 58 69 59 46 60 35 61 36 62 40 63 37 64 39 65 38 66
REMARK SMILES IDX 57 67 58 68 62 69 59 70 61 71 60 72 47 73 48 74 52 75 49 76
REMARK SMILES IDX 51 77 50 78
REMARK H PARENT 16 7 23 27 67 46 45 57
REMARK Flexibility Score: inf
ROOT
ATOM      1  C   UNL A   1      35.480  20.711  24.953  1.00  0.00     0.002 C 
ENDROOT
BRANCH   1   2
ATOM      2  C   UNL A   1      34.071  20.106  25.020  1.00  0.00     0.021 C 
BRANCH   2   3
ATOM      3  C   UNL A   1      32.980  21.071  24.552  1.00  0.00     0.116 C 
BRANCH   3   4
ATOM      4  N   UNL A   1      33.475  21.903  23.471  1.00  0.00    -0.351 N 
ATOM      5  C   UNL A   1      33.227  23.210  23.118  1.00  0.00     0.261 C 
ATOM      6  O   UNL A   1      33.856  23.619  22.139  1.00  0.00    -0.268 OA
ATOM      7  H   UNL A   1      34.111  21.445  22.877  1.00  0.00     0.163 HD
BRANCH   5   8
ATOM      8  C   UNL A   1      32.321  24.042  23.895  1.00  0.00     0.093 A 
ATOM      9  C   UNL A   1      31.395  25.700  25.257  1.00  0.00     0.019 A 
ATOM     10  C   UNL A   1      30.277  25.275  24.585  1.00  0.00     0.080 A 
ATOM     11  C   UNL A   1      32.539  24.912  24.946  1.00  0.00     0.040 A 
ATOM     12  S   UNL A   1      30.637  23.982  23.522  1.00  0.00    -0.137 S 
BRANCH   9  13
ATOM     13  S   UNL A   1      31.552  27.080  26.319  1.00  0.00    -0.122 SA
BRANCH  13  14
ATOM     14  C   UNL A   1      32.153  28.458  25.259  1.00  0.00     0.055 C 
ATOM     15  C   UNL A   1      33.694  28.281  25.126  1.00  0.00     0.002 C 
ATOM     16  C   UNL A   1      34.447  28.682  26.412  1.00  0.00     0.005 C 
ATOM     17  C   UNL A   1      33.997  29.999  27.042  1.00  0.00     0.000 C 
ATOM     18  C   UNL A   1      31.776  29.824  25.845  1.00  0.00     0.015 C 
ATOM     19  C   UNL A   1      32.484  30.131  27.160  1.00  0.00     0.001 C 
BRANCH  15  20
ATOM     20  C   UNL A   1      34.282  28.888  23.827  1.00  0.00     0.001 C 
ATOM     21  C   UNL A   1      33.407  28.927  22.586  1.00  0.00     0.004 C 
ENDBRANCH  15  20
ENDBRANCH  13  14
ENDBRANCH   9  13
ENDBRANCH   5   8
ENDBRANCH   3   4
ENDBRANCH   2   3
ENDBRANCH   1   2
BRANCH   1  22
ATOM     22  C   UNL A   1      35.826  21.667  26.103  1.00  0.00     0.002 C 
BRANCH  22  23
ATOM     23  C   UNL A   1      35.876  23.148  25.722  1.00  0.00     0.021 C 
BRANCH  23  24
ATOM     24  C   UNL A   1      37.223  23.611  25.177  1.00  0.00     0.116 C 
BRANCH  24  25
ATOM     25  N   UNL A   1      38.289  22.680  25.511  1.00  0.00    -0.352 N 
ATOM     26  C   UNL A   1      39.483  22.914  26.146  1.00  0.00     0.251 C 
ATOM     27  H   UNL A   1      38.131  21.746  25.242  1.00  0.00     0.163 HD
ATOM     28  O   UNL A   1      40.360  22.059  26.147  1.00  0.00    -0.269 OA
BRANCH  26  29
ATOM     29  C   UNL A   1      39.714  24.208  26.820  1.00  0.00     0.039 A 
ATOM     30  C   UNL A   1      39.194  24.406  28.102  1.00  0.00     0.014 A 
ATOM     31  C   UNL A   1      40.422  25.230  26.181  1.00  0.00     0.014 A 
ATOM     32  C   UNL A   1      39.431  25.610  28.765  1.00  0.00     0.010 A 
ATOM     33  C   UNL A   1      40.719  26.401  26.870  1.00  0.00     0.010 A 
ATOM     34  C   UNL A   1      40.219  26.606  28.166  1.00  0.00    -0.014 A 
BRANCH  34  35
ATOM     35  C   UNL A   1      40.530  27.871  28.875  1.00  0.00     0.031 A 
ATOM     36  C   UNL A   1      41.838  28.034  29.597  1.00  0.00     0.074 A 
ATOM     37  C   UNL A   1      39.605  28.848  28.926  1.00  0.00     0.049 A 
ATOM     38  N   UNL A   1      42.264  29.041  30.316  1.00  0.00    -0.248 NA
ATOM     39  C   UNL A   1      42.778  26.905  29.523  1.00  0.00     0.031 C 
ATOM     40  C   UNL A   1      38.279  28.793  28.309  1.00  0.00     0.029 A 
ATOM     41  N   UNL A   1      39.637  30.075  29.538  1.00  0.00    -0.354 N 
ATOM     42  C   UNL A   1      43.513  28.662  30.790  1.00  0.00     0.074 A 
ATOM     43  C   UNL A   1      43.750  27.312  30.325  1.00  0.00     0.031 C 
ATOM     44  C   UNL A   1      37.631  29.942  28.557  1.00  0.00     0.029 A 
ATOM     45  C   UNL A   1      38.480  30.797  29.381  1.00  0.00     0.049 A 
ATOM     46  H   UNL A   1      40.415  30.407  30.042  1.00  0.00     0.167 HD
ATOM     47  C   UNL A   1      44.395  29.378  31.528  1.00  0.00     0.031 A 
ATOM     48  C   UNL A   1      38.135  32.009  29.854  1.00  0.00     0.031 A 
ATOM     49  C   UNL A   1      44.157  30.719  31.994  1.00  0.00     0.049 A 
ATOM     50  C   UNL A   1      39.121  32.784  30.679  1.00  0.00     0.074 A 
ATOM     51  C   UNL A   1      45.005  31.550  32.705  1.00  0.00     0.029 A 
ATOM     52  N   UNL A   1      42.978  31.422  31.800  1.00  0.00    -0.354 N 
ATOM     53  N   UNL A   1      40.329  32.441  31.059  1.00  0.00    -0.248 NA
ATOM     54  C   UNL A   1      38.704  34.120  31.128  1.00  0.00     0.031 C 
ATOM     55  C   UNL A   1      44.319  32.737  32.986  1.00  0.00     0.029 A 
ATOM     56  C   UNL A   1      43.065  32.668  32.400  1.00  0.00     0.049 A 
ATOM     57  H   UNL A   1      42.194  31.086  31.308  1.00  0.00     0.167 HD
ATOM     58  C   UNL A   1      40.823  33.525  31.774  1.00  0.00     0.074 A 
ATOM     59  C   UNL A   1      39.791  34.543  31.758  1.00  0.00     0.031 C 
ATOM     60  C   UNL A   1      42.024  33.665  32.386  1.00  0.00     0.031 A 
BRANCH  47  61
ATOM     61  C   UNL A   1      45.695  28.708  31.884  1.00  0.00    -0.014 A 
ATOM     62  C   UNL A   1      46.831  28.843  31.069  1.00  0.00     0.009 A 
ATOM     63  C   UNL A   1      45.786  27.930  33.048  1.00  0.00     0.009 A 
ATOM     64  C   UNL A   1      48.015  28.172  31.385  1.00  0.00     0.001 A 
ATOM     65  C   UNL A   1      46.979  27.287  33.380  1.00  0.00     0.001 A 
ATOM     66  C   UNL A   1      48.088  27.396  32.541  1.00  0.00     0.000 A 
ENDBRANCH  47  61
BRANCH  48  67
ATOM     67  C   UNL A   1      36.793  32.563  29.542  1.00  0.00    -0.014 A 
ATOM     68  C   UNL A   1      36.560  33.231  28.329  1.00  0.00     0.009 A 
ATOM     69  C   UNL A   1      35.727  32.399  30.442  1.00  0.00     0.009 A 
ATOM     70  C   UNL A   1      35.293  33.738  28.034  1.00  0.00     0.001 A 
ATOM     71  C   UNL A   1      34.455  32.883  30.131  1.00  0.00     0.001 A 
ATOM     72  C   UNL A   1      34.240  33.557  28.931  1.00  0.00     0.000 A 
ENDBRANCH  48  67
BRANCH  60  73
ATOM     73  C   UNL A   1      42.297  34.975  33.071  1.00  0.00    -0.014 A 
ATOM     74  C   UNL A   1      41.782  35.252  34.347  1.00  0.00     0.009 A 
ATOM     75  C   UNL A   1      43.116  35.929  32.446  1.00  0.00     0.009 A 
ATOM     76  C   UNL A   1      42.054  36.472  34.967  1.00  0.00     0.001 A 
ATOM     77  C   UNL A   1      43.410  37.135  33.081  1.00  0.00     0.001 A 
ATOM     78  C   UNL A   1      42.872  37.411  34.338  1.00  0.00     0.000 A 
ENDBRANCH  60  73
ENDBRANCH  34  35
ENDBRANCH  26  29
ENDBRANCH  24  25
ENDBRANCH  23  24
ENDBRANCH  22  23
ENDBRANCH   1  22
TORSDOF 16
ENDMDL
MODEL 2
REMARK VINA RESULT:      -9.9      2.628      7.033
REMARK SMILES CC[C@H]1CCCC[C@@H]1Sc1csc(C(=O)NCCCCCCNC(=O)c2ccc(-c3c4nc(c(-c5ccccc5)c5ccc([nH]5)c(-c5ccccc5)c5nc(c(-c6ccccc6)c6ccc3[nH]6)C=C5)C=C4)cc2)c1
REMARK SMILES IDX 19 1 18 2 17 3 16 4 14 5 15 6 13 8 10 9 11 10 74 11 12 12
REMARK SMILES IDX 9 13 8 14 3 15 4 16 5 17 7 18 6 19 2 20 1 21 20 22 21 23
REMARK SMILES IDX 22 24 23 25 24 26 25 28 26 29 27 30 73 31 28 32 72 33 29 34
REMARK SMILES IDX 30 35 31 36 66 37 32 38 71 39 65 40 67 41 33 42 70 43 64 44
REMARK SMILES IDX 63 45 34 47 56 48 41 49 55 50 42 51 45 52 54 53 68 54 43 55
REMARK SMILES IDX 44 56 53 58 69 59 46 60 35 61 36 62 40 63 37 64 39 65 38 66
REMARK SMILES IDX 57 67 58 68 62 69 59 70 61 71 60 72 47 73 48 74 52 75 49 76
REMARK SMILES IDX 51 77 50 78
REMARK H PARENT 16 7 23 27 67 46 45 57
REMARK Flexibility Score: inf
ROOT
ATOM      1  C   UNL A   1      35.668  21.322  25.013  1.00  0.00     0.002 C 
ENDROOT
BRANCH   1   2
ATOM      2  C   UNL A   1      34.899  19.996  24.923  1.00  0.00     0.021 C 
BRANCH   2   3
ATOM      3  C   UNL A   1      33.470  20.094  25.460  1.00  0.00     0.116 C 
BRANCH   3   4
ATOM      4  N   UNL A   1      33.463  20.738  26.760  1.00  0.00    -0.351 N 
ATOM      5  C   UNL A   1      33.064  21.987  27.175  1.00  0.00     0.261 C 
ATOM      6  O   UNL A   1      33.168  22.198  28.386  1.00  0.00    -0.268 OA
ATOM      7  H   UNL A   1      33.810  20.171  27.485  1.00  0.00     0.163 HD
BRANCH   5   8
ATOM      8  C   UNL A   1      32.514  22.953  26.236  1.00  0.00     0.093 A 
ATOM      9  C   UNL A   1      32.232  24.543  24.546  1.00  0.00     0.019 A 
ATOM     10  C   UNL A   1      30.954  24.054  24.646  1.00  0.00     0.080 A 
ATOM     11  C   UNL A   1      33.094  23.995  25.539  1.00  0.00     0.040 A 
ATOM     12  S   UNL A   1      30.827  22.877  25.882  1.00  0.00    -0.137 S 
BRANCH   9  13
ATOM     13  S   UNL A   1      32.877  25.633  23.341  1.00  0.00    -0.122 SA
BRANCH  13  14
ATOM     14  C   UNL A   1      33.629  27.025  24.279  1.00  0.00     0.055 C 
ATOM     15  C   UNL A   1      32.667  27.340  25.460  1.00  0.00     0.002 C 
ATOM     16  C   UNL A   1      31.393  28.081  25.002  1.00  0.00     0.005 C 
ATOM     17  C   UNL A   1      31.630  29.237  24.030  1.00  0.00     0.000 C 
ATOM     18  C   UNL A   1      33.864  28.246  23.382  1.00  0.00     0.015 C 
ATOM     19  C   UNL A   1      32.572  28.886  22.886  1.00  0.00     0.001 C 
BRANCH  15  20
ATOM     20  C   UNL A   1      33.369  27.979  26.685  1.00  0.00     0.001 C 
ATOM     21  C   UNL A   1      32.802  29.266  27.256  1.00  0.00     0.004 C 
ENDBRANCH  15  20
ENDBRANCH  13  14
ENDBRANCH   9  13
ENDBRANCH   5   8
ENDBRANCH   3   4
ENDBRANCH   2   3
ENDBRANCH   1   2
BRANCH   1  22
ATOM     22  C   UNL A   1      37.094  21.280  24.444  1.00  0.00     0.002 C 
BRANCH  22  23
ATOM     23  C   UNL A   1      37.917  20.056  24.853  1.00  0.00     0.021 C 
BRANCH  23  24
ATOM     24  C   UNL A   1      38.943  20.329  25.949  1.00  0.00     0.116 C 
BRANCH  24  25
ATOM     25  N   UNL A   1      40.061  19.400  25.885  1.00  0.00    -0.352 N 
ATOM     26  C   UNL A   1      41.403  19.641  26.041  1.00  0.00     0.251 C 
ATOM     27  H   UNL A   1      39.820  18.463  25.702  1.00  0.00     0.163 HD
ATOM     28  O   UNL A   1      42.224  18.785  25.735  1.00  0.00    -0.269 OA
BRANCH  26  29
ATOM     29  C   UNL A   1      41.857  20.943  26.572  1.00  0.00     0.039 A 
ATOM     30  C   UNL A   1      42.275  21.931  25.676  1.00  0.00     0.014 A 
ATOM     31  C   UNL A   1      41.892  21.180  27.949  1.00  0.00     0.014 A 
ATOM     32  C   UNL A   1      42.677  23.176  26.160  1.00  0.00     0.010 A 
ATOM     33  C   UNL A   1      42.222  22.443  28.425  1.00  0.00     0.010 A 
ATOM     34  C   UNL A   1      42.626  23.452  27.536  1.00  0.00    -0.014 A 
BRANCH  34  35
ATOM     35  C   UNL A   1      42.996  24.786  28.066  1.00  0.00     0.031 A 
ATOM     36  C   UNL A   1      41.939  25.831  28.293  1.00  0.00     0.074 A 
ATOM     37  C   UNL A   1      44.292  25.081  28.280  1.00  0.00     0.049 A 
ATOM     38  N   UNL A   1      42.075  27.069  28.697  1.00  0.00    -0.248 NA
ATOM     39  C   UNL A   1      40.551  25.442  27.999  1.00  0.00     0.031 C 
ATOM     40  C   UNL A   1      45.416  24.172  28.053  1.00  0.00     0.029 A 
ATOM     41  N   UNL A   1      44.882  26.236  28.726  1.00  0.00    -0.354 N 
ATOM     42  C   UNL A   1      40.795  27.608  28.693  1.00  0.00     0.074 A 
ATOM     43  C   UNL A   1      39.906  26.581  28.192  1.00  0.00     0.031 C 
ATOM     44  C   UNL A   1      46.558  24.796  28.379  1.00  0.00     0.029 A 
ATOM     45  C   UNL A   1      46.251  26.160  28.800  1.00  0.00     0.049 A 
ATOM     46  H   UNL A   1      44.374  27.043  28.969  1.00  0.00     0.167 HD
ATOM     47  C   UNL A   1      40.390  28.838  29.091  1.00  0.00     0.031 A 
ATOM     48  C   UNL A   1      47.160  27.085  29.159  1.00  0.00     0.031 A 
ATOM     49  C   UNL A   1      41.275  29.859  29.585  1.00  0.00     0.049 A 
ATOM     50  C   UNL A   1      46.693  28.447  29.586  1.00  0.00     0.074 A 
ATOM     51  C   UNL A   1      40.959  31.120  30.060  1.00  0.00     0.029 A 
ATOM     52  N   UNL A   1      42.654  29.737  29.660  1.00  0.00    -0.354 N 
ATOM     53  N   UNL A   1      45.471  28.919  29.646  1.00  0.00    -0.248 NA
ATOM     54  C   UNL A   1      47.729  29.399  30.010  1.00  0.00     0.031 C 
ATOM     55  C   UNL A   1      42.153  31.780  30.372  1.00  0.00     0.029 A 
ATOM     56  C   UNL A   1      43.208  30.909  30.148  1.00  0.00     0.049 A 
ATOM     57  H   UNL A   1      43.165  28.935  29.403  1.00  0.00     0.167 HD
ATOM     58  C   UNL A   1      45.589  30.215  30.133  1.00  0.00     0.074 A 
ATOM     59  C   UNL A   1      47.000  30.446  30.369  1.00  0.00     0.031 C 
ATOM     60  C   UNL A   1      44.615  31.129  30.365  1.00  0.00     0.031 A 
BRANCH  47  61
ATOM     61  C   UNL A   1      38.919  29.141  28.989  1.00  0.00    -0.014 A 
ATOM     62  C   UNL A   1      38.354  29.618  27.795  1.00  0.00     0.009 A 
ATOM     63  C   UNL A   1      38.085  28.948  30.101  1.00  0.00     0.009 A 
ATOM     64  C   UNL A   1      36.997  29.944  27.732  1.00  0.00     0.001 A 
ATOM     65  C   UNL A   1      36.723  29.243  30.027  1.00  0.00     0.001 A 
ATOM     66  C   UNL A   1      36.183  29.754  28.847  1.00  0.00     0.000 A 
ENDBRANCH  47  61
BRANCH  48  67
ATOM     67  C   UNL A   1      48.605  26.740  29.138  1.00  0.00    -0.014 A 
ATOM     68  C   UNL A   1      49.372  26.947  27.981  1.00  0.00     0.009 A 
ATOM     69  C   UNL A   1      49.232  26.231  30.287  1.00  0.00     0.009 A 
ATOM     70  C   UNL A   1      50.733  26.634  27.971  1.00  0.00     0.001 A 
ATOM     71  C   UNL A   1      50.598  25.946  30.281  1.00  0.00     0.001 A 
ATOM     72  C   UNL A   1      51.347  26.142  29.122  1.00  0.00     0.000 A 
ENDBRANCH  48  67
BRANCH  60  73
ATOM     73  C   UNL A   1      45.041  32.457  30.924  1.00  0.00    -0.014 A 
ATOM     74  C   UNL A   1      45.343  33.540  30.083  1.00  0.00     0.009 A 
ATOM     75  C   UNL A   1      45.102  32.639  32.315  1.00  0.00     0.009 A 
ATOM     76  C   UNL A   1      45.730  34.767  30.624  1.00  0.00     0.001 A 
ATOM     77  C   UNL A   1      45.459  33.876  32.853  1.00  0.00     0.001 A 
ATOM     78  C   UNL A   1      45.782  34.937  32.007  1.00  0.00     0.000 A 
ENDBRANCH  60  73
ENDBRANCH  34  35
ENDBRANCH  26  29
ENDBRANCH  24  25
ENDBRANCH  23  24
ENDBRANCH  22  23
ENDBRANCH   1  22
TORSDOF 16
ENDMDL
MODEL 3
REMARK VINA RESULT:      -9.9      2.624      7.807
REMARK SMILES CC[C@H]1CCCC[C@@H]1Sc1csc(C(=O)NCCCCCCNC(=O)c2ccc(-c3c4nc(c(-c5ccccc5)c5ccc([nH]5)c(-c5ccccc5)c5nc(c(-c6ccccc6)c6ccc3[nH]6)C=C5)C=C4)cc2)c1
REMARK SMILES IDX 19 1 18 2 17 3 16 4 14 5 15 6 13 8 10 9 11 10 74 11 12 12
REMARK SMILES IDX 9 13 8 14 3 15 4 16 5 17 7 18 6 19 2 20 1 21 20 22 21 23
REMARK SMILES IDX 22 24 23 25 24 26 25 28 26 29 27 30 73 31 28 32 72 33 29 34
REMARK SMILES IDX 30 35 31 36 66 37 32 38 71 39 65 40 67 41 33 42 70 43 64 44
REMARK SMILES IDX 63 45 34 47 56 48 41 49 55 50 42 51 45 52 54 53 68 54 43 55
REMARK SMILES IDX 44 56 53 58 69 59 46 60 35 61 36 62 40 63 37 64 39 65 38 66
REMARK SMILES IDX 57 67 58 68 62 69 59 70 61 71 60 72 47 73 48 74 52 75 49 76
REMARK SMILES IDX 51 77 50 78
REMARK H PARENT 16 7 23 27 67 46 45 57
REMARK Flexibility Score: inf
ROOT
ATOM      1  C   UNL A   1      33.022  30.044  27.091  1.00  0.00     0.002 C 
ENDROOT
BRANCH   1   2
ATOM      2  C   UNL A   1      33.650  29.350  25.874  1.00  0.00     0.021 C 
BRANCH   2   3
ATOM      3  C   UNL A   1      32.765  29.406  24.628  1.00  0.00     0.116 C 
BRANCH   3   4
ATOM      4  N   UNL A   1      33.556  29.163  23.437  1.00  0.00    -0.351 N 
ATOM      5  C   UNL A   1      33.632  28.094  22.575  1.00  0.00     0.261 C 
ATOM      6  O   UNL A   1      34.405  28.238  21.624  1.00  0.00    -0.268 OA
ATOM      7  H   UNL A   1      34.154  29.908  23.199  1.00  0.00     0.163 HD
BRANCH   5   8
ATOM      8  C   UNL A   1      32.809  26.910  22.768  1.00  0.00     0.093 A 
ATOM      9  C   UNL A   1      31.967  24.840  23.453  1.00  0.00     0.019 A 
ATOM     10  C   UNL A   1      30.810  25.463  23.057  1.00  0.00     0.080 A 
ATOM     11  C   UNL A   1      33.121  25.627  23.175  1.00  0.00     0.040 A 
ATOM     12  S   UNL A   1      31.121  27.026  22.431  1.00  0.00    -0.137 S 
BRANCH   9  13
ATOM     13  S   UNL A   1      32.135  23.314  24.290  1.00  0.00    -0.122 SA
BRANCH  13  14
ATOM     14  C   UNL A   1      33.842  23.309  24.978  1.00  0.00     0.055 C 
ATOM     15  C   UNL A   1      34.465  21.929  24.617  1.00  0.00     0.002 C 
ATOM     16  C   UNL A   1      33.903  20.783  25.483  1.00  0.00     0.005 C 
ATOM     17  C   UNL A   1      33.815  21.085  26.979  1.00  0.00     0.000 C 
ATOM     18  C   UNL A   1      33.840  23.565  26.489  1.00  0.00     0.015 C 
ATOM     19  C   UNL A   1      33.194  22.440  27.290  1.00  0.00     0.001 C 
BRANCH  15  20
ATOM     20  C   UNL A   1      36.011  21.951  24.513  1.00  0.00     0.001 C 
ATOM     21  C   UNL A   1      36.654  22.857  23.478  1.00  0.00     0.004 C 
ENDBRANCH  15  20
ENDBRANCH  13  14
ENDBRANCH   9  13
ENDBRANCH   5   8
ENDBRANCH   3   4
ENDBRANCH   2   3
ENDBRANCH   1   2
BRANCH   1  22
ATOM     22  C   UNL A   1      31.596  30.568  26.869  1.00  0.00     0.002 C 
BRANCH  22  23
ATOM     23  C   UNL A   1      31.458  32.092  26.874  1.00  0.00     0.021 C 
BRANCH  23  24
ATOM     24  C   UNL A   1      32.772  32.840  27.071  1.00  0.00     0.116 C 
BRANCH  24  25
ATOM     25  N   UNL A   1      32.565  34.144  27.681  1.00  0.00    -0.352 N 
ATOM     26  C   UNL A   1      33.198  34.713  28.757  1.00  0.00     0.251 C 
ATOM     27  H   UNL A   1      31.868  34.699  27.261  1.00  0.00     0.163 HD
ATOM     28  O   UNL A   1      32.747  35.727  29.275  1.00  0.00    -0.269 OA
BRANCH  26  29
ATOM     29  C   UNL A   1      34.425  34.092  29.298  1.00  0.00     0.039 A 
ATOM     30  C   UNL A   1      34.325  33.255  30.413  1.00  0.00     0.014 A 
ATOM     31  C   UNL A   1      35.672  34.351  28.721  1.00  0.00     0.014 A 
ATOM     32  C   UNL A   1      35.469  32.636  30.916  1.00  0.00     0.010 A 
ATOM     33  C   UNL A   1      36.798  33.677  29.177  1.00  0.00     0.010 A 
ATOM     34  C   UNL A   1      36.711  32.820  30.285  1.00  0.00    -0.014 A 
BRANCH  34  35
ATOM     35  C   UNL A   1      37.929  32.127  30.769  1.00  0.00     0.031 A 
ATOM     36  C   UNL A   1      38.740  32.715  31.890  1.00  0.00     0.074 A 
ATOM     37  C   UNL A   1      38.342  31.002  30.155  1.00  0.00     0.049 A 
ATOM     38  N   UNL A   1      39.861  32.284  32.411  1.00  0.00    -0.248 NA
ATOM     39  C   UNL A   1      38.241  33.965  32.482  1.00  0.00     0.031 C 
ATOM     40  C   UNL A   1      37.671  30.357  29.026  1.00  0.00     0.029 A 
ATOM     41  N   UNL A   1      39.436  30.208  30.389  1.00  0.00    -0.354 N 
ATOM     42  C   UNL A   1      40.207  33.217  33.381  1.00  0.00     0.074 A 
ATOM     43  C   UNL A   1      39.208  34.264  33.335  1.00  0.00     0.031 C 
ATOM     44  C   UNL A   1      38.356  29.258  28.677  1.00  0.00     0.029 A 
ATOM     45  C   UNL A   1      39.534  29.141  29.532  1.00  0.00     0.049 A 
ATOM     46  H   UNL A   1      40.090  30.388  31.103  1.00  0.00     0.167 HD
ATOM     47  C   UNL A   1      41.248  33.196  34.247  1.00  0.00     0.031 A 
ATOM     48  C   UNL A   1      40.470  28.179  29.437  1.00  0.00     0.031 A 
ATOM     49  C   UNL A   1      42.243  32.156  34.289  1.00  0.00     0.049 A 
ATOM     50  C   UNL A   1      41.623  28.177  30.399  1.00  0.00     0.074 A 
ATOM     51  C   UNL A   1      43.308  32.015  35.161  1.00  0.00     0.029 A 
ATOM     52  N   UNL A   1      42.297  31.082  33.414  1.00  0.00    -0.354 N 
ATOM     53  N   UNL A   1      41.897  29.027  31.359  1.00  0.00    -0.248 NA
ATOM     54  C   UNL A   1      42.587  27.075  30.275  1.00  0.00     0.031 C 
ATOM     55  C   UNL A   1      44.038  30.884  34.779  1.00  0.00     0.029 A 
ATOM     56  C   UNL A   1      43.393  30.287  33.707  1.00  0.00     0.049 A 
ATOM     57  H   UNL A   1      41.651  30.910  32.690  1.00  0.00     0.167 HD
ATOM     58  C   UNL A   1      43.053  28.553  31.966  1.00  0.00     0.074 A 
ATOM     59  C   UNL A   1      43.416  27.331  31.277  1.00  0.00     0.031 C 
ATOM     60  C   UNL A   1      43.748  29.081  33.003  1.00  0.00     0.031 A 
BRANCH  47  61
ATOM     61  C   UNL A   1      41.362  34.347  35.210  1.00  0.00    -0.014 A 
ATOM     62  C   UNL A   1      42.111  35.491  34.892  1.00  0.00     0.009 A 
ATOM     63  C   UNL A   1      40.712  34.288  36.452  1.00  0.00     0.009 A 
ATOM     64  C   UNL A   1      42.250  36.529  35.817  1.00  0.00     0.001 A 
ATOM     65  C   UNL A   1      40.825  35.340  37.363  1.00  0.00     0.001 A 
ATOM     66  C   UNL A   1      41.605  36.453  37.051  1.00  0.00     0.000 A 
ENDBRANCH  47  61
BRANCH  48  67
ATOM     67  C   UNL A   1      40.340  27.130  28.393  1.00  0.00    -0.014 A 
ATOM     68  C   UNL A   1      39.590  25.969  28.636  1.00  0.00     0.009 A 
ATOM     69  C   UNL A   1      40.940  27.299  27.135  1.00  0.00     0.009 A 
ATOM     70  C   UNL A   1      39.459  24.992  27.647  1.00  0.00     0.001 A 
ATOM     71  C   UNL A   1      40.784  26.334  26.139  1.00  0.00     0.001 A 
ATOM     72  C   UNL A   1      40.049  25.178  26.397  1.00  0.00     0.000 A 
ENDBRANCH  48  67
BRANCH  60  73
ATOM     73  C   UNL A   1      44.962  28.327  33.470  1.00  0.00    -0.014 A 
ATOM     74  C   UNL A   1      44.861  27.296  34.417  1.00  0.00     0.009 A 
ATOM     75  C   UNL A   1      46.220  28.626  32.922  1.00  0.00     0.009 A 
ATOM     76  C   UNL A   1      46.000  26.604  34.831  1.00  0.00     0.001 A 
ATOM     77  C   UNL A   1      47.352  27.912  33.316  1.00  0.00     0.001 A 
ATOM     78  C   UNL A   1      47.243  26.908  34.277  1.00  0.00     0.000 A 
ENDBRANCH  60  73
ENDBRANCH  34  35
ENDBRANCH  26  29
ENDBRANCH  24  25
ENDBRANCH  23  24
ENDBRANCH  22  23
ENDBRANCH   1  22
TORSDOF 16
ENDMDL
