MODEL 1
REMARK VINA RESULT:     -11.3      0.000      0.000
REMARK SMILES O=C(C[C@@H]1CN(c2nc3ccccc3s2)CCO1)NCCCCCCNC(=O)c1ccc(-c2c3nc(c(-c4ccccc4)c4ccc([nH]4)c(-c4ccccc4)c4nc(c(-c5ccccc5)c5ccc2[nH]5)C=C4)C=C3)cc1
REMARK SMILES IDX 22 1 21 2 20 3 19 4 1 5 2 6 3 8 4 9 5 10 18 11 6 12 17 13
REMARK SMILES IDX 16 14 7 15 8 16 15 17 9 18 14 19 10 20 13 21 11 22 12 23
REMARK SMILES IDX 23 24 24 25 25 26 26 27 27 28 28 30 29 31 30 32 76 33 31 34
REMARK SMILES IDX 75 35 32 36 33 37 34 38 69 39 35 40 74 41 68 42 70 43 36 44
REMARK SMILES IDX 73 45 67 46 66 47 37 49 59 50 44 51 58 52 45 53 48 54 57 55
REMARK SMILES IDX 71 56 46 57 47 58 56 60 72 61 49 62 38 63 39 64 43 65 40 66
REMARK SMILES IDX 42 67 41 68 60 69 61 70 65 71 62 72 64 73 63 74 50 75 51 76
REMARK SMILES IDX 55 77 52 78 54 79 53 80
REMARK H PARENT 19 7 26 29 70 48 48 59
REMARK Flexibility Score: inf
ROOT
ATOM      1  C   UNL A   1      36.715  22.045  24.711  1.00  0.00     0.002 C 
ENDROOT
BRANCH   1   2
ATOM      2  C   UNL A   1      35.858  22.975  25.583  1.00  0.00     0.021 C 
BRANCH   2   3
ATOM      3  C   UNL A   1      34.642  22.314  26.229  1.00  0.00     0.116 C 
BRANCH   3   4
ATOM      4  N   UNL A   1      33.415  22.667  25.546  1.00  0.00    -0.356 N 
ATOM      5  O   UNL A   1      32.234  23.251  27.428  1.00  0.00    -0.275 OA
ATOM      6  C   UNL A   1      32.313  23.165  26.209  1.00  0.00     0.222 C 
ATOM      7  H   UNL A   1      33.364  22.544  24.571  1.00  0.00     0.163 HD
BRANCH   6   8
ATOM      8  C   UNL A   1      31.234  23.665  25.270  1.00  0.00     0.133 C 
BRANCH   8   9
ATOM      9  C   UNL A   1      31.677  24.859  24.415  1.00  0.00     0.147 C 
ATOM     10  C   UNL A   1      30.523  25.716  23.847  1.00  0.00     0.151 C 
ATOM     11  O   UNL A   1      32.526  24.385  23.342  1.00  0.00    -0.374 OA
ATOM     12  N   UNL A   1      31.089  26.808  23.060  1.00  0.00    -0.343 N 
ATOM     13  C   UNL A   1      33.066  25.489  22.586  1.00  0.00     0.182 C 
ATOM     14  C   UNL A   1      31.955  26.364  21.973  1.00  0.00     0.147 C 
BRANCH  12  15
ATOM     15  C   UNL A   1      30.468  28.010  23.012  1.00  0.00     0.186 A 
ATOM     16  N   UNL A   1      29.751  28.449  22.005  1.00  0.00    -0.220 NA
ATOM     17  S   UNL A   1      30.648  29.130  24.316  1.00  0.00    -0.097 S 
ATOM     18  C   UNL A   1      29.266  29.720  22.274  1.00  0.00     0.084 A 
ATOM     19  C   UNL A   1      29.693  30.279  23.478  1.00  0.00     0.056 A 
ATOM     20  C   UNL A   1      28.408  30.477  21.450  1.00  0.00     0.030 A 
ATOM     21  C   UNL A   1      29.340  31.581  23.868  1.00  0.00     0.021 A 
ATOM     22  C   UNL A   1      28.031  31.769  21.838  1.00  0.00     0.002 A 
ATOM     23  C   UNL A   1      28.503  32.316  23.027  1.00  0.00     0.002 A 
ENDBRANCH  12  15
ENDBRANCH   8   9
ENDBRANCH   6   8
ENDBRANCH   3   4
ENDBRANCH   2   3
ENDBRANCH   1   2
BRANCH   1  24
ATOM     24  C   UNL A   1      36.553  20.547  24.986  1.00  0.00     0.002 C 
BRANCH  24  25
ATOM     25  C   UNL A   1      37.825  19.713  24.821  1.00  0.00     0.021 C 
BRANCH  25  26
ATOM     26  C   UNL A   1      38.972  20.091  25.751  1.00  0.00     0.116 C 
BRANCH  26  27
ATOM     27  N   UNL A   1      40.005  19.069  25.818  1.00  0.00    -0.352 N 
ATOM     28  C   UNL A   1      41.352  19.217  26.041  1.00  0.00     0.251 C 
ATOM     29  H   UNL A   1      39.696  18.144  25.686  1.00  0.00     0.163 HD
ATOM     30  O   UNL A   1      42.108  18.254  25.922  1.00  0.00    -0.269 OA
BRANCH  28  31
ATOM     31  C   UNL A   1      41.901  20.542  26.400  1.00  0.00     0.039 A 
ATOM     32  C   UNL A   1      42.320  21.400  25.381  1.00  0.00     0.014 A 
ATOM     33  C   UNL A   1      42.014  20.936  27.736  1.00  0.00     0.014 A 
ATOM     34  C   UNL A   1      42.806  22.671  25.697  1.00  0.00     0.010 A 
ATOM     35  C   UNL A   1      42.427  22.229  28.047  1.00  0.00     0.010 A 
ATOM     36  C   UNL A   1      42.839  23.107  27.032  1.00  0.00    -0.014 A 
BRANCH  36  37
ATOM     37  C   UNL A   1      43.337  24.461  27.389  1.00  0.00     0.031 A 
ATOM     38  C   UNL A   1      42.365  25.529  27.816  1.00  0.00     0.074 A 
ATOM     39  C   UNL A   1      44.650  24.746  27.288  1.00  0.00     0.049 A 
ATOM     40  N   UNL A   1      42.593  26.786  28.104  1.00  0.00    -0.248 NA
ATOM     41  C   UNL A   1      40.948  25.139  27.913  1.00  0.00     0.031 C 
ATOM     42  C   UNL A   1      45.694  23.813  26.857  1.00  0.00     0.029 A 
ATOM     43  N   UNL A   1      45.331  25.913  27.538  1.00  0.00    -0.354 N 
ATOM     44  C   UNL A   1      41.352  27.334  28.407  1.00  0.00     0.074 A 
ATOM     45  C   UNL A   1      40.369  26.293  28.209  1.00  0.00     0.031 C 
ATOM     46  C   UNL A   1      46.883  24.438  26.892  1.00  0.00     0.029 A 
ATOM     47  C   UNL A   1      46.684  25.821  27.309  1.00  0.00     0.049 A 
ATOM     48  H   UNL A   1      44.892  26.736  27.851  1.00  0.00     0.167 HD
ATOM     49  C   UNL A   1      41.056  28.584  28.837  1.00  0.00     0.031 A 
ATOM     50  C   UNL A   1      47.652  26.752  27.413  1.00  0.00     0.031 A 
ATOM     51  C   UNL A   1      42.031  29.621  29.043  1.00  0.00     0.049 A 
ATOM     52  C   UNL A   1      47.292  28.140  27.871  1.00  0.00     0.074 A 
ATOM     53  C   UNL A   1      41.831  30.914  29.495  1.00  0.00     0.029 A 
ATOM     54  N   UNL A   1      43.390  29.480  28.817  1.00  0.00    -0.354 N 
ATOM     55  N   UNL A   1      46.119  28.626  28.197  1.00  0.00    -0.248 NA
ATOM     56  C   UNL A   1      48.396  29.102  27.995  1.00  0.00     0.031 C 
ATOM     57  C   UNL A   1      43.066  31.569  29.506  1.00  0.00     0.029 A 
ATOM     58  C   UNL A   1      44.041  30.664  29.116  1.00  0.00     0.049 A 
ATOM     59  H   UNL A   1      43.828  28.660  28.491  1.00  0.00     0.167 HD
ATOM     60  C   UNL A   1      46.351  29.935  28.602  1.00  0.00     0.074 A 
ATOM     61  C   UNL A   1      47.777  30.160  28.497  1.00  0.00     0.031 C 
ATOM     62  C   UNL A   1      45.463  30.867  29.026  1.00  0.00     0.031 A 
BRANCH  49  63
ATOM     63  C   UNL A   1      39.614  28.893  29.133  1.00  0.00    -0.014 A 
ATOM     64  C   UNL A   1      38.755  29.357  28.124  1.00  0.00     0.009 A 
ATOM     65  C   UNL A   1      39.096  28.671  30.417  1.00  0.00     0.009 A 
ATOM     66  C   UNL A   1      37.412  29.621  28.403  1.00  0.00     0.001 A 
ATOM     67  C   UNL A   1      37.746  28.906  30.685  1.00  0.00     0.001 A 
ATOM     68  C   UNL A   1      36.908  29.387  29.681  1.00  0.00     0.000 A 
ENDBRANCH  49  63
BRANCH  50  69
ATOM     69  C   UNL A   1      49.063  26.414  27.083  1.00  0.00    -0.014 A 
ATOM     70  C   UNL A   1      49.533  26.508  25.764  1.00  0.00     0.009 A 
ATOM     71  C   UNL A   1      49.935  25.948  28.079  1.00  0.00     0.009 A 
ATOM     72  C   UNL A   1      50.829  26.099  25.442  1.00  0.00     0.001 A 
ATOM     73  C   UNL A   1      51.242  25.571  27.760  1.00  0.00     0.001 A 
ATOM     74  C   UNL A   1      51.683  25.632  26.440  1.00  0.00     0.000 A 
ENDBRANCH  50  69
BRANCH  62  75
ATOM     75  C   UNL A   1      46.014  32.192  29.472  1.00  0.00    -0.014 A 
ATOM     76  C   UNL A   1      46.006  33.315  28.631  1.00  0.00     0.009 A 
ATOM     77  C   UNL A   1      46.522  32.322  30.775  1.00  0.00     0.009 A 
ATOM     78  C   UNL A   1      46.532  34.531  29.072  1.00  0.00     0.001 A 
ATOM     79  C   UNL A   1      47.016  33.547  31.224  1.00  0.00     0.001 A 
ATOM     80  C   UNL A   1      47.032  34.647  30.370  1.00  0.00     0.000 A 
ENDBRANCH  62  75
ENDBRANCH  36  37
ENDBRANCH  28  31
ENDBRANCH  26  27
ENDBRANCH  25  26
ENDBRANCH  24  25
ENDBRANCH   1  24
TORSDOF 15
ENDMDL
MODEL 2
REMARK VINA RESULT:     -11.2      1.226      5.945
REMARK SMILES O=C(C[C@@H]1CN(c2nc3ccccc3s2)CCO1)NCCCCCCNC(=O)c1ccc(-c2c3nc(c(-c4ccccc4)c4ccc([nH]4)c(-c4ccccc4)c4nc(c(-c5ccccc5)c5ccc2[nH]5)C=C4)C=C3)cc1
REMARK SMILES IDX 22 1 21 2 20 3 19 4 1 5 2 6 3 8 4 9 5 10 18 11 6 12 17 13
REMARK SMILES IDX 16 14 7 15 8 16 15 17 9 18 14 19 10 20 13 21 11 22 12 23
REMARK SMILES IDX 23 24 24 25 25 26 26 27 27 28 28 30 29 31 30 32 76 33 31 34
REMARK SMILES IDX 75 35 32 36 33 37 34 38 69 39 35 40 74 41 68 42 70 43 36 44
REMARK SMILES IDX 73 45 67 46 66 47 37 49 59 50 44 51 58 52 45 53 48 54 57 55
REMARK SMILES IDX 71 56 46 57 47 58 56 60 72 61 49 62 38 63 39 64 43 65 40 66
REMARK SMILES IDX 42 67 41 68 60 69 61 70 65 71 62 72 64 73 63 74 50 75 51 76
REMARK SMILES IDX 55 77 52 78 54 79 53 80
REMARK H PARENT 19 7 26 29 70 48 48 59
REMARK Flexibility Score: inf
ROOT
ATOM      1  C   UNL A   1      36.943  21.950  24.796  1.00  0.00     0.002 C 
ENDROOT
BRANCH   1   2
ATOM      2  C   UNL A   1      35.993  22.844  25.606  1.00  0.00     0.021 C 
BRANCH   2   3
ATOM      3  C   UNL A   1      34.917  22.096  26.391  1.00  0.00     0.116 C 
BRANCH   3   4
ATOM      4  N   UNL A   1      33.586  22.420  25.920  1.00  0.00    -0.356 N 
ATOM      5  O   UNL A   1      32.614  22.584  27.996  1.00  0.00    -0.275 OA
ATOM      6  C   UNL A   1      32.542  22.695  26.778  1.00  0.00     0.222 C 
ATOM      7  H   UNL A   1      33.421  22.444  24.951  1.00  0.00     0.163 HD
BRANCH   6   8
ATOM      8  C   UNL A   1      31.312  23.217  26.064  1.00  0.00     0.133 C 
BRANCH   8   9
ATOM      9  C   UNL A   1      31.627  24.306  25.029  1.00  0.00     0.147 C 
ATOM     10  C   UNL A   1      30.423  25.188  24.628  1.00  0.00     0.151 C 
ATOM     11  O   UNL A   1      32.213  23.692  23.857  1.00  0.00    -0.374 OA
ATOM     12  N   UNL A   1      30.867  26.173  23.645  1.00  0.00    -0.343 N 
ATOM     13  C   UNL A   1      32.638  24.693  22.909  1.00  0.00     0.182 C 
ATOM     14  C   UNL A   1      31.468  25.586  22.452  1.00  0.00     0.147 C 
BRANCH  12  15
ATOM     15  C   UNL A   1      30.307  27.406  23.611  1.00  0.00     0.186 A 
ATOM     16  N   UNL A   1      29.184  27.708  23.003  1.00  0.00    -0.220 NA
ATOM     17  S   UNL A   1      31.116  28.744  24.348  1.00  0.00    -0.097 S 
ATOM     18  C   UNL A   1      28.901  29.057  23.153  1.00  0.00     0.084 A 
ATOM     19  C   UNL A   1      29.873  29.799  23.823  1.00  0.00     0.056 A 
ATOM     20  C   UNL A   1      27.748  29.724  22.690  1.00  0.00     0.030 A 
ATOM     21  C   UNL A   1      29.764  31.188  24.004  1.00  0.00     0.021 A 
ATOM     22  C   UNL A   1      27.618  31.105  22.883  1.00  0.00     0.002 A 
ATOM     23  C   UNL A   1      28.621  31.827  23.521  1.00  0.00     0.002 A 
ENDBRANCH  12  15
ENDBRANCH   8   9
ENDBRANCH   6   8
ENDBRANCH   3   4
ENDBRANCH   2   3
ENDBRANCH   1   2
BRANCH   1  24
ATOM     24  C   UNL A   1      36.680  20.444  24.896  1.00  0.00     0.002 C 
BRANCH  24  25
ATOM     25  C   UNL A   1      37.932  19.565  24.928  1.00  0.00     0.021 C 
BRANCH  25  26
ATOM     26  C   UNL A   1      39.043  20.053  25.851  1.00  0.00     0.116 C 
BRANCH  26  27
ATOM     27  N   UNL A   1      40.199  19.171  25.859  1.00  0.00    -0.352 N 
ATOM     28  C   UNL A   1      41.511  19.471  26.131  1.00  0.00     0.251 C 
ATOM     29  H   UNL A   1      40.016  18.229  25.639  1.00  0.00     0.163 HD
ATOM     30  O   UNL A   1      42.388  18.627  25.952  1.00  0.00    -0.269 OA
BRANCH  28  31
ATOM     31  C   UNL A   1      41.877  20.818  26.618  1.00  0.00     0.039 A 
ATOM     32  C   UNL A   1      42.167  21.818  25.686  1.00  0.00     0.014 A 
ATOM     33  C   UNL A   1      41.945  21.095  27.986  1.00  0.00     0.014 A 
ATOM     34  C   UNL A   1      42.476  23.108  26.125  1.00  0.00     0.010 A 
ATOM     35  C   UNL A   1      42.179  22.398  28.420  1.00  0.00     0.010 A 
ATOM     36  C   UNL A   1      42.460  23.416  27.495  1.00  0.00    -0.014 A 
BRANCH  36  37
ATOM     37  C   UNL A   1      42.771  24.786  27.982  1.00  0.00     0.031 A 
ATOM     38  C   UNL A   1      44.191  25.159  28.315  1.00  0.00     0.074 A 
ATOM     39  C   UNL A   1      41.778  25.678  28.165  1.00  0.00     0.049 A 
ATOM     40  N   UNL A   1      44.655  26.278  28.812  1.00  0.00    -0.248 NA
ATOM     41  C   UNL A   1      45.221  24.135  28.077  1.00  0.00     0.031 C 
ATOM     42  C   UNL A   1      40.356  25.435  27.911  1.00  0.00     0.029 A 
ATOM     43  N   UNL A   1      41.816  26.974  28.618  1.00  0.00    -0.354 N 
ATOM     44  C   UNL A   1      46.025  26.088  28.953  1.00  0.00     0.074 A 
ATOM     45  C   UNL A   1      46.308  24.729  28.547  1.00  0.00     0.031 C 
ATOM     46  C   UNL A   1      39.663  26.551  28.192  1.00  0.00     0.029 A 
ATOM     47  C   UNL A   1      40.580  27.573  28.682  1.00  0.00     0.049 A 
ATOM     48  H   UNL A   1      42.650  27.431  28.872  1.00  0.00     0.167 HD
ATOM     49  C   UNL A   1      46.969  26.970  29.357  1.00  0.00     0.031 A 
ATOM     50  C   UNL A   1      40.227  28.805  29.098  1.00  0.00     0.031 A 
ATOM     51  C   UNL A   1      46.694  28.325  29.755  1.00  0.00     0.049 A 
ATOM     52  C   UNL A   1      41.295  29.758  29.565  1.00  0.00     0.074 A 
ATOM     53  C   UNL A   1      47.587  29.302  30.162  1.00  0.00     0.029 A 
ATOM     54  N   UNL A   1      45.432  28.895  29.786  1.00  0.00    -0.354 N 
ATOM     55  N   UNL A   1      42.590  29.574  29.647  1.00  0.00    -0.248 NA
ATOM     56  C   UNL A   1      40.851  31.097  29.977  1.00  0.00     0.031 C 
ATOM     57  C   UNL A   1      46.860  30.453  30.478  1.00  0.00     0.029 A 
ATOM     58  C   UNL A   1      45.522  30.209  30.210  1.00  0.00     0.049 A 
ATOM     59  H   UNL A   1      44.597  28.434  29.544  1.00  0.00     0.167 HD
ATOM     60  C   UNL A   1      43.117  30.785  30.080  1.00  0.00     0.074 A 
ATOM     61  C   UNL A   1      42.004  31.699  30.227  1.00  0.00     0.031 C 
ATOM     62  C   UNL A   1      44.408  31.112  30.332  1.00  0.00     0.031 A 
BRANCH  49  63
ATOM     63  C   UNL A   1      48.397  26.500  29.373  1.00  0.00    -0.014 A 
ATOM     64  C   UNL A   1      49.228  26.677  28.256  1.00  0.00     0.009 A 
ATOM     65  C   UNL A   1      48.934  25.919  30.532  1.00  0.00     0.009 A 
ATOM     66  C   UNL A   1      50.559  26.257  28.288  1.00  0.00     0.001 A 
ATOM     67  C   UNL A   1      50.274  25.528  30.572  1.00  0.00     0.001 A 
ATOM     68  C   UNL A   1      51.082  25.690  29.449  1.00  0.00     0.000 A 
ENDBRANCH  49  63
BRANCH  50  69
ATOM     69  C   UNL A   1      38.799  29.222  29.094  1.00  0.00    -0.014 A 
ATOM     70  C   UNL A   1      37.999  29.050  30.235  1.00  0.00     0.009 A 
ATOM     71  C   UNL A   1      38.214  29.751  27.933  1.00  0.00     0.009 A 
ATOM     72  C   UNL A   1      36.636  29.353  30.197  1.00  0.00     0.001 A 
ATOM     73  C   UNL A   1      36.859  30.086  27.909  1.00  0.00     0.001 A 
ATOM     74  C   UNL A   1      36.067  29.872  29.035  1.00  0.00     0.000 A 
ENDBRANCH  50  69
BRANCH  62  75
ATOM     75  C   UNL A   1      44.694  32.534  30.726  1.00  0.00    -0.014 A 
ATOM     76  C   UNL A   1      44.912  33.535  29.768  1.00  0.00     0.009 A 
ATOM     77  C   UNL A   1      44.712  32.880  32.087  1.00  0.00     0.009 A 
ATOM     78  C   UNL A   1      45.182  34.846  30.166  1.00  0.00     0.001 A 
ATOM     79  C   UNL A   1      44.950  34.197  32.481  1.00  0.00     0.001 A 
ATOM     80  C   UNL A   1      45.196  35.177  31.521  1.00  0.00     0.000 A 
ENDBRANCH  62  75
ENDBRANCH  36  37
ENDBRANCH  28  31
ENDBRANCH  26  27
ENDBRANCH  25  26
ENDBRANCH  24  25
ENDBRANCH   1  24
TORSDOF 15
ENDMDL
MODEL 3
REMARK VINA RESULT:     -11.1      3.304      7.483
REMARK SMILES O=C(C[C@@H]1CN(c2nc3ccccc3s2)CCO1)NCCCCCCNC(=O)c1ccc(-c2c3nc(c(-c4ccccc4)c4ccc([nH]4)c(-c4ccccc4)c4nc(c(-c5ccccc5)c5ccc2[nH]5)C=C4)C=C3)cc1
REMARK SMILES IDX 22 1 21 2 20 3 19 4 1 5 2 6 3 8 4 9 5 10 18 11 6 12 17 13
REMARK SMILES IDX 16 14 7 15 8 16 15 17 9 18 14 19 10 20 13 21 11 22 12 23
REMARK SMILES IDX 23 24 24 25 25 26 26 27 27 28 28 30 29 31 30 32 76 33 31 34
REMARK SMILES IDX 75 35 32 36 33 37 34 38 69 39 35 40 74 41 68 42 70 43 36 44
REMARK SMILES IDX 73 45 67 46 66 47 37 49 59 50 44 51 58 52 45 53 48 54 57 55
REMARK SMILES IDX 71 56 46 57 47 58 56 60 72 61 49 62 38 63 39 64 43 65 40 66
REMARK SMILES IDX 42 67 41 68 60 69 61 70 65 71 62 72 64 73 63 74 50 75 51 76
REMARK SMILES IDX 55 77 52 78 54 79 53 80
REMARK H PARENT 19 7 26 29 70 48 48 59
REMARK Flexibility Score: inf
ROOT
ATOM      1  C   UNL A   1      34.190  21.463  26.735  1.00  0.00     0.002 C 
ENDROOT
BRANCH   1   2
ATOM      2  C   UNL A   1      33.101  21.087  25.719  1.00  0.00     0.021 C 
BRANCH   2   3
ATOM      3  C   UNL A   1      33.566  21.033  24.265  1.00  0.00     0.116 C 
BRANCH   3   4
ATOM      4  N   UNL A   1      33.032  22.134  23.491  1.00  0.00    -0.356 N 
ATOM      5  O   UNL A   1      35.057  22.938  22.761  1.00  0.00    -0.275 OA
ATOM      6  C   UNL A   1      33.832  22.975  22.747  1.00  0.00     0.222 C 
ATOM      7  H   UNL A   1      32.060  22.288  23.496  1.00  0.00     0.163 HD
BRANCH   6   8
ATOM      8  C   UNL A   1      33.040  23.907  21.853  1.00  0.00     0.133 C 
BRANCH   8   9
ATOM      9  C   UNL A   1      32.144  24.880  22.631  1.00  0.00     0.147 C 
ATOM     10  C   UNL A   1      32.786  25.477  23.904  1.00  0.00     0.151 C 
ATOM     11  O   UNL A   1      30.899  24.221  22.958  1.00  0.00    -0.374 OA
ATOM     12  N   UNL A   1      31.826  26.379  24.538  1.00  0.00    -0.343 N 
ATOM     13  C   UNL A   1      29.977  25.139  23.581  1.00  0.00     0.182 C 
ATOM     14  C   UNL A   1      30.556  25.745  24.875  1.00  0.00     0.147 C 
BRANCH  12  15
ATOM     15  C   UNL A   1      32.255  27.479  25.199  1.00  0.00     0.186 A 
ATOM     16  N   UNL A   1      33.309  27.527  25.980  1.00  0.00    -0.220 NA
ATOM     17  S   UNL A   1      31.355  28.952  25.105  1.00  0.00    -0.097 S 
ATOM     18  C   UNL A   1      33.461  28.800  26.508  1.00  0.00     0.084 A 
ATOM     19  C   UNL A   1      32.455  29.707  26.179  1.00  0.00     0.056 A 
ATOM     20  C   UNL A   1      34.515  29.239  27.337  1.00  0.00     0.030 A 
ATOM     21  C   UNL A   1      32.432  31.018  26.682  1.00  0.00     0.021 A 
ATOM     22  C   UNL A   1      34.515  30.551  27.828  1.00  0.00     0.002 A 
ATOM     23  C   UNL A   1      33.478  31.423  27.513  1.00  0.00     0.002 A 
ENDBRANCH  12  15
ENDBRANCH   8   9
ENDBRANCH   6   8
ENDBRANCH   3   4
ENDBRANCH   2   3
ENDBRANCH   1   2
BRANCH   1  24
ATOM     24  C   UNL A   1      35.540  21.869  26.136  1.00  0.00     0.002 C 
BRANCH  24  25
ATOM     25  C   UNL A   1      35.823  23.372  26.127  1.00  0.00     0.021 C 
BRANCH  25  26
ATOM     26  C   UNL A   1      37.105  23.784  25.411  1.00  0.00     0.116 C 
BRANCH  26  27
ATOM     27  N   UNL A   1      38.193  22.839  25.612  1.00  0.00    -0.352 N 
ATOM     28  C   UNL A   1      39.418  23.045  26.197  1.00  0.00     0.251 C 
ATOM     29  H   UNL A   1      38.027  21.925  25.284  1.00  0.00     0.163 HD
ATOM     30  O   UNL A   1      40.279  22.166  26.155  1.00  0.00    -0.269 OA
BRANCH  28  31
ATOM     31  C   UNL A   1      39.716  24.334  26.856  1.00  0.00     0.039 A 
ATOM     32  C   UNL A   1      39.290  24.535  28.171  1.00  0.00     0.014 A 
ATOM     33  C   UNL A   1      40.403  25.346  26.181  1.00  0.00     0.014 A 
ATOM     34  C   UNL A   1      39.596  25.731  28.826  1.00  0.00     0.010 A 
ATOM     35  C   UNL A   1      40.772  26.506  26.857  1.00  0.00     0.010 A 
ATOM     36  C   UNL A   1      40.362  26.717  28.182  1.00  0.00    -0.014 A 
BRANCH  36  37
ATOM     37  C   UNL A   1      40.713  27.990  28.867  1.00  0.00     0.031 A 
ATOM     38  C   UNL A   1      42.094  28.181  29.433  1.00  0.00     0.074 A 
ATOM     39  C   UNL A   1      39.783  28.953  29.018  1.00  0.00     0.049 A 
ATOM     40  N   UNL A   1      42.574  29.188  30.119  1.00  0.00    -0.248 NA
ATOM     41  C   UNL A   1      43.059  27.089  29.218  1.00  0.00     0.031 C 
ATOM     42  C   UNL A   1      38.398  28.883  28.544  1.00  0.00     0.029 A 
ATOM     43  N   UNL A   1      39.863  30.184  29.622  1.00  0.00    -0.354 N 
ATOM     44  C   UNL A   1      43.886  28.847  30.422  1.00  0.00     0.074 A 
ATOM     45  C   UNL A   1      44.110  27.517  29.900  1.00  0.00     0.031 C 
ATOM     46  C   UNL A   1      37.768  30.027  28.858  1.00  0.00     0.029 A 
ATOM     47  C   UNL A   1      38.687  30.894  29.588  1.00  0.00     0.049 A 
ATOM     48  H   UNL A   1      40.686  30.525  30.042  1.00  0.00     0.167 HD
ATOM     49  C   UNL A   1      44.832  29.582  31.054  1.00  0.00     0.031 A 
ATOM     50  C   UNL A   1      38.381  32.104  30.095  1.00  0.00     0.031 A 
ATOM     51  C   UNL A   1      44.617  30.908  31.570  1.00  0.00     0.049 A 
ATOM     52  C   UNL A   1      39.445  32.890  30.814  1.00  0.00     0.074 A 
ATOM     53  C   UNL A   1      45.519  31.741  32.209  1.00  0.00     0.029 A 
ATOM     54  N   UNL A   1      43.417  31.596  31.496  1.00  0.00    -0.354 N 
ATOM     55  N   UNL A   1      40.694  32.569  31.050  1.00  0.00    -0.248 NA
ATOM     56  C   UNL A   1      39.060  34.215  31.319  1.00  0.00     0.031 C 
ATOM     57  C   UNL A   1      44.854  32.920  32.557  1.00  0.00     0.029 A 
ATOM     58  C   UNL A   1      43.554  32.842  32.082  1.00  0.00     0.049 A 
ATOM     59  H   UNL A   1      42.590  31.250  31.088  1.00  0.00     0.167 HD
ATOM     60  C   UNL A   1      41.252  33.668  31.693  1.00  0.00     0.074 A 
ATOM     61  C   UNL A   1      40.211  34.668  31.794  1.00  0.00     0.031 C 
ATOM     62  C   UNL A   1      42.514  33.834  32.157  1.00  0.00     0.031 A 
BRANCH  49  63
ATOM     63  C   UNL A   1      46.197  28.971  31.210  1.00  0.00    -0.014 A 
ATOM     64  C   UNL A   1      46.515  28.190  32.332  1.00  0.00     0.009 A 
ATOM     65  C   UNL A   1      47.160  29.133  30.202  1.00  0.00     0.009 A 
ATOM     66  C   UNL A   1      47.778  27.609  32.457  1.00  0.00     0.001 A 
ATOM     67  C   UNL A   1      48.412  28.525  30.314  1.00  0.00     0.001 A 
ATOM     68  C   UNL A   1      48.722  27.771  31.444  1.00  0.00     0.000 A 
ENDBRANCH  49  63
BRANCH  50  69
ATOM     69  C   UNL A   1      37.010  32.661  29.946  1.00  0.00    -0.014 A 
ATOM     70  C   UNL A   1      36.705  33.545  28.899  1.00  0.00     0.009 A 
ATOM     71  C   UNL A   1      36.009  32.349  30.879  1.00  0.00     0.009 A 
ATOM     72  C   UNL A   1      35.444  34.141  28.817  1.00  0.00     0.001 A 
ATOM     73  C   UNL A   1      34.739  32.920  30.775  1.00  0.00     0.001 A 
ATOM     74  C   UNL A   1      34.462  33.827  29.755  1.00  0.00     0.000 A 
ENDBRANCH  50  69
BRANCH  62  75
ATOM     75  C   UNL A   1      42.859  35.171  32.753  1.00  0.00    -0.014 A 
ATOM     76  C   UNL A   1      43.501  36.168  32.005  1.00  0.00     0.009 A 
ATOM     77  C   UNL A   1      42.501  35.443  34.084  1.00  0.00     0.009 A 
ATOM     78  C   UNL A   1      43.814  37.397  32.589  1.00  0.00     0.001 A 
ATOM     79  C   UNL A   1      42.785  36.683  34.654  1.00  0.00     0.001 A 
ATOM     80  C   UNL A   1      43.451  37.656  33.911  1.00  0.00     0.000 A 
ENDBRANCH  62  75
ENDBRANCH  36  37
ENDBRANCH  28  31
ENDBRANCH  26  27
ENDBRANCH  25  26
ENDBRANCH  24  25
ENDBRANCH   1  24
TORSDOF 15
ENDMDL
