MODEL 1
REMARK VINA RESULT:     -10.6      0.000      0.000
REMARK SMILES COc1ncccc1Cn1ccc(C(=O)NCCCCCCNC(=O)c2ccc(-c3c4nc(c(-c5ccccc5)c5ccc([nH]5)c(-c5ccccc5)c5nc(c(-c6ccccc6)c6ccc3[nH]6)C=C5)C=C4)cc2)n1
REMARK SMILES IDX 19 1 18 2 17 3 16 4 14 5 15 6 13 8 10 9 11 10 74 11 12 12
REMARK SMILES IDX 9 13 8 14 3 15 4 16 5 17 7 18 6 19 2 20 1 21 20 22 21 23
REMARK SMILES IDX 22 24 23 25 24 26 25 28 26 29 27 30 73 31 28 32 72 33 29 34
REMARK SMILES IDX 30 35 31 36 66 37 32 38 71 39 65 40 67 41 33 42 70 43 64 44
REMARK SMILES IDX 63 45 34 47 56 48 41 49 55 50 42 51 45 52 54 53 68 54 43 55
REMARK SMILES IDX 44 56 53 58 69 59 46 60 35 61 36 62 40 63 37 64 39 65 38 66
REMARK SMILES IDX 57 67 58 68 62 69 59 70 61 71 60 72 47 73 48 74 52 75 49 76
REMARK SMILES IDX 51 77 50 78
REMARK H PARENT 16 7 23 27 67 46 45 57
REMARK Flexibility Score: inf
ROOT
ATOM      1  C   UNL A   1      34.442  32.060  28.300  1.00  0.00     0.002 C 
ENDROOT
BRANCH   1   2
ATOM      2  C   UNL A   1      34.571  30.690  27.629  1.00  0.00     0.021 C 
BRANCH   2   3
ATOM      3  C   UNL A   1      33.388  30.327  26.738  1.00  0.00     0.116 C 
BRANCH   3   4
ATOM      4  N   UNL A   1      32.392  29.575  27.481  1.00  0.00    -0.351 N 
ATOM      5  C   UNL A   1      31.928  28.295  27.298  1.00  0.00     0.271 C 
ATOM      6  O   UNL A   1      31.144  27.845  28.139  1.00  0.00    -0.267 OA
ATOM      7  H   UNL A   1      31.985  30.060  28.235  1.00  0.00     0.163 HD
BRANCH   5   8
ATOM      8  C   UNL A   1      32.434  27.467  26.195  1.00  0.00     0.150 A 
ATOM      9  N   UNL A   1      33.641  26.125  25.062  1.00  0.00    -0.267 N 
ATOM     10  C   UNL A   1      32.468  26.203  24.370  1.00  0.00     0.110 A 
ATOM     11  N   UNL A   1      33.661  26.911  26.155  1.00  0.00    -0.167 NA
ATOM     12  C   UNL A   1      31.692  27.116  25.038  1.00  0.00     0.056 A 
BRANCH   9  13
ATOM     13  C   UNL A   1      34.736  25.188  24.831  1.00  0.00     0.185 C 
BRANCH  13  14
ATOM     14  C   UNL A   1      34.334  23.771  25.110  1.00  0.00     0.036 A 
ATOM     15  C   UNL A   1      34.230  22.837  24.084  1.00  0.00     0.218 A 
ATOM     16  N   UNL A   1      33.875  21.547  24.255  1.00  0.00    -0.222 NA
ATOM     17  C   UNL A   1      33.611  21.160  25.523  1.00  0.00     0.115 A 
ATOM     18  C   UNL A   1      34.066  23.326  26.409  1.00  0.00     0.013 A 
ATOM     19  C   UNL A   1      33.687  22.003  26.621  1.00  0.00     0.021 A 
BRANCH  15  20
ATOM     20  O   UNL A   1      34.362  23.279  22.790  1.00  0.00    -0.481 OA
ATOM     21  C   UNL A   1      33.117  23.186  22.105  1.00  0.00     0.280 C 
ENDBRANCH  15  20
ENDBRANCH  13  14
ENDBRANCH   9  13
ENDBRANCH   5   8
ENDBRANCH   3   4
ENDBRANCH   2   3
ENDBRANCH   1   2
BRANCH   1  22
ATOM     22  C   UNL A   1      35.597  32.470  29.223  1.00  0.00     0.002 C 
BRANCH  22  23
ATOM     23  C   UNL A   1      36.294  33.802  28.909  1.00  0.00     0.021 C 
BRANCH  23  24
ATOM     24  C   UNL A   1      37.803  33.803  29.117  1.00  0.00     0.116 C 
BRANCH  24  25
ATOM     25  N   UNL A   1      38.178  34.134  30.490  1.00  0.00    -0.352 N 
ATOM     26  C   UNL A   1      38.830  33.361  31.429  1.00  0.00     0.251 C 
ATOM     27  H   UNL A   1      37.929  35.039  30.789  1.00  0.00     0.163 HD
ATOM     28  O   UNL A   1      38.793  33.653  32.618  1.00  0.00    -0.269 OA
BRANCH  26  29
ATOM     29  C   UNL A   1      39.570  32.167  30.983  1.00  0.00     0.039 A 
ATOM     30  C   UNL A   1      40.895  32.256  30.547  1.00  0.00     0.014 A 
ATOM     31  C   UNL A   1      38.926  30.939  31.031  1.00  0.00     0.014 A 
ATOM     32  C   UNL A   1      41.594  31.084  30.241  1.00  0.00     0.010 A 
ATOM     33  C   UNL A   1      39.653  29.782  30.869  1.00  0.00     0.010 A 
ATOM     34  C   UNL A   1      40.975  29.841  30.417  1.00  0.00    -0.014 A 
BRANCH  34  35
ATOM     35  C   UNL A   1      41.694  28.583  30.177  1.00  0.00     0.031 A 
ATOM     36  C   UNL A   1      42.466  27.978  31.308  1.00  0.00     0.074 A 
ATOM     37  C   UNL A   1      41.434  27.823  29.089  1.00  0.00     0.049 A 
ATOM     38  N   UNL A   1      43.669  27.496  31.291  1.00  0.00    -0.248 NA
ATOM     39  C   UNL A   1      41.809  27.882  32.622  1.00  0.00     0.031 C 
ATOM     40  C   UNL A   1      40.455  28.085  28.024  1.00  0.00     0.029 A 
ATOM     41  N   UNL A   1      41.862  26.559  28.802  1.00  0.00    -0.354 N 
ATOM     42  C   UNL A   1      43.882  26.913  32.541  1.00  0.00     0.074 A 
ATOM     43  C   UNL A   1      42.733  27.248  33.346  1.00  0.00     0.031 C 
ATOM     44  C   UNL A   1      40.156  26.928  27.399  1.00  0.00     0.029 A 
ATOM     45  C   UNL A   1      41.061  25.902  27.881  1.00  0.00     0.049 A 
ATOM     46  H   UNL A   1      42.662  26.154  29.210  1.00  0.00     0.167 HD
ATOM     47  C   UNL A   1      44.914  26.057  32.792  1.00  0.00     0.031 A 
ATOM     48  C   UNL A   1      41.097  24.596  27.542  1.00  0.00     0.031 A 
ATOM     49  C   UNL A   1      45.938  26.119  31.788  1.00  0.00     0.049 A 
ATOM     50  C   UNL A   1      42.416  24.061  27.930  1.00  0.00     0.074 A 
ATOM     51  C   UNL A   1      46.807  27.083  31.322  1.00  0.00     0.029 A 
ATOM     52  N   UNL A   1      45.988  25.099  30.871  1.00  0.00    -0.354 N 
ATOM     53  N   UNL A   1      43.535  24.432  27.378  1.00  0.00    -0.248 NA
ATOM     54  C   UNL A   1      42.548  23.346  29.188  1.00  0.00     0.031 C 
ATOM     55  C   UNL A   1      46.963  26.802  29.933  1.00  0.00     0.029 A 
ATOM     56  C   UNL A   1      46.190  25.674  29.645  1.00  0.00     0.049 A 
ATOM     57  H   UNL A   1      45.894  24.137  31.059  1.00  0.00     0.167 HD
ATOM     58  C   UNL A   1      44.466  24.384  28.402  1.00  0.00     0.074 A 
ATOM     59  C   UNL A   1      43.844  23.560  29.434  1.00  0.00     0.031 C 
ATOM     60  C   UNL A   1      45.523  25.249  28.434  1.00  0.00     0.031 A 
BRANCH  47  61
ATOM     61  C   UNL A   1      44.861  24.920  33.787  1.00  0.00    -0.014 A 
ATOM     62  C   UNL A   1      45.926  24.750  34.694  1.00  0.00     0.009 A 
ATOM     63  C   UNL A   1      43.944  23.857  33.687  1.00  0.00     0.009 A 
ATOM     64  C   UNL A   1      46.090  23.562  35.421  1.00  0.00     0.001 A 
ATOM     65  C   UNL A   1      44.081  22.688  34.444  1.00  0.00     0.001 A 
ATOM     66  C   UNL A   1      45.168  22.530  35.292  1.00  0.00     0.000 A 
ENDBRANCH  47  61
BRANCH  48  67
ATOM     67  C   UNL A   1      39.991  23.756  27.050  1.00  0.00    -0.014 A 
ATOM     68  C   UNL A   1      38.761  24.318  26.686  1.00  0.00     0.009 A 
ATOM     69  C   UNL A   1      40.218  22.401  26.737  1.00  0.00     0.009 A 
ATOM     70  C   UNL A   1      37.797  23.554  26.016  1.00  0.00     0.001 A 
ATOM     71  C   UNL A   1      39.255  21.637  26.074  1.00  0.00     0.001 A 
ATOM     72  C   UNL A   1      38.047  22.218  25.702  1.00  0.00     0.000 A 
ENDBRANCH  48  67
BRANCH  60  73
ATOM     73  C   UNL A   1      45.794  26.074  27.199  1.00  0.00    -0.014 A 
ATOM     74  C   UNL A   1      46.795  25.732  26.271  1.00  0.00     0.009 A 
ATOM     75  C   UNL A   1      44.921  27.122  26.874  1.00  0.00     0.009 A 
ATOM     76  C   UNL A   1      46.939  26.435  25.072  1.00  0.00     0.001 A 
ATOM     77  C   UNL A   1      45.051  27.812  25.665  1.00  0.00     0.001 A 
ATOM     78  C   UNL A   1      46.063  27.473  24.768  1.00  0.00     0.000 A 
ENDBRANCH  60  73
ENDBRANCH  34  35
ENDBRANCH  26  29
ENDBRANCH  24  25
ENDBRANCH  23  24
ENDBRANCH  22  23
ENDBRANCH   1  22
TORSDOF 16
ENDMDL
MODEL 2
REMARK VINA RESULT:     -10.5      2.083      3.125
REMARK SMILES COc1ncccc1Cn1ccc(C(=O)NCCCCCCNC(=O)c2ccc(-c3c4nc(c(-c5ccccc5)c5ccc([nH]5)c(-c5ccccc5)c5nc(c(-c6ccccc6)c6ccc3[nH]6)C=C5)C=C4)cc2)n1
REMARK SMILES IDX 19 1 18 2 17 3 16 4 14 5 15 6 13 8 10 9 11 10 74 11 12 12
REMARK SMILES IDX 9 13 8 14 3 15 4 16 5 17 7 18 6 19 2 20 1 21 20 22 21 23
REMARK SMILES IDX 22 24 23 25 24 26 25 28 26 29 27 30 73 31 28 32 72 33 29 34
REMARK SMILES IDX 30 35 31 36 66 37 32 38 71 39 65 40 67 41 33 42 70 43 64 44
REMARK SMILES IDX 63 45 34 47 56 48 41 49 55 50 42 51 45 52 54 53 68 54 43 55
REMARK SMILES IDX 44 56 53 58 69 59 46 60 35 61 36 62 40 63 37 64 39 65 38 66
REMARK SMILES IDX 57 67 58 68 62 69 59 70 61 71 60 72 47 73 48 74 52 75 49 76
REMARK SMILES IDX 51 77 50 78
REMARK H PARENT 16 7 23 27 67 46 45 57
REMARK Flexibility Score: inf
ROOT
ATOM      1  C   UNL A   1      32.432  29.950  25.586  1.00  0.00     0.002 C 
ENDROOT
BRANCH   1   2
ATOM      2  C   UNL A   1      33.045  28.557  25.420  1.00  0.00     0.021 C 
BRANCH   2   3
ATOM      3  C   UNL A   1      32.149  27.576  24.671  1.00  0.00     0.116 C 
BRANCH   3   4
ATOM      4  N   UNL A   1      31.114  27.050  25.543  1.00  0.00    -0.351 N 
ATOM      5  C   UNL A   1      30.620  25.774  25.666  1.00  0.00     0.271 C 
ATOM      6  O   UNL A   1      29.802  25.561  26.566  1.00  0.00    -0.267 OA
ATOM      7  H   UNL A   1      30.701  27.714  26.142  1.00  0.00     0.163 HD
BRANCH   5   8
ATOM      8  C   UNL A   1      31.131  24.691  24.817  1.00  0.00     0.150 A 
ATOM      9  N   UNL A   1      32.174  22.947  24.170  1.00  0.00    -0.267 N 
ATOM     10  C   UNL A   1      31.252  23.180  23.192  1.00  0.00     0.110 A 
ATOM     11  N   UNL A   1      32.147  23.870  25.151  1.00  0.00    -0.167 NA
ATOM     12  C   UNL A   1      30.609  24.340  23.545  1.00  0.00     0.056 A 
BRANCH   9  13
ATOM     13  C   UNL A   1      33.010  21.761  24.323  1.00  0.00     0.185 C 
BRANCH  13  14
ATOM     14  C   UNL A   1      34.464  22.108  24.439  1.00  0.00     0.036 A 
ATOM     15  C   UNL A   1      35.196  21.776  25.575  1.00  0.00     0.218 A 
ATOM     16  N   UNL A   1      36.504  22.054  25.753  1.00  0.00    -0.222 NA
ATOM     17  C   UNL A   1      37.124  22.695  24.738  1.00  0.00     0.115 A 
ATOM     18  C   UNL A   1      35.147  22.758  23.406  1.00  0.00     0.013 A 
ATOM     19  C   UNL A   1      36.496  23.069  23.560  1.00  0.00     0.021 A 
BRANCH  15  20
ATOM     20  O   UNL A   1      34.518  21.254  26.651  1.00  0.00    -0.481 OA
ATOM     21  C   UNL A   1      34.255  22.271  27.611  1.00  0.00     0.280 C 
ENDBRANCH  15  20
ENDBRANCH  13  14
ENDBRANCH   9  13
ENDBRANCH   5   8
ENDBRANCH   3   4
ENDBRANCH   2   3
ENDBRANCH   1   2
BRANCH   1  22
ATOM     22  C   UNL A   1      32.639  30.619  26.952  1.00  0.00     0.002 C 
BRANCH  22  23
ATOM     23  C   UNL A   1      34.040  30.509  27.570  1.00  0.00     0.021 C 
BRANCH  23  24
ATOM     24  C   UNL A   1      34.739  31.841  27.819  1.00  0.00     0.116 C 
BRANCH  24  25
ATOM     25  N   UNL A   1      34.606  32.292  29.203  1.00  0.00    -0.352 N 
ATOM     26  C   UNL A   1      35.299  31.886  30.324  1.00  0.00     0.251 C 
ATOM     27  H   UNL A   1      33.923  32.985  29.357  1.00  0.00     0.163 HD
ATOM     28  O   UNL A   1      34.868  32.118  31.448  1.00  0.00    -0.269 OA
BRANCH  26  29
ATOM     29  C   UNL A   1      36.569  31.158  30.157  1.00  0.00     0.039 A 
ATOM     30  C   UNL A   1      37.770  31.836  29.934  1.00  0.00     0.014 A 
ATOM     31  C   UNL A   1      36.550  29.773  30.251  1.00  0.00     0.014 A 
ATOM     32  C   UNL A   1      38.967  31.113  29.894  1.00  0.00     0.010 A 
ATOM     33  C   UNL A   1      37.734  29.081  30.354  1.00  0.00     0.010 A 
ATOM     34  C   UNL A   1      38.950  29.731  30.119  1.00  0.00    -0.014 A 
BRANCH  34  35
ATOM     35  C   UNL A   1      40.189  28.943  30.157  1.00  0.00     0.031 A 
ATOM     36  C   UNL A   1      40.842  28.708  31.483  1.00  0.00     0.074 A 
ATOM     37  C   UNL A   1      40.574  28.190  29.101  1.00  0.00     0.049 A 
ATOM     38  N   UNL A   1      42.095  28.822  31.792  1.00  0.00    -0.248 NA
ATOM     39  C   UNL A   1      39.994  28.275  32.606  1.00  0.00     0.031 C 
ATOM     40  C   UNL A   1      39.880  28.024  27.816  1.00  0.00     0.029 A 
ATOM     41  N   UNL A   1      41.576  27.268  29.025  1.00  0.00    -0.354 N 
ATOM     42  C   UNL A   1      42.229  28.349  33.098  1.00  0.00     0.074 A 
ATOM     43  C   UNL A   1      40.892  28.098  33.576  1.00  0.00     0.031 C 
ATOM     44  C   UNL A   1      40.293  26.882  27.230  1.00  0.00     0.029 A 
ATOM     45  C   UNL A   1      41.409  26.357  27.994  1.00  0.00     0.049 A 
ATOM     46  H   UNL A   1      42.344  27.252  29.642  1.00  0.00     0.167 HD
ATOM     47  C   UNL A   1      43.436  28.042  33.654  1.00  0.00     0.031 A 
ATOM     48  C   UNL A   1      42.107  25.221  27.776  1.00  0.00     0.031 A 
ATOM     49  C   UNL A   1      44.538  28.598  32.922  1.00  0.00     0.049 A 
ATOM     50  C   UNL A   1      43.383  25.324  28.508  1.00  0.00     0.074 A 
ATOM     51  C   UNL A   1      44.971  29.868  32.602  1.00  0.00     0.029 A 
ATOM     52  N   UNL A   1      45.263  27.747  32.126  1.00  0.00    -0.354 N 
ATOM     53  N   UNL A   1      44.317  26.182  28.212  1.00  0.00    -0.248 NA
ATOM     54  C   UNL A   1      43.504  24.698  29.814  1.00  0.00     0.031 C 
ATOM     55  C   UNL A   1      45.575  29.742  31.316  1.00  0.00     0.029 A 
ATOM     56  C   UNL A   1      45.485  28.399  30.942  1.00  0.00     0.049 A 
ATOM     57  H   UNL A   1      45.565  26.839  32.361  1.00  0.00     0.167 HD
ATOM     58  C   UNL A   1      44.885  26.519  29.429  1.00  0.00     0.074 A 
ATOM     59  C   UNL A   1      44.462  25.464  30.344  1.00  0.00     0.031 C 
ATOM     60  C   UNL A   1      45.401  27.766  29.644  1.00  0.00     0.031 A 
BRANCH  47  61
ATOM     61  C   UNL A   1      43.651  26.966  34.694  1.00  0.00    -0.014 A 
ATOM     62  C   UNL A   1      43.806  25.628  34.279  1.00  0.00     0.009 A 
ATOM     63  C   UNL A   1      43.437  27.177  36.069  1.00  0.00     0.009 A 
ATOM     64  C   UNL A   1      43.700  24.562  35.182  1.00  0.00     0.001 A 
ATOM     65  C   UNL A   1      43.375  26.117  36.980  1.00  0.00     0.001 A 
ATOM     66  C   UNL A   1      43.482  24.807  36.533  1.00  0.00     0.000 A 
ENDBRANCH  47  61
BRANCH  48  67
ATOM     67  C   UNL A   1      41.652  23.993  27.102  1.00  0.00    -0.014 A 
ATOM     68  C   UNL A   1      42.495  23.286  26.237  1.00  0.00     0.009 A 
ATOM     69  C   UNL A   1      40.435  23.392  27.479  1.00  0.00     0.009 A 
ATOM     70  C   UNL A   1      42.139  22.012  25.776  1.00  0.00     0.001 A 
ATOM     71  C   UNL A   1      40.077  22.123  27.017  1.00  0.00     0.001 A 
ATOM     72  C   UNL A   1      40.937  21.427  26.173  1.00  0.00     0.000 A 
ENDBRANCH  48  67
BRANCH  60  73
ATOM     73  C   UNL A   1      45.573  28.671  28.448  1.00  0.00    -0.014 A 
ATOM     74  C   UNL A   1      44.540  29.504  27.981  1.00  0.00     0.009 A 
ATOM     75  C   UNL A   1      46.847  28.814  27.879  1.00  0.00     0.009 A 
ATOM     76  C   UNL A   1      44.764  30.427  26.956  1.00  0.00     0.001 A 
ATOM     77  C   UNL A   1      47.077  29.752  26.869  1.00  0.00     0.001 A 
ATOM     78  C   UNL A   1      46.035  30.554  26.403  1.00  0.00     0.000 A 
ENDBRANCH  60  73
ENDBRANCH  34  35
ENDBRANCH  26  29
ENDBRANCH  24  25
ENDBRANCH  23  24
ENDBRANCH  22  23
ENDBRANCH   1  22
TORSDOF 16
ENDMDL
MODEL 3
REMARK VINA RESULT:     -10.5      4.526     10.436
REMARK SMILES COc1ncccc1Cn1ccc(C(=O)NCCCCCCNC(=O)c2ccc(-c3c4nc(c(-c5ccccc5)c5ccc([nH]5)c(-c5ccccc5)c5nc(c(-c6ccccc6)c6ccc3[nH]6)C=C5)C=C4)cc2)n1
REMARK SMILES IDX 19 1 18 2 17 3 16 4 14 5 15 6 13 8 10 9 11 10 74 11 12 12
REMARK SMILES IDX 9 13 8 14 3 15 4 16 5 17 7 18 6 19 2 20 1 21 20 22 21 23
REMARK SMILES IDX 22 24 23 25 24 26 25 28 26 29 27 30 73 31 28 32 72 33 29 34
REMARK SMILES IDX 30 35 31 36 66 37 32 38 71 39 65 40 67 41 33 42 70 43 64 44
REMARK SMILES IDX 63 45 34 47 56 48 41 49 55 50 42 51 45 52 54 53 68 54 43 55
REMARK SMILES IDX 44 56 53 58 69 59 46 60 35 61 36 62 40 63 37 64 39 65 38 66
REMARK SMILES IDX 57 67 58 68 62 69 59 70 61 71 60 72 47 73 48 74 52 75 49 76
REMARK SMILES IDX 51 77 50 78
REMARK H PARENT 16 7 23 27 67 46 45 57
REMARK Flexibility Score: inf
ROOT
ATOM      1  C   UNL A   1      43.218  25.731  28.535  1.00  0.00     0.002 C 
ENDROOT
BRANCH   1   2
ATOM      2  C   UNL A   1      44.289  26.512  27.770  1.00  0.00     0.021 C 
BRANCH   2   3
ATOM      3  C   UNL A   1      44.002  26.649  26.278  1.00  0.00     0.116 C 
BRANCH   3   4
ATOM      4  N   UNL A   1      45.235  26.782  25.524  1.00  0.00    -0.351 N 
ATOM      5  C   UNL A   1      46.085  25.819  25.035  1.00  0.00     0.271 C 
ATOM      6  O   UNL A   1      47.025  26.192  24.327  1.00  0.00    -0.267 OA
ATOM      7  H   UNL A   1      45.505  27.709  25.332  1.00  0.00     0.163 HD
BRANCH   5   8
ATOM      8  C   UNL A   1      45.814  24.395  25.269  1.00  0.00     0.150 A 
ATOM      9  N   UNL A   1      45.264  22.360  24.947  1.00  0.00    -0.267 N 
ATOM     10  C   UNL A   1      45.939  22.352  26.133  1.00  0.00     0.110 A 
ATOM     11  N   UNL A   1      45.142  23.593  24.419  1.00  0.00    -0.167 NA
ATOM     12  C   UNL A   1      46.247  23.662  26.404  1.00  0.00     0.056 A 
BRANCH   9  13
ATOM     13  C   UNL A   1      44.847  21.200  24.167  1.00  0.00     0.185 C 
BRANCH  13  14
ATOM     14  C   UNL A   1      44.141  20.179  25.008  1.00  0.00     0.036 A 
ATOM     15  C   UNL A   1      44.710  18.934  25.257  1.00  0.00     0.218 A 
ATOM     16  N   UNL A   1      44.139  17.965  26.001  1.00  0.00    -0.222 NA
ATOM     17  C   UNL A   1      42.931  18.253  26.535  1.00  0.00     0.115 A 
ATOM     18  C   UNL A   1      42.897  20.441  25.591  1.00  0.00     0.013 A 
ATOM     19  C   UNL A   1      42.274  19.460  26.357  1.00  0.00     0.021 A 
BRANCH  15  20
ATOM     20  O   UNL A   1      45.867  18.607  24.591  1.00  0.00    -0.481 OA
ATOM     21  C   UNL A   1      46.950  18.493  25.508  1.00  0.00     0.280 C 
ENDBRANCH  15  20
ENDBRANCH  13  14
ENDBRANCH   9  13
ENDBRANCH   5   8
ENDBRANCH   3   4
ENDBRANCH   2   3
ENDBRANCH   1   2
BRANCH   1  22
ATOM     22  C   UNL A   1      43.521  24.248  28.792  1.00  0.00     0.002 C 
BRANCH  22  23
ATOM     23  C   UNL A   1      42.585  23.227  28.130  1.00  0.00     0.021 C 
BRANCH  23  24
ATOM     24  C   UNL A   1      42.274  23.496  26.662  1.00  0.00     0.116 C 
BRANCH  24  25
ATOM     25  N   UNL A   1      40.907  23.127  26.304  1.00  0.00    -0.352 N 
ATOM     26  C   UNL A   1      39.715  23.696  26.703  1.00  0.00     0.251 C 
ATOM     27  H   UNL A   1      40.824  22.362  25.689  1.00  0.00     0.163 HD
ATOM     28  O   UNL A   1      38.656  23.092  26.576  1.00  0.00    -0.269 OA
BRANCH  26  29
ATOM     29  C   UNL A   1      39.729  25.045  27.295  1.00  0.00     0.039 A 
ATOM     30  C   UNL A   1      39.419  25.250  28.642  1.00  0.00     0.014 A 
ATOM     31  C   UNL A   1      40.085  26.115  26.484  1.00  0.00     0.014 A 
ATOM     32  C   UNL A   1      39.555  26.531  29.188  1.00  0.00     0.010 A 
ATOM     33  C   UNL A   1      40.354  27.338  27.051  1.00  0.00     0.010 A 
ATOM     34  C   UNL A   1      40.038  27.577  28.392  1.00  0.00    -0.014 A 
BRANCH  34  35
ATOM     35  C   UNL A   1      40.264  28.920  28.942  1.00  0.00     0.031 A 
ATOM     36  C   UNL A   1      41.553  29.610  28.624  1.00  0.00     0.074 A 
ATOM     37  C   UNL A   1      39.247  29.649  29.455  1.00  0.00     0.049 A 
ATOM     38  N   UNL A   1      42.344  30.245  29.431  1.00  0.00    -0.248 NA
ATOM     39  C   UNL A   1      42.014  29.609  27.226  1.00  0.00     0.031 C 
ATOM     40  C   UNL A   1      37.829  29.270  29.547  1.00  0.00     0.029 A 
ATOM     41  N   UNL A   1      39.235  30.959  29.832  1.00  0.00    -0.354 N 
ATOM     42  C   UNL A   1      43.328  30.840  28.640  1.00  0.00     0.074 A 
ATOM     43  C   UNL A   1      43.119  30.352  27.299  1.00  0.00     0.031 C 
ATOM     44  C   UNL A   1      37.077  30.383  29.665  1.00  0.00     0.029 A 
ATOM     45  C   UNL A   1      37.965  31.514  29.857  1.00  0.00     0.049 A 
ATOM     46  H   UNL A   1      40.050  31.462  30.064  1.00  0.00     0.167 HD
ATOM     47  C   UNL A   1      44.155  31.822  29.101  1.00  0.00     0.031 A 
ATOM     48  C   UNL A   1      37.637  32.817  29.995  1.00  0.00     0.031 A 
ATOM     49  C   UNL A   1      44.169  31.903  30.534  1.00  0.00     0.049 A 
ATOM     50  C   UNL A   1      38.791  33.516  30.591  1.00  0.00     0.074 A 
ATOM     51  C   UNL A   1      44.532  31.064  31.567  1.00  0.00     0.029 A 
ATOM     52  N   UNL A   1      43.467  32.928  31.117  1.00  0.00    -0.354 N 
ATOM     53  N   UNL A   1      39.218  33.298  31.801  1.00  0.00    -0.248 NA
ATOM     54  C   UNL A   1      39.712  34.231  29.725  1.00  0.00     0.031 C 
ATOM     55  C   UNL A   1      43.634  31.374  32.631  1.00  0.00     0.029 A 
ATOM     56  C   UNL A   1      42.791  32.395  32.182  1.00  0.00     0.049 A 
ATOM     57  H   UNL A   1      43.452  33.868  30.824  1.00  0.00     0.167 HD
ATOM     58  C   UNL A   1      40.591  33.459  31.725  1.00  0.00     0.074 A 
ATOM     59  C   UNL A   1      40.813  34.186  30.479  1.00  0.00     0.031 C 
ATOM     60  C   UNL A   1      41.430  32.739  32.529  1.00  0.00     0.031 A 
BRANCH  47  61
ATOM     61  C   UNL A   1      44.724  32.933  28.249  1.00  0.00    -0.014 A 
ATOM     62  C   UNL A   1      43.869  33.642  27.382  1.00  0.00     0.009 A 
ATOM     63  C   UNL A   1      46.106  33.127  28.068  1.00  0.00     0.009 A 
ATOM     64  C   UNL A   1      44.373  34.458  26.359  1.00  0.00     0.001 A 
ATOM     65  C   UNL A   1      46.611  33.975  27.076  1.00  0.00     0.001 A 
ATOM     66  C   UNL A   1      45.745  34.621  26.205  1.00  0.00     0.000 A 
ENDBRANCH  47  61
BRANCH  48  67
ATOM     67  C   UNL A   1      36.441  33.509  29.484  1.00  0.00    -0.014 A 
ATOM     68  C   UNL A   1      35.967  33.276  28.188  1.00  0.00     0.009 A 
ATOM     69  C   UNL A   1      35.630  34.256  30.362  1.00  0.00     0.009 A 
ATOM     70  C   UNL A   1      34.716  33.762  27.787  1.00  0.00     0.001 A 
ATOM     71  C   UNL A   1      34.384  34.744  29.961  1.00  0.00     0.001 A 
ATOM     72  C   UNL A   1      33.921  34.486  28.675  1.00  0.00     0.000 A 
ENDBRANCH  48  67
BRANCH  60  73
ATOM     73  C   UNL A   1      40.817  31.968  33.673  1.00  0.00    -0.014 A 
ATOM     74  C   UNL A   1      40.679  32.516  34.960  1.00  0.00     0.009 A 
ATOM     75  C   UNL A   1      40.218  30.726  33.414  1.00  0.00     0.009 A 
ATOM     76  C   UNL A   1      39.992  31.831  35.967  1.00  0.00     0.001 A 
ATOM     77  C   UNL A   1      39.513  30.051  34.414  1.00  0.00     0.001 A 
ATOM     78  C   UNL A   1      39.405  30.600  35.691  1.00  0.00     0.000 A 
ENDBRANCH  60  73
ENDBRANCH  34  35
ENDBRANCH  26  29
ENDBRANCH  24  25
ENDBRANCH  23  24
ENDBRANCH  22  23
ENDBRANCH   1  22
TORSDOF 16
ENDMDL
