MODEL 1
REMARK VINA RESULT:     -10.4      0.000      0.000
REMARK SMILES CC(C)C[C@H](NC(=O)c1cc(Cl)nnc1Cl)C(=O)NCCCCCCNC(=O)c1ccc(-c2c3nc(c(-c4ccccc4)c4ccc([nH]4)c(-c4ccccc4)c4nc(c(-c5ccccc5)c5ccc2[nH]5)C=C4)C=C3)cc1
REMARK SMILES IDX 22 1 21 2 20 3 19 4 17 5 18 6 5 8 4 9 2 10 1 11 3 12 6 13
REMARK SMILES IDX 7 14 8 16 9 17 10 18 15 19 11 20 14 21 16 22 12 23 13 24
REMARK SMILES IDX 23 25 24 26 25 27 26 28 27 29 28 31 29 32 30 33 76 34 31 35
REMARK SMILES IDX 75 36 32 37 33 38 34 39 69 40 35 41 74 42 68 43 70 44 36 45
REMARK SMILES IDX 73 46 67 47 66 48 37 50 59 51 44 52 58 53 45 54 48 55 57 56
REMARK SMILES IDX 71 57 46 58 47 59 56 61 72 62 49 63 38 64 39 65 43 66 40 67
REMARK SMILES IDX 42 68 41 69 60 70 61 71 65 72 62 73 64 74 63 75 50 76 51 77
REMARK SMILES IDX 55 78 52 79 54 80 53 81
REMARK H PARENT 19 7 6 15 26 30 70 49 48 60
REMARK Flexibility Score: inf
ROOT
ATOM      1  C   UNL A   1      32.410  28.488  24.558  1.00  0.00     0.002 C 
ENDROOT
BRANCH   1   2
ATOM      2  C   UNL A   1      32.335  27.331  23.555  1.00  0.00     0.021 C 
BRANCH   2   3
ATOM      3  C   UNL A   1      33.531  26.386  23.590  1.00  0.00     0.116 C 
BRANCH   3   4
ATOM      4  N   UNL A   1      33.501  25.448  22.484  1.00  0.00    -0.354 N 
ATOM      5  C   UNL A   1      33.874  24.136  22.437  1.00  0.00     0.242 C 
ATOM      6  O   UNL A   1      33.702  23.525  21.382  1.00  0.00    -0.273 OA
ATOM      7  H   UNL A   1      33.159  25.814  21.637  1.00  0.00     0.163 HD
BRANCH   5   8
ATOM      8  C   UNL A   1      34.474  23.442  23.679  1.00  0.00     0.171 C 
BRANCH   8   9
ATOM      9  C   UNL A   1      35.996  23.230  23.575  1.00  0.00     0.038 C 
BRANCH   9  10
ATOM     10  C   UNL A   1      36.832  23.504  24.842  1.00  0.00    -0.015 C 
ATOM     11  C   UNL A   1      35.995  24.035  26.005  1.00  0.00     0.007 C 
ATOM     12  C   UNL A   1      37.543  22.215  25.269  1.00  0.00     0.007 C 
ENDBRANCH   9  10
ENDBRANCH   8   9
BRANCH   8  13
ATOM     13  N   UNL A   1      33.687  22.208  23.888  1.00  0.00    -0.340 N 
ATOM     14  C   UNL A   1      32.526  21.940  24.552  1.00  0.00     0.255 C 
ATOM     15  H   UNL A   1      34.084  21.415  23.461  1.00  0.00     0.164 HD
ATOM     16  O   UNL A   1      32.086  20.796  24.604  1.00  0.00    -0.269 OA
BRANCH  14  17
ATOM     17  C   UNL A   1      31.840  22.975  25.312  1.00  0.00     0.082 A 
ATOM     18  C   UNL A   1      30.989  23.836  24.617  1.00  0.00     0.060 A 
ATOM     19  C   UNL A   1      32.040  23.158  26.666  1.00  0.00     0.164 A 
ATOM     20  C   UNL A   1      30.335  24.802  25.346  1.00  0.00     0.152 A 
ATOM     21  N   UNL A   1      31.372  24.112  27.345  1.00  0.00    -0.136 NA
ATOM     22  Cl  UNL A   1      33.111  22.228  27.624  1.00  0.00    -0.059 Cl
ATOM     23  Cl  UNL A   1      29.235  25.887  24.615  1.00  0.00    -0.060 Cl
ATOM     24  N   UNL A   1      30.499  24.940  26.675  1.00  0.00    -0.137 NA
ENDBRANCH  14  17
ENDBRANCH   8  13
ENDBRANCH   5   8
ENDBRANCH   3   4
ENDBRANCH   2   3
ENDBRANCH   1   2
BRANCH   1  25
ATOM     25  C   UNL A   1      31.632  28.275  25.861  1.00  0.00     0.002 C 
BRANCH  25  26
ATOM     26  C   UNL A   1      32.490  27.968  27.090  1.00  0.00     0.021 C 
BRANCH  26  27
ATOM     27  C   UNL A   1      33.836  28.684  27.126  1.00  0.00     0.116 C 
BRANCH  27  28
ATOM     28  N   UNL A   1      33.725  30.041  27.632  1.00  0.00    -0.352 N 
ATOM     29  C   UNL A   1      34.654  30.764  28.335  1.00  0.00     0.251 C 
ATOM     30  H   UNL A   1      32.876  30.500  27.444  1.00  0.00     0.163 HD
ATOM     31  O   UNL A   1      34.369  31.849  28.830  1.00  0.00    -0.269 OA
BRANCH  29  32
ATOM     32  C   UNL A   1      36.008  30.204  28.511  1.00  0.00     0.039 A 
ATOM     33  C   UNL A   1      36.914  30.285  27.452  1.00  0.00     0.014 A 
ATOM     34  C   UNL A   1      36.375  29.623  29.728  1.00  0.00     0.014 A 
ATOM     35  C   UNL A   1      38.217  29.819  27.631  1.00  0.00     0.010 A 
ATOM     36  C   UNL A   1      37.687  29.198  29.918  1.00  0.00     0.010 A 
ATOM     37  C   UNL A   1      38.614  29.288  28.869  1.00  0.00    -0.014 A 
BRANCH  37  38
ATOM     38  C   UNL A   1      39.990  28.779  29.068  1.00  0.00     0.031 A 
ATOM     39  C   UNL A   1      41.021  29.663  29.710  1.00  0.00     0.074 A 
ATOM     40  C   UNL A   1      40.316  27.540  28.655  1.00  0.00     0.049 A 
ATOM     41  N   UNL A   1      42.284  29.417  29.941  1.00  0.00    -0.248 NA
ATOM     42  C   UNL A   1      40.577  31.000  30.141  1.00  0.00     0.031 C 
ATOM     43  C   UNL A   1      39.404  26.591  28.018  1.00  0.00     0.029 A 
ATOM     44  N   UNL A   1      41.510  26.867  28.718  1.00  0.00    -0.354 N 
ATOM     45  C   UNL A   1      42.784  30.564  30.541  1.00  0.00     0.074 A 
ATOM     46  C   UNL A   1      41.704  31.522  30.605  1.00  0.00     0.031 C 
ATOM     47  C   UNL A   1      40.064  25.445  27.775  1.00  0.00     0.029 A 
ATOM     48  C   UNL A   1      41.450  25.591  28.211  1.00  0.00     0.049 A 
ATOM     49  H   UNL A   1      42.331  27.260  29.091  1.00  0.00     0.167 HD
ATOM     50  C   UNL A   1      44.029  30.789  31.018  1.00  0.00     0.031 A 
ATOM     51  C   UNL A   1      42.404  24.647  28.113  1.00  0.00     0.031 A 
ATOM     52  C   UNL A   1      45.099  29.834  30.975  1.00  0.00     0.049 A 
ATOM     53  C   UNL A   1      43.790  24.941  28.612  1.00  0.00     0.074 A 
ATOM     54  C   UNL A   1      46.387  29.968  31.462  1.00  0.00     0.029 A 
ATOM     55  N   UNL A   1      45.005  28.569  30.421  1.00  0.00    -0.354 N 
ATOM     56  N   UNL A   1      44.243  26.024  29.194  1.00  0.00    -0.248 NA
ATOM     57  C   UNL A   1      44.799  23.882  28.442  1.00  0.00     0.031 C 
ATOM     58  C   UNL A   1      47.083  28.792  31.175  1.00  0.00     0.029 A 
ATOM     59  C   UNL A   1      46.217  27.916  30.542  1.00  0.00     0.049 A 
ATOM     60  H   UNL A   1      44.197  28.192  30.004  1.00  0.00     0.167 HD
ATOM     61  C   UNL A   1      45.577  25.772  29.477  1.00  0.00     0.074 A 
ATOM     62  C   UNL A   1      45.864  24.432  29.009  1.00  0.00     0.031 C 
ATOM     63  C   UNL A   1      46.483  26.581  30.076  1.00  0.00     0.031 A 
BRANCH  50  64
ATOM     64  C   UNL A   1      44.305  32.119  31.653  1.00  0.00    -0.014 A 
ATOM     65  C   UNL A   1      44.137  32.297  33.034  1.00  0.00     0.009 A 
ATOM     66  C   UNL A   1      44.825  33.170  30.883  1.00  0.00     0.009 A 
ATOM     67  C   UNL A   1      44.482  33.509  33.634  1.00  0.00     0.001 A 
ATOM     68  C   UNL A   1      45.184  34.374  31.489  1.00  0.00     0.001 A 
ATOM     69  C   UNL A   1      45.012  34.543  32.862  1.00  0.00     0.000 A 
ENDBRANCH  50  64
BRANCH  51  70
ATOM     70  C   UNL A   1      42.072  23.317  27.541  1.00  0.00    -0.014 A 
ATOM     71  C   UNL A   1      42.350  23.042  26.194  1.00  0.00     0.009 A 
ATOM     72  C   UNL A   1      41.490  22.318  28.335  1.00  0.00     0.009 A 
ATOM     73  C   UNL A   1      42.039  21.794  25.649  1.00  0.00     0.001 A 
ATOM     74  C   UNL A   1      41.198  21.066  27.793  1.00  0.00     0.001 A 
ATOM     75  C   UNL A   1      41.469  20.806  26.450  1.00  0.00     0.000 A 
ENDBRANCH  51  70
BRANCH  63  76
ATOM     76  C   UNL A   1      47.869  26.051  30.285  1.00  0.00    -0.014 A 
ATOM     77  C   UNL A   1      48.812  26.080  29.246  1.00  0.00     0.009 A 
ATOM     78  C   UNL A   1      48.269  25.634  31.563  1.00  0.00     0.009 A 
ATOM     79  C   UNL A   1      50.131  25.696  29.486  1.00  0.00     0.001 A 
ATOM     80  C   UNL A   1      49.593  25.268  31.804  1.00  0.00     0.001 A 
ATOM     81  C   UNL A   1      50.522  25.299  30.765  1.00  0.00     0.000 A 
ENDBRANCH  63  76
ENDBRANCH  37  38
ENDBRANCH  29  32
ENDBRANCH  27  28
ENDBRANCH  26  27
ENDBRANCH  25  26
ENDBRANCH   1  25
TORSDOF 17
ENDMDL
MODEL 2
REMARK VINA RESULT:     -10.3      2.051      7.143
REMARK SMILES CC(C)C[C@H](NC(=O)c1cc(Cl)nnc1Cl)C(=O)NCCCCCCNC(=O)c1ccc(-c2c3nc(c(-c4ccccc4)c4ccc([nH]4)c(-c4ccccc4)c4nc(c(-c5ccccc5)c5ccc2[nH]5)C=C4)C=C3)cc1
REMARK SMILES IDX 22 1 21 2 20 3 19 4 17 5 18 6 5 8 4 9 2 10 1 11 3 12 6 13
REMARK SMILES IDX 7 14 8 16 9 17 10 18 15 19 11 20 14 21 16 22 12 23 13 24
REMARK SMILES IDX 23 25 24 26 25 27 26 28 27 29 28 31 29 32 30 33 76 34 31 35
REMARK SMILES IDX 75 36 32 37 33 38 34 39 69 40 35 41 74 42 68 43 70 44 36 45
REMARK SMILES IDX 73 46 67 47 66 48 37 50 59 51 44 52 58 53 45 54 48 55 57 56
REMARK SMILES IDX 71 57 46 58 47 59 56 61 72 62 49 63 38 64 39 65 43 66 40 67
REMARK SMILES IDX 42 68 41 69 60 70 61 71 65 72 62 73 64 74 63 75 50 76 51 77
REMARK SMILES IDX 55 78 52 79 54 80 53 81
REMARK H PARENT 19 7 6 15 26 30 70 49 48 60
REMARK Flexibility Score: inf
ROOT
ATOM      1  C   UNL A   1      36.502  21.831  24.380  1.00  0.00     0.002 C 
ENDROOT
BRANCH   1   2
ATOM      2  C   UNL A   1      36.114  22.977  25.321  1.00  0.00     0.021 C 
BRANCH   2   3
ATOM      3  C   UNL A   1      34.815  23.685  24.952  1.00  0.00     0.116 C 
BRANCH   3   4
ATOM      4  N   UNL A   1      34.623  23.732  23.515  1.00  0.00    -0.354 N 
ATOM      5  C   UNL A   1      33.577  23.294  22.756  1.00  0.00     0.242 C 
ATOM      6  O   UNL A   1      33.620  23.498  21.542  1.00  0.00    -0.273 OA
ATOM      7  H   UNL A   1      35.361  24.143  23.010  1.00  0.00     0.163 HD
BRANCH   5   8
ATOM      8  C   UNL A   1      32.371  22.585  23.409  1.00  0.00     0.171 C 
BRANCH   8   9
ATOM      9  C   UNL A   1      32.273  21.094  23.036  1.00  0.00     0.038 C 
BRANCH   9  10
ATOM     10  C   UNL A   1      32.932  20.084  23.999  1.00  0.00    -0.015 C 
ATOM     11  C   UNL A   1      32.700  20.426  25.471  1.00  0.00     0.007 C 
ATOM     12  C   UNL A   1      32.392  18.680  23.708  1.00  0.00     0.007 C 
ENDBRANCH   9  10
ENDBRANCH   8   9
BRANCH   8  13
ATOM     13  N   UNL A   1      31.178  23.390  23.068  1.00  0.00    -0.340 N 
ATOM     14  C   UNL A   1      30.708  24.595  23.501  1.00  0.00     0.255 C 
ATOM     15  H   UNL A   1      30.604  22.969  22.388  1.00  0.00     0.164 HD
ATOM     16  O   UNL A   1      29.649  25.043  23.073  1.00  0.00    -0.269 OA
BRANCH  14  17
ATOM     17  C   UNL A   1      31.382  25.326  24.565  1.00  0.00     0.082 A 
ATOM     18  C   UNL A   1      32.223  26.379  24.197  1.00  0.00     0.060 A 
ATOM     19  C   UNL A   1      31.256  24.984  25.896  1.00  0.00     0.164 A 
ATOM     20  C   UNL A   1      32.845  27.071  25.210  1.00  0.00     0.152 A 
ATOM     21  N   UNL A   1      31.878  25.696  26.858  1.00  0.00    -0.136 NA
ATOM     22  Cl  UNL A   1      30.325  23.672  26.479  1.00  0.00    -0.059 Cl
ATOM     23  Cl  UNL A   1      33.863  28.407  24.889  1.00  0.00    -0.060 Cl
ATOM     24  N   UNL A   1      32.676  26.762  26.509  1.00  0.00    -0.137 NA
ENDBRANCH  14  17
ENDBRANCH   8  13
ENDBRANCH   5   8
ENDBRANCH   3   4
ENDBRANCH   2   3
ENDBRANCH   1   2
BRANCH   1  25
ATOM     25  C   UNL A   1      36.459  20.431  25.003  1.00  0.00     0.002 C 
BRANCH  25  26
ATOM     26  C   UNL A   1      37.749  19.619  24.873  1.00  0.00     0.021 C 
BRANCH  26  27
ATOM     27  C   UNL A   1      38.950  20.203  25.609  1.00  0.00     0.116 C 
BRANCH  27  28
ATOM     28  N   UNL A   1      40.037  19.248  25.734  1.00  0.00    -0.352 N 
ATOM     29  C   UNL A   1      41.332  19.480  26.121  1.00  0.00     0.251 C 
ATOM     30  H   UNL A   1      39.816  18.315  25.514  1.00  0.00     0.163 HD
ATOM     31  O   UNL A   1      42.185  18.603  26.037  1.00  0.00    -0.269 OA
BRANCH  29  32
ATOM     32  C   UNL A   1      41.695  20.819  26.623  1.00  0.00     0.039 A 
ATOM     33  C   UNL A   1      42.129  21.786  25.714  1.00  0.00     0.014 A 
ATOM     34  C   UNL A   1      41.582  21.113  27.985  1.00  0.00     0.014 A 
ATOM     35  C   UNL A   1      42.411  23.075  26.170  1.00  0.00     0.010 A 
ATOM     36  C   UNL A   1      41.822  22.410  28.430  1.00  0.00     0.010 A 
ATOM     37  C   UNL A   1      42.244  23.397  27.526  1.00  0.00    -0.014 A 
BRANCH  37  38
ATOM     38  C   UNL A   1      42.550  24.756  28.025  1.00  0.00     0.031 A 
ATOM     39  C   UNL A   1      43.972  25.127  28.340  1.00  0.00     0.074 A 
ATOM     40  C   UNL A   1      41.556  25.645  28.214  1.00  0.00     0.049 A 
ATOM     41  N   UNL A   1      44.441  26.250  28.817  1.00  0.00    -0.248 NA
ATOM     42  C   UNL A   1      44.998  24.099  28.095  1.00  0.00     0.031 C 
ATOM     43  C   UNL A   1      40.139  25.401  27.945  1.00  0.00     0.029 A 
ATOM     44  N   UNL A   1      41.594  26.938  28.672  1.00  0.00    -0.354 N 
ATOM     45  C   UNL A   1      45.811  26.065  28.930  1.00  0.00     0.074 A 
ATOM     46  C   UNL A   1      46.098  24.711  28.510  1.00  0.00     0.031 C 
ATOM     47  C   UNL A   1      39.444  26.520  28.216  1.00  0.00     0.029 A 
ATOM     48  C   UNL A   1      40.362  27.545  28.705  1.00  0.00     0.049 A 
ATOM     49  H   UNL A   1      42.423  27.386  28.951  1.00  0.00     0.167 HD
ATOM     50  C   UNL A   1      46.750  26.953  29.326  1.00  0.00     0.031 A 
ATOM     51  C   UNL A   1      40.014  28.790  29.082  1.00  0.00     0.031 A 
ATOM     52  C   UNL A   1      46.473  28.303  29.724  1.00  0.00     0.049 A 
ATOM     53  C   UNL A   1      41.074  29.741  29.560  1.00  0.00     0.074 A 
ATOM     54  C   UNL A   1      47.369  29.283  30.114  1.00  0.00     0.029 A 
ATOM     55  N   UNL A   1      45.209  28.866  29.777  1.00  0.00    -0.354 N 
ATOM     56  N   UNL A   1      42.368  29.556  29.643  1.00  0.00    -0.248 NA
ATOM     57  C   UNL A   1      40.626  31.074  29.996  1.00  0.00     0.031 C 
ATOM     58  C   UNL A   1      46.642  30.432  30.432  1.00  0.00     0.029 A 
ATOM     59  C   UNL A   1      45.300  30.177  30.205  1.00  0.00     0.049 A 
ATOM     60  H   UNL A   1      44.373  28.402  29.543  1.00  0.00     0.167 HD
ATOM     61  C   UNL A   1      42.891  30.750  30.118  1.00  0.00     0.074 A 
ATOM     62  C   UNL A   1      41.778  31.657  30.303  1.00  0.00     0.031 C 
ATOM     63  C   UNL A   1      44.183  31.066  30.376  1.00  0.00     0.031 A 
BRANCH  50  64
ATOM     64  C   UNL A   1      48.180  26.503  29.330  1.00  0.00    -0.014 A 
ATOM     65  C   UNL A   1      48.722  25.865  30.455  1.00  0.00     0.009 A 
ATOM     66  C   UNL A   1      48.960  26.632  28.171  1.00  0.00     0.009 A 
ATOM     67  C   UNL A   1      50.026  25.368  30.422  1.00  0.00     0.001 A 
ATOM     68  C   UNL A   1      50.257  26.118  28.136  1.00  0.00     0.001 A 
ATOM     69  C   UNL A   1      50.789  25.487  29.260  1.00  0.00     0.000 A 
ENDBRANCH  50  64
BRANCH  51  70
ATOM     70  C   UNL A   1      38.595  29.219  28.996  1.00  0.00    -0.014 A 
ATOM     71  C   UNL A   1      38.094  29.758  27.801  1.00  0.00     0.009 A 
ATOM     72  C   UNL A   1      37.735  29.082  30.095  1.00  0.00     0.009 A 
ATOM     73  C   UNL A   1      36.761  30.164  27.714  1.00  0.00     0.001 A 
ATOM     74  C   UNL A   1      36.398  29.471  29.999  1.00  0.00     0.001 A 
ATOM     75  C   UNL A   1      35.913  30.015  28.810  1.00  0.00     0.000 A 
ENDBRANCH  51  70
BRANCH  63  76
ATOM     76  C   UNL A   1      44.483  32.449  30.868  1.00  0.00    -0.014 A 
ATOM     77  C   UNL A   1      44.576  32.718  32.242  1.00  0.00     0.009 A 
ATOM     78  C   UNL A   1      44.795  33.462  29.948  1.00  0.00     0.009 A 
ATOM     79  C   UNL A   1      44.974  33.980  32.685  1.00  0.00     0.001 A 
ATOM     80  C   UNL A   1      45.210  34.717  30.394  1.00  0.00     0.001 A 
ATOM     81  C   UNL A   1      45.299  34.974  31.761  1.00  0.00     0.000 A 
ENDBRANCH  63  76
ENDBRANCH  37  38
ENDBRANCH  29  32
ENDBRANCH  27  28
ENDBRANCH  26  27
ENDBRANCH  25  26
ENDBRANCH   1  25
TORSDOF 17
ENDMDL
MODEL 3
REMARK VINA RESULT:     -10.2      1.996      7.298
REMARK SMILES CC(C)C[C@H](NC(=O)c1cc(Cl)nnc1Cl)C(=O)NCCCCCCNC(=O)c1ccc(-c2c3nc(c(-c4ccccc4)c4ccc([nH]4)c(-c4ccccc4)c4nc(c(-c5ccccc5)c5ccc2[nH]5)C=C4)C=C3)cc1
REMARK SMILES IDX 22 1 21 2 20 3 19 4 17 5 18 6 5 8 4 9 2 10 1 11 3 12 6 13
REMARK SMILES IDX 7 14 8 16 9 17 10 18 15 19 11 20 14 21 16 22 12 23 13 24
REMARK SMILES IDX 23 25 24 26 25 27 26 28 27 29 28 31 29 32 30 33 76 34 31 35
REMARK SMILES IDX 75 36 32 37 33 38 34 39 69 40 35 41 74 42 68 43 70 44 36 45
REMARK SMILES IDX 73 46 67 47 66 48 37 50 59 51 44 52 58 53 45 54 48 55 57 56
REMARK SMILES IDX 71 57 46 58 47 59 56 61 72 62 49 63 38 64 39 65 43 66 40 67
REMARK SMILES IDX 42 68 41 69 60 70 61 71 65 72 62 73 64 74 63 75 50 76 51 77
REMARK SMILES IDX 55 78 52 79 54 80 53 81
REMARK H PARENT 19 7 6 15 26 30 70 49 48 60
REMARK Flexibility Score: inf
ROOT
ATOM      1  C   UNL A   1      36.179  22.353  24.986  1.00  0.00     0.002 C 
ENDROOT
BRANCH   1   2
ATOM      2  C   UNL A   1      35.490  23.107  26.129  1.00  0.00     0.021 C 
BRANCH   2   3
ATOM      3  C   UNL A   1      34.369  24.040  25.686  1.00  0.00     0.116 C 
BRANCH   3   4
ATOM      4  N   UNL A   1      33.154  23.813  26.446  1.00  0.00    -0.354 N 
ATOM      5  C   UNL A   1      32.069  24.620  26.625  1.00  0.00     0.242 C 
ATOM      6  O   UNL A   1      31.124  24.177  27.278  1.00  0.00    -0.273 OA
ATOM      7  H   UNL A   1      33.106  22.941  26.901  1.00  0.00     0.163 HD
BRANCH   5   8
ATOM      8  C   UNL A   1      32.028  26.035  26.010  1.00  0.00     0.171 C 
BRANCH   8   9
ATOM      9  C   UNL A   1      32.082  27.154  27.066  1.00  0.00     0.038 C 
BRANCH   9  10
ATOM     10  C   UNL A   1      33.158  28.244  26.880  1.00  0.00    -0.015 C 
ATOM     11  C   UNL A   1      33.792  28.225  25.490  1.00  0.00     0.007 C 
ATOM     12  C   UNL A   1      32.535  29.620  27.140  1.00  0.00     0.007 C 
ENDBRANCH   9  10
ENDBRANCH   8   9
BRANCH   8  13
ATOM     13  N   UNL A   1      30.843  26.071  25.126  1.00  0.00    -0.340 N 
ATOM     14  C   UNL A   1      30.538  25.459  23.945  1.00  0.00     0.255 C 
ATOM     15  H   UNL A   1      30.126  26.659  25.458  1.00  0.00     0.164 HD
ATOM     16  O   UNL A   1      29.472  25.686  23.382  1.00  0.00    -0.269 OA
BRANCH  14  17
ATOM     17  C   UNL A   1      31.509  24.617  23.263  1.00  0.00     0.082 A 
ATOM     18  C   UNL A   1      31.416  23.236  23.448  1.00  0.00     0.060 A 
ATOM     19  C   UNL A   1      32.530  25.136  22.492  1.00  0.00     0.164 A 
ATOM     20  C   UNL A   1      32.330  22.449  22.788  1.00  0.00     0.152 A 
ATOM     21  N   UNL A   1      33.401  24.327  21.855  1.00  0.00    -0.136 NA
ATOM     22  Cl  UNL A   1      32.808  26.807  22.245  1.00  0.00    -0.059 Cl
ATOM     23  Cl  UNL A   1      32.292  20.743  22.901  1.00  0.00    -0.060 Cl
ATOM     24  N   UNL A   1      33.292  22.962  21.998  1.00  0.00    -0.137 NA
ENDBRANCH  14  17
ENDBRANCH   8  13
ENDBRANCH   5   8
ENDBRANCH   3   4
ENDBRANCH   2   3
ENDBRANCH   1   2
BRANCH   1  25
ATOM     25  C   UNL A   1      35.931  20.841  24.957  1.00  0.00     0.002 C 
BRANCH  25  26
ATOM     26  C   UNL A   1      37.187  19.976  24.846  1.00  0.00     0.021 C 
BRANCH  26  27
ATOM     27  C   UNL A   1      38.415  20.536  25.556  1.00  0.00     0.116 C 
BRANCH  27  28
ATOM     28  N   UNL A   1      39.501  19.574  25.620  1.00  0.00    -0.352 N 
ATOM     29  C   UNL A   1      40.806  19.788  25.985  1.00  0.00     0.251 C 
ATOM     30  H   UNL A   1      39.272  18.650  25.370  1.00  0.00     0.163 HD
ATOM     31  O   UNL A   1      41.653  18.912  25.849  1.00  0.00    -0.269 OA
BRANCH  29  32
ATOM     32  C   UNL A   1      41.185  21.106  26.529  1.00  0.00     0.039 A 
ATOM     33  C   UNL A   1      41.048  21.336  27.899  1.00  0.00     0.014 A 
ATOM     34  C   UNL A   1      41.693  22.095  25.682  1.00  0.00     0.014 A 
ATOM     35  C   UNL A   1      41.467  22.556  28.433  1.00  0.00     0.010 A 
ATOM     36  C   UNL A   1      42.150  23.294  26.222  1.00  0.00     0.010 A 
ATOM     37  C   UNL A   1      42.034  23.534  27.600  1.00  0.00    -0.014 A 
BRANCH  37  38
ATOM     38  C   UNL A   1      42.471  24.836  28.151  1.00  0.00     0.031 A 
ATOM     39  C   UNL A   1      41.465  25.937  28.336  1.00  0.00     0.074 A 
ATOM     40  C   UNL A   1      43.765  25.036  28.462  1.00  0.00     0.049 A 
ATOM     41  N   UNL A   1      41.654  27.156  28.770  1.00  0.00    -0.248 NA
ATOM     42  C   UNL A   1      40.069  25.631  27.980  1.00  0.00     0.031 C 
ATOM     43  C   UNL A   1      44.833  24.045  28.325  1.00  0.00     0.029 A 
ATOM     44  N   UNL A   1      44.399  26.144  28.966  1.00  0.00    -0.354 N 
ATOM     45  C   UNL A   1      40.406  27.760  28.738  1.00  0.00     0.074 A 
ATOM     46  C   UNL A   1      39.472  26.793  28.207  1.00  0.00     0.031 C 
ATOM     47  C   UNL A   1      45.985  24.581  28.763  1.00  0.00     0.029 A 
ATOM     48  C   UNL A   1      45.743  25.959  29.181  1.00  0.00     0.049 A 
ATOM     49  H   UNL A   1      43.935  26.991  29.154  1.00  0.00     0.167 HD
ATOM     50  C   UNL A   1      40.063  29.005  29.139  1.00  0.00     0.031 A 
ATOM     51  C   UNL A   1      46.672  26.804  29.665  1.00  0.00     0.031 A 
ATOM     52  C   UNL A   1      40.982  29.963  29.685  1.00  0.00     0.049 A 
ATOM     53  C   UNL A   1      46.271  28.197  30.061  1.00  0.00     0.074 A 
ATOM     54  C   UNL A   1      40.715  31.241  30.144  1.00  0.00     0.029 A 
ATOM     55  N   UNL A   1      42.338  29.747  29.852  1.00  0.00    -0.354 N 
ATOM     56  N   UNL A   1      45.083  28.747  30.042  1.00  0.00    -0.248 NA
ATOM     57  C   UNL A   1      47.339  29.086  30.546  1.00  0.00     0.031 C 
ATOM     58  C   UNL A   1      41.920  31.810  30.563  1.00  0.00     0.029 A 
ATOM     59  C   UNL A   1      42.926  30.874  30.396  1.00  0.00     0.049 A 
ATOM     60  H   UNL A   1      42.813  28.916  29.619  1.00  0.00     0.167 HD
ATOM     61  C   UNL A   1      45.254  30.034  30.530  1.00  0.00     0.074 A 
ATOM     62  C   UNL A   1      46.660  30.186  30.842  1.00  0.00     0.031 C 
ATOM     63  C   UNL A   1      44.325  31.004  30.706  1.00  0.00     0.031 A 
BRANCH  50  64
ATOM     64  C   UNL A   1      38.623  29.406  29.023  1.00  0.00    -0.014 A 
ATOM     65  C   UNL A   1      38.083  29.772  27.782  1.00  0.00     0.009 A 
ATOM     66  C   UNL A   1      37.781  29.326  30.142  1.00  0.00     0.009 A 
ATOM     67  C   UNL A   1      36.722  30.056  27.664  1.00  0.00     0.001 A 
ATOM     68  C   UNL A   1      36.417  29.595  30.016  1.00  0.00     0.001 A 
ATOM     69  C   UNL A   1      35.889  29.960  28.779  1.00  0.00     0.000 A 
ENDBRANCH  50  64
BRANCH  51  70
ATOM     70  C   UNL A   1      48.075  26.345  29.829  1.00  0.00    -0.014 A 
ATOM     71  C   UNL A   1      48.487  25.761  31.037  1.00  0.00     0.009 A 
ATOM     72  C   UNL A   1      49.000  26.474  28.784  1.00  0.00     0.009 A 
ATOM     73  C   UNL A   1      49.805  25.327  31.198  1.00  0.00     0.001 A 
ATOM     74  C   UNL A   1      50.312  26.023  28.941  1.00  0.00     0.001 A 
ATOM     75  C   UNL A   1      50.714  25.454  30.149  1.00  0.00     0.000 A 
ENDBRANCH  51  70
BRANCH  63  76
ATOM     76  C   UNL A   1      44.777  32.314  31.277  1.00  0.00    -0.014 A 
ATOM     77  C   UNL A   1      45.124  33.381  30.435  1.00  0.00     0.009 A 
ATOM     78  C   UNL A   1      44.735  32.519  32.664  1.00  0.00     0.009 A 
ATOM     79  C   UNL A   1      45.426  34.631  30.976  1.00  0.00     0.001 A 
ATOM     80  C   UNL A   1      45.019  33.775  33.201  1.00  0.00     0.001 A 
ATOM     81  C   UNL A   1      45.365  34.829  32.356  1.00  0.00     0.000 A 
ENDBRANCH  63  76
ENDBRANCH  37  38
ENDBRANCH  29  32
ENDBRANCH  27  28
ENDBRANCH  26  27
ENDBRANCH  25  26
ENDBRANCH   1  25
TORSDOF 17
ENDMDL
