MODEL 1
REMARK VINA RESULT:     -10.0      0.000      0.000
REMARK SMILES CCCCCCNC(=O)Oc1cccc(-c2ccc([C@@H](C)C(=O)NCCCCCCNC(=O)c3ccc(-c4c5nc(c(-c6ccccc6)c6ccc([nH]6)c(-c6ccccc6)c6nc(c(-c7ccccc7)c7ccc4[nH]7)C=C6)C=C5)cc3)cc2F)c1
REMARK SMILES IDX 22 1 23 2 24 3 20 5 21 6 19 7 16 8 17 9 83 10 18 11 82 12
REMARK SMILES IDX 84 13 15 14 11 15 12 16 85 17 13 18 14 19 10 20 8 21 7 22
REMARK SMILES IDX 9 24 6 25 5 26 4 27 3 28 2 29 1 30 25 31 26 32 27 33 28 34
REMARK SMILES IDX 29 35 30 36 31 37 32 38 33 40 34 41 35 42 81 43 36 44 80 45
REMARK SMILES IDX 37 46 38 47 39 48 74 49 40 50 79 51 73 52 75 53 41 54 78 55
REMARK SMILES IDX 72 56 71 57 42 59 64 60 49 61 63 62 50 63 53 64 62 65 76 66
REMARK SMILES IDX 51 67 52 68 61 70 77 71 54 72 43 73 44 74 48 75 45 76 47 77
REMARK SMILES IDX 46 78 65 79 66 80 70 81 67 82 69 83 68 84 55 85 56 86 60 87
REMARK SMILES IDX 57 88 59 89 58 90
REMARK H PARENT 24 4 7 23 31 39 75 58 53 69
REMARK Flexibility Score: inf
ROOT
ATOM      1  C   UNL A   1      35.615  31.302  29.023  1.00  0.00     0.227 C 
ATOM      2  O   UNL A   1      35.327  31.664  30.170  1.00  0.00    -0.274 OA
ATOM      3  N   UNL A   1      36.750  30.565  28.886  1.00  0.00    -0.356 N 
ATOM      4  H   UNL A   1      37.185  30.334  29.738  1.00  0.00     0.163 HD
ENDROOT
BRANCH   1   5
ATOM      5  C   UNL A   1      34.699  31.682  27.849  1.00  0.00     0.105 C 
ATOM      6  C   UNL A   1      33.954  33.002  28.038  1.00  0.00     0.023 C 
BRANCH   5   7
ATOM      7  C   UNL A   1      33.876  30.516  27.322  1.00  0.00    -0.033 A 
ATOM      8  C   UNL A   1      32.369  28.395  26.125  1.00  0.00     0.018 A 
ATOM      9  C   UNL A   1      33.468  28.139  26.961  1.00  0.00     0.012 A 
ATOM     10  C   UNL A   1      32.018  29.741  25.951  1.00  0.00     0.131 A 
ATOM     11  C   UNL A   1      34.188  29.177  27.570  1.00  0.00     0.005 A 
ATOM     12  C   UNL A   1      32.761  30.781  26.515  1.00  0.00     0.044 A 
ATOM     13  F   UNL A   1      30.941  30.078  25.223  1.00  0.00    -0.206 F 
BRANCH   8  14
ATOM     14  C   UNL A   1      31.653  27.290  25.448  1.00  0.00    -0.012 A 
ATOM     15  C   UNL A   1      31.343  25.825  23.527  1.00  0.00     0.133 A 
ATOM     16  C   UNL A   1      30.315  25.144  24.167  1.00  0.00     0.047 A 
ATOM     17  C   UNL A   1      32.003  26.888  24.149  1.00  0.00     0.056 A 
ATOM     18  C   UNL A   1      29.953  25.521  25.455  1.00  0.00     0.004 A 
ATOM     19  C   UNL A   1      30.611  26.585  26.084  1.00  0.00     0.009 A 
BRANCH  15  20
ATOM     20  O   UNL A   1      31.596  25.493  22.187  1.00  0.00    -0.410 OA
BRANCH  20  21
ATOM     21  C   UNL A   1      32.917  25.352  21.786  1.00  0.00     0.412 C 
ATOM     22  N   UNL A   1      33.363  24.061  21.867  1.00  0.00    -0.321 N 
ATOM     23  H   UNL A   1      34.300  23.900  21.614  1.00  0.00     0.167 HD
ATOM     24  O   UNL A   1      33.656  26.251  21.403  1.00  0.00    -0.224 OA
BRANCH  22  25
ATOM     25  C   UNL A   1      32.596  22.906  22.287  1.00  0.00     0.119 C 
BRANCH  25  26
ATOM     26  C   UNL A   1      33.231  22.202  23.487  1.00  0.00     0.021 C 
BRANCH  26  27
ATOM     27  C   UNL A   1      32.497  22.408  24.818  1.00  0.00     0.002 C 
BRANCH  27  28
ATOM     28  C   UNL A   1      33.118  23.443  25.763  1.00  0.00    -0.000 C 
BRANCH  28  29
ATOM     29  C   UNL A   1      32.709  23.321  27.233  1.00  0.00    -0.003 C 
ATOM     30  C   UNL A   1      33.447  22.215  27.972  1.00  0.00     0.004 C 
ENDBRANCH  28  29
ENDBRANCH  27  28
ENDBRANCH  26  27
ENDBRANCH  25  26
ENDBRANCH  22  25
ENDBRANCH  20  21
ENDBRANCH  15  20
ENDBRANCH   8  14
ENDBRANCH   5   7
ENDBRANCH   1   5
BRANCH   3  31
ATOM     31  C   UNL A   1      37.432  30.059  27.714  1.00  0.00     0.116 C 
BRANCH  31  32
ATOM     32  C   UNL A   1      38.822  29.519  28.057  1.00  0.00     0.021 C 
BRANCH  32  33
ATOM     33  C   UNL A   1      38.826  28.049  28.491  1.00  0.00     0.002 C 
BRANCH  33  34
ATOM     34  C   UNL A   1      39.893  27.174  27.823  1.00  0.00     0.002 C 
BRANCH  34  35
ATOM     35  C   UNL A   1      39.565  25.679  27.742  1.00  0.00     0.021 C 
BRANCH  35  36
ATOM     36  C   UNL A   1      39.925  25.019  26.414  1.00  0.00     0.116 C 
BRANCH  36  37
ATOM     37  N   UNL A   1      40.683  23.792  26.605  1.00  0.00    -0.352 N 
ATOM     38  C   UNL A   1      42.035  23.576  26.529  1.00  0.00     0.251 C 
ATOM     39  H   UNL A   1      40.144  22.997  26.822  1.00  0.00     0.163 HD
ATOM     40  O   UNL A   1      42.476  22.432  26.496  1.00  0.00    -0.269 OA
BRANCH  38  41
ATOM     41  C   UNL A   1      42.967  24.721  26.477  1.00  0.00     0.039 A 
ATOM     42  C   UNL A   1      43.425  25.276  27.676  1.00  0.00     0.014 A 
ATOM     43  C   UNL A   1      43.362  25.269  25.254  1.00  0.00     0.014 A 
ATOM     44  C   UNL A   1      44.321  26.347  27.646  1.00  0.00     0.010 A 
ATOM     45  C   UNL A   1      44.305  26.292  25.224  1.00  0.00     0.010 A 
ATOM     46  C   UNL A   1      44.788  26.846  26.420  1.00  0.00    -0.014 A 
BRANCH  46  47
ATOM     47  C   UNL A   1      45.775  27.952  26.366  1.00  0.00     0.031 A 
ATOM     48  C   UNL A   1      47.240  27.652  26.200  1.00  0.00     0.074 A 
ATOM     49  C   UNL A   1      45.362  29.223  26.527  1.00  0.00     0.049 A 
ATOM     50  N   UNL A   1      48.254  28.479  26.179  1.00  0.00    -0.248 NA
ATOM     51  C   UNL A   1      47.612  26.236  26.067  1.00  0.00     0.031 C 
ATOM     52  C   UNL A   1      43.974  29.644  26.725  1.00  0.00     0.029 A 
ATOM     53  N   UNL A   1      46.074  30.395  26.551  1.00  0.00    -0.354 N 
ATOM     54  C   UNL A   1      49.385  27.684  26.047  1.00  0.00     0.074 A 
ATOM     55  C   UNL A   1      48.935  26.308  26.046  1.00  0.00     0.031 C 
ATOM     56  C   UNL A   1      43.931  30.982  26.814  1.00  0.00     0.029 A 
ATOM     57  C   UNL A   1      45.289  31.510  26.721  1.00  0.00     0.049 A 
ATOM     58  H   UNL A   1      47.052  30.434  26.456  1.00  0.00     0.167 HD
ATOM     59  C   UNL A   1      50.679  28.061  25.921  1.00  0.00     0.031 A 
ATOM     60  C   UNL A   1      45.625  32.810  26.792  1.00  0.00     0.031 A 
ATOM     61  C   UNL A   1      51.128  29.429  25.919  1.00  0.00     0.049 A 
ATOM     62  C   UNL A   1      47.069  33.206  26.675  1.00  0.00     0.074 A 
ATOM     63  C   UNL A   1      52.410  29.917  25.742  1.00  0.00     0.029 A 
ATOM     64  N   UNL A   1      50.303  30.527  26.109  1.00  0.00    -0.354 N 
ATOM     65  N   UNL A   1      48.121  32.445  26.493  1.00  0.00    -0.248 NA
ATOM     66  C   UNL A   1      47.369  34.641  26.770  1.00  0.00     0.031 C 
ATOM     67  C   UNL A   1      52.369  31.310  25.875  1.00  0.00     0.029 A 
ATOM     68  C   UNL A   1      51.053  31.691  26.081  1.00  0.00     0.049 A 
ATOM     69  H   UNL A   1      49.328  30.485  26.244  1.00  0.00     0.167 HD
ATOM     70  C   UNL A   1      49.206  33.310  26.422  1.00  0.00     0.074 A 
ATOM     71  C   UNL A   1      48.680  34.654  26.572  1.00  0.00     0.031 C 
ATOM     72  C   UNL A   1      50.517  33.018  26.243  1.00  0.00     0.031 A 
BRANCH  59  73
ATOM     73  C   UNL A   1      51.701  26.965  25.792  1.00  0.00    -0.014 A 
ATOM     74  C   UNL A   1      52.296  26.386  26.925  1.00  0.00     0.009 A 
ATOM     75  C   UNL A   1      52.077  26.504  24.520  1.00  0.00     0.009 A 
ATOM     76  C   UNL A   1      53.283  25.408  26.785  1.00  0.00     0.001 A 
ATOM     77  C   UNL A   1      53.041  25.504  24.384  1.00  0.00     0.001 A 
ATOM     78  C   UNL A   1      53.653  24.966  25.515  1.00  0.00     0.000 A 
ENDBRANCH  59  73
BRANCH  60  79
ATOM     79  C   UNL A   1      44.564  33.838  26.943  1.00  0.00    -0.014 A 
ATOM     80  C   UNL A   1      43.920  34.357  25.809  1.00  0.00     0.009 A 
ATOM     81  C   UNL A   1      44.173  34.288  28.213  1.00  0.00     0.009 A 
ATOM     82  C   UNL A   1      42.915  35.318  25.944  1.00  0.00     0.001 A 
ATOM     83  C   UNL A   1      43.152  35.231  28.346  1.00  0.00     0.001 A 
ATOM     84  C   UNL A   1      42.528  35.749  27.212  1.00  0.00     0.000 A 
ENDBRANCH  60  79
BRANCH  72  85
ATOM     85  C   UNL A   1      51.472  34.177  26.172  1.00  0.00    -0.014 A 
ATOM     86  C   UNL A   1      52.170  34.616  27.306  1.00  0.00     0.009 A 
ATOM     87  C   UNL A   1      51.700  34.814  24.942  1.00  0.00     0.009 A 
ATOM     88  C   UNL A   1      53.056  35.692  27.217  1.00  0.00     0.001 A 
ATOM     89  C   UNL A   1      52.605  35.871  24.849  1.00  0.00     0.001 A 
ATOM     90  C   UNL A   1      53.276  36.314  25.988  1.00  0.00     0.000 A 
ENDBRANCH  72  85
ENDBRANCH  46  47
ENDBRANCH  38  41
ENDBRANCH  36  37
ENDBRANCH  35  36
ENDBRANCH  34  35
ENDBRANCH  33  34
ENDBRANCH  32  33
ENDBRANCH  31  32
ENDBRANCH   3  31
TORSDOF 22
ENDMDL
MODEL 2
REMARK VINA RESULT:      -9.9      4.702      9.292
REMARK SMILES CCCCCCNC(=O)Oc1cccc(-c2ccc([C@@H](C)C(=O)NCCCCCCNC(=O)c3ccc(-c4c5nc(c(-c6ccccc6)c6ccc([nH]6)c(-c6ccccc6)c6nc(c(-c7ccccc7)c7ccc4[nH]7)C=C6)C=C5)cc3)cc2F)c1
REMARK SMILES IDX 22 1 23 2 24 3 20 5 21 6 19 7 16 8 17 9 83 10 18 11 82 12
REMARK SMILES IDX 84 13 15 14 11 15 12 16 85 17 13 18 14 19 10 20 8 21 7 22
REMARK SMILES IDX 9 24 6 25 5 26 4 27 3 28 2 29 1 30 25 31 26 32 27 33 28 34
REMARK SMILES IDX 29 35 30 36 31 37 32 38 33 40 34 41 35 42 81 43 36 44 80 45
REMARK SMILES IDX 37 46 38 47 39 48 74 49 40 50 79 51 73 52 75 53 41 54 78 55
REMARK SMILES IDX 72 56 71 57 42 59 64 60 49 61 63 62 50 63 53 64 62 65 76 66
REMARK SMILES IDX 51 67 52 68 61 70 77 71 54 72 43 73 44 74 48 75 45 76 47 77
REMARK SMILES IDX 46 78 65 79 66 80 70 81 67 82 69 83 68 84 55 85 56 86 60 87
REMARK SMILES IDX 57 88 59 89 58 90
REMARK H PARENT 24 4 7 23 31 39 75 58 53 69
REMARK Flexibility Score: inf
ROOT
ATOM      1  C   UNL A   1      40.643  24.023  27.174  1.00  0.00     0.227 C 
ATOM      2  O   UNL A   1      39.497  24.039  27.639  1.00  0.00    -0.274 OA
ATOM      3  N   UNL A   1      40.884  23.120  26.186  1.00  0.00    -0.356 N 
ATOM      4  H   UNL A   1      40.089  22.620  25.893  1.00  0.00     0.163 HD
ENDROOT
BRANCH   1   5
ATOM      5  C   UNL A   1      41.700  25.001  27.711  1.00  0.00     0.105 C 
ATOM      6  C   UNL A   1      42.673  24.382  28.714  1.00  0.00     0.023 C 
BRANCH   5   7
ATOM      7  C   UNL A   1      41.131  26.363  28.081  1.00  0.00    -0.033 A 
ATOM      8  C   UNL A   1      39.879  28.873  28.658  1.00  0.00     0.018 A 
ATOM      9  C   UNL A   1      40.261  27.987  29.678  1.00  0.00     0.012 A 
ATOM     10  C   UNL A   1      40.191  28.487  27.346  1.00  0.00     0.131 A 
ATOM     11  C   UNL A   1      40.900  26.770  29.397  1.00  0.00     0.005 A 
ATOM     12  C   UNL A   1      40.783  27.255  27.057  1.00  0.00     0.044 A 
ATOM     13  F   UNL A   1      39.925  29.300  26.313  1.00  0.00    -0.206 F 
BRANCH   8  14
ATOM     14  C   UNL A   1      39.158  30.128  28.969  1.00  0.00    -0.012 A 
ATOM     15  C   UNL A   1      37.213  31.574  28.726  1.00  0.00     0.133 A 
ATOM     16  C   UNL A   1      37.754  32.509  29.600  1.00  0.00     0.047 A 
ATOM     17  C   UNL A   1      37.901  30.401  28.405  1.00  0.00     0.056 A 
ATOM     18  C   UNL A   1      38.995  32.260  30.174  1.00  0.00     0.004 A 
ATOM     19  C   UNL A   1      39.690  31.086  29.857  1.00  0.00     0.009 A 
BRANCH  15  20
ATOM     20  O   UNL A   1      36.017  31.917  28.078  1.00  0.00    -0.410 OA
BRANCH  20  21
ATOM     21  C   UNL A   1      34.821  31.684  28.742  1.00  0.00     0.412 C 
ATOM     22  N   UNL A   1      34.027  30.770  28.105  1.00  0.00    -0.321 N 
ATOM     23  H   UNL A   1      33.156  30.578  28.518  1.00  0.00     0.167 HD
ATOM     24  O   UNL A   1      34.458  32.216  29.784  1.00  0.00    -0.224 OA
BRANCH  22  25
ATOM     25  C   UNL A   1      34.338  30.059  26.881  1.00  0.00     0.119 C 
BRANCH  25  26
ATOM     26  C   UNL A   1      34.029  28.566  26.992  1.00  0.00     0.021 C 
BRANCH  26  27
ATOM     27  C   UNL A   1      33.004  28.043  25.978  1.00  0.00     0.002 C 
BRANCH  27  28
ATOM     28  C   UNL A   1      31.612  27.736  26.541  1.00  0.00    -0.000 C 
BRANCH  28  29
ATOM     29  C   UNL A   1      31.138  26.290  26.374  1.00  0.00    -0.003 C 
ATOM     30  C   UNL A   1      30.280  26.079  25.137  1.00  0.00     0.004 C 
ENDBRANCH  28  29
ENDBRANCH  27  28
ENDBRANCH  26  27
ENDBRANCH  25  26
ENDBRANCH  22  25
ENDBRANCH  20  21
ENDBRANCH  15  20
ENDBRANCH   8  14
ENDBRANCH   5   7
ENDBRANCH   1   5
BRANCH   3  31
ATOM     31  C   UNL A   1      42.100  22.762  25.488  1.00  0.00     0.116 C 
BRANCH  31  32
ATOM     32  C   UNL A   1      42.870  21.660  26.219  1.00  0.00     0.021 C 
BRANCH  32  33
ATOM     33  C   UNL A   1      44.347  21.991  26.460  1.00  0.00     0.002 C 
BRANCH  33  34
ATOM     34  C   UNL A   1      44.780  23.399  26.030  1.00  0.00     0.002 C 
BRANCH  34  35
ATOM     35  C   UNL A   1      45.880  23.454  24.965  1.00  0.00     0.021 C 
BRANCH  35  36
ATOM     36  C   UNL A   1      47.139  24.207  25.387  1.00  0.00     0.116 C 
BRANCH  36  37
ATOM     37  N   UNL A   1      47.443  25.305  24.484  1.00  0.00    -0.352 N 
ATOM     38  C   UNL A   1      47.062  26.622  24.542  1.00  0.00     0.251 C 
ATOM     39  H   UNL A   1      48.008  25.068  23.713  1.00  0.00     0.163 HD
ATOM     40  O   UNL A   1      47.224  27.355  23.572  1.00  0.00    -0.269 OA
BRANCH  38  41
ATOM     41  C   UNL A   1      46.445  27.161  25.772  1.00  0.00     0.039 A 
ATOM     42  C   UNL A   1      47.269  27.712  26.757  1.00  0.00     0.014 A 
ATOM     43  C   UNL A   1      45.063  27.092  25.970  1.00  0.00     0.014 A 
ATOM     44  C   UNL A   1      46.702  28.243  27.918  1.00  0.00     0.010 A 
ATOM     45  C   UNL A   1      44.494  27.680  27.096  1.00  0.00     0.010 A 
ATOM     46  C   UNL A   1      45.308  28.254  28.084  1.00  0.00    -0.014 A 
BRANCH  46  47
ATOM     47  C   UNL A   1      44.682  28.855  29.287  1.00  0.00     0.031 A 
ATOM     48  C   UNL A   1      44.495  28.034  30.534  1.00  0.00     0.074 A 
ATOM     49  C   UNL A   1      44.226  30.120  29.240  1.00  0.00     0.049 A 
ATOM     50  N   UNL A   1      43.928  28.369  31.665  1.00  0.00    -0.248 NA
ATOM     51  C   UNL A   1      44.989  26.650  30.492  1.00  0.00     0.031 C 
ATOM     52  C   UNL A   1      44.319  31.012  28.082  1.00  0.00     0.029 A 
ATOM     53  N   UNL A   1      43.589  30.875  30.193  1.00  0.00    -0.354 N 
ATOM     54  C   UNL A   1      43.981  27.233  32.463  1.00  0.00     0.074 A 
ATOM     55  C   UNL A   1      44.588  26.187  31.667  1.00  0.00     0.031 C 
ATOM     56  C   UNL A   1      43.793  32.203  28.404  1.00  0.00     0.029 A 
ATOM     57  C   UNL A   1      43.290  32.148  29.773  1.00  0.00     0.049 A 
ATOM     58  H   UNL A   1      43.369  30.536  31.090  1.00  0.00     0.167 HD
ATOM     59  C   UNL A   1      43.578  27.076  33.746  1.00  0.00     0.031 A 
ATOM     60  C   UNL A   1      42.680  33.158  30.420  1.00  0.00     0.031 A 
ATOM     61  C   UNL A   1      42.976  28.115  34.539  1.00  0.00     0.049 A 
ATOM     62  C   UNL A   1      42.217  32.955  31.834  1.00  0.00     0.074 A 
ATOM     63  C   UNL A   1      42.584  28.073  35.865  1.00  0.00     0.029 A 
ATOM     64  N   UNL A   1      42.676  29.386  34.072  1.00  0.00    -0.354 N 
ATOM     65  N   UNL A   1      42.327  31.892  32.594  1.00  0.00    -0.248 NA
ATOM     66  C   UNL A   1      41.551  34.094  32.480  1.00  0.00     0.031 C 
ATOM     67  C   UNL A   1      41.999  29.304  36.186  1.00  0.00     0.029 A 
ATOM     68  C   UNL A   1      42.078  30.129  35.076  1.00  0.00     0.049 A 
ATOM     69  H   UNL A   1      42.861  29.713  33.161  1.00  0.00     0.167 HD
ATOM     70  C   UNL A   1      41.769  32.243  33.817  1.00  0.00     0.074 A 
ATOM     71  C   UNL A   1      41.331  33.620  33.698  1.00  0.00     0.031 C 
ATOM     72  C   UNL A   1      41.638  31.494  34.939  1.00  0.00     0.031 A 
BRANCH  59  73
ATOM     73  C   UNL A   1      43.764  25.715  34.359  1.00  0.00    -0.014 A 
ATOM     74  C   UNL A   1      44.970  25.355  34.982  1.00  0.00     0.009 A 
ATOM     75  C   UNL A   1      42.720  24.777  34.312  1.00  0.00     0.009 A 
ATOM     76  C   UNL A   1      45.145  24.068  35.497  1.00  0.00     0.001 A 
ATOM     77  C   UNL A   1      42.887  23.502  34.855  1.00  0.00     0.001 A 
ATOM     78  C   UNL A   1      44.102  23.144  35.435  1.00  0.00     0.000 A 
ENDBRANCH  59  73
BRANCH  60  79
ATOM     79  C   UNL A   1      42.509  34.469  29.744  1.00  0.00    -0.014 A 
ATOM     80  C   UNL A   1      41.340  34.739  29.016  1.00  0.00     0.009 A 
ATOM     81  C   UNL A   1      43.496  35.462  29.839  1.00  0.00     0.009 A 
ATOM     82  C   UNL A   1      41.169  35.973  28.384  1.00  0.00     0.001 A 
ATOM     83  C   UNL A   1      43.311  36.703  29.226  1.00  0.00     0.001 A 
ATOM     84  C   UNL A   1      42.152  36.955  28.495  1.00  0.00     0.000 A 
ENDBRANCH  60  79
BRANCH  72  85
ATOM     85  C   UNL A   1      41.018  32.158  36.136  1.00  0.00    -0.014 A 
ATOM     86  C   UNL A   1      41.802  32.843  37.076  1.00  0.00     0.009 A 
ATOM     87  C   UNL A   1      39.625  32.126  36.304  1.00  0.00     0.009 A 
ATOM     88  C   UNL A   1      41.204  33.458  38.179  1.00  0.00     0.001 A 
ATOM     89  C   UNL A   1      39.028  32.763  37.392  1.00  0.00     0.001 A 
ATOM     90  C   UNL A   1      39.818  33.421  38.333  1.00  0.00     0.000 A 
ENDBRANCH  72  85
ENDBRANCH  46  47
ENDBRANCH  38  41
ENDBRANCH  36  37
ENDBRANCH  35  36
ENDBRANCH  34  35
ENDBRANCH  33  34
ENDBRANCH  32  33
ENDBRANCH  31  32
ENDBRANCH   3  31
TORSDOF 22
ENDMDL
MODEL 3
REMARK VINA RESULT:      -9.9      5.318     12.243
REMARK SMILES CCCCCCNC(=O)Oc1cccc(-c2ccc([C@@H](C)C(=O)NCCCCCCNC(=O)c3ccc(-c4c5nc(c(-c6ccccc6)c6ccc([nH]6)c(-c6ccccc6)c6nc(c(-c7ccccc7)c7ccc4[nH]7)C=C6)C=C5)cc3)cc2F)c1
REMARK SMILES IDX 22 1 23 2 24 3 20 5 21 6 19 7 16 8 17 9 83 10 18 11 82 12
REMARK SMILES IDX 84 13 15 14 11 15 12 16 85 17 13 18 14 19 10 20 8 21 7 22
REMARK SMILES IDX 9 24 6 25 5 26 4 27 3 28 2 29 1 30 25 31 26 32 27 33 28 34
REMARK SMILES IDX 29 35 30 36 31 37 32 38 33 40 34 41 35 42 81 43 36 44 80 45
REMARK SMILES IDX 37 46 38 47 39 48 74 49 40 50 79 51 73 52 75 53 41 54 78 55
REMARK SMILES IDX 72 56 71 57 42 59 64 60 49 61 63 62 50 63 53 64 62 65 76 66
REMARK SMILES IDX 51 67 52 68 61 70 77 71 54 72 43 73 44 74 48 75 45 76 47 77
REMARK SMILES IDX 46 78 65 79 66 80 70 81 67 82 69 83 68 84 55 85 56 86 60 87
REMARK SMILES IDX 57 88 59 89 58 90
REMARK H PARENT 24 4 7 23 31 39 75 58 53 69
REMARK Flexibility Score: inf
ROOT
ATOM      1  C   UNL A   1      47.778  27.287  27.666  1.00  0.00     0.227 C 
ATOM      2  O   UNL A   1      48.795  26.726  27.243  1.00  0.00    -0.274 OA
ATOM      3  N   UNL A   1      47.795  27.670  28.971  1.00  0.00    -0.356 N 
ATOM      4  H   UNL A   1      48.656  27.522  29.423  1.00  0.00     0.163 HD
ENDROOT
BRANCH   1   5
ATOM      5  C   UNL A   1      46.588  27.527  26.723  1.00  0.00     0.105 C 
ATOM      6  C   UNL A   1      45.903  28.880  26.912  1.00  0.00     0.023 C 
BRANCH   5   7
ATOM      7  C   UNL A   1      45.669  26.322  26.592  1.00  0.00    -0.033 A 
ATOM      8  C   UNL A   1      44.120  23.930  26.303  1.00  0.00     0.018 A 
ATOM      9  C   UNL A   1      44.108  24.678  27.492  1.00  0.00     0.012 A 
ATOM     10  C   UNL A   1      44.888  24.446  25.248  1.00  0.00     0.131 A 
ATOM     11  C   UNL A   1      44.844  25.864  27.623  1.00  0.00     0.005 A 
ATOM     12  C   UNL A   1      45.662  25.600  25.390  1.00  0.00     0.044 A 
ATOM     13  F   UNL A   1      44.906  23.835  24.054  1.00  0.00    -0.206 F 
BRANCH   8  14
ATOM     14  C   UNL A   1      43.379  22.653  26.198  1.00  0.00    -0.012 A 
ATOM     15  C   UNL A   1      41.294  21.397  26.266  1.00  0.00     0.133 A 
ATOM     16  C   UNL A   1      41.953  20.215  25.952  1.00  0.00     0.047 A 
ATOM     17  C   UNL A   1      41.990  22.601  26.396  1.00  0.00     0.056 A 
ATOM     18  C   UNL A   1      43.328  20.241  25.747  1.00  0.00     0.004 A 
ATOM     19  C   UNL A   1      44.032  21.445  25.876  1.00  0.00     0.009 A 
BRANCH  15  20
ATOM     20  O   UNL A   1      39.929  21.307  26.580  1.00  0.00    -0.410 OA
BRANCH  20  21
ATOM     21  C   UNL A   1      39.218  22.485  26.755  1.00  0.00     0.412 C 
ATOM     22  N   UNL A   1      38.100  22.553  25.969  1.00  0.00    -0.321 N 
ATOM     23  H   UNL A   1      37.564  23.376  26.033  1.00  0.00     0.167 HD
ATOM     24  O   UNL A   1      39.515  23.404  27.507  1.00  0.00    -0.224 OA
BRANCH  22  25
ATOM     25  C   UNL A   1      37.625  21.538  25.050  1.00  0.00     0.119 C 
BRANCH  25  26
ATOM     26  C   UNL A   1      36.624  22.102  24.041  1.00  0.00     0.021 C 
BRANCH  26  27
ATOM     27  C   UNL A   1      35.861  23.344  24.515  1.00  0.00     0.002 C 
BRANCH  27  28
ATOM     28  C   UNL A   1      34.818  23.895  23.536  1.00  0.00    -0.000 C 
BRANCH  28  29
ATOM     29  C   UNL A   1      33.813  24.884  24.133  1.00  0.00    -0.003 C 
ATOM     30  C   UNL A   1      34.273  25.485  25.452  1.00  0.00     0.004 C 
ENDBRANCH  28  29
ENDBRANCH  27  28
ENDBRANCH  26  27
ENDBRANCH  25  26
ENDBRANCH  22  25
ENDBRANCH  20  21
ENDBRANCH  15  20
ENDBRANCH   8  14
ENDBRANCH   5   7
ENDBRANCH   1   5
BRANCH   3  31
ATOM     31  C   UNL A   1      46.774  28.255  29.814  1.00  0.00     0.116 C 
BRANCH  31  32
ATOM     32  C   UNL A   1      46.688  27.553  31.170  1.00  0.00     0.021 C 
BRANCH  32  33
ATOM     33  C   UNL A   1      46.457  26.041  31.072  1.00  0.00     0.002 C 
BRANCH  33  34
ATOM     34  C   UNL A   1      46.129  25.343  32.398  1.00  0.00     0.002 C 
BRANCH  34  35
ATOM     35  C   UNL A   1      47.322  25.105  33.330  1.00  0.00     0.021 C 
BRANCH  35  36
ATOM     36  C   UNL A   1      47.006  24.269  34.568  1.00  0.00     0.116 C 
BRANCH  36  37
ATOM     37  N   UNL A   1      47.325  24.978  35.797  1.00  0.00    -0.352 N 
ATOM     38  C   UNL A   1      46.890  26.200  36.244  1.00  0.00     0.251 C 
ATOM     39  H   UNL A   1      47.949  24.511  36.400  1.00  0.00     0.163 HD
ATOM     40  O   UNL A   1      47.441  26.741  37.197  1.00  0.00    -0.269 OA
BRANCH  38  41
ATOM     41  C   UNL A   1      45.761  26.876  35.571  1.00  0.00     0.039 A 
ATOM     42  C   UNL A   1      45.989  28.092  34.921  1.00  0.00     0.014 A 
ATOM     43  C   UNL A   1      44.474  26.331  35.610  1.00  0.00     0.014 A 
ATOM     44  C   UNL A   1      44.937  28.736  34.265  1.00  0.00     0.010 A 
ATOM     45  C   UNL A   1      43.442  26.938  34.901  1.00  0.00     0.010 A 
ATOM     46  C   UNL A   1      43.662  28.150  34.228  1.00  0.00    -0.014 A 
BRANCH  46  47
ATOM     47  C   UNL A   1      42.543  28.793  33.497  1.00  0.00     0.031 A 
ATOM     48  C   UNL A   1      41.597  29.714  34.218  1.00  0.00     0.074 A 
ATOM     49  C   UNL A   1      42.338  28.500  32.200  1.00  0.00     0.049 A 
ATOM     50  N   UNL A   1      40.535  30.329  33.762  1.00  0.00    -0.248 NA
ATOM     51  C   UNL A   1      41.868  29.954  35.643  1.00  0.00     0.031 C 
ATOM     52  C   UNL A   1      43.166  27.600  31.393  1.00  0.00     0.029 A 
ATOM     53  N   UNL A   1      41.368  28.930  31.330  1.00  0.00    -0.354 N 
ATOM     54  C   UNL A   1      40.002  31.014  34.846  1.00  0.00     0.074 A 
ATOM     55  C   UNL A   1      40.828  30.696  35.993  1.00  0.00     0.031 C 
ATOM     56  C   UNL A   1      42.689  27.572  30.140  1.00  0.00     0.029 A 
ATOM     57  C   UNL A   1      41.503  28.419  30.062  1.00  0.00     0.049 A 
ATOM     58  H   UNL A   1      40.646  29.545  31.590  1.00  0.00     0.167 HD
ATOM     59  C   UNL A   1      38.935  31.845  34.885  1.00  0.00     0.031 A 
ATOM     60  C   UNL A   1      40.755  28.613  28.961  1.00  0.00     0.031 A 
ATOM     61  C   UNL A   1      38.115  32.164  33.746  1.00  0.00     0.049 A 
ATOM     62  C   UNL A   1      39.559  29.518  29.031  1.00  0.00     0.074 A 
ATOM     63  C   UNL A   1      37.045  33.038  33.668  1.00  0.00     0.029 A 
ATOM     64  N   UNL A   1      38.274  31.613  32.483  1.00  0.00    -0.354 N 
ATOM     65  N   UNL A   1      39.102  30.205  30.051  1.00  0.00    -0.248 NA
ATOM     66  C   UNL A   1      38.780  29.679  27.796  1.00  0.00     0.031 C 
ATOM     67  C   UNL A   1      36.525  32.977  32.370  1.00  0.00     0.029 A 
ATOM     68  C   UNL A   1      37.305  32.108  31.626  1.00  0.00     0.049 A 
ATOM     69  H   UNL A   1      38.974  30.967  32.233  1.00  0.00     0.167 HD
ATOM     70  C   UNL A   1      37.999  30.901  29.573  1.00  0.00     0.074 A 
ATOM     71  C   UNL A   1      37.863  30.560  28.171  1.00  0.00     0.031 C 
ATOM     72  C   UNL A   1      37.177  31.751  30.236  1.00  0.00     0.031 A 
BRANCH  59  73
ATOM     73  C   UNL A   1      38.589  32.452  36.217  1.00  0.00    -0.014 A 
ATOM     74  C   UNL A   1      39.037  33.735  36.572  1.00  0.00     0.009 A 
ATOM     75  C   UNL A   1      37.805  31.732  37.132  1.00  0.00     0.009 A 
ATOM     76  C   UNL A   1      38.753  34.261  37.835  1.00  0.00     0.001 A 
ATOM     77  C   UNL A   1      37.496  32.272  38.381  1.00  0.00     0.001 A 
ATOM     78  C   UNL A   1      37.981  33.529  38.737  1.00  0.00     0.000 A 
ENDBRANCH  59  73
BRANCH  60  79
ATOM     79  C   UNL A   1      41.143  27.962  27.683  1.00  0.00    -0.014 A 
ATOM     80  C   UNL A   1      42.055  28.591  26.822  1.00  0.00     0.009 A 
ATOM     81  C   UNL A   1      40.627  26.706  27.329  1.00  0.00     0.009 A 
ATOM     82  C   UNL A   1      42.431  27.981  25.623  1.00  0.00     0.001 A 
ATOM     83  C   UNL A   1      41.023  26.089  26.141  1.00  0.00     0.001 A 
ATOM     84  C   UNL A   1      41.920  26.728  25.287  1.00  0.00     0.000 A 
ENDBRANCH  60  79
BRANCH  72  85
ATOM     85  C   UNL A   1      36.073  32.392  29.444  1.00  0.00    -0.014 A 
ATOM     86  C   UNL A   1      36.108  33.755  29.117  1.00  0.00     0.009 A 
ATOM     87  C   UNL A   1      35.001  31.609  28.988  1.00  0.00     0.009 A 
ATOM     88  C   UNL A   1      35.073  34.330  28.375  1.00  0.00     0.001 A 
ATOM     89  C   UNL A   1      33.982  32.179  28.224  1.00  0.00     0.001 A 
ATOM     90  C   UNL A   1      34.015  33.540  27.925  1.00  0.00     0.000 A 
ENDBRANCH  72  85
ENDBRANCH  46  47
ENDBRANCH  38  41
ENDBRANCH  36  37
ENDBRANCH  35  36
ENDBRANCH  34  35
ENDBRANCH  33  34
ENDBRANCH  32  33
ENDBRANCH  31  32
ENDBRANCH   3  31
TORSDOF 22
ENDMDL
