MODEL 1
REMARK VINA RESULT:     -13.1      0.000      0.000
REMARK SMILES O=C(Cn1nc(C(=O)NCCCCCCNC(=O)c2ccc(-c3c4nc(c(-c5ccccc5)c5ccc([nH]5)c(-c5ccccc5)c5nc(c(-c6ccccc6)c6ccc3[nH]6)C=C5)C=C4)cc2)c2ccccc2c1=O)Nc1ccc2c(c1)C(=O)c1ccccc1C2=O
REMARK SMILES IDX 12 1 11 2 10 3 9 4 7 5 8 6 6 8 4 9 5 10 73 11 72 12 74 13
REMARK SMILES IDX 67 14 71 15 68 16 70 17 69 18 3 19 2 20 1 21 75 22 76 24
REMARK SMILES IDX 77 25 81 26 78 27 80 28 79 29 82 30 90 31 83 32 84 33 89 34
REMARK SMILES IDX 91 35 85 36 88 37 86 38 87 39 13 40 14 41 15 42 16 43 17 44
REMARK SMILES IDX 18 46 19 47 20 48 66 49 21 50 65 51 22 52 23 53 24 54 59 55
REMARK SMILES IDX 25 56 64 57 58 58 60 59 26 60 63 61 57 62 56 63 27 65 49 66
REMARK SMILES IDX 34 67 48 68 35 69 38 70 47 71 61 72 36 73 37 74 46 76 62 77
REMARK SMILES IDX 39 78 28 79 29 80 33 81 30 82 32 83 31 84 50 85 51 86 55 87
REMARK SMILES IDX 52 88 54 89 53 90 40 91 41 92 45 93 42 94 44 95 43 96
REMARK H PARENT 9 7 75 23 16 45 60 64 38 75
REMARK Flexibility Score: inf
ROOT
ATOM      1  C   UNL A   1      32.862  21.354  23.462  1.00  0.00     0.002 C 
ENDROOT
BRANCH   1   2
ATOM      2  C   UNL A   1      32.481  22.815  23.210  1.00  0.00     0.021 C 
BRANCH   2   3
ATOM      3  C   UNL A   1      31.042  23.215  23.520  1.00  0.00     0.116 C 
BRANCH   3   4
ATOM      4  N   UNL A   1      30.765  23.357  24.937  1.00  0.00    -0.351 N 
ATOM      5  C   UNL A   1      30.677  24.489  25.719  1.00  0.00     0.272 C 
ATOM      6  O   UNL A   1      30.152  24.403  26.825  1.00  0.00    -0.267 OA
ATOM      7  H   UNL A   1      30.615  22.511  25.418  1.00  0.00     0.163 HD
BRANCH   5   8
ATOM      8  C   UNL A   1      31.208  25.849  25.235  1.00  0.00     0.156 A 
ATOM      9  N   UNL A   1      32.988  27.320  25.092  1.00  0.00    -0.219 N 
ATOM     10  N   UNL A   1      32.464  26.109  25.452  1.00  0.00    -0.163 NA
ATOM     11  C   UNL A   1      32.310  28.266  24.337  1.00  0.00     0.275 A 
ATOM     12  C   UNL A   1      30.901  27.961  24.019  1.00  0.00     0.051 A 
ATOM     13  O   UNL A   1      32.808  29.329  23.971  1.00  0.00    -0.267 OA
ATOM     14  C   UNL A   1      30.316  26.795  24.514  1.00  0.00     0.020 A 
ATOM     15  C   UNL A   1      30.153  28.872  23.257  1.00  0.00     0.014 A 
ATOM     16  C   UNL A   1      28.955  26.569  24.271  1.00  0.00     0.011 A 
ATOM     17  C   UNL A   1      28.808  28.621  22.992  1.00  0.00     0.001 A 
ATOM     18  C   UNL A   1      28.209  27.475  23.507  1.00  0.00     0.001 A 
BRANCH   9  19
ATOM     19  C   UNL A   1      34.314  27.641  25.624  1.00  0.00     0.248 C 
BRANCH  19  20
ATOM     20  C   UNL A   1      34.111  28.501  26.879  1.00  0.00     0.246 C 
ATOM     21  O   UNL A   1      33.092  28.434  27.564  1.00  0.00    -0.273 OA
ATOM     22  N   UNL A   1      35.120  29.435  27.066  1.00  0.00    -0.324 N 
ATOM     23  H   UNL A   1      36.052  29.124  27.001  1.00  0.00     0.169 HD
BRANCH  22  24
ATOM     24  C   UNL A   1      34.902  30.803  27.343  1.00  0.00     0.042 A 
ATOM     25  C   UNL A   1      33.578  31.266  27.304  1.00  0.00     0.027 A 
ATOM     26  C   UNL A   1      35.902  31.617  27.878  1.00  0.00     0.039 A 
ATOM     27  C   UNL A   1      33.228  32.467  27.928  1.00  0.00     0.015 A 
ATOM     28  C   UNL A   1      35.539  32.779  28.560  1.00  0.00     0.036 A 
ATOM     29  C   UNL A   1      34.205  33.178  28.626  1.00  0.00     0.034 A 
ATOM     30  C   UNL A   1      36.545  33.455  29.398  1.00  0.00     0.194 C 
ATOM     31  C   UNL A   1      33.808  34.221  29.594  1.00  0.00     0.194 C 
ATOM     32  O   UNL A   1      37.738  33.416  29.131  1.00  0.00    -0.289 OA
ATOM     33  C   UNL A   1      36.057  34.082  30.639  1.00  0.00     0.034 A 
ATOM     34  C   UNL A   1      34.714  34.448  30.739  1.00  0.00     0.034 A 
ATOM     35  O   UNL A   1      32.728  34.790  29.510  1.00  0.00    -0.289 OA
ATOM     36  C   UNL A   1      36.911  34.199  31.737  1.00  0.00     0.013 A 
ATOM     37  C   UNL A   1      34.213  34.930  31.951  1.00  0.00     0.013 A 
ATOM     38  C   UNL A   1      36.404  34.652  32.954  1.00  0.00     0.001 A 
ATOM     39  C   UNL A   1      35.057  35.014  33.061  1.00  0.00     0.001 A 
ENDBRANCH  22  24
ENDBRANCH  19  20
ENDBRANCH   9  19
ENDBRANCH   5   8
ENDBRANCH   3   4
ENDBRANCH   2   3
ENDBRANCH   1   2
BRANCH   1  40
ATOM     40  C   UNL A   1      33.928  21.081  24.526  1.00  0.00     0.002 C 
BRANCH  40  41
ATOM     41  C   UNL A   1      34.171  22.175  25.568  1.00  0.00     0.021 C 
BRANCH  41  42
ATOM     42  C   UNL A   1      35.563  22.232  26.187  1.00  0.00     0.116 C 
BRANCH  42  43
ATOM     43  N   UNL A   1      36.489  21.265  25.623  1.00  0.00    -0.352 N 
ATOM     44  C   UNL A   1      37.859  21.323  25.522  1.00  0.00     0.251 C 
ATOM     45  H   UNL A   1      36.075  20.450  25.259  1.00  0.00     0.163 HD
ATOM     46  O   UNL A   1      38.464  20.438  24.923  1.00  0.00    -0.269 OA
BRANCH  44  47
ATOM     47  C   UNL A   1      38.619  22.463  26.096  1.00  0.00     0.039 A 
ATOM     48  C   UNL A   1      38.196  23.784  25.936  1.00  0.00     0.014 A 
ATOM     49  C   UNL A   1      39.772  22.192  26.845  1.00  0.00     0.014 A 
ATOM     50  C   UNL A   1      38.988  24.831  26.408  1.00  0.00     0.010 A 
ATOM     51  C   UNL A   1      40.535  23.242  27.370  1.00  0.00     0.010 A 
ATOM     52  C   UNL A   1      40.168  24.571  27.124  1.00  0.00    -0.014 A 
BRANCH  52  53
ATOM     53  C   UNL A   1      40.981  25.712  27.618  1.00  0.00     0.031 A 
ATOM     54  C   UNL A   1      42.326  26.022  27.022  1.00  0.00     0.074 A 
ATOM     55  C   UNL A   1      40.467  26.523  28.562  1.00  0.00     0.049 A 
ATOM     56  N   UNL A   1      43.095  27.063  27.232  1.00  0.00    -0.248 NA
ATOM     57  C   UNL A   1      42.879  25.047  26.071  1.00  0.00     0.031 C 
ATOM     58  C   UNL A   1      39.179  26.329  29.230  1.00  0.00     0.029 A 
ATOM     59  N   UNL A   1      40.946  27.695  29.091  1.00  0.00    -0.354 N 
ATOM     60  C   UNL A   1      44.223  26.864  26.446  1.00  0.00     0.074 A 
ATOM     61  C   UNL A   1      44.051  25.594  25.773  1.00  0.00     0.031 C 
ATOM     62  C   UNL A   1      38.935  27.383  30.024  1.00  0.00     0.029 A 
ATOM     63  C   UNL A   1      40.061  28.310  29.941  1.00  0.00     0.049 A 
ATOM     64  H   UNL A   1      41.837  28.058  28.882  1.00  0.00     0.167 HD
ATOM     65  C   UNL A   1      45.301  27.668  26.292  1.00  0.00     0.031 A 
ATOM     66  C   UNL A   1      40.131  29.499  30.567  1.00  0.00     0.031 A 
ATOM     67  C   UNL A   1      45.483  28.934  26.947  1.00  0.00     0.049 A 
ATOM     68  C   UNL A   1      41.337  30.369  30.383  1.00  0.00     0.074 A 
ATOM     69  C   UNL A   1      46.534  29.827  26.823  1.00  0.00     0.029 A 
ATOM     70  N   UNL A   1      44.593  29.487  27.854  1.00  0.00    -0.354 N 
ATOM     71  N   UNL A   1      42.380  30.177  29.615  1.00  0.00    -0.248 NA
ATOM     72  C   UNL A   1      41.374  31.619  31.157  1.00  0.00     0.031 C 
ATOM     73  C   UNL A   1      46.294  30.910  27.678  1.00  0.00     0.029 A 
ATOM     74  C   UNL A   1      45.080  30.700  28.310  1.00  0.00     0.049 A 
ATOM     75  H   UNL A   1      43.742  29.078  28.131  1.00  0.00     0.167 HD
ATOM     76  C   UNL A   1      43.201  31.277  29.816  1.00  0.00     0.074 A 
ATOM     77  C   UNL A   1      42.527  32.143  30.761  1.00  0.00     0.031 C 
ATOM     78  C   UNL A   1      44.412  31.541  29.267  1.00  0.00     0.031 A 
BRANCH  65  79
ATOM     79  C   UNL A   1      46.386  27.195  25.370  1.00  0.00    -0.014 A 
ATOM     80  C   UNL A   1      46.697  27.934  24.218  1.00  0.00     0.009 A 
ATOM     81  C   UNL A   1      47.061  25.989  25.613  1.00  0.00     0.009 A 
ATOM     82  C   UNL A   1      47.670  27.476  23.328  1.00  0.00     0.001 A 
ATOM     83  C   UNL A   1      48.044  25.542  24.727  1.00  0.00     0.001 A 
ATOM     84  C   UNL A   1      48.345  26.283  23.584  1.00  0.00     0.000 A 
ENDBRANCH  65  79
BRANCH  66  85
ATOM     85  C   UNL A   1      38.993  29.949  31.402  1.00  0.00    -0.014 A 
ATOM     86  C   UNL A   1      39.119  30.037  32.795  1.00  0.00     0.009 A 
ATOM     87  C   UNL A   1      37.762  30.257  30.804  1.00  0.00     0.009 A 
ATOM     88  C   UNL A   1      38.028  30.419  33.578  1.00  0.00     0.001 A 
ATOM     89  C   UNL A   1      36.677  30.651  31.588  1.00  0.00     0.001 A 
ATOM     90  C   UNL A   1      36.809  30.728  32.974  1.00  0.00     0.000 A 
ENDBRANCH  66  85
BRANCH  78  91
ATOM     91  C   UNL A   1      45.092  32.807  29.690  1.00  0.00    -0.014 A 
ATOM     92  C   UNL A   1      44.936  33.978  28.933  1.00  0.00     0.009 A 
ATOM     93  C   UNL A   1      45.927  32.824  30.817  1.00  0.00     0.009 A 
ATOM     94  C   UNL A   1      45.602  35.147  29.302  1.00  0.00     0.001 A 
ATOM     95  C   UNL A   1      46.580  34.000  31.190  1.00  0.00     0.001 A 
ATOM     96  C   UNL A   1      46.420  35.159  30.431  1.00  0.00     0.000 A 
ENDBRANCH  78  91
ENDBRANCH  52  53
ENDBRANCH  44  47
ENDBRANCH  42  43
ENDBRANCH  41  42
ENDBRANCH  40  41
ENDBRANCH   1  40
TORSDOF 16
ENDMDL
MODEL 2
REMARK VINA RESULT:     -13.0      6.513     10.461
REMARK SMILES O=C(Cn1nc(C(=O)NCCCCCCNC(=O)c2ccc(-c3c4nc(c(-c5ccccc5)c5ccc([nH]5)c(-c5ccccc5)c5nc(c(-c6ccccc6)c6ccc3[nH]6)C=C5)C=C4)cc2)c2ccccc2c1=O)Nc1ccc2c(c1)C(=O)c1ccccc1C2=O
REMARK SMILES IDX 12 1 11 2 10 3 9 4 7 5 8 6 6 8 4 9 5 10 73 11 72 12 74 13
REMARK SMILES IDX 67 14 71 15 68 16 70 17 69 18 3 19 2 20 1 21 75 22 76 24
REMARK SMILES IDX 77 25 81 26 78 27 80 28 79 29 82 30 90 31 83 32 84 33 89 34
REMARK SMILES IDX 91 35 85 36 88 37 86 38 87 39 13 40 14 41 15 42 16 43 17 44
REMARK SMILES IDX 18 46 19 47 20 48 66 49 21 50 65 51 22 52 23 53 24 54 59 55
REMARK SMILES IDX 25 56 64 57 58 58 60 59 26 60 63 61 57 62 56 63 27 65 49 66
REMARK SMILES IDX 34 67 48 68 35 69 38 70 47 71 61 72 36 73 37 74 46 76 62 77
REMARK SMILES IDX 39 78 28 79 29 80 33 81 30 82 32 83 31 84 50 85 51 86 55 87
REMARK SMILES IDX 52 88 54 89 53 90 40 91 41 92 45 93 42 94 44 95 43 96
REMARK H PARENT 9 7 75 23 16 45 60 64 38 75
REMARK Flexibility Score: inf
ROOT
ATOM      1  C   UNL A   1      43.510  22.975  24.886  1.00  0.00     0.002 C 
ENDROOT
BRANCH   1   2
ATOM      2  C   UNL A   1      44.035  21.766  25.663  1.00  0.00     0.021 C 
BRANCH   2   3
ATOM      3  C   UNL A   1      43.232  20.474  25.552  1.00  0.00     0.116 C 
BRANCH   3   4
ATOM      4  N   UNL A   1      42.729  19.985  26.822  1.00  0.00    -0.351 N 
ATOM      5  C   UNL A   1      41.513  20.191  27.438  1.00  0.00     0.272 C 
ATOM      6  O   UNL A   1      41.190  19.456  28.366  1.00  0.00    -0.267 OA
ATOM      7  H   UNL A   1      43.356  19.415  27.325  1.00  0.00     0.163 HD
BRANCH   5   8
ATOM      8  C   UNL A   1      40.555  21.305  26.984  1.00  0.00     0.156 A 
ATOM      9  N   UNL A   1      38.698  21.907  25.742  1.00  0.00    -0.219 N 
ATOM     10  N   UNL A   1      39.558  20.959  26.223  1.00  0.00    -0.163 NA
ATOM     11  C   UNL A   1      38.699  23.234  26.150  1.00  0.00     0.275 A 
ATOM     12  C   UNL A   1      39.781  23.634  27.070  1.00  0.00     0.051 A 
ATOM     13  O   UNL A   1      37.886  24.068  25.755  1.00  0.00    -0.267 OA
ATOM     14  C   UNL A   1      40.752  22.705  27.444  1.00  0.00     0.020 A 
ATOM     15  C   UNL A   1      39.844  24.960  27.525  1.00  0.00     0.014 A 
ATOM     16  C   UNL A   1      41.817  23.130  28.249  1.00  0.00     0.011 A 
ATOM     17  C   UNL A   1      40.889  25.365  28.354  1.00  0.00     0.001 A 
ATOM     18  C   UNL A   1      41.878  24.452  28.708  1.00  0.00     0.001 A 
BRANCH   9  19
ATOM     19  C   UNL A   1      37.790  21.484  24.674  1.00  0.00     0.248 C 
BRANCH  19  20
ATOM     20  C   UNL A   1      36.590  20.793  25.337  1.00  0.00     0.246 C 
ATOM     21  O   UNL A   1      36.238  19.655  25.035  1.00  0.00    -0.273 OA
ATOM     22  N   UNL A   1      35.886  21.631  26.190  1.00  0.00    -0.324 N 
ATOM     23  H   UNL A   1      36.399  22.152  26.850  1.00  0.00     0.169 HD
BRANCH  22  24
ATOM     24  C   UNL A   1      34.482  21.788  26.177  1.00  0.00     0.042 A 
ATOM     25  C   UNL A   1      33.840  21.953  27.414  1.00  0.00     0.027 A 
ATOM     26  C   UNL A   1      33.776  22.022  24.996  1.00  0.00     0.039 A 
ATOM     27  C   UNL A   1      32.552  22.491  27.478  1.00  0.00     0.015 A 
ATOM     28  C   UNL A   1      32.518  22.624  25.066  1.00  0.00     0.036 A 
ATOM     29  C   UNL A   1      31.929  22.901  26.298  1.00  0.00     0.034 A 
ATOM     30  C   UNL A   1      31.922  23.169  23.833  1.00  0.00     0.194 C 
ATOM     31  C   UNL A   1      30.759  23.802  26.356  1.00  0.00     0.194 C 
ATOM     32  O   UNL A   1      32.153  22.682  22.735  1.00  0.00    -0.289 OA
ATOM     33  C   UNL A   1      31.126  24.401  23.974  1.00  0.00     0.034 A 
ATOM     34  C   UNL A   1      30.565  24.717  25.212  1.00  0.00     0.034 A 
ATOM     35  O   UNL A   1      30.052  23.864  27.353  1.00  0.00    -0.289 OA
ATOM     36  C   UNL A   1      31.036  25.293  22.903  1.00  0.00     0.013 A 
ATOM     37  C   UNL A   1      29.912  25.939  25.389  1.00  0.00     0.013 A 
ATOM     38  C   UNL A   1      30.411  26.524  23.088  1.00  0.00     0.001 A 
ATOM     39  C   UNL A   1      29.853  26.848  24.329  1.00  0.00     0.001 A 
ENDBRANCH  22  24
ENDBRANCH  19  20
ENDBRANCH   9  19
ENDBRANCH   5   8
ENDBRANCH   3   4
ENDBRANCH   2   3
ENDBRANCH   1   2
BRANCH   1  40
ATOM     40  C   UNL A   1      43.821  24.363  25.454  1.00  0.00     0.002 C 
BRANCH  40  41
ATOM     41  C   UNL A   1      42.864  25.498  25.087  1.00  0.00     0.021 C 
BRANCH  41  42
ATOM     42  C   UNL A   1      43.292  26.907  25.485  1.00  0.00     0.116 C 
BRANCH  42  43
ATOM     43  N   UNL A   1      44.392  27.426  24.691  1.00  0.00    -0.352 N 
ATOM     44  C   UNL A   1      45.713  27.594  25.034  1.00  0.00     0.251 C 
ATOM     45  H   UNL A   1      44.156  27.698  23.775  1.00  0.00     0.163 HD
ATOM     46  O   UNL A   1      46.481  28.141  24.246  1.00  0.00    -0.269 OA
BRANCH  44  47
ATOM     47  C   UNL A   1      46.219  27.157  26.359  1.00  0.00     0.039 A 
ATOM     48  C   UNL A   1      46.604  25.837  26.602  1.00  0.00     0.014 A 
ATOM     49  C   UNL A   1      46.342  28.112  27.378  1.00  0.00     0.014 A 
ATOM     50  C   UNL A   1      46.984  25.447  27.886  1.00  0.00     0.010 A 
ATOM     51  C   UNL A   1      46.781  27.731  28.652  1.00  0.00     0.010 A 
ATOM     52  C   UNL A   1      47.070  26.387  28.926  1.00  0.00    -0.014 A 
BRANCH  52  53
ATOM     53  C   UNL A   1      47.486  25.936  30.278  1.00  0.00     0.031 A 
ATOM     54  C   UNL A   1      48.939  25.847  30.654  1.00  0.00     0.074 A 
ATOM     55  C   UNL A   1      46.541  25.678  31.202  1.00  0.00     0.049 A 
ATOM     56  N   UNL A   1      49.469  25.616  31.831  1.00  0.00    -0.248 NA
ATOM     57  C   UNL A   1      49.923  26.039  29.579  1.00  0.00     0.031 C 
ATOM     58  C   UNL A   1      45.097  25.718  30.966  1.00  0.00     0.029 A 
ATOM     59  N   UNL A   1      46.655  25.375  32.536  1.00  0.00    -0.354 N 
ATOM     60  C   UNL A   1      50.844  25.629  31.636  1.00  0.00     0.074 A 
ATOM     61  C   UNL A   1      51.069  25.868  30.226  1.00  0.00     0.031 C 
ATOM     62  C   UNL A   1      44.458  25.523  32.130  1.00  0.00     0.029 A 
ATOM     63  C   UNL A   1      45.446  25.317  33.185  1.00  0.00     0.049 A 
ATOM     64  H   UNL A   1      47.517  25.214  32.982  1.00  0.00     0.167 HD
ATOM     65  C   UNL A   1      51.831  25.468  32.548  1.00  0.00     0.031 A 
ATOM     66  C   UNL A   1      45.160  25.144  34.488  1.00  0.00     0.031 A 
ATOM     67  C   UNL A   1      51.623  25.239  33.952  1.00  0.00     0.049 A 
ATOM     68  C   UNL A   1      46.271  24.963  35.478  1.00  0.00     0.074 A 
ATOM     69  C   UNL A   1      52.570  25.093  34.952  1.00  0.00     0.029 A 
ATOM     70  N   UNL A   1      50.382  25.118  34.556  1.00  0.00    -0.354 N 
ATOM     71  N   UNL A   1      47.565  25.006  35.279  1.00  0.00    -0.248 NA
ATOM     72  C   UNL A   1      45.878  24.704  36.871  1.00  0.00     0.031 C 
ATOM     73  C   UNL A   1      51.902  24.856  36.159  1.00  0.00     0.029 A 
ATOM     74  C   UNL A   1      50.539  24.882  35.911  1.00  0.00     0.049 A 
ATOM     75  H   UNL A   1      49.518  25.190  34.091  1.00  0.00     0.167 HD
ATOM     76  C   UNL A   1      48.142  24.776  36.520  1.00  0.00     0.074 A 
ATOM     77  C   UNL A   1      47.060  24.614  37.469  1.00  0.00     0.031 C 
ATOM     78  C   UNL A   1      49.457  24.700  36.840  1.00  0.00     0.031 A 
BRANCH  65  79
ATOM     79  C   UNL A   1      53.244  25.529  32.051  1.00  0.00    -0.014 A 
ATOM     80  C   UNL A   1      54.057  24.386  32.108  1.00  0.00     0.009 A 
ATOM     81  C   UNL A   1      53.788  26.732  31.576  1.00  0.00     0.009 A 
ATOM     82  C   UNL A   1      55.388  24.446  31.693  1.00  0.00     0.001 A 
ATOM     83  C   UNL A   1      55.117  26.784  31.149  1.00  0.00     0.001 A 
ATOM     84  C   UNL A   1      55.916  25.643  31.211  1.00  0.00     0.000 A 
ENDBRANCH  65  79
BRANCH  66  85
ATOM     85  C   UNL A   1      43.747  25.173  34.932  1.00  0.00    -0.014 A 
ATOM     86  C   UNL A   1      43.111  26.390  35.215  1.00  0.00     0.009 A 
ATOM     87  C   UNL A   1      43.042  23.974  35.110  1.00  0.00     0.009 A 
ATOM     88  C   UNL A   1      41.794  26.405  35.677  1.00  0.00     0.001 A 
ATOM     89  C   UNL A   1      41.721  23.993  35.558  1.00  0.00     0.001 A 
ATOM     90  C   UNL A   1      41.100  25.208  35.846  1.00  0.00     0.000 A 
ENDBRANCH  66  85
BRANCH  78  91
ATOM     91  C   UNL A   1      49.795  24.412  38.271  1.00  0.00    -0.014 A 
ATOM     92  C   UNL A   1      50.065  25.464  39.157  1.00  0.00     0.009 A 
ATOM     93  C   UNL A   1      49.892  23.088  38.726  1.00  0.00     0.009 A 
ATOM     94  C   UNL A   1      50.422  25.196  40.479  1.00  0.00     0.001 A 
ATOM     95  C   UNL A   1      50.235  22.825  40.053  1.00  0.00     0.001 A 
ATOM     96  C   UNL A   1      50.502  23.878  40.928  1.00  0.00     0.000 A 
ENDBRANCH  78  91
ENDBRANCH  52  53
ENDBRANCH  44  47
ENDBRANCH  42  43
ENDBRANCH  41  42
ENDBRANCH  40  41
ENDBRANCH   1  40
TORSDOF 16
ENDMDL
MODEL 3
REMARK VINA RESULT:     -12.8      3.742      9.780
REMARK SMILES O=C(Cn1nc(C(=O)NCCCCCCNC(=O)c2ccc(-c3c4nc(c(-c5ccccc5)c5ccc([nH]5)c(-c5ccccc5)c5nc(c(-c6ccccc6)c6ccc3[nH]6)C=C5)C=C4)cc2)c2ccccc2c1=O)Nc1ccc2c(c1)C(=O)c1ccccc1C2=O
REMARK SMILES IDX 12 1 11 2 10 3 9 4 7 5 8 6 6 8 4 9 5 10 73 11 72 12 74 13
REMARK SMILES IDX 67 14 71 15 68 16 70 17 69 18 3 19 2 20 1 21 75 22 76 24
REMARK SMILES IDX 77 25 81 26 78 27 80 28 79 29 82 30 90 31 83 32 84 33 89 34
REMARK SMILES IDX 91 35 85 36 88 37 86 38 87 39 13 40 14 41 15 42 16 43 17 44
REMARK SMILES IDX 18 46 19 47 20 48 66 49 21 50 65 51 22 52 23 53 24 54 59 55
REMARK SMILES IDX 25 56 64 57 58 58 60 59 26 60 63 61 57 62 56 63 27 65 49 66
REMARK SMILES IDX 34 67 48 68 35 69 38 70 47 71 61 72 36 73 37 74 46 76 62 77
REMARK SMILES IDX 39 78 28 79 29 80 33 81 30 82 32 83 31 84 50 85 51 86 55 87
REMARK SMILES IDX 52 88 54 89 53 90 40 91 41 92 45 93 42 94 44 95 43 96
REMARK H PARENT 9 7 75 23 16 45 60 64 38 75
REMARK Flexibility Score: inf
ROOT
ATOM      1  C   UNL A   1      43.225  23.253  24.849  1.00  0.00     0.002 C 
ENDROOT
BRANCH   1   2
ATOM      2  C   UNL A   1      43.915  22.092  25.570  1.00  0.00     0.021 C 
BRANCH   2   3
ATOM      3  C   UNL A   1      43.276  20.715  25.428  1.00  0.00     0.116 C 
BRANCH   3   4
ATOM      4  N   UNL A   1      42.818  20.148  26.683  1.00  0.00    -0.351 N 
ATOM      5  C   UNL A   1      41.605  20.273  27.328  1.00  0.00     0.272 C 
ATOM      6  O   UNL A   1      41.332  19.483  28.227  1.00  0.00    -0.267 OA
ATOM      7  H   UNL A   1      43.477  19.585  27.149  1.00  0.00     0.163 HD
BRANCH   5   8
ATOM      8  C   UNL A   1      40.592  21.362  26.941  1.00  0.00     0.156 A 
ATOM      9  N   UNL A   1      38.693  21.940  25.752  1.00  0.00    -0.219 N 
ATOM     10  N   UNL A   1      39.602  21.009  26.174  1.00  0.00    -0.163 NA
ATOM     11  C   UNL A   1      38.639  23.243  26.225  1.00  0.00     0.275 A 
ATOM     12  C   UNL A   1      39.715  23.647  27.152  1.00  0.00     0.051 A 
ATOM     13  O   UNL A   1      37.784  24.057  25.881  1.00  0.00    -0.267 OA
ATOM     14  C   UNL A   1      40.731  22.745  27.468  1.00  0.00     0.020 A 
ATOM     15  C   UNL A   1      39.724  24.950  27.672  1.00  0.00     0.014 A 
ATOM     16  C   UNL A   1      41.787  23.179  28.282  1.00  0.00     0.011 A 
ATOM     17  C   UNL A   1      40.760  25.361  28.509  1.00  0.00     0.001 A 
ATOM     18  C   UNL A   1      41.795  24.478  28.805  1.00  0.00     0.001 A 
BRANCH   9  19
ATOM     19  C   UNL A   1      37.791  21.528  24.674  1.00  0.00     0.248 C 
BRANCH  19  20
ATOM     20  C   UNL A   1      36.585  20.835  25.322  1.00  0.00     0.246 C 
ATOM     21  O   UNL A   1      36.235  19.699  25.012  1.00  0.00    -0.273 OA
ATOM     22  N   UNL A   1      35.874  21.669  26.174  1.00  0.00    -0.324 N 
ATOM     23  H   UNL A   1      36.382  22.186  26.841  1.00  0.00     0.169 HD
BRANCH  22  24
ATOM     24  C   UNL A   1      34.470  21.827  26.150  1.00  0.00     0.042 A 
ATOM     25  C   UNL A   1      33.817  21.976  27.383  1.00  0.00     0.027 A 
ATOM     26  C   UNL A   1      33.775  22.077  24.966  1.00  0.00     0.039 A 
ATOM     27  C   UNL A   1      32.528  22.514  27.442  1.00  0.00     0.015 A 
ATOM     28  C   UNL A   1      32.518  22.679  25.031  1.00  0.00     0.036 A 
ATOM     29  C   UNL A   1      31.917  22.940  26.262  1.00  0.00     0.034 A 
ATOM     30  C   UNL A   1      31.933  23.241  23.800  1.00  0.00     0.194 C 
ATOM     31  C   UNL A   1      30.747  23.841  26.321  1.00  0.00     0.194 C 
ATOM     32  O   UNL A   1      32.175  22.769  22.699  1.00  0.00    -0.289 OA
ATOM     33  C   UNL A   1      31.137  24.471  23.950  1.00  0.00     0.034 A 
ATOM     34  C   UNL A   1      30.564  24.771  25.187  1.00  0.00     0.034 A 
ATOM     35  O   UNL A   1      30.031  23.891  27.311  1.00  0.00    -0.289 OA
ATOM     36  C   UNL A   1      31.058  25.377  22.891  1.00  0.00     0.013 A 
ATOM     37  C   UNL A   1      29.910  25.992  25.374  1.00  0.00     0.013 A 
ATOM     38  C   UNL A   1      30.431  26.607  23.086  1.00  0.00     0.001 A 
ATOM     39  C   UNL A   1      29.861  26.915  24.326  1.00  0.00     0.001 A 
ENDBRANCH  22  24
ENDBRANCH  19  20
ENDBRANCH   9  19
ENDBRANCH   5   8
ENDBRANCH   3   4
ENDBRANCH   2   3
ENDBRANCH   1   2
BRANCH   1  40
ATOM     40  C   UNL A   1      43.638  24.671  25.249  1.00  0.00     0.002 C 
BRANCH  40  41
ATOM     41  C   UNL A   1      42.524  25.710  25.390  1.00  0.00     0.021 C 
BRANCH  41  42
ATOM     42  C   UNL A   1      42.845  27.124  24.919  1.00  0.00     0.116 C 
BRANCH  42  43
ATOM     43  N   UNL A   1      44.262  27.442  24.960  1.00  0.00    -0.352 N 
ATOM     44  C   UNL A   1      44.974  28.134  25.912  1.00  0.00     0.251 C 
ATOM     45  H   UNL A   1      44.788  27.116  24.195  1.00  0.00     0.163 HD
ATOM     46  O   UNL A   1      46.162  28.383  25.721  1.00  0.00    -0.269 OA
BRANCH  44  47
ATOM     47  C   UNL A   1      44.319  28.620  27.152  1.00  0.00     0.039 A 
ATOM     48  C   UNL A   1      44.140  29.981  27.405  1.00  0.00     0.014 A 
ATOM     49  C   UNL A   1      43.841  27.677  28.072  1.00  0.00     0.014 A 
ATOM     50  C   UNL A   1      43.606  30.399  28.625  1.00  0.00     0.010 A 
ATOM     51  C   UNL A   1      43.251  28.096  29.271  1.00  0.00     0.010 A 
ATOM     52  C   UNL A   1      43.163  29.462  29.573  1.00  0.00    -0.014 A 
BRANCH  52  53
ATOM     53  C   UNL A   1      42.593  29.944  30.856  1.00  0.00     0.031 A 
ATOM     54  C   UNL A   1      43.432  30.010  32.102  1.00  0.00     0.074 A 
ATOM     55  C   UNL A   1      41.326  30.400  30.881  1.00  0.00     0.049 A 
ATOM     56  N   UNL A   1      43.137  30.542  33.262  1.00  0.00    -0.248 NA
ATOM     57  C   UNL A   1      44.770  29.405  32.041  1.00  0.00     0.031 C 
ATOM     58  C   UNL A   1      40.401  30.384  29.746  1.00  0.00     0.029 A 
ATOM     59  N   UNL A   1      40.614  31.006  31.885  1.00  0.00    -0.354 N 
ATOM     60  C   UNL A   1      44.246  30.331  34.070  1.00  0.00     0.074 A 
ATOM     61  C   UNL A   1      45.213  29.602  33.277  1.00  0.00     0.031 C 
ATOM     62  C   UNL A   1      39.271  31.019  30.094  1.00  0.00     0.029 A 
ATOM     63  C   UNL A   1      39.383  31.460  31.481  1.00  0.00     0.049 A 
ATOM     64  H   UNL A   1      40.952  31.105  32.804  1.00  0.00     0.167 HD
ATOM     65  C   UNL A   1      44.448  30.715  35.352  1.00  0.00     0.031 A 
ATOM     66  C   UNL A   1      38.454  32.175  32.141  1.00  0.00     0.031 A 
ATOM     67  C   UNL A   1      43.501  31.446  36.150  1.00  0.00     0.049 A 
ATOM     68  C   UNL A   1      38.699  32.586  33.562  1.00  0.00     0.074 A 
ATOM     69  C   UNL A   1      43.638  31.902  37.450  1.00  0.00     0.029 A 
ATOM     70  N   UNL A   1      42.238  31.825  35.724  1.00  0.00    -0.354 N 
ATOM     71  N   UNL A   1      39.766  32.400  34.299  1.00  0.00    -0.248 NA
ATOM     72  C   UNL A   1      37.607  33.300  34.241  1.00  0.00     0.031 C 
ATOM     73  C   UNL A   1      42.445  32.534  37.822  1.00  0.00     0.029 A 
ATOM     74  C   UNL A   1      41.579  32.494  36.742  1.00  0.00     0.049 A 
ATOM     75  H   UNL A   1      41.866  31.647  34.830  1.00  0.00     0.167 HD
ATOM     76  C   UNL A   1      39.473  32.970  35.530  1.00  0.00     0.074 A 
ATOM     77  C   UNL A   1      38.139  33.526  35.436  1.00  0.00     0.031 C 
ATOM     78  C   UNL A   1      40.245  33.021  36.643  1.00  0.00     0.031 A 
BRANCH  65  79
ATOM     79  C   UNL A   1      45.757  30.345  35.984  1.00  0.00    -0.014 A 
ATOM     80  C   UNL A   1      45.842  29.210  36.805  1.00  0.00     0.009 A 
ATOM     81  C   UNL A   1      46.892  31.151  35.811  1.00  0.00     0.009 A 
ATOM     82  C   UNL A   1      47.043  28.885  37.437  1.00  0.00     0.001 A 
ATOM     83  C   UNL A   1      48.096  30.815  36.434  1.00  0.00     0.001 A 
ATOM     84  C   UNL A   1      48.169  29.685  37.249  1.00  0.00     0.000 A 
ENDBRANCH  65  79
BRANCH  66  85
ATOM     85  C   UNL A   1      37.214  32.581  31.439  1.00  0.00    -0.014 A 
ATOM     86  C   UNL A   1      37.197  33.716  30.616  1.00  0.00     0.009 A 
ATOM     87  C   UNL A   1      36.032  31.850  31.623  1.00  0.00     0.009 A 
ATOM     88  C   UNL A   1      36.013  34.116  29.994  1.00  0.00     0.001 A 
ATOM     89  C   UNL A   1      34.853  32.245  30.990  1.00  0.00     0.001 A 
ATOM     90  C   UNL A   1      34.844  33.380  30.179  1.00  0.00     0.000 A 
ENDBRANCH  66  85
BRANCH  78  91
ATOM     91  C   UNL A   1      39.657  33.684  37.852  1.00  0.00    -0.014 A 
ATOM     92  C   UNL A   1      38.878  32.943  38.752  1.00  0.00     0.009 A 
ATOM     93  C   UNL A   1      39.841  35.058  38.070  1.00  0.00     0.009 A 
ATOM     94  C   UNL A   1      38.295  33.567  39.856  1.00  0.00     0.001 A 
ATOM     95  C   UNL A   1      39.267  35.675  39.183  1.00  0.00     0.001 A 
ATOM     96  C   UNL A   1      38.493  34.930  40.073  1.00  0.00     0.000 A 
ENDBRANCH  78  91
ENDBRANCH  52  53
ENDBRANCH  44  47
ENDBRANCH  42  43
ENDBRANCH  41  42
ENDBRANCH  40  41
ENDBRANCH   1  40
TORSDOF 16
ENDMDL
