MODEL 1
REMARK VINA RESULT:     -12.3      0.000      0.000
REMARK SMILES Cc1c(C(=O)NCCCCCCNC(=O)c2ccc(-c3c4nc(c(-c5ccccc5)c5ccc([nH]5)c(-c5ccccc5)c5nc(c(-c6ccccc6)c6ccc3[nH]6)C=C5)C=C4)cc2)oc2c1/C(=N/NC(=O)C(c1ccccc1)c1ccccc1)CCC2
REMARK SMILES IDX 9 1 8 2 7 3 6 4 4 5 5 6 3 8 1 9 2 10 66 11 64 12 65 13 67 14
REMARK SMILES IDX 87 15 68 16 85 17 86 18 69 19 70 20 71 22 72 23 73 24 74 25
REMARK SMILES IDX 78 26 75 27 77 28 76 29 79 30 80 31 84 32 81 33 83 34 82 35
REMARK SMILES IDX 10 36 11 37 12 38 13 39 14 40 15 42 16 43 17 44 63 45 18 46
REMARK SMILES IDX 62 47 19 48 20 49 21 50 56 51 22 52 61 53 55 54 57 55 23 56
REMARK SMILES IDX 60 57 54 58 53 59 24 61 46 62 31 63 45 64 32 65 35 66 44 67
REMARK SMILES IDX 58 68 33 69 34 70 43 72 59 73 36 74 25 75 26 76 30 77 27 78
REMARK SMILES IDX 29 79 28 80 47 81 48 82 52 83 49 84 51 85 50 86 37 87 38 88
REMARK SMILES IDX 42 89 39 90 41 91 40 92
REMARK H PARENT 6 7 69 21 13 41 57 60 35 71
REMARK Flexibility Score: inf
ROOT
ATOM      1  C   UNL A   1      35.239  22.514  26.012  1.00  0.00     0.002 C 
ENDROOT
BRANCH   1   2
ATOM      2  C   UNL A   1      34.470  22.800  27.302  1.00  0.00     0.021 C 
BRANCH   2   3
ATOM      3  C   UNL A   1      33.594  21.610  27.693  1.00  0.00     0.116 C 
BRANCH   3   4
ATOM      4  N   UNL A   1      32.237  22.039  28.002  1.00  0.00    -0.349 N 
ATOM      5  C   UNL A   1      31.339  22.745  27.230  1.00  0.00     0.287 C 
ATOM      6  O   UNL A   1      30.222  22.963  27.696  1.00  0.00    -0.266 OA
ATOM      7  H   UNL A   1      31.912  21.787  28.897  1.00  0.00     0.163 HD
BRANCH   5   8
ATOM      8  C   UNL A   1      31.750  23.148  25.909  1.00  0.00     0.195 A 
ATOM      9  C   UNL A   1      32.038  25.705  26.023  1.00  0.00     0.049 C 
ATOM     10  C   UNL A   1      32.019  24.384  25.334  1.00  0.00     0.010 A 
ATOM     11  C   UNL A   1      32.250  24.090  23.949  1.00  0.00     0.043 A 
ATOM     12  O   UNL A   1      31.896  22.172  24.974  1.00  0.00    -0.455 OA
ATOM     13  C   UNL A   1      32.018  22.757  23.792  1.00  0.00     0.114 A 
ATOM     14  C   UNL A   1      32.641  24.883  22.812  1.00  0.00     0.072 C 
ATOM     15  C   UNL A   1      31.921  21.932  22.587  1.00  0.00     0.076 C 
ATOM     16  N   UNL A   1      32.586  26.143  23.147  1.00  0.00    -0.177 NA
ATOM     17  C   UNL A   1      33.090  23.980  21.577  1.00  0.00     0.059 C 
ATOM     18  C   UNL A   1      32.947  22.443  21.614  1.00  0.00     0.014 C 
BRANCH  16  19
ATOM     19  N   UNL A   1      32.853  27.399  22.698  1.00  0.00    -0.246 N 
ATOM     20  C   UNL A   1      32.320  28.640  22.952  1.00  0.00     0.252 C 
ATOM     21  H   UNL A   1      33.591  27.425  22.047  1.00  0.00     0.193 HD
ATOM     22  O   UNL A   1      32.615  29.625  22.273  1.00  0.00    -0.272 OA
BRANCH  20  23
ATOM     23  C   UNL A   1      31.392  28.721  24.146  1.00  0.00     0.140 C 
BRANCH  23  24
ATOM     24  C   UNL A   1      32.325  29.304  25.296  1.00  0.00    -0.031 A 
ATOM     25  C   UNL A   1      32.002  30.489  26.058  1.00  0.00     0.005 A 
ATOM     26  C   UNL A   1      33.611  28.815  25.560  1.00  0.00     0.005 A 
ATOM     27  C   UNL A   1      32.710  30.921  27.192  1.00  0.00     0.000 A 
ATOM     28  C   UNL A   1      34.393  29.333  26.628  1.00  0.00     0.000 A 
ATOM     29  C   UNL A   1      33.910  30.319  27.493  1.00  0.00     0.000 A 
ENDBRANCH  23  24
BRANCH  23  30
ATOM     30  C   UNL A   1      29.978  29.060  23.385  1.00  0.00    -0.031 A 
ATOM     31  C   UNL A   1      29.648  30.447  23.471  1.00  0.00     0.005 A 
ATOM     32  C   UNL A   1      28.855  28.265  23.051  1.00  0.00     0.005 A 
ATOM     33  C   UNL A   1      28.327  30.943  23.451  1.00  0.00     0.000 A 
ATOM     34  C   UNL A   1      27.521  28.754  23.047  1.00  0.00     0.000 A 
ATOM     35  C   UNL A   1      27.253  30.086  23.289  1.00  0.00     0.000 A 
ENDBRANCH  23  30
ENDBRANCH  20  23
ENDBRANCH  16  19
ENDBRANCH   5   8
ENDBRANCH   3   4
ENDBRANCH   2   3
ENDBRANCH   1   2
BRANCH   1  36
ATOM     36  C   UNL A   1      35.857  23.761  25.360  1.00  0.00     0.002 C 
BRANCH  36  37
ATOM     37  C   UNL A   1      37.378  23.706  25.145  1.00  0.00     0.021 C 
BRANCH  37  38
ATOM     38  C   UNL A   1      38.155  24.180  26.362  1.00  0.00     0.116 C 
BRANCH  38  39
ATOM     39  N   UNL A   1      39.590  24.059  26.144  1.00  0.00    -0.352 N 
ATOM     40  C   UNL A   1      40.590  24.973  26.402  1.00  0.00     0.251 C 
ATOM     41  H   UNL A   1      39.888  23.205  25.758  1.00  0.00     0.163 HD
ATOM     42  O   UNL A   1      41.679  24.868  25.882  1.00  0.00    -0.269 OA
BRANCH  40  43
ATOM     43  C   UNL A   1      40.295  26.100  27.308  1.00  0.00     0.039 A 
ATOM     44  C   UNL A   1      39.809  25.841  28.590  1.00  0.00     0.014 A 
ATOM     45  C   UNL A   1      40.529  27.407  26.883  1.00  0.00     0.014 A 
ATOM     46  C   UNL A   1      39.652  26.904  29.473  1.00  0.00     0.010 A 
ATOM     47  C   UNL A   1      40.474  28.444  27.791  1.00  0.00     0.010 A 
ATOM     48  C   UNL A   1      40.023  28.205  29.086  1.00  0.00    -0.014 A 
BRANCH  48  49
ATOM     49  C   UNL A   1      40.080  29.264  30.096  1.00  0.00     0.031 A 
ATOM     50  C   UNL A   1      38.785  29.961  30.330  1.00  0.00     0.074 A 
ATOM     51  C   UNL A   1      41.137  29.532  30.893  1.00  0.00     0.049 A 
ATOM     52  N   UNL A   1      38.493  31.176  30.010  1.00  0.00    -0.248 NA
ATOM     53  C   UNL A   1      37.649  29.195  30.867  1.00  0.00     0.031 C 
ATOM     54  C   UNL A   1      42.396  28.787  31.009  1.00  0.00     0.029 A 
ATOM     55  N   UNL A   1      41.272  30.501  31.849  1.00  0.00    -0.354 N 
ATOM     56  C   UNL A   1      37.200  31.402  30.474  1.00  0.00     0.074 A 
ATOM     57  C   UNL A   1      36.680  30.115  30.861  1.00  0.00     0.031 C 
ATOM     58  C   UNL A   1      43.058  29.182  32.120  1.00  0.00     0.029 A 
ATOM     59  C   UNL A   1      42.372  30.331  32.680  1.00  0.00     0.049 A 
ATOM     60  H   UNL A   1      40.643  31.253  31.940  1.00  0.00     0.167 HD
ATOM     61  C   UNL A   1      36.765  32.666  30.732  1.00  0.00     0.031 A 
ATOM     62  C   UNL A   1      42.726  31.097  33.739  1.00  0.00     0.031 A 
ATOM     63  C   UNL A   1      37.680  33.650  30.212  1.00  0.00     0.049 A 
ATOM     64  C   UNL A   1      42.126  32.430  33.548  1.00  0.00     0.074 A 
ATOM     65  C   UNL A   1      38.003  34.185  28.987  1.00  0.00     0.029 A 
ATOM     66  N   UNL A   1      38.699  33.956  31.076  1.00  0.00    -0.354 N 
ATOM     67  N   UNL A   1      42.511  33.249  32.614  1.00  0.00    -0.248 NA
ATOM     68  C   UNL A   1      40.880  32.777  34.215  1.00  0.00     0.031 C 
ATOM     69  C   UNL A   1      39.357  34.629  29.098  1.00  0.00     0.029 A 
ATOM     70  C   UNL A   1      39.804  34.386  30.396  1.00  0.00     0.049 A 
ATOM     71  H   UNL A   1      38.641  33.878  32.056  1.00  0.00     0.167 HD
ATOM     72  C   UNL A   1      41.361  33.927  32.270  1.00  0.00     0.074 A 
ATOM     73  C   UNL A   1      40.462  33.754  33.405  1.00  0.00     0.031 C 
ATOM     74  C   UNL A   1      41.125  34.280  30.975  1.00  0.00     0.031 A 
BRANCH  61  75
ATOM     75  C   UNL A   1      35.831  33.033  31.864  1.00  0.00    -0.014 A 
ATOM     76  C   UNL A   1      34.718  33.849  31.571  1.00  0.00     0.009 A 
ATOM     77  C   UNL A   1      36.165  32.890  33.222  1.00  0.00     0.009 A 
ATOM     78  C   UNL A   1      34.031  34.542  32.575  1.00  0.00     0.001 A 
ATOM     79  C   UNL A   1      35.459  33.555  34.232  1.00  0.00     0.001 A 
ATOM     80  C   UNL A   1      34.409  34.402  33.905  1.00  0.00     0.000 A 
ENDBRANCH  61  75
BRANCH  62  81
ATOM     81  C   UNL A   1      43.497  30.782  34.955  1.00  0.00    -0.014 A 
ATOM     82  C   UNL A   1      42.897  30.084  36.017  1.00  0.00     0.009 A 
ATOM     83  C   UNL A   1      44.896  30.888  34.937  1.00  0.00     0.009 A 
ATOM     84  C   UNL A   1      43.677  29.453  36.992  1.00  0.00     0.001 A 
ATOM     85  C   UNL A   1      45.676  30.255  35.913  1.00  0.00     0.001 A 
ATOM     86  C   UNL A   1      45.066  29.520  36.927  1.00  0.00     0.000 A 
ENDBRANCH  62  81
BRANCH  74  87
ATOM     87  C   UNL A   1      42.312  34.357  30.057  1.00  0.00    -0.014 A 
ATOM     88  C   UNL A   1      42.994  35.551  29.769  1.00  0.00     0.009 A 
ATOM     89  C   UNL A   1      42.789  33.162  29.504  1.00  0.00     0.009 A 
ATOM     90  C   UNL A   1      44.104  35.549  28.919  1.00  0.00     0.001 A 
ATOM     91  C   UNL A   1      43.909  33.157  28.673  1.00  0.00     0.001 A 
ATOM     92  C   UNL A   1      44.561  34.351  28.374  1.00  0.00     0.000 A 
ENDBRANCH  74  87
ENDBRANCH  48  49
ENDBRANCH  40  43
ENDBRANCH  38  39
ENDBRANCH  37  38
ENDBRANCH  36  37
ENDBRANCH   1  36
TORSDOF 17
ENDMDL
MODEL 2
REMARK VINA RESULT:     -12.3      2.935      8.142
REMARK SMILES Cc1c(C(=O)NCCCCCCNC(=O)c2ccc(-c3c4nc(c(-c5ccccc5)c5ccc([nH]5)c(-c5ccccc5)c5nc(c(-c6ccccc6)c6ccc3[nH]6)C=C5)C=C4)cc2)oc2c1/C(=N/NC(=O)C(c1ccccc1)c1ccccc1)CCC2
REMARK SMILES IDX 9 1 8 2 7 3 6 4 4 5 5 6 3 8 1 9 2 10 66 11 64 12 65 13 67 14
REMARK SMILES IDX 87 15 68 16 85 17 86 18 69 19 70 20 71 22 72 23 73 24 74 25
REMARK SMILES IDX 78 26 75 27 77 28 76 29 79 30 80 31 84 32 81 33 83 34 82 35
REMARK SMILES IDX 10 36 11 37 12 38 13 39 14 40 15 42 16 43 17 44 63 45 18 46
REMARK SMILES IDX 62 47 19 48 20 49 21 50 56 51 22 52 61 53 55 54 57 55 23 56
REMARK SMILES IDX 60 57 54 58 53 59 24 61 46 62 31 63 45 64 32 65 35 66 44 67
REMARK SMILES IDX 58 68 33 69 34 70 43 72 59 73 36 74 25 75 26 76 30 77 27 78
REMARK SMILES IDX 29 79 28 80 47 81 48 82 52 83 49 84 51 85 50 86 37 87 38 88
REMARK SMILES IDX 42 89 39 90 41 91 40 92
REMARK H PARENT 6 7 69 21 13 41 57 60 35 71
REMARK Flexibility Score: inf
ROOT
ATOM      1  C   UNL A   1      32.887  29.342  26.750  1.00  0.00     0.002 C 
ENDROOT
BRANCH   1   2
ATOM      2  C   UNL A   1      31.613  29.732  26.001  1.00  0.00     0.021 C 
BRANCH   2   3
ATOM      3  C   UNL A   1      31.700  29.332  24.528  1.00  0.00     0.116 C 
BRANCH   3   4
ATOM      4  N   UNL A   1      30.373  29.150  23.956  1.00  0.00    -0.349 N 
ATOM      5  C   UNL A   1      29.808  28.032  23.379  1.00  0.00     0.287 C 
ATOM      6  O   UNL A   1      28.642  28.106  22.994  1.00  0.00    -0.266 OA
ATOM      7  H   UNL A   1      29.792  29.944  23.986  1.00  0.00     0.163 HD
BRANCH   5   8
ATOM      8  C   UNL A   1      30.605  26.834  23.300  1.00  0.00     0.195 A 
ATOM      9  C   UNL A   1      30.624  25.856  25.682  1.00  0.00     0.049 C 
ATOM     10  C   UNL A   1      31.013  25.902  24.245  1.00  0.00     0.010 A 
ATOM     11  C   UNL A   1      31.894  25.027  23.526  1.00  0.00     0.043 A 
ATOM     12  O   UNL A   1      31.117  26.502  22.085  1.00  0.00    -0.455 OA
ATOM     13  C   UNL A   1      32.011  25.542  22.270  1.00  0.00     0.114 A 
ATOM     14  C   UNL A   1      32.606  23.823  23.870  1.00  0.00     0.072 C 
ATOM     15  C   UNL A   1      32.902  25.189  21.163  1.00  0.00     0.076 C 
ATOM     16  N   UNL A   1      32.527  23.650  25.161  1.00  0.00    -0.177 NA
ATOM     17  C   UNL A   1      33.165  23.068  22.582  1.00  0.00     0.059 C 
ATOM     18  C   UNL A   1      33.054  23.693  21.175  1.00  0.00     0.014 C 
BRANCH  16  19
ATOM     19  N   UNL A   1      32.843  22.785  26.162  1.00  0.00    -0.246 N 
ATOM     20  C   UNL A   1      33.536  21.600  26.221  1.00  0.00     0.252 C 
ATOM     21  H   UNL A   1      32.499  23.072  27.040  1.00  0.00     0.193 HD
ATOM     22  O   UNL A   1      33.533  20.895  27.232  1.00  0.00    -0.272 OA
BRANCH  20  23
ATOM     23  C   UNL A   1      34.336  21.249  24.985  1.00  0.00     0.140 C 
BRANCH  23  24
ATOM     24  C   UNL A   1      35.772  21.861  25.293  1.00  0.00    -0.031 A 
ATOM     25  C   UNL A   1      35.991  23.253  25.616  1.00  0.00     0.005 A 
ATOM     26  C   UNL A   1      36.962  21.144  25.122  1.00  0.00     0.005 A 
ATOM     27  C   UNL A   1      37.212  23.781  26.066  1.00  0.00     0.000 A 
ATOM     28  C   UNL A   1      38.222  21.713  25.455  1.00  0.00     0.000 A 
ATOM     29  C   UNL A   1      38.338  22.993  26.006  1.00  0.00     0.000 A 
ENDBRANCH  23  24
BRANCH  23  30
ATOM     30  C   UNL A   1      33.640  19.815  24.593  1.00  0.00    -0.031 A 
ATOM     31  C   UNL A   1      34.563  18.730  24.702  1.00  0.00     0.005 A 
ATOM     32  C   UNL A   1      32.516  19.479  23.801  1.00  0.00     0.005 A 
ATOM     33  C   UNL A   1      34.482  17.549  23.934  1.00  0.00     0.000 A 
ATOM     34  C   UNL A   1      32.436  18.301  23.011  1.00  0.00     0.000 A 
ATOM     35  C   UNL A   1      33.440  17.355  23.045  1.00  0.00     0.000 A 
ENDBRANCH  23  30
ENDBRANCH  20  23
ENDBRANCH  16  19
ENDBRANCH   5   8
ENDBRANCH   3   4
ENDBRANCH   2   3
ENDBRANCH   1   2
BRANCH   1  36
ATOM     36  C   UNL A   1      33.754  30.538  27.178  1.00  0.00     0.002 C 
BRANCH  36  37
ATOM     37  C   UNL A   1      35.202  30.196  27.562  1.00  0.00     0.021 C 
BRANCH  37  38
ATOM     38  C   UNL A   1      36.009  31.426  27.943  1.00  0.00     0.116 C 
BRANCH  38  39
ATOM     39  N   UNL A   1      35.476  32.046  29.148  1.00  0.00    -0.352 N 
ATOM     40  C   UNL A   1      35.756  31.765  30.469  1.00  0.00     0.251 C 
ATOM     41  H   UNL A   1      34.823  32.767  29.000  1.00  0.00     0.163 HD
ATOM     42  O   UNL A   1      35.015  32.129  31.354  1.00  0.00    -0.269 OA
BRANCH  40  43
ATOM     43  C   UNL A   1      36.971  30.986  30.778  1.00  0.00     0.039 A 
ATOM     44  C   UNL A   1      36.878  29.604  30.936  1.00  0.00     0.014 A 
ATOM     45  C   UNL A   1      38.200  31.637  30.883  1.00  0.00     0.014 A 
ATOM     46  C   UNL A   1      38.047  28.869  31.105  1.00  0.00     0.010 A 
ATOM     47  C   UNL A   1      39.364  30.898  30.943  1.00  0.00     0.010 A 
ATOM     48  C   UNL A   1      39.297  29.514  31.069  1.00  0.00    -0.014 A 
BRANCH  48  49
ATOM     49  C   UNL A   1      40.518  28.706  31.006  1.00  0.00     0.031 A 
ATOM     50  C   UNL A   1      41.257  28.605  32.294  1.00  0.00     0.074 A 
ATOM     51  C   UNL A   1      40.913  27.964  29.948  1.00  0.00     0.049 A 
ATOM     52  N   UNL A   1      42.399  29.136  32.574  1.00  0.00    -0.248 NA
ATOM     53  C   UNL A   1      40.608  27.947  33.440  1.00  0.00     0.031 C 
ATOM     54  C   UNL A   1      40.189  27.711  28.698  1.00  0.00     0.029 A 
ATOM     55  N   UNL A   1      42.034  27.193  29.808  1.00  0.00    -0.354 N 
ATOM     56  C   UNL A   1      42.714  28.726  33.866  1.00  0.00     0.074 A 
ATOM     57  C   UNL A   1      41.521  28.121  34.400  1.00  0.00     0.031 C 
ATOM     58  C   UNL A   1      40.768  26.684  28.036  1.00  0.00     0.029 A 
ATOM     59  C   UNL A   1      42.004  26.338  28.713  1.00  0.00     0.049 A 
ATOM     60  H   UNL A   1      42.796  27.239  30.429  1.00  0.00     0.167 HD
ATOM     61  C   UNL A   1      44.008  28.698  34.289  1.00  0.00     0.031 A 
ATOM     62  C   UNL A   1      42.941  25.430  28.354  1.00  0.00     0.031 A 
ATOM     63  C   UNL A   1      44.876  29.378  33.363  1.00  0.00     0.049 A 
ATOM     64  C   UNL A   1      44.225  25.856  28.941  1.00  0.00     0.074 A 
ATOM     65  C   UNL A   1      45.184  30.677  33.030  1.00  0.00     0.029 A 
ATOM     66  N   UNL A   1      45.321  28.577  32.345  1.00  0.00    -0.354 N 
ATOM     67  N   UNL A   1      44.863  26.918  28.544  1.00  0.00    -0.248 NA
ATOM     68  C   UNL A   1      44.696  25.268  30.186  1.00  0.00     0.031 C 
ATOM     69  C   UNL A   1      45.628  30.639  31.672  1.00  0.00     0.029 A 
ATOM     70  C   UNL A   1      45.614  29.316  31.233  1.00  0.00     0.049 A 
ATOM     71  H   UNL A   1      45.418  27.598  32.407  1.00  0.00     0.167 HD
ATOM     72  C   UNL A   1      45.480  27.382  29.687  1.00  0.00     0.074 A 
ATOM     73  C   UNL A   1      45.518  26.240  30.591  1.00  0.00     0.031 C 
ATOM     74  C   UNL A   1      45.600  28.720  29.915  1.00  0.00     0.031 A 
BRANCH  61  75
ATOM     75  C   UNL A   1      44.578  27.653  35.224  1.00  0.00    -0.014 A 
ATOM     76  C   UNL A   1      44.896  26.386  34.692  1.00  0.00     0.009 A 
ATOM     77  C   UNL A   1      44.511  27.748  36.625  1.00  0.00     0.009 A 
ATOM     78  C   UNL A   1      45.059  25.265  35.514  1.00  0.00     0.001 A 
ATOM     79  C   UNL A   1      44.706  26.636  37.452  1.00  0.00     0.001 A 
ATOM     80  C   UNL A   1      44.953  25.388  36.894  1.00  0.00     0.000 A 
ENDBRANCH  61  75
BRANCH  62  81
ATOM     81  C   UNL A   1      42.840  24.173  27.591  1.00  0.00    -0.014 A 
ATOM     82  C   UNL A   1      42.025  23.125  28.052  1.00  0.00     0.009 A 
ATOM     83  C   UNL A   1      43.289  24.129  26.262  1.00  0.00     0.009 A 
ATOM     84  C   UNL A   1      41.616  22.102  27.189  1.00  0.00     0.001 A 
ATOM     85  C   UNL A   1      42.880  23.105  25.400  1.00  0.00     0.001 A 
ATOM     86  C   UNL A   1      42.026  22.105  25.858  1.00  0.00     0.000 A 
ENDBRANCH  62  81
BRANCH  74  87
ATOM     87  C   UNL A   1      45.504  29.631  28.724  1.00  0.00    -0.014 A 
ATOM     88  C   UNL A   1      46.601  29.968  27.913  1.00  0.00     0.009 A 
ATOM     89  C   UNL A   1      44.239  30.126  28.381  1.00  0.00     0.009 A 
ATOM     90  C   UNL A   1      46.437  30.808  26.808  1.00  0.00     0.001 A 
ATOM     91  C   UNL A   1      44.072  30.947  27.266  1.00  0.00     0.001 A 
ATOM     92  C   UNL A   1      45.172  31.295  26.484  1.00  0.00     0.000 A 
ENDBRANCH  74  87
ENDBRANCH  48  49
ENDBRANCH  40  43
ENDBRANCH  38  39
ENDBRANCH  37  38
ENDBRANCH  36  37
ENDBRANCH   1  36
TORSDOF 17
ENDMDL
MODEL 3
REMARK VINA RESULT:     -12.1      5.003     11.173
REMARK SMILES Cc1c(C(=O)NCCCCCCNC(=O)c2ccc(-c3c4nc(c(-c5ccccc5)c5ccc([nH]5)c(-c5ccccc5)c5nc(c(-c6ccccc6)c6ccc3[nH]6)C=C5)C=C4)cc2)oc2c1/C(=N/NC(=O)C(c1ccccc1)c1ccccc1)CCC2
REMARK SMILES IDX 9 1 8 2 7 3 6 4 4 5 5 6 3 8 1 9 2 10 66 11 64 12 65 13 67 14
REMARK SMILES IDX 87 15 68 16 85 17 86 18 69 19 70 20 71 22 72 23 73 24 74 25
REMARK SMILES IDX 78 26 75 27 77 28 76 29 79 30 80 31 84 32 81 33 83 34 82 35
REMARK SMILES IDX 10 36 11 37 12 38 13 39 14 40 15 42 16 43 17 44 63 45 18 46
REMARK SMILES IDX 62 47 19 48 20 49 21 50 56 51 22 52 61 53 55 54 57 55 23 56
REMARK SMILES IDX 60 57 54 58 53 59 24 61 46 62 31 63 45 64 32 65 35 66 44 67
REMARK SMILES IDX 58 68 33 69 34 70 43 72 59 73 36 74 25 75 26 76 30 77 27 78
REMARK SMILES IDX 29 79 28 80 47 81 48 82 52 83 49 84 51 85 50 86 37 87 38 88
REMARK SMILES IDX 42 89 39 90 41 91 40 92
REMARK H PARENT 6 7 69 21 13 41 57 60 35 71
REMARK Flexibility Score: inf
ROOT
ATOM      1  C   UNL A   1      46.700  28.402  30.522  1.00  0.00     0.002 C 
ENDROOT
BRANCH   1   2
ATOM      2  C   UNL A   1      47.095  29.879  30.527  1.00  0.00     0.021 C 
BRANCH   2   3
ATOM      3  C   UNL A   1      48.422  30.094  29.799  1.00  0.00     0.116 C 
BRANCH   3   4
ATOM      4  N   UNL A   1      48.344  31.237  28.899  1.00  0.00    -0.349 N 
ATOM      5  C   UNL A   1      48.165  31.273  27.533  1.00  0.00     0.287 C 
ATOM      6  O   UNL A   1      48.095  32.373  26.987  1.00  0.00    -0.266 OA
ATOM      7  H   UNL A   1      48.435  32.117  29.333  1.00  0.00     0.163 HD
BRANCH   5   8
ATOM      8  C   UNL A   1      48.028  30.020  26.834  1.00  0.00     0.195 A 
ATOM      9  C   UNL A   1      45.497  29.694  26.486  1.00  0.00     0.049 C 
ATOM     10  C   UNL A   1      46.928  29.289  26.404  1.00  0.00     0.010 A 
ATOM     11  C   UNL A   1      47.487  28.071  25.892  1.00  0.00     0.043 A 
ATOM     12  O   UNL A   1      49.169  29.348  26.525  1.00  0.00    -0.455 OA
ATOM     13  C   UNL A   1      48.827  28.130  26.132  1.00  0.00     0.114 A 
ATOM     14  C   UNL A   1      46.932  26.914  25.238  1.00  0.00     0.072 C 
ATOM     15  C   UNL A   1      49.875  27.116  25.997  1.00  0.00     0.076 C 
ATOM     16  N   UNL A   1      45.631  26.978  25.319  1.00  0.00    -0.177 NA
ATOM     17  C   UNL A   1      48.057  26.007  24.566  1.00  0.00     0.059 C 
ATOM     18  C   UNL A   1      49.558  26.309  24.769  1.00  0.00     0.014 C 
BRANCH  16  19
ATOM     19  N   UNL A   1      44.486  26.362  24.917  1.00  0.00    -0.246 N 
ATOM     20  C   UNL A   1      43.393  25.851  25.574  1.00  0.00     0.252 C 
ATOM     21  H   UNL A   1      44.429  26.260  23.939  1.00  0.00     0.193 HD
ATOM     22  O   UNL A   1      42.550  25.164  24.995  1.00  0.00    -0.272 OA
BRANCH  20  23
ATOM     23  C   UNL A   1      43.273  26.229  27.035  1.00  0.00     0.140 C 
BRANCH  23  24
ATOM     24  C   UNL A   1      41.997  27.179  27.063  1.00  0.00    -0.031 A 
ATOM     25  C   UNL A   1      40.691  26.744  27.505  1.00  0.00     0.005 A 
ATOM     26  C   UNL A   1      41.990  28.467  26.515  1.00  0.00     0.005 A 
ATOM     27  C   UNL A   1      39.597  27.601  27.711  1.00  0.00     0.000 A 
ATOM     28  C   UNL A   1      40.842  29.302  26.604  1.00  0.00     0.000 A 
ATOM     29  C   UNL A   1      39.683  28.903  27.275  1.00  0.00     0.000 A 
ENDBRANCH  23  24
BRANCH  23  30
ATOM     30  C   UNL A   1      43.827  24.849  27.732  1.00  0.00    -0.031 A 
ATOM     31  C   UNL A   1      42.757  24.008  28.167  1.00  0.00     0.005 A 
ATOM     32  C   UNL A   1      45.053  24.516  28.355  1.00  0.00     0.005 A 
ATOM     33  C   UNL A   1      42.856  23.107  29.249  1.00  0.00     0.000 A 
ATOM     34  C   UNL A   1      45.157  23.624  29.456  1.00  0.00     0.000 A 
ATOM     35  C   UNL A   1      44.050  22.951  29.931  1.00  0.00     0.000 A 
ENDBRANCH  23  30
ENDBRANCH  20  23
ENDBRANCH  16  19
ENDBRANCH   5   8
ENDBRANCH   3   4
ENDBRANCH   2   3
ENDBRANCH   1   2
BRANCH   1  36
ATOM     36  C   UNL A   1      47.847  27.444  30.884  1.00  0.00     0.002 C 
BRANCH  36  37
ATOM     37  C   UNL A   1      47.416  26.027  31.293  1.00  0.00     0.021 C 
BRANCH  37  38
ATOM     38  C   UNL A   1      46.902  25.965  32.722  1.00  0.00     0.116 C 
BRANCH  38  39
ATOM     39  N   UNL A   1      45.842  24.975  32.853  1.00  0.00    -0.352 N 
ATOM     40  C   UNL A   1      44.475  25.157  32.860  1.00  0.00     0.251 C 
ATOM     41  H   UNL A   1      46.144  24.043  32.951  1.00  0.00     0.163 HD
ATOM     42  O   UNL A   1      43.735  24.302  33.292  1.00  0.00    -0.269 OA
BRANCH  40  43
ATOM     43  C   UNL A   1      43.935  26.432  32.350  1.00  0.00     0.039 A 
ATOM     44  C   UNL A   1      43.671  26.571  30.988  1.00  0.00     0.014 A 
ATOM     45  C   UNL A   1      43.671  27.474  33.240  1.00  0.00     0.014 A 
ATOM     46  C   UNL A   1      43.049  27.733  30.541  1.00  0.00     0.010 A 
ATOM     47  C   UNL A   1      42.959  28.576  32.813  1.00  0.00     0.010 A 
ATOM     48  C   UNL A   1      42.655  28.721  31.462  1.00  0.00    -0.014 A 
BRANCH  48  49
ATOM     49  C   UNL A   1      41.793  29.817  31.012  1.00  0.00     0.031 A 
ATOM     50  C   UNL A   1      42.526  30.990  30.461  1.00  0.00     0.074 A 
ATOM     51  C   UNL A   1      40.446  29.771  30.930  1.00  0.00     0.049 A 
ATOM     52  N   UNL A   1      42.630  32.158  30.999  1.00  0.00    -0.248 NA
ATOM     53  C   UNL A   1      43.333  30.820  29.242  1.00  0.00     0.031 C 
ATOM     54  C   UNL A   1      39.563  28.622  31.159  1.00  0.00     0.029 A 
ATOM     55  N   UNL A   1      39.573  30.745  30.529  1.00  0.00    -0.354 N 
ATOM     56  C   UNL A   1      43.354  32.937  30.102  1.00  0.00     0.074 A 
ATOM     57  C   UNL A   1      43.881  32.032  29.113  1.00  0.00     0.031 C 
ATOM     58  C   UNL A   1      38.328  28.894  30.680  1.00  0.00     0.029 A 
ATOM     59  C   UNL A   1      38.283  30.291  30.290  1.00  0.00     0.049 A 
ATOM     60  H   UNL A   1      39.838  31.687  30.419  1.00  0.00     0.167 HD
ATOM     61  C   UNL A   1      43.244  34.295  30.116  1.00  0.00     0.031 A 
ATOM     62  C   UNL A   1      37.229  31.011  29.838  1.00  0.00     0.031 A 
ATOM     63  C   UNL A   1      42.550  34.751  31.292  1.00  0.00     0.049 A 
ATOM     64  C   UNL A   1      37.480  32.425  30.168  1.00  0.00     0.074 A 
ATOM     65  C   UNL A   1      42.827  34.923  32.628  1.00  0.00     0.029 A 
ATOM     66  N   UNL A   1      41.188  34.766  31.149  1.00  0.00    -0.354 N 
ATOM     67  N   UNL A   1      37.476  32.875  31.388  1.00  0.00    -0.248 NA
ATOM     68  C   UNL A   1      38.025  33.329  29.166  1.00  0.00     0.031 C 
ATOM     69  C   UNL A   1      41.572  34.815  33.305  1.00  0.00     0.029 A 
ATOM     70  C   UNL A   1      40.568  34.621  32.359  1.00  0.00     0.049 A 
ATOM     71  H   UNL A   1      40.718  34.869  30.290  1.00  0.00     0.167 HD
ATOM     72  C   UNL A   1      38.414  33.886  31.373  1.00  0.00     0.074 A 
ATOM     73  C   UNL A   1      38.557  34.254  29.971  1.00  0.00     0.031 C 
ATOM     74  C   UNL A   1      39.222  34.099  32.450  1.00  0.00     0.031 A 
BRANCH  61  75
ATOM     75  C   UNL A   1      43.281  35.167  28.879  1.00  0.00    -0.014 A 
ATOM     76  C   UNL A   1      44.407  35.992  28.680  1.00  0.00     0.009 A 
ATOM     77  C   UNL A   1      42.148  35.449  28.096  1.00  0.00     0.009 A 
ATOM     78  C   UNL A   1      44.372  37.084  27.804  1.00  0.00     0.001 A 
ATOM     79  C   UNL A   1      42.121  36.519  27.194  1.00  0.00     0.001 A 
ATOM     80  C   UNL A   1      43.224  37.353  27.069  1.00  0.00     0.000 A 
ENDBRANCH  61  75
BRANCH  62  81
ATOM     81  C   UNL A   1      36.028  30.612  29.083  1.00  0.00    -0.014 A 
ATOM     82  C   UNL A   1      34.964  31.514  28.911  1.00  0.00     0.009 A 
ATOM     83  C   UNL A   1      36.066  29.468  28.270  1.00  0.00     0.009 A 
ATOM     84  C   UNL A   1      34.007  31.312  27.911  1.00  0.00     0.001 A 
ATOM     85  C   UNL A   1      35.108  29.268  27.269  1.00  0.00     0.001 A 
ATOM     86  C   UNL A   1      34.093  30.200  27.076  1.00  0.00     0.000 A 
ENDBRANCH  62  81
BRANCH  74  87
ATOM     87  C   UNL A   1      38.755  33.566  33.775  1.00  0.00    -0.014 A 
ATOM     88  C   UNL A   1      37.913  34.278  34.646  1.00  0.00     0.009 A 
ATOM     89  C   UNL A   1      39.142  32.267  34.130  1.00  0.00     0.009 A 
ATOM     90  C   UNL A   1      37.502  33.714  35.857  1.00  0.00     0.001 A 
ATOM     91  C   UNL A   1      38.714  31.696  35.328  1.00  0.00     0.001 A 
ATOM     92  C   UNL A   1      37.901  32.422  36.195  1.00  0.00     0.000 A 
ENDBRANCH  74  87
ENDBRANCH  48  49
ENDBRANCH  40  43
ENDBRANCH  38  39
ENDBRANCH  37  38
ENDBRANCH  36  37
ENDBRANCH   1  36
TORSDOF 17
ENDMDL
