MODEL 1
REMARK VINA RESULT:     -11.0      0.000      0.000
REMARK SMILES CC(C)c1nc(N2C[C@H](C)OC(C)(C)C2)sc1C(=O)NCCCCCCNC(=O)c1ccc(-c2c3nc(c(-c4ccccc4)c4ccc([nH]4)c(-c4ccccc4)c4nc(c(-c5ccccc5)c5ccc2[nH]5)C=C4)C=C3)cc1
REMARK SMILES IDX 24 1 23 2 22 3 21 4 20 5 18 6 19 7 17 9 4 10 5 11 6 12 16 13
REMARK SMILES IDX 2 14 1 15 3 16 7 17 8 18 15 19 9 20 12 21 11 22 10 23 13 24
REMARK SMILES IDX 14 25 25 26 26 27 27 28 28 29 29 31 30 32 31 33 77 34 32 35
REMARK SMILES IDX 76 36 33 37 34 38 35 39 70 40 36 41 75 42 69 43 71 44 37 45
REMARK SMILES IDX 74 46 68 47 67 48 38 50 60 51 45 52 59 53 46 54 49 55 58 56
REMARK SMILES IDX 72 57 47 58 48 59 57 61 73 62 50 63 39 64 40 65 44 66 41 67
REMARK SMILES IDX 43 68 42 69 61 70 62 71 66 72 63 73 65 74 64 75 51 76 52 77
REMARK SMILES IDX 56 78 53 79 55 80 54 81
REMARK H PARENT 20 8 27 30 71 49 49 60
REMARK Flexibility Score: inf
ROOT
ATOM      1  C   UNL A   1      30.739  31.259  25.281  1.00  0.00     0.002 C 
ENDROOT
BRANCH   1   2
ATOM      2  C   UNL A   1      31.096  29.923  24.618  1.00  0.00     0.002 C 
BRANCH   2   3
ATOM      3  C   UNL A   1      30.170  29.532  23.465  1.00  0.00     0.021 C 
BRANCH   3   4
ATOM      4  C   UNL A   1      30.520  28.179  22.834  1.00  0.00     0.116 C 
BRANCH   4   5
ATOM      5  N   UNL A   1      31.866  28.206  22.321  1.00  0.00    -0.351 N 
ATOM      6  C   UNL A   1      33.083  27.738  22.733  1.00  0.00     0.263 C 
ATOM      7  O   UNL A   1      33.980  28.061  21.940  1.00  0.00    -0.268 OA
ATOM      8  H   UNL A   1      31.924  28.677  21.459  1.00  0.00     0.163 HD
BRANCH   6   9
ATOM      9  C   UNL A   1      33.353  26.922  23.916  1.00  0.00     0.117 A 
ATOM     10  C   UNL A   1      33.400  27.038  25.306  1.00  0.00     0.069 A 
ATOM     11  N   UNL A   1      33.691  25.851  25.987  1.00  0.00    -0.224 NA
ATOM     12  C   UNL A   1      34.049  24.896  25.170  1.00  0.00     0.186 A 
ATOM     13  S   UNL A   1      33.854  25.296  23.522  1.00  0.00    -0.091 S 
BRANCH  10  14
ATOM     14  C   UNL A   1      33.236  28.230  26.211  1.00  0.00     0.034 C 
ATOM     15  C   UNL A   1      32.285  27.930  27.373  1.00  0.00     0.014 C 
ATOM     16  C   UNL A   1      34.576  28.731  26.767  1.00  0.00     0.014 C 
ENDBRANCH  10  14
BRANCH  12  17
ATOM     17  N   UNL A   1      34.505  23.683  25.563  1.00  0.00    -0.343 N 
ATOM     18  C   UNL A   1      33.643  22.502  25.558  1.00  0.00     0.150 C 
ATOM     19  C   UNL A   1      35.935  23.413  25.673  1.00  0.00     0.153 C 
ATOM     20  C   UNL A   1      34.128  21.532  24.463  1.00  0.00     0.135 C 
ATOM     21  C   UNL A   1      36.402  22.305  24.690  1.00  0.00     0.081 C 
ATOM     22  O   UNL A   1      35.503  21.170  24.675  1.00  0.00    -0.369 OA
ATOM     23  C   UNL A   1      33.306  20.249  24.470  1.00  0.00     0.040 C 
ATOM     24  C   UNL A   1      36.598  22.850  23.269  1.00  0.00     0.044 C 
ATOM     25  C   UNL A   1      37.745  21.745  25.185  1.00  0.00     0.044 C 
ENDBRANCH  12  17
ENDBRANCH   6   9
ENDBRANCH   4   5
ENDBRANCH   3   4
ENDBRANCH   2   3
ENDBRANCH   1   2
BRANCH   1  26
ATOM     26  C   UNL A   1      31.217  31.420  26.729  1.00  0.00     0.021 C 
BRANCH  26  27
ATOM     27  C   UNL A   1      32.545  32.157  26.886  1.00  0.00     0.116 C 
BRANCH  27  28
ATOM     28  N   UNL A   1      32.354  33.514  27.371  1.00  0.00    -0.352 N 
ATOM     29  C   UNL A   1      33.063  34.214  28.312  1.00  0.00     0.251 C 
ATOM     30  H   UNL A   1      31.603  34.004  26.963  1.00  0.00     0.163 HD
ATOM     31  O   UNL A   1      32.612  35.263  28.770  1.00  0.00    -0.269 OA
BRANCH  29  32
ATOM     32  C   UNL A   1      34.368  33.711  28.784  1.00  0.00     0.039 A 
ATOM     33  C   UNL A   1      34.427  32.995  29.982  1.00  0.00     0.014 A 
ATOM     34  C   UNL A   1      35.539  33.979  28.067  1.00  0.00     0.014 A 
ATOM     35  C   UNL A   1      35.653  32.503  30.438  1.00  0.00     0.010 A 
ATOM     36  C   UNL A   1      36.749  33.436  28.488  1.00  0.00     0.010 A 
ATOM     37  C   UNL A   1      36.819  32.700  29.681  1.00  0.00    -0.014 A 
BRANCH  37  38
ATOM     38  C   UNL A   1      38.125  32.153  30.123  1.00  0.00     0.031 A 
ATOM     39  C   UNL A   1      38.611  30.835  29.587  1.00  0.00     0.074 A 
ATOM     40  C   UNL A   1      38.842  32.808  31.056  1.00  0.00     0.049 A 
ATOM     41  N   UNL A   1      39.687  30.160  29.906  1.00  0.00    -0.248 NA
ATOM     42  C   UNL A   1      37.766  30.177  28.577  1.00  0.00     0.031 C 
ATOM     43  C   UNL A   1      38.462  34.077  31.681  1.00  0.00     0.029 A 
ATOM     44  N   UNL A   1      40.037  32.490  31.649  1.00  0.00    -0.354 N 
ATOM     45  C   UNL A   1      39.635  28.992  29.155  1.00  0.00     0.074 A 
ATOM     46  C   UNL A   1      38.405  29.031  28.395  1.00  0.00     0.031 C 
ATOM     47  C   UNL A   1      39.416  34.439  32.554  1.00  0.00     0.029 A 
ATOM     48  C   UNL A   1      40.454  33.412  32.577  1.00  0.00     0.049 A 
ATOM     49  H   UNL A   1      40.548  31.677  31.430  1.00  0.00     0.167 HD
ATOM     50  C   UNL A   1      40.539  27.987  29.089  1.00  0.00     0.031 A 
ATOM     51  C   UNL A   1      41.546  33.428  33.363  1.00  0.00     0.031 A 
ATOM     52  C   UNL A   1      41.772  27.955  29.830  1.00  0.00     0.049 A 
ATOM     53  C   UNL A   1      42.533  32.298  33.274  1.00  0.00     0.074 A 
ATOM     54  C   UNL A   1      42.779  27.007  29.790  1.00  0.00     0.029 A 
ATOM     55  N   UNL A   1      42.164  28.918  30.746  1.00  0.00    -0.354 N 
ATOM     56  N   UNL A   1      42.499  31.231  32.513  1.00  0.00    -0.248 NA
ATOM     57  C   UNL A   1      43.715  32.383  34.143  1.00  0.00     0.031 C 
ATOM     58  C   UNL A   1      43.763  27.376  30.713  1.00  0.00     0.029 A 
ATOM     59  C   UNL A   1      43.390  28.578  31.292  1.00  0.00     0.049 A 
ATOM     60  H   UNL A   1      41.647  29.724  30.976  1.00  0.00     0.167 HD
ATOM     61  C   UNL A   1      43.667  30.532  32.791  1.00  0.00     0.074 A 
ATOM     62  C   UNL A   1      44.393  31.302  33.780  1.00  0.00     0.031 C 
ATOM     63  C   UNL A   1      44.099  29.358  32.272  1.00  0.00     0.031 A 
BRANCH  50  64
ATOM     64  C   UNL A   1      40.223  26.829  28.184  1.00  0.00    -0.014 A 
ATOM     65  C   UNL A   1      40.718  26.777  26.871  1.00  0.00     0.009 A 
ATOM     66  C   UNL A   1      39.448  25.760  28.661  1.00  0.00     0.009 A 
ATOM     67  C   UNL A   1      40.414  25.694  26.043  1.00  0.00     0.001 A 
ATOM     68  C   UNL A   1      39.169  24.666  27.840  1.00  0.00     0.001 A 
ATOM     69  C   UNL A   1      39.644  24.639  26.528  1.00  0.00     0.000 A 
ENDBRANCH  50  64
BRANCH  51  70
ATOM     70  C   UNL A   1      41.776  34.561  34.295  1.00  0.00    -0.014 A 
ATOM     71  C   UNL A   1      41.300  34.504  35.613  1.00  0.00     0.009 A 
ATOM     72  C   UNL A   1      42.468  35.707  33.872  1.00  0.00     0.009 A 
ATOM     73  C   UNL A   1      41.489  35.580  36.482  1.00  0.00     0.001 A 
ATOM     74  C   UNL A   1      42.678  36.772  34.750  1.00  0.00     0.001 A 
ATOM     75  C   UNL A   1      42.181  36.711  36.051  1.00  0.00     0.000 A 
ENDBRANCH  51  70
BRANCH  63  76
ATOM     76  C   UNL A   1      45.435  28.853  32.736  1.00  0.00    -0.014 A 
ATOM     77  C   UNL A   1      45.545  27.988  33.837  1.00  0.00     0.009 A 
ATOM     78  C   UNL A   1      46.595  29.219  32.037  1.00  0.00     0.009 A 
ATOM     79  C   UNL A   1      46.797  27.524  34.244  1.00  0.00     0.001 A 
ATOM     80  C   UNL A   1      47.842  28.731  32.431  1.00  0.00     0.001 A 
ATOM     81  C   UNL A   1      47.942  27.891  33.539  1.00  0.00     0.000 A 
ENDBRANCH  63  76
ENDBRANCH  37  38
ENDBRANCH  29  32
ENDBRANCH  27  28
ENDBRANCH  26  27
ENDBRANCH   1  26
TORSDOF 15
ENDMDL
MODEL 2
REMARK VINA RESULT:     -10.9      0.696      6.003
REMARK SMILES CC(C)c1nc(N2C[C@H](C)OC(C)(C)C2)sc1C(=O)NCCCCCCNC(=O)c1ccc(-c2c3nc(c(-c4ccccc4)c4ccc([nH]4)c(-c4ccccc4)c4nc(c(-c5ccccc5)c5ccc2[nH]5)C=C4)C=C3)cc1
REMARK SMILES IDX 24 1 23 2 22 3 21 4 20 5 18 6 19 7 17 9 4 10 5 11 6 12 16 13
REMARK SMILES IDX 2 14 1 15 3 16 7 17 8 18 15 19 9 20 12 21 11 22 10 23 13 24
REMARK SMILES IDX 14 25 25 26 26 27 27 28 28 29 29 31 30 32 31 33 77 34 32 35
REMARK SMILES IDX 76 36 33 37 34 38 35 39 70 40 36 41 75 42 69 43 71 44 37 45
REMARK SMILES IDX 74 46 68 47 67 48 38 50 60 51 45 52 59 53 46 54 49 55 58 56
REMARK SMILES IDX 72 57 47 58 48 59 57 61 73 62 50 63 39 64 40 65 44 66 41 67
REMARK SMILES IDX 43 68 42 69 61 70 62 71 66 72 63 73 65 74 64 75 51 76 52 77
REMARK SMILES IDX 56 78 53 79 55 80 54 81
REMARK H PARENT 20 8 27 30 71 49 49 60
REMARK Flexibility Score: inf
ROOT
ATOM      1  C   UNL A   1      31.235  30.418  25.352  1.00  0.00     0.002 C 
ENDROOT
BRANCH   1   2
ATOM      2  C   UNL A   1      30.266  30.274  24.173  1.00  0.00     0.002 C 
BRANCH   2   3
ATOM      3  C   UNL A   1      29.998  28.826  23.758  1.00  0.00     0.021 C 
BRANCH   3   4
ATOM      4  C   UNL A   1      30.666  28.438  22.434  1.00  0.00     0.116 C 
BRANCH   4   5
ATOM      5  N   UNL A   1      32.059  28.807  22.455  1.00  0.00    -0.351 N 
ATOM      6  C   UNL A   1      33.212  28.257  22.943  1.00  0.00     0.263 C 
ATOM      7  O   UNL A   1      34.183  29.001  22.742  1.00  0.00    -0.268 OA
ATOM      8  H   UNL A   1      32.220  29.667  22.006  1.00  0.00     0.163 HD
BRANCH   6   9
ATOM      9  C   UNL A   1      33.356  26.952  23.586  1.00  0.00     0.117 A 
ATOM     10  C   UNL A   1      33.371  26.385  24.861  1.00  0.00     0.069 A 
ATOM     11  N   UNL A   1      33.513  24.992  24.885  1.00  0.00    -0.224 NA
ATOM     12  C   UNL A   1      33.794  24.511  23.702  1.00  0.00     0.186 A 
ATOM     13  S   UNL A   1      33.695  25.667  22.451  1.00  0.00    -0.091 S 
BRANCH  10  14
ATOM     14  C   UNL A   1      33.306  27.009  26.228  1.00  0.00     0.034 C 
ATOM     15  C   UNL A   1      34.075  28.333  26.282  1.00  0.00     0.014 C 
ATOM     16  C   UNL A   1      31.863  27.240  26.698  1.00  0.00     0.014 C 
ENDBRANCH  10  14
BRANCH  12  17
ATOM     17  N   UNL A   1      34.107  23.216  23.458  1.00  0.00    -0.343 N 
ATOM     18  C   UNL A   1      35.488  22.740  23.503  1.00  0.00     0.150 C 
ATOM     19  C   UNL A   1      33.085  22.174  23.487  1.00  0.00     0.153 C 
ATOM     20  C   UNL A   1      35.658  21.806  24.717  1.00  0.00     0.135 C 
ATOM     21  C   UNL A   1      33.346  21.124  24.600  1.00  0.00     0.081 C 
ATOM     22  O   UNL A   1      34.732  20.707  24.647  1.00  0.00    -0.369 OA
ATOM     23  C   UNL A   1      37.064  21.222  24.763  1.00  0.00     0.040 C 
ATOM     24  C   UNL A   1      32.892  21.629  25.976  1.00  0.00     0.044 C 
ATOM     25  C   UNL A   1      32.557  19.848  24.265  1.00  0.00     0.044 C 
ENDBRANCH  12  17
ENDBRANCH   6   9
ENDBRANCH   4   5
ENDBRANCH   3   4
ENDBRANCH   2   3
ENDBRANCH   1   2
BRANCH   1  26
ATOM     26  C   UNL A   1      31.075  31.699  26.178  1.00  0.00     0.021 C 
BRANCH  26  27
ATOM     27  C   UNL A   1      32.333  32.143  26.922  1.00  0.00     0.116 C 
BRANCH  27  28
ATOM     28  N   UNL A   1      32.234  33.521  27.374  1.00  0.00    -0.352 N 
ATOM     29  C   UNL A   1      33.006  34.201  28.280  1.00  0.00     0.251 C 
ATOM     30  H   UNL A   1      31.504  34.044  26.971  1.00  0.00     0.163 HD
ATOM     31  O   UNL A   1      32.630  35.286  28.720  1.00  0.00    -0.269 OA
BRANCH  29  32
ATOM     32  C   UNL A   1      34.292  33.633  28.734  1.00  0.00     0.039 A 
ATOM     33  C   UNL A   1      34.342  32.962  29.959  1.00  0.00     0.014 A 
ATOM     34  C   UNL A   1      35.454  33.797  27.974  1.00  0.00     0.014 A 
ATOM     35  C   UNL A   1      35.547  32.411  30.399  1.00  0.00     0.010 A 
ATOM     36  C   UNL A   1      36.639  33.193  28.382  1.00  0.00     0.010 A 
ATOM     37  C   UNL A   1      36.700  32.502  29.602  1.00  0.00    -0.014 A 
BRANCH  37  38
ATOM     38  C   UNL A   1      37.982  31.889  30.028  1.00  0.00     0.031 A 
ATOM     39  C   UNL A   1      38.896  32.626  30.966  1.00  0.00     0.074 A 
ATOM     40  C   UNL A   1      38.353  30.698  29.519  1.00  0.00     0.049 A 
ATOM     41  N   UNL A   1      40.086  32.288  31.395  1.00  0.00    -0.248 NA
ATOM     42  C   UNL A   1      38.421  33.925  31.471  1.00  0.00     0.031 C 
ATOM     43  C   UNL A   1      37.571  29.899  28.574  1.00  0.00     0.029 A 
ATOM     44  N   UNL A   1      39.490  29.957  29.721  1.00  0.00    -0.354 N 
ATOM     45  C   UNL A   1      40.509  33.340  32.199  1.00  0.00     0.074 A 
ATOM     46  C   UNL A   1      39.469  34.343  32.166  1.00  0.00     0.031 C 
ATOM     47  C   UNL A   1      38.243  28.770  28.294  1.00  0.00     0.029 A 
ATOM     48  C   UNL A   1      39.515  28.783  29.010  1.00  0.00     0.049 A 
ATOM     49  H   UNL A   1      40.219  30.241  30.320  1.00  0.00     0.167 HD
ATOM     50  C   UNL A   1      41.654  33.452  32.913  1.00  0.00     0.031 A 
ATOM     51  C   UNL A   1      40.459  27.826  28.937  1.00  0.00     0.031 A 
ATOM     52  C   UNL A   1      42.682  32.447  32.961  1.00  0.00     0.049 A 
ATOM     53  C   UNL A   1      41.721  27.976  29.738  1.00  0.00     0.074 A 
ATOM     54  C   UNL A   1      43.852  32.444  33.700  1.00  0.00     0.029 A 
ATOM     55  N   UNL A   1      42.660  31.265  32.239  1.00  0.00    -0.354 N 
ATOM     56  N   UNL A   1      42.079  28.949  30.541  1.00  0.00    -0.248 NA
ATOM     57  C   UNL A   1      42.704  26.889  29.632  1.00  0.00     0.031 C 
ATOM     58  C   UNL A   1      44.559  31.277  33.392  1.00  0.00     0.029 A 
ATOM     59  C   UNL A   1      43.805  30.532  32.500  1.00  0.00     0.049 A 
ATOM     60  H   UNL A   1      41.938  30.987  31.630  1.00  0.00     0.167 HD
ATOM     61  C   UNL A   1      43.314  28.578  31.057  1.00  0.00     0.074 A 
ATOM     62  C   UNL A   1      43.637  27.286  30.486  1.00  0.00     0.031 C 
ATOM     63  C   UNL A   1      44.109  29.247  31.926  1.00  0.00     0.031 A 
BRANCH  50  64
ATOM     64  C   UNL A   1      41.857  34.716  33.702  1.00  0.00    -0.014 A 
ATOM     65  C   UNL A   1      41.345  34.851  35.002  1.00  0.00     0.009 A 
ATOM     66  C   UNL A   1      42.597  35.773  33.150  1.00  0.00     0.009 A 
ATOM     67  C   UNL A   1      41.542  36.032  35.721  1.00  0.00     0.001 A 
ATOM     68  C   UNL A   1      42.816  36.942  33.881  1.00  0.00     0.001 A 
ATOM     69  C   UNL A   1      42.280  37.074  35.162  1.00  0.00     0.000 A 
ENDBRANCH  50  64
BRANCH  51  70
ATOM     70  C   UNL A   1      40.241  26.629  28.085  1.00  0.00    -0.014 A 
ATOM     71  C   UNL A   1      39.528  25.527  28.580  1.00  0.00     0.009 A 
ATOM     72  C   UNL A   1      40.745  26.581  26.777  1.00  0.00     0.009 A 
ATOM     73  C   UNL A   1      39.348  24.389  27.792  1.00  0.00     0.001 A 
ATOM     74  C   UNL A   1      40.541  25.452  25.981  1.00  0.00     0.001 A 
ATOM     75  C   UNL A   1      39.850  24.354  26.491  1.00  0.00     0.000 A 
ENDBRANCH  51  70
BRANCH  63  76
ATOM     76  C   UNL A   1      45.387  28.578  32.342  1.00  0.00    -0.014 A 
ATOM     77  C   UNL A   1      46.567  28.735  31.599  1.00  0.00     0.009 A 
ATOM     78  C   UNL A   1      45.417  27.810  33.516  1.00  0.00     0.009 A 
ATOM     79  C   UNL A   1      47.747  28.112  32.011  1.00  0.00     0.001 A 
ATOM     80  C   UNL A   1      46.603  27.210  33.940  1.00  0.00     0.001 A 
ATOM     81  C   UNL A   1      47.764  27.355  33.182  1.00  0.00     0.000 A 
ENDBRANCH  63  76
ENDBRANCH  37  38
ENDBRANCH  29  32
ENDBRANCH  27  28
ENDBRANCH  26  27
ENDBRANCH   1  26
TORSDOF 15
ENDMDL
MODEL 3
REMARK VINA RESULT:     -10.9      0.631      1.744
REMARK SMILES CC(C)c1nc(N2C[C@H](C)OC(C)(C)C2)sc1C(=O)NCCCCCCNC(=O)c1ccc(-c2c3nc(c(-c4ccccc4)c4ccc([nH]4)c(-c4ccccc4)c4nc(c(-c5ccccc5)c5ccc2[nH]5)C=C4)C=C3)cc1
REMARK SMILES IDX 24 1 23 2 22 3 21 4 20 5 18 6 19 7 17 9 4 10 5 11 6 12 16 13
REMARK SMILES IDX 2 14 1 15 3 16 7 17 8 18 15 19 9 20 12 21 11 22 10 23 13 24
REMARK SMILES IDX 14 25 25 26 26 27 27 28 28 29 29 31 30 32 31 33 77 34 32 35
REMARK SMILES IDX 76 36 33 37 34 38 35 39 70 40 36 41 75 42 69 43 71 44 37 45
REMARK SMILES IDX 74 46 68 47 67 48 38 50 60 51 45 52 59 53 46 54 49 55 58 56
REMARK SMILES IDX 72 57 47 58 48 59 57 61 73 62 50 63 39 64 40 65 44 66 41 67
REMARK SMILES IDX 43 68 42 69 61 70 62 71 66 72 63 73 65 74 64 75 51 76 52 77
REMARK SMILES IDX 56 78 53 79 55 80 54 81
REMARK H PARENT 20 8 27 30 71 49 49 60
REMARK Flexibility Score: inf
ROOT
ATOM      1  C   UNL A   1      31.250  30.388  25.296  1.00  0.00     0.002 C 
ENDROOT
BRANCH   1   2
ATOM      2  C   UNL A   1      30.263  30.244  24.131  1.00  0.00     0.002 C 
BRANCH   2   3
ATOM      3  C   UNL A   1      29.949  28.795  23.755  1.00  0.00     0.021 C 
BRANCH   3   4
ATOM      4  C   UNL A   1      30.594  28.354  22.436  1.00  0.00     0.116 C 
BRANCH   4   5
ATOM      5  N   UNL A   1      31.985  28.732  22.415  1.00  0.00    -0.351 N 
ATOM      6  C   UNL A   1      33.155  28.198  22.879  1.00  0.00     0.263 C 
ATOM      7  O   UNL A   1      34.115  28.945  22.642  1.00  0.00    -0.268 OA
ATOM      8  H   UNL A   1      32.128  29.587  21.950  1.00  0.00     0.163 HD
BRANCH   6   9
ATOM      9  C   UNL A   1      33.325  26.903  23.536  1.00  0.00     0.117 A 
ATOM     10  C   UNL A   1      33.350  26.350  24.817  1.00  0.00     0.069 A 
ATOM     11  N   UNL A   1      33.521  24.961  24.857  1.00  0.00    -0.224 NA
ATOM     12  C   UNL A   1      33.814  24.473  23.680  1.00  0.00     0.186 A 
ATOM     13  S   UNL A   1      33.692  25.614  22.416  1.00  0.00    -0.091 S 
BRANCH  10  14
ATOM     14  C   UNL A   1      33.270  26.988  26.178  1.00  0.00     0.034 C 
ATOM     15  C   UNL A   1      34.056  28.302  26.233  1.00  0.00     0.014 C 
ATOM     16  C   UNL A   1      31.823  27.241  26.622  1.00  0.00     0.014 C 
ENDBRANCH  10  14
BRANCH  12  17
ATOM     17  N   UNL A   1      34.154  23.182  23.450  1.00  0.00    -0.343 N 
ATOM     18  C   UNL A   1      35.527  22.710  23.620  1.00  0.00     0.150 C 
ATOM     19  C   UNL A   1      33.139  22.137  23.367  1.00  0.00     0.153 C 
ATOM     20  C   UNL A   1      35.584  21.760  24.832  1.00  0.00     0.135 C 
ATOM     21  C   UNL A   1      33.297  21.073  24.486  1.00  0.00     0.081 C 
ATOM     22  O   UNL A   1      34.674  20.660  24.660  1.00  0.00    -0.369 OA
ATOM     23  C   UNL A   1      36.982  21.180  25.005  1.00  0.00     0.040 C 
ATOM     24  C   UNL A   1      32.711  21.558  25.819  1.00  0.00     0.044 C 
ATOM     25  C   UNL A   1      32.548  19.800  24.061  1.00  0.00     0.044 C 
ENDBRANCH  12  17
ENDBRANCH   6   9
ENDBRANCH   4   5
ENDBRANCH   3   4
ENDBRANCH   2   3
ENDBRANCH   1   2
BRANCH   1  26
ATOM     26  C   UNL A   1      31.069  31.644  26.156  1.00  0.00     0.021 C 
BRANCH  26  27
ATOM     27  C   UNL A   1      32.317  32.082  26.920  1.00  0.00     0.116 C 
BRANCH  27  28
ATOM     28  N   UNL A   1      32.226  33.469  27.349  1.00  0.00    -0.352 N 
ATOM     29  C   UNL A   1      33.016  34.165  28.227  1.00  0.00     0.251 C 
ATOM     30  H   UNL A   1      31.489  33.985  26.950  1.00  0.00     0.163 HD
ATOM     31  O   UNL A   1      32.648  35.258  28.654  1.00  0.00    -0.269 OA
BRANCH  29  32
ATOM     32  C   UNL A   1      34.309  33.604  28.667  1.00  0.00     0.039 A 
ATOM     33  C   UNL A   1      35.451  33.849  27.900  1.00  0.00     0.014 A 
ATOM     34  C   UNL A   1      34.389  32.806  29.813  1.00  0.00     0.014 A 
ATOM     35  C   UNL A   1      36.684  33.335  28.308  1.00  0.00     0.010 A 
ATOM     36  C   UNL A   1      35.627  32.347  30.252  1.00  0.00     0.010 A 
ATOM     37  C   UNL A   1      36.785  32.600  29.499  1.00  0.00    -0.014 A 
BRANCH  37  38
ATOM     38  C   UNL A   1      38.090  32.078  29.975  1.00  0.00     0.031 A 
ATOM     39  C   UNL A   1      38.602  30.757  29.473  1.00  0.00     0.074 A 
ATOM     40  C   UNL A   1      38.782  32.762  30.906  1.00  0.00     0.049 A 
ATOM     41  N   UNL A   1      39.681  30.102  29.824  1.00  0.00    -0.248 NA
ATOM     42  C   UNL A   1      37.784  30.068  28.463  1.00  0.00     0.031 C 
ATOM     43  C   UNL A   1      38.376  34.038  31.498  1.00  0.00     0.029 A 
ATOM     44  N   UNL A   1      39.971  32.472  31.525  1.00  0.00    -0.354 N 
ATOM     45  C   UNL A   1      39.658  28.919  29.096  1.00  0.00     0.074 A 
ATOM     46  C   UNL A   1      38.440  28.927  28.315  1.00  0.00     0.031 C 
ATOM     47  C   UNL A   1      39.310  34.430  32.379  1.00  0.00     0.029 A 
ATOM     48  C   UNL A   1      40.360  33.418  32.441  1.00  0.00     0.049 A 
ATOM     49  H   UNL A   1      40.497  31.661  31.331  1.00  0.00     0.167 HD
ATOM     50  C   UNL A   1      40.576  27.925  29.066  1.00  0.00     0.031 A 
ATOM     51  C   UNL A   1      41.439  33.464  33.245  1.00  0.00     0.031 A 
ATOM     52  C   UNL A   1      41.795  27.924  29.828  1.00  0.00     0.049 A 
ATOM     53  C   UNL A   1      42.441  32.346  33.195  1.00  0.00     0.074 A 
ATOM     54  C   UNL A   1      42.816  26.989  29.824  1.00  0.00     0.029 A 
ATOM     55  N   UNL A   1      42.159  28.911  30.731  1.00  0.00    -0.354 N 
ATOM     56  N   UNL A   1      42.434  31.263  32.456  1.00  0.00    -0.248 NA
ATOM     57  C   UNL A   1      43.608  32.464  34.082  1.00  0.00     0.031 C 
ATOM     58  C   UNL A   1      43.778  27.390  30.756  1.00  0.00     0.029 A 
ATOM     59  C   UNL A   1      43.380  28.598  31.304  1.00  0.00     0.049 A 
ATOM     60  H   UNL A   1      41.629  29.715  30.935  1.00  0.00     0.167 HD
ATOM     61  C   UNL A   1      43.606  30.585  32.767  1.00  0.00     0.074 A 
ATOM     62  C   UNL A   1      44.305  31.385  33.753  1.00  0.00     0.031 C 
ATOM     63  C   UNL A   1      44.063  29.407  32.279  1.00  0.00     0.031 A 
BRANCH  50  64
ATOM     64  C   UNL A   1      40.290  26.745  28.179  1.00  0.00    -0.014 A 
ATOM     65  C   UNL A   1      39.498  25.675  28.626  1.00  0.00     0.009 A 
ATOM     66  C   UNL A   1      40.790  26.718  26.868  1.00  0.00     0.009 A 
ATOM     67  C   UNL A   1      39.242  24.586  27.790  1.00  0.00     0.001 A 
ATOM     68  C   UNL A   1      40.510  25.641  26.025  1.00  0.00     0.001 A 
ATOM     69  C   UNL A   1      39.745  24.572  26.490  1.00  0.00     0.000 A 
ENDBRANCH  50  64
BRANCH  51  70
ATOM     70  C   UNL A   1      41.638  34.619  34.157  1.00  0.00    -0.014 A 
ATOM     71  C   UNL A   1      42.343  35.752  33.724  1.00  0.00     0.009 A 
ATOM     72  C   UNL A   1      41.130  34.594  35.464  1.00  0.00     0.009 A 
ATOM     73  C   UNL A   1      42.557  36.826  34.589  1.00  0.00     0.001 A 
ATOM     74  C   UNL A   1      41.323  35.681  36.320  1.00  0.00     0.001 A 
ATOM     75  C   UNL A   1      42.044  36.792  35.885  1.00  0.00     0.000 A 
ENDBRANCH  51  70
BRANCH  63  76
ATOM     76  C   UNL A   1      45.397  28.930  32.777  1.00  0.00    -0.014 A 
ATOM     77  C   UNL A   1      46.587  29.283  32.122  1.00  0.00     0.009 A 
ATOM     78  C   UNL A   1      45.464  28.147  33.939  1.00  0.00     0.009 A 
ATOM     79  C   UNL A   1      47.817  28.837  32.608  1.00  0.00     0.001 A 
ATOM     80  C   UNL A   1      46.697  27.725  34.438  1.00  0.00     0.001 A 
ATOM     81  C   UNL A   1      47.871  28.063  33.767  1.00  0.00     0.000 A 
ENDBRANCH  63  76
ENDBRANCH  37  38
ENDBRANCH  29  32
ENDBRANCH  27  28
ENDBRANCH  26  27
ENDBRANCH   1  26
TORSDOF 15
ENDMDL
