MODEL 1
REMARK VINA RESULT:     -11.7      0.000      0.000
REMARK SMILES Nc1c(Cl)ccc2c1C=C(C(=O)NCCCCCCNC(=O)c1ccc(-c3c4nc(c(-c5ccccc5)c5ccc([nH]5)c(-c5ccccc5)c5nc(c(-c6ccccc6)c6ccc3[nH]6)C=C5)C=C4)cc1)[C@@H](C(F)(F)F)O2
REMARK SMILES IDX 17 1 16 2 15 3 14 4 13 5 11 6 12 7 10 9 2 10 3 11 8 12 4 13
REMARK SMILES IDX 5 14 7 15 9 16 6 17 76 18 71 19 1 20 72 23 73 24 74 25 75 26
REMARK SMILES IDX 18 27 19 28 20 29 21 30 22 32 23 33 24 34 70 35 25 36 69 37
REMARK SMILES IDX 26 38 27 39 28 40 63 41 29 42 68 43 62 44 64 45 30 46 67 47
REMARK SMILES IDX 61 48 60 49 31 51 53 52 38 53 52 54 39 55 42 56 51 57 65 58
REMARK SMILES IDX 40 59 41 60 50 62 66 63 43 64 32 65 33 66 37 67 34 68 36 69
REMARK SMILES IDX 35 70 54 71 55 72 59 73 56 74 58 75 57 76 44 77 45 78 49 79
REMARK SMILES IDX 46 80 48 81 47 82
REMARK H PARENT 13 8 1 21 1 22 20 31 64 50 42 61
REMARK Flexibility Score: inf
ROOT
ATOM      1  C   UNL A   1      31.964  29.724  25.345  1.00  0.00     0.002 C 
ENDROOT
BRANCH   1   2
ATOM      2  C   UNL A   1      33.343  29.162  25.716  1.00  0.00     0.002 C 
BRANCH   2   3
ATOM      3  C   UNL A   1      33.955  28.186  24.704  1.00  0.00     0.021 C 
BRANCH   3   4
ATOM      4  C   UNL A   1      33.869  26.719  25.115  1.00  0.00     0.116 C 
BRANCH   4   5
ATOM      5  N   UNL A   1      33.548  25.863  23.989  1.00  0.00    -0.352 N 
ATOM      6  C   UNL A   1      32.477  25.616  23.201  1.00  0.00     0.251 C 
ATOM      7  O   UNL A   1      32.665  24.771  22.320  1.00  0.00    -0.270 OA
ATOM      8  H   UNL A   1      34.320  25.312  23.726  1.00  0.00     0.163 HD
BRANCH   6   9
ATOM      9  C   UNL A   1      31.137  26.270  23.319  1.00  0.00     0.067 C 
ATOM     10  C   UNL A   1      29.628  29.514  22.228  1.00  0.00     0.061 A 
ATOM     11  C   UNL A   1      28.376  30.158  22.369  1.00  0.00     0.064 A 
ATOM     12  C   UNL A   1      29.765  28.204  22.746  1.00  0.00     0.042 A 
ATOM     13  Cl  UNL A   1      28.145  31.777  21.793  1.00  0.00    -0.082 Cl
ATOM     14  C   UNL A   1      27.283  29.515  22.952  1.00  0.00     0.026 A 
ATOM     15  C   UNL A   1      28.660  27.578  23.339  1.00  0.00     0.130 A 
ATOM     16  C   UNL A   1      31.013  27.439  22.664  1.00  0.00     0.027 C 
ATOM     17  C   UNL A   1      27.425  28.219  23.431  1.00  0.00     0.049 A 
ATOM     18  O   UNL A   1      28.692  26.305  23.828  1.00  0.00    -0.475 OA
ATOM     19  C   UNL A   1      29.993  25.738  24.133  1.00  0.00     0.314 C 
BRANCH  10  20
ATOM     20  N   UNL A   1      30.710  30.216  21.690  1.00  0.00    -0.397 N 
ATOM     21  H   UNL A   1      31.579  30.212  22.152  1.00  0.00     0.156 HD
ATOM     22  H   UNL A   1      30.602  30.716  20.848  1.00  0.00     0.156 HD
ENDBRANCH  10  20
BRANCH  19  23
ATOM     23  C   UNL A   1      30.235  25.829  25.649  1.00  0.00     0.429 C 
ATOM     24  F   UNL A   1      29.097  25.536  26.327  1.00  0.00    -0.167 F 
ATOM     25  F   UNL A   1      31.170  24.950  26.082  1.00  0.00    -0.167 F 
ATOM     26  F   UNL A   1      30.634  27.059  26.040  1.00  0.00    -0.167 F 
ENDBRANCH  19  23
ENDBRANCH   6   9
ENDBRANCH   4   5
ENDBRANCH   3   4
ENDBRANCH   2   3
ENDBRANCH   1   2
BRANCH   1  27
ATOM     27  C   UNL A   1      31.508  30.945  26.148  1.00  0.00     0.021 C 
BRANCH  27  28
ATOM     28  C   UNL A   1      32.586  31.571  27.026  1.00  0.00     0.116 C 
BRANCH  28  29
ATOM     29  N   UNL A   1      32.295  32.959  27.345  1.00  0.00    -0.352 N 
ATOM     30  C   UNL A   1      33.007  33.818  28.143  1.00  0.00     0.251 C 
ATOM     31  H   UNL A   1      31.482  33.331  26.934  1.00  0.00     0.163 HD
ATOM     32  O   UNL A   1      32.553  34.914  28.454  1.00  0.00    -0.269 OA
BRANCH  30  33
ATOM     33  C   UNL A   1      34.327  33.394  28.645  1.00  0.00     0.039 A 
ATOM     34  C   UNL A   1      34.396  32.667  29.834  1.00  0.00     0.014 A 
ATOM     35  C   UNL A   1      35.485  33.693  27.919  1.00  0.00     0.014 A 
ATOM     36  C   UNL A   1      35.630  32.185  30.271  1.00  0.00     0.010 A 
ATOM     37  C   UNL A   1      36.708  33.174  28.332  1.00  0.00     0.010 A 
ATOM     38  C   UNL A   1      36.789  32.416  29.511  1.00  0.00    -0.014 A 
BRANCH  38  39
ATOM     39  C   UNL A   1      38.094  31.870  29.947  1.00  0.00     0.031 A 
ATOM     40  C   UNL A   1      38.920  32.612  30.956  1.00  0.00     0.074 A 
ATOM     41  C   UNL A   1      38.542  30.717  29.416  1.00  0.00     0.049 A 
ATOM     42  N   UNL A   1      40.074  32.280  31.474  1.00  0.00    -0.248 NA
ATOM     43  C   UNL A   1      38.390  33.898  31.438  1.00  0.00     0.031 C 
ATOM     44  C   UNL A   1      37.842  29.921  28.407  1.00  0.00     0.029 A 
ATOM     45  N   UNL A   1      39.692  30.009  29.661  1.00  0.00    -0.354 N 
ATOM     46  C   UNL A   1      40.405  33.309  32.342  1.00  0.00     0.074 A 
ATOM     47  C   UNL A   1      39.357  34.301  32.250  1.00  0.00     0.031 C 
ATOM     48  C   UNL A   1      38.559  28.816  28.146  1.00  0.00     0.029 A 
ATOM     49  C   UNL A   1      39.777  28.837  28.950  1.00  0.00     0.049 A 
ATOM     50  H   UNL A   1      40.389  30.312  30.287  1.00  0.00     0.167 HD
ATOM     51  C   UNL A   1      41.475  33.407  33.163  1.00  0.00     0.031 A 
ATOM     52  C   UNL A   1      40.724  27.879  28.955  1.00  0.00     0.031 A 
ATOM     53  C   UNL A   1      42.507  32.415  33.269  1.00  0.00     0.049 A 
ATOM     54  C   UNL A   1      41.914  28.018  29.861  1.00  0.00     0.074 A 
ATOM     55  C   UNL A   1      43.605  32.407  34.111  1.00  0.00     0.029 A 
ATOM     56  N   UNL A   1      42.567  31.257  32.512  1.00  0.00    -0.354 N 
ATOM     57  N   UNL A   1      42.187  28.976  30.712  1.00  0.00    -0.248 NA
ATOM     58  C   UNL A   1      42.921  26.948  29.813  1.00  0.00     0.031 C 
ATOM     59  C   UNL A   1      44.349  31.256  33.840  1.00  0.00     0.029 A 
ATOM     60  C   UNL A   1      43.694  30.533  32.856  1.00  0.00     0.049 A 
ATOM     61  H   UNL A   1      41.907  30.989  31.833  1.00  0.00     0.167 HD
ATOM     62  C   UNL A   1      43.383  28.616  31.316  1.00  0.00     0.074 A 
ATOM     63  C   UNL A   1      43.786  27.352  30.736  1.00  0.00     0.031 C 
ATOM     64  C   UNL A   1      44.078  29.275  32.272  1.00  0.00     0.031 A 
BRANCH  51  65
ATOM     65  C   UNL A   1      41.577  34.622  34.036  1.00  0.00    -0.014 A 
ATOM     66  C   UNL A   1      40.978  34.642  35.304  1.00  0.00     0.009 A 
ATOM     67  C   UNL A   1      42.343  35.721  33.622  1.00  0.00     0.009 A 
ATOM     68  C   UNL A   1      41.135  35.749  36.139  1.00  0.00     0.001 A 
ATOM     69  C   UNL A   1      42.513  36.819  34.467  1.00  0.00     0.001 A 
ATOM     70  C   UNL A   1      41.906  36.833  35.722  1.00  0.00     0.000 A 
ENDBRANCH  51  65
BRANCH  52  71
ATOM     71  C   UNL A   1      40.547  26.678  28.102  1.00  0.00    -0.014 A 
ATOM     72  C   UNL A   1      39.809  25.581  28.573  1.00  0.00     0.009 A 
ATOM     73  C   UNL A   1      41.064  26.644  26.797  1.00  0.00     0.009 A 
ATOM     74  C   UNL A   1      39.595  24.471  27.753  1.00  0.00     0.001 A 
ATOM     75  C   UNL A   1      40.834  25.538  25.976  1.00  0.00     0.001 A 
ATOM     76  C   UNL A   1      40.102  24.452  26.455  1.00  0.00     0.000 A 
ENDBRANCH  52  71
BRANCH  64  77
ATOM     77  C   UNL A   1      45.346  28.658  32.779  1.00  0.00    -0.014 A 
ATOM     78  C   UNL A   1      46.585  29.016  32.229  1.00  0.00     0.009 A 
ATOM     79  C   UNL A   1      45.310  27.830  33.912  1.00  0.00     0.009 A 
ATOM     80  C   UNL A   1      47.768  28.561  32.813  1.00  0.00     0.001 A 
ATOM     81  C   UNL A   1      46.495  27.390  34.501  1.00  0.00     0.001 A 
ATOM     82  C   UNL A   1      47.723  27.758  33.952  1.00  0.00     0.000 A 
ENDBRANCH  64  77
ENDBRANCH  38  39
ENDBRANCH  30  33
ENDBRANCH  28  29
ENDBRANCH  27  28
ENDBRANCH   1  27
TORSDOF 15
ENDMDL
MODEL 2
REMARK VINA RESULT:     -11.7      4.558      9.151
REMARK SMILES Nc1c(Cl)ccc2c1C=C(C(=O)NCCCCCCNC(=O)c1ccc(-c3c4nc(c(-c5ccccc5)c5ccc([nH]5)c(-c5ccccc5)c5nc(c(-c6ccccc6)c6ccc3[nH]6)C=C5)C=C4)cc1)[C@@H](C(F)(F)F)O2
REMARK SMILES IDX 17 1 16 2 15 3 14 4 13 5 11 6 12 7 10 9 2 10 3 11 8 12 4 13
REMARK SMILES IDX 5 14 7 15 9 16 6 17 76 18 71 19 1 20 72 23 73 24 74 25 75 26
REMARK SMILES IDX 18 27 19 28 20 29 21 30 22 32 23 33 24 34 70 35 25 36 69 37
REMARK SMILES IDX 26 38 27 39 28 40 63 41 29 42 68 43 62 44 64 45 30 46 67 47
REMARK SMILES IDX 61 48 60 49 31 51 53 52 38 53 52 54 39 55 42 56 51 57 65 58
REMARK SMILES IDX 40 59 41 60 50 62 66 63 43 64 32 65 33 66 37 67 34 68 36 69
REMARK SMILES IDX 35 70 54 71 55 72 59 73 56 74 58 75 57 76 44 77 45 78 49 79
REMARK SMILES IDX 46 80 48 81 47 82
REMARK H PARENT 13 8 1 21 1 22 20 31 64 50 42 61
REMARK Flexibility Score: inf
ROOT
ATOM      1  C   UNL A   1      36.092  20.909  25.258  1.00  0.00     0.002 C 
ENDROOT
BRANCH   1   2
ATOM      2  C   UNL A   1      36.262  22.375  25.678  1.00  0.00     0.002 C 
BRANCH   2   3
ATOM      3  C   UNL A   1      35.112  22.967  26.501  1.00  0.00     0.021 C 
BRANCH   3   4
ATOM      4  C   UNL A   1      34.512  24.243  25.917  1.00  0.00     0.116 C 
BRANCH   4   5
ATOM      5  N   UNL A   1      33.067  24.262  26.035  1.00  0.00    -0.352 N 
ATOM      6  C   UNL A   1      32.020  23.556  25.551  1.00  0.00     0.251 C 
ATOM      7  O   UNL A   1      30.911  23.939  25.941  1.00  0.00    -0.270 OA
ATOM      8  H   UNL A   1      32.766  24.986  26.631  1.00  0.00     0.163 HD
BRANCH   6   9
ATOM      9  C   UNL A   1      32.109  22.391  24.617  1.00  0.00     0.067 C 
ATOM     10  C   UNL A   1      32.751  18.722  24.955  1.00  0.00     0.061 A 
ATOM     11  C   UNL A   1      32.877  17.621  24.075  1.00  0.00     0.064 A 
ATOM     12  C   UNL A   1      32.415  19.981  24.402  1.00  0.00     0.042 A 
ATOM     13  Cl  UNL A   1      33.322  16.057  24.676  1.00  0.00    -0.082 Cl
ATOM     14  C   UNL A   1      32.630  17.744  22.707  1.00  0.00     0.026 A 
ATOM     15  C   UNL A   1      32.183  20.089  23.024  1.00  0.00     0.130 A 
ATOM     16  C   UNL A   1      32.262  21.193  25.211  1.00  0.00     0.027 C 
ATOM     17  C   UNL A   1      32.275  18.980  22.183  1.00  0.00     0.049 A 
ATOM     18  O   UNL A   1      31.817  21.253  22.413  1.00  0.00    -0.475 OA
ATOM     19  C   UNL A   1      32.089  22.491  23.120  1.00  0.00     0.314 C 
BRANCH  10  20
ATOM     20  N   UNL A   1      33.063  18.565  26.308  1.00  0.00    -0.397 N 
ATOM     21  H   UNL A   1      33.898  18.115  26.572  1.00  0.00     0.156 HD
ATOM     22  H   UNL A   1      32.447  18.904  26.998  1.00  0.00     0.156 HD
ENDBRANCH  10  20
BRANCH  19  23
ATOM     23  C   UNL A   1      33.361  23.130  22.538  1.00  0.00     0.429 C 
ATOM     24  F   UNL A   1      34.466  22.529  23.045  1.00  0.00    -0.167 F 
ATOM     25  F   UNL A   1      33.442  22.999  21.193  1.00  0.00    -0.167 F 
ATOM     26  F   UNL A   1      33.454  24.450  22.814  1.00  0.00    -0.167 F 
ENDBRANCH  19  23
ENDBRANCH   6   9
ENDBRANCH   4   5
ENDBRANCH   3   4
ENDBRANCH   2   3
ENDBRANCH   1   2
BRANCH   1  27
ATOM     27  C   UNL A   1      37.383  20.170  24.894  1.00  0.00     0.021 C 
BRANCH  27  28
ATOM     28  C   UNL A   1      38.610  20.600  25.689  1.00  0.00     0.116 C 
BRANCH  28  29
ATOM     29  N   UNL A   1      39.642  19.576  25.699  1.00  0.00    -0.352 N 
ATOM     30  C   UNL A   1      40.969  19.705  26.021  1.00  0.00     0.251 C 
ATOM     31  H   UNL A   1      39.350  18.672  25.443  1.00  0.00     0.163 HD
ATOM     32  O   UNL A   1      41.759  18.788  25.826  1.00  0.00    -0.269 OA
BRANCH  30  33
ATOM     33  C   UNL A   1      41.443  20.982  26.588  1.00  0.00     0.039 A 
ATOM     34  C   UNL A   1      41.925  21.967  25.726  1.00  0.00     0.014 A 
ATOM     35  C   UNL A   1      41.378  21.206  27.968  1.00  0.00     0.014 A 
ATOM     36  C   UNL A   1      42.293  23.209  26.242  1.00  0.00     0.010 A 
ATOM     37  C   UNL A   1      41.702  22.460  28.476  1.00  0.00     0.010 A 
ATOM     38  C   UNL A   1      42.161  23.471  27.617  1.00  0.00    -0.014 A 
BRANCH  38  39
ATOM     39  C   UNL A   1      42.508  24.801  28.165  1.00  0.00     0.031 A 
ATOM     40  C   UNL A   1      43.931  25.126  28.505  1.00  0.00     0.074 A 
ATOM     41  C   UNL A   1      41.534  25.707  28.375  1.00  0.00     0.049 A 
ATOM     42  N   UNL A   1      44.429  26.243  28.972  1.00  0.00    -0.248 NA
ATOM     43  C   UNL A   1      44.926  24.059  28.309  1.00  0.00     0.031 C 
ATOM     44  C   UNL A   1      40.109  25.496  28.109  1.00  0.00     0.029 A 
ATOM     45  N   UNL A   1      41.598  26.993  28.851  1.00  0.00    -0.354 N 
ATOM     46  C   UNL A   1      45.788  26.014  29.120  1.00  0.00     0.074 A 
ATOM     47  C   UNL A   1      46.036  24.641  28.741  1.00  0.00     0.031 C 
ATOM     48  C   UNL A   1      39.440  26.625  28.392  1.00  0.00     0.029 A 
ATOM     49  C   UNL A   1      40.382  27.630  28.879  1.00  0.00     0.049 A 
ATOM     50  H   UNL A   1      42.436  27.418  29.145  1.00  0.00     0.167 HD
ATOM     51  C   UNL A   1      46.750  26.880  29.514  1.00  0.00     0.031 A 
ATOM     52  C   UNL A   1      40.061  28.886  29.243  1.00  0.00     0.031 A 
ATOM     53  C   UNL A   1      46.508  28.248  29.875  1.00  0.00     0.049 A 
ATOM     54  C   UNL A   1      41.143  29.824  29.695  1.00  0.00     0.074 A 
ATOM     55  C   UNL A   1      47.429  29.214  30.239  1.00  0.00     0.029 A 
ATOM     56  N   UNL A   1      45.258  28.843  29.913  1.00  0.00    -0.354 N 
ATOM     57  N   UNL A   1      42.432  29.606  29.784  1.00  0.00    -0.248 NA
ATOM     58  C   UNL A   1      40.732  31.179  30.093  1.00  0.00     0.031 C 
ATOM     59  C   UNL A   1      46.732  30.388  30.532  1.00  0.00     0.029 A 
ATOM     60  C   UNL A   1      45.382  30.161  30.313  1.00  0.00     0.049 A 
ATOM     61  H   UNL A   1      44.410  28.396  29.690  1.00  0.00     0.167 HD
ATOM     62  C   UNL A   1      42.989  30.798  30.225  1.00  0.00     0.074 A 
ATOM     63  C   UNL A   1      41.899  31.738  30.388  1.00  0.00     0.031 C 
ATOM     64  C   UNL A   1      44.290  31.085  30.466  1.00  0.00     0.031 A 
BRANCH  51  65
ATOM     65  C   UNL A   1      48.163  26.382  29.555  1.00  0.00    -0.014 A 
ATOM     66  C   UNL A   1      49.012  26.553  28.451  1.00  0.00     0.009 A 
ATOM     67  C   UNL A   1      48.674  25.813  30.730  1.00  0.00     0.009 A 
ATOM     68  C   UNL A   1      50.347  26.150  28.520  1.00  0.00     0.001 A 
ATOM     69  C   UNL A   1      50.013  25.427  30.802  1.00  0.00     0.001 A 
ATOM     70  C   UNL A   1      50.847  25.593  29.697  1.00  0.00     0.000 A 
ENDBRANCH  51  65
BRANCH  52  71
ATOM     71  C   UNL A   1      38.652  29.335  29.140  1.00  0.00    -0.014 A 
ATOM     72  C   UNL A   1      38.157  29.833  27.925  1.00  0.00     0.009 A 
ATOM     73  C   UNL A   1      37.780  29.217  30.234  1.00  0.00     0.009 A 
ATOM     74  C   UNL A   1      36.816  30.207  27.809  1.00  0.00     0.001 A 
ATOM     75  C   UNL A   1      36.437  29.577  30.109  1.00  0.00     0.001 A 
ATOM     76  C   UNL A   1      35.956  30.074  28.898  1.00  0.00     0.000 A 
ENDBRANCH  52  71
BRANCH  64  77
ATOM     77  C   UNL A   1      44.637  32.470  30.921  1.00  0.00    -0.014 A 
ATOM     78  C   UNL A   1      44.914  33.480  29.989  1.00  0.00     0.009 A 
ATOM     79  C   UNL A   1      44.537  32.798  32.282  1.00  0.00     0.009 A 
ATOM     80  C   UNL A   1      45.076  34.799  30.414  1.00  0.00     0.001 A 
ATOM     81  C   UNL A   1      44.686  34.120  32.701  1.00  0.00     0.001 A 
ATOM     82  C   UNL A   1      44.953  35.119  31.765  1.00  0.00     0.000 A 
ENDBRANCH  64  77
ENDBRANCH  38  39
ENDBRANCH  30  33
ENDBRANCH  28  29
ENDBRANCH  27  28
ENDBRANCH   1  27
TORSDOF 15
ENDMDL
MODEL 3
REMARK VINA RESULT:     -11.6      4.504      8.924
REMARK SMILES Nc1c(Cl)ccc2c1C=C(C(=O)NCCCCCCNC(=O)c1ccc(-c3c4nc(c(-c5ccccc5)c5ccc([nH]5)c(-c5ccccc5)c5nc(c(-c6ccccc6)c6ccc3[nH]6)C=C5)C=C4)cc1)[C@@H](C(F)(F)F)O2
REMARK SMILES IDX 17 1 16 2 15 3 14 4 13 5 11 6 12 7 10 9 2 10 3 11 8 12 4 13
REMARK SMILES IDX 5 14 7 15 9 16 6 17 76 18 71 19 1 20 72 23 73 24 74 25 75 26
REMARK SMILES IDX 18 27 19 28 20 29 21 30 22 32 23 33 24 34 70 35 25 36 69 37
REMARK SMILES IDX 26 38 27 39 28 40 63 41 29 42 68 43 62 44 64 45 30 46 67 47
REMARK SMILES IDX 61 48 60 49 31 51 53 52 38 53 52 54 39 55 42 56 51 57 65 58
REMARK SMILES IDX 40 59 41 60 50 62 66 63 43 64 32 65 33 66 37 67 34 68 36 69
REMARK SMILES IDX 35 70 54 71 55 72 59 73 56 74 58 75 57 76 44 77 45 78 49 79
REMARK SMILES IDX 46 80 48 81 47 82
REMARK H PARENT 13 8 1 21 1 22 20 31 64 50 42 61
REMARK Flexibility Score: inf
ROOT
ATOM      1  C   UNL A   1      36.054  20.973  25.296  1.00  0.00     0.002 C 
ENDROOT
BRANCH   1   2
ATOM      2  C   UNL A   1      36.169  22.433  25.754  1.00  0.00     0.002 C 
BRANCH   2   3
ATOM      3  C   UNL A   1      34.955  22.989  26.506  1.00  0.00     0.021 C 
BRANCH   3   4
ATOM      4  C   UNL A   1      34.353  24.247  25.885  1.00  0.00     0.116 C 
BRANCH   4   5
ATOM      5  N   UNL A   1      32.905  24.244  25.959  1.00  0.00    -0.352 N 
ATOM      6  C   UNL A   1      31.885  23.511  25.458  1.00  0.00     0.251 C 
ATOM      7  O   UNL A   1      30.759  23.883  25.806  1.00  0.00    -0.270 OA
ATOM      8  H   UNL A   1      32.574  24.975  26.530  1.00  0.00     0.163 HD
BRANCH   6   9
ATOM      9  C   UNL A   1      32.022  22.329  24.551  1.00  0.00     0.067 C 
ATOM     10  C   UNL A   1      32.751  18.686  24.982  1.00  0.00     0.061 A 
ATOM     11  C   UNL A   1      32.922  17.570  24.129  1.00  0.00     0.064 A 
ATOM     12  C   UNL A   1      32.394  19.923  24.396  1.00  0.00     0.042 A 
ATOM     13  Cl  UNL A   1      33.396  16.031  24.772  1.00  0.00    -0.082 Cl
ATOM     14  C   UNL A   1      32.698  17.657  22.755  1.00  0.00     0.026 A 
ATOM     15  C   UNL A   1      32.185  19.995  23.012  1.00  0.00     0.130 A 
ATOM     16  C   UNL A   1      32.194  21.149  25.175  1.00  0.00     0.027 C 
ATOM     17  C   UNL A   1      32.321  18.872  22.197  1.00  0.00     0.049 A 
ATOM     18  O   UNL A   1      31.801  21.136  22.369  1.00  0.00    -0.475 OA
ATOM     19  C   UNL A   1      32.027  22.396  23.052  1.00  0.00     0.314 C 
BRANCH  10  20
ATOM     20  N   UNL A   1      33.042  18.567  26.344  1.00  0.00    -0.397 N 
ATOM     21  H   UNL A   1      32.438  18.060  26.934  1.00  0.00     0.156 HD
ATOM     22  H   UNL A   1      33.851  18.990  26.714  1.00  0.00     0.156 HD
ENDBRANCH  10  20
BRANCH  19  23
ATOM     23  C   UNL A   1      33.293  23.056  22.479  1.00  0.00     0.429 C 
ATOM     24  F   UNL A   1      33.304  24.383  22.763  1.00  0.00    -0.167 F 
ATOM     25  F   UNL A   1      34.431  22.547  23.006  1.00  0.00    -0.167 F 
ATOM     26  F   UNL A   1      33.384  22.928  21.137  1.00  0.00    -0.167 F 
ENDBRANCH  19  23
ENDBRANCH   6   9
ENDBRANCH   4   5
ENDBRANCH   3   4
ENDBRANCH   2   3
ENDBRANCH   1   2
BRANCH   1  27
ATOM     27  C   UNL A   1      37.362  20.312  24.853  1.00  0.00     0.021 C 
BRANCH  27  28
ATOM     28  C   UNL A   1      38.585  20.703  25.675  1.00  0.00     0.116 C 
BRANCH  28  29
ATOM     29  N   UNL A   1      39.587  19.650  25.699  1.00  0.00    -0.352 N 
ATOM     30  C   UNL A   1      40.916  19.745  26.026  1.00  0.00     0.251 C 
ATOM     31  H   UNL A   1      39.271  18.752  25.449  1.00  0.00     0.163 HD
ATOM     32  O   UNL A   1      41.681  18.805  25.843  1.00  0.00    -0.269 OA
BRANCH  30  33
ATOM     33  C   UNL A   1      41.423  21.013  26.585  1.00  0.00     0.039 A 
ATOM     34  C   UNL A   1      41.962  21.965  25.719  1.00  0.00     0.014 A 
ATOM     35  C   UNL A   1      41.332  21.262  27.959  1.00  0.00     0.014 A 
ATOM     36  C   UNL A   1      42.363  23.201  26.225  1.00  0.00     0.010 A 
ATOM     37  C   UNL A   1      41.690  22.512  28.455  1.00  0.00     0.010 A 
ATOM     38  C   UNL A   1      42.207  23.490  27.592  1.00  0.00    -0.014 A 
BRANCH  38  39
ATOM     39  C   UNL A   1      42.589  24.816  28.127  1.00  0.00     0.031 A 
ATOM     40  C   UNL A   1      41.551  25.883  28.307  1.00  0.00     0.074 A 
ATOM     41  C   UNL A   1      43.878  25.064  28.429  1.00  0.00     0.049 A 
ATOM     42  N   UNL A   1      41.692  27.094  28.780  1.00  0.00    -0.248 NA
ATOM     43  C   UNL A   1      40.177  25.555  27.890  1.00  0.00     0.031 C 
ATOM     44  C   UNL A   1      44.982  24.116  28.270  1.00  0.00     0.029 A 
ATOM     45  N   UNL A   1      44.474  26.188  28.943  1.00  0.00    -0.354 N 
ATOM     46  C   UNL A   1      40.431  27.668  28.724  1.00  0.00     0.074 A 
ATOM     47  C   UNL A   1      39.543  26.695  28.127  1.00  0.00     0.031 C 
ATOM     48  C   UNL A   1      46.115  24.685  28.713  1.00  0.00     0.029 A 
ATOM     49  C   UNL A   1      45.822  26.043  29.164  1.00  0.00     0.049 A 
ATOM     50  H   UNL A   1      43.983  27.019  29.136  1.00  0.00     0.167 HD
ATOM     51  C   UNL A   1      40.042  28.889  29.154  1.00  0.00     0.031 A 
ATOM     52  C   UNL A   1      46.720  26.901  29.684  1.00  0.00     0.031 A 
ATOM     53  C   UNL A   1      40.918  29.850  29.763  1.00  0.00     0.049 A 
ATOM     54  C   UNL A   1      46.269  28.260  30.138  1.00  0.00     0.074 A 
ATOM     55  C   UNL A   1      40.601  31.096  30.275  1.00  0.00     0.029 A 
ATOM     56  N   UNL A   1      42.279  29.671  29.942  1.00  0.00    -0.354 N 
ATOM     57  N   UNL A   1      45.061  28.769  30.121  1.00  0.00    -0.248 NA
ATOM     58  C   UNL A   1      47.295  29.159  30.685  1.00  0.00     0.031 C 
ATOM     59  C   UNL A   1      41.779  31.687  30.736  1.00  0.00     0.029 A 
ATOM     60  C   UNL A   1      42.821  30.793  30.543  1.00  0.00     0.049 A 
ATOM     61  H   UNL A   1      42.785  28.868  29.682  1.00  0.00     0.167 HD
ATOM     62  C   UNL A   1      45.178  30.037  30.673  1.00  0.00     0.074 A 
ATOM     63  C   UNL A   1      46.573  30.223  31.015  1.00  0.00     0.031 C 
ATOM     64  C   UNL A   1      44.209  30.960  30.881  1.00  0.00     0.031 A 
BRANCH  51  65
ATOM     65  C   UNL A   1      38.595  29.254  29.005  1.00  0.00    -0.014 A 
ATOM     66  C   UNL A   1      37.716  29.146  30.093  1.00  0.00     0.009 A 
ATOM     67  C   UNL A   1      38.125  29.784  27.795  1.00  0.00     0.009 A 
ATOM     68  C   UNL A   1      36.387  29.552  29.968  1.00  0.00     0.001 A 
ATOM     69  C   UNL A   1      36.800  30.206  27.678  1.00  0.00     0.001 A 
ATOM     70  C   UNL A   1      35.932  30.087  28.763  1.00  0.00     0.000 A 
ENDBRANCH  51  65
BRANCH  52  71
ATOM     71  C   UNL A   1      48.129  26.469  29.847  1.00  0.00    -0.014 A 
ATOM     72  C   UNL A   1      48.538  25.824  31.024  1.00  0.00     0.009 A 
ATOM     73  C   UNL A   1      49.057  26.645  28.808  1.00  0.00     0.009 A 
ATOM     74  C   UNL A   1      49.851  25.368  31.160  1.00  0.00     0.001 A 
ATOM     75  C   UNL A   1      50.365  26.173  28.942  1.00  0.00     0.001 A 
ATOM     76  C   UNL A   1      50.761  25.537  30.118  1.00  0.00     0.000 A 
ENDBRANCH  52  71
BRANCH  64  77
ATOM     77  C   UNL A   1      44.595  32.260  31.520  1.00  0.00    -0.014 A 
ATOM     78  C   UNL A   1      44.671  32.376  32.915  1.00  0.00     0.009 A 
ATOM     79  C   UNL A   1      45.030  33.325  30.716  1.00  0.00     0.009 A 
ATOM     80  C   UNL A   1      45.186  33.536  33.494  1.00  0.00     0.001 A 
ATOM     81  C   UNL A   1      45.558  34.477  31.299  1.00  0.00     0.001 A 
ATOM     82  C   UNL A   1      45.637  34.580  32.687  1.00  0.00     0.000 A 
ENDBRANCH  64  77
ENDBRANCH  38  39
ENDBRANCH  30  33
ENDBRANCH  28  29
ENDBRANCH  27  28
ENDBRANCH   1  27
TORSDOF 15
ENDMDL
