MODEL 1
REMARK VINA RESULT:     -11.1      0.000      0.000
REMARK SMILES CC(C)(Oc1ccc(Cl)cc1)C(=O)N1CCC[C@H](C(=O)NCCCCCCNC(=O)c2ccc(-c3c4nc(c(-c5ccccc5)c5ccc([nH]5)c(-c5ccccc5)c5nc(c(-c6ccccc6)c6ccc3[nH]6)C=C5)C=C4)cc2)C1
REMARK SMILES IDX 23 1 22 2 21 3 19 4 20 5 18 7 14 8 15 9 79 10 16 11 17 12
REMARK SMILES IDX 12 13 13 14 2 15 1 16 3 17 4 18 5 19 6 20 11 21 7 22 10 23
REMARK SMILES IDX 8 24 9 25 24 26 25 27 26 28 27 29 28 30 29 31 30 33 31 34
REMARK SMILES IDX 32 35 78 36 33 37 77 38 34 39 35 40 36 41 71 42 37 43 76 44
REMARK SMILES IDX 70 45 72 46 38 47 75 48 69 49 68 50 39 52 61 53 46 54 60 55
REMARK SMILES IDX 47 56 50 57 59 58 73 59 48 60 49 61 58 63 74 64 51 65 40 66
REMARK SMILES IDX 41 67 45 68 42 69 44 70 43 71 62 72 63 73 67 74 64 75 66 76
REMARK SMILES IDX 65 77 52 78 53 79 57 80 54 81 56 82 55 83
REMARK H PARENT 21 6 28 32 72 51 50 62
REMARK Flexibility Score: inf
ROOT
ATOM      1  C   UNL A   1      31.622  28.461  27.208  1.00  0.00     0.021 C 
ENDROOT
BRANCH   1   2
ATOM      2  C   UNL A   1      32.164  27.118  26.726  1.00  0.00     0.116 C 
BRANCH   2   3
ATOM      3  N   UNL A   1      31.159  26.080  26.682  1.00  0.00    -0.356 N 
ATOM      4  C   UNL A   1      31.265  24.728  26.676  1.00  0.00     0.224 C 
ATOM      5  O   UNL A   1      30.207  24.100  26.798  1.00  0.00    -0.275 OA
ATOM      6  H   UNL A   1      30.233  26.414  26.650  1.00  0.00     0.163 HD
BRANCH   4   7
ATOM      7  C   UNL A   1      32.579  23.951  26.521  1.00  0.00     0.098 C 
ATOM      8  N   UNL A   1      33.458  23.925  24.179  1.00  0.00    -0.338 N 
ATOM      9  C   UNL A   1      33.505  22.460  24.161  1.00  0.00     0.119 C 
ATOM     10  C   UNL A   1      33.551  24.542  25.496  1.00  0.00     0.133 C 
ATOM     11  C   UNL A   1      32.502  21.793  25.099  1.00  0.00     0.022 C 
ATOM     12  C   UNL A   1      32.444  22.427  26.483  1.00  0.00     0.017 C 
BRANCH   8  13
ATOM     13  C   UNL A   1      33.243  24.614  22.985  1.00  0.00     0.266 C 
ATOM     14  O   UNL A   1      34.192  24.756  22.201  1.00  0.00    -0.270 OA
BRANCH  13  15
ATOM     15  C   UNL A   1      31.885  25.389  22.734  1.00  0.00     0.181 C 
ATOM     16  C   UNL A   1      30.734  24.410  23.051  1.00  0.00     0.067 C 
ATOM     17  C   UNL A   1      31.913  25.699  21.223  1.00  0.00     0.067 C 
BRANCH  15  18
ATOM     18  O   UNL A   1      31.722  26.552  23.560  1.00  0.00    -0.478 OA
BRANCH  18  19
ATOM     19  C   UNL A   1      30.769  27.470  23.215  1.00  0.00     0.121 A 
ATOM     20  C   UNL A   1      29.426  27.316  23.559  1.00  0.00     0.048 A 
ATOM     21  C   UNL A   1      31.192  28.646  22.592  1.00  0.00     0.048 A 
ATOM     22  C   UNL A   1      28.494  28.295  23.203  1.00  0.00     0.024 A 
ATOM     23  C   UNL A   1      30.264  29.633  22.247  1.00  0.00     0.024 A 
ATOM     24  C   UNL A   1      28.915  29.447  22.543  1.00  0.00     0.041 A 
ATOM     25  Cl  UNL A   1      27.767  30.651  22.108  1.00  0.00    -0.084 Cl
ENDBRANCH  18  19
ENDBRANCH  15  18
ENDBRANCH  13  15
ENDBRANCH   8  13
ENDBRANCH   4   7
ENDBRANCH   2   3
ENDBRANCH   1   2
BRANCH   1  26
ATOM     26  C   UNL A   1      32.192  29.669  26.462  1.00  0.00     0.002 C 
BRANCH  26  27
ATOM     27  C   UNL A   1      31.154  30.593  25.810  1.00  0.00     0.002 C 
BRANCH  27  28
ATOM     28  C   UNL A   1      31.174  32.054  26.272  1.00  0.00     0.021 C 
BRANCH  28  29
ATOM     29  C   UNL A   1      32.432  32.483  27.023  1.00  0.00     0.116 C 
BRANCH  29  30
ATOM     30  N   UNL A   1      32.348  33.854  27.503  1.00  0.00    -0.352 N 
ATOM     31  C   UNL A   1      33.105  34.515  28.435  1.00  0.00     0.251 C 
ATOM     32  H   UNL A   1      31.632  34.392  27.095  1.00  0.00     0.163 HD
ATOM     33  O   UNL A   1      32.752  35.618  28.841  1.00  0.00    -0.269 OA
BRANCH  31  34
ATOM     34  C   UNL A   1      34.346  33.908  28.961  1.00  0.00     0.039 A 
ATOM     35  C   UNL A   1      35.567  34.266  28.382  1.00  0.00     0.014 A 
ATOM     36  C   UNL A   1      34.307  32.956  29.985  1.00  0.00     0.014 A 
ATOM     37  C   UNL A   1      36.753  33.709  28.863  1.00  0.00     0.010 A 
ATOM     38  C   UNL A   1      35.495  32.451  30.507  1.00  0.00     0.010 A 
ATOM     39  C   UNL A   1      36.728  32.816  29.946  1.00  0.00    -0.014 A 
BRANCH  39  40
ATOM     40  C   UNL A   1      37.982  32.255  30.506  1.00  0.00     0.031 A 
ATOM     41  C   UNL A   1      38.573  30.998  29.932  1.00  0.00     0.074 A 
ATOM     42  C   UNL A   1      38.547  32.836  31.581  1.00  0.00     0.049 A 
ATOM     43  N   UNL A   1      39.624  30.324  30.326  1.00  0.00    -0.248 NA
ATOM     44  C   UNL A   1      37.873  30.402  28.783  1.00  0.00     0.031 C 
ATOM     45  C   UNL A   1      38.041  34.028  32.263  1.00  0.00     0.029 A 
ATOM     46  N   UNL A   1      39.664  32.490  32.298  1.00  0.00    -0.354 N 
ATOM     47  C   UNL A   1      39.698  29.218  29.491  1.00  0.00     0.074 A 
ATOM     48  C   UNL A   1      38.561  29.286  28.598  1.00  0.00     0.031 C 
ATOM     49  C   UNL A   1      38.852  34.322  33.291  1.00  0.00     0.029 A 
ATOM     50  C   UNL A   1      39.912  33.322  33.362  1.00  0.00     0.049 A 
ATOM     51  H   UNL A   1      40.233  31.719  32.072  1.00  0.00     0.167 HD
ATOM     52  C   UNL A   1      40.635  28.240  29.458  1.00  0.00     0.031 A 
ATOM     53  C   UNL A   1      40.878  33.280  34.297  1.00  0.00     0.031 A 
ATOM     54  C   UNL A   1      41.770  28.179  30.340  1.00  0.00     0.049 A 
ATOM     55  C   UNL A   1      41.915  32.195  34.236  1.00  0.00     0.074 A 
ATOM     56  C   UNL A   1      42.816  27.272  30.340  1.00  0.00     0.029 A 
ATOM     57  N   UNL A   1      42.003  29.059  31.386  1.00  0.00    -0.354 N 
ATOM     58  N   UNL A   1      42.020  31.202  33.385  1.00  0.00    -0.248 NA
ATOM     59  C   UNL A   1      42.974  32.233  35.253  1.00  0.00     0.031 C 
ATOM     60  C   UNL A   1      43.655  27.573  31.419  1.00  0.00     0.029 A 
ATOM     61  C   UNL A   1      43.161  28.700  32.057  1.00  0.00     0.049 A 
ATOM     62  H   UNL A   1      41.431  29.826  31.618  1.00  0.00     0.167 HD
ATOM     63  C   UNL A   1      43.166  30.510  33.752  1.00  0.00     0.074 A 
ATOM     64  C   UNL A   1      43.731  31.206  34.891  1.00  0.00     0.031 C 
ATOM     65  C   UNL A   1      43.704  29.396  33.195  1.00  0.00     0.031 A 
BRANCH  52  66
ATOM     66  C   UNL A   1      40.454  27.147  28.441  1.00  0.00    -0.014 A 
ATOM     67  C   UNL A   1      39.783  25.955  28.760  1.00  0.00     0.009 A 
ATOM     68  C   UNL A   1      40.951  27.315  27.140  1.00  0.00     0.009 A 
ATOM     69  C   UNL A   1      39.657  24.937  27.812  1.00  0.00     0.001 A 
ATOM     70  C   UNL A   1      40.797  26.309  26.184  1.00  0.00     0.001 A 
ATOM     71  C   UNL A   1      40.162  25.115  26.525  1.00  0.00     0.000 A 
ENDBRANCH  52  66
BRANCH  53  72
ATOM     72  C   UNL A   1      40.911  34.311  35.366  1.00  0.00    -0.014 A 
ATOM     73  C   UNL A   1      40.297  34.076  36.604  1.00  0.00     0.009 A 
ATOM     74  C   UNL A   1      41.583  35.527  35.159  1.00  0.00     0.009 A 
ATOM     75  C   UNL A   1      40.341  35.045  37.610  1.00  0.00     0.001 A 
ATOM     76  C   UNL A   1      41.647  36.483  36.176  1.00  0.00     0.001 A 
ATOM     77  C   UNL A   1      41.019  36.244  37.397  1.00  0.00     0.000 A 
ENDBRANCH  53  72
BRANCH  65  78
ATOM     78  C   UNL A   1      44.977  28.875  33.797  1.00  0.00    -0.014 A 
ATOM     79  C   UNL A   1      44.959  27.903  34.808  1.00  0.00     0.009 A 
ATOM     80  C   UNL A   1      46.213  29.335  33.316  1.00  0.00     0.009 A 
ATOM     81  C   UNL A   1      46.155  27.424  35.347  1.00  0.00     0.001 A 
ATOM     82  C   UNL A   1      47.406  28.835  33.837  1.00  0.00     0.001 A 
ATOM     83  C   UNL A   1      47.377  27.886  34.857  1.00  0.00     0.000 A 
ENDBRANCH  65  78
ENDBRANCH  39  40
ENDBRANCH  31  34
ENDBRANCH  29  30
ENDBRANCH  28  29
ENDBRANCH  27  28
ENDBRANCH  26  27
ENDBRANCH   1  26
TORSDOF 17
ENDMDL
MODEL 2
REMARK VINA RESULT:     -11.1      4.608      9.667
REMARK SMILES CC(C)(Oc1ccc(Cl)cc1)C(=O)N1CCC[C@H](C(=O)NCCCCCCNC(=O)c2ccc(-c3c4nc(c(-c5ccccc5)c5ccc([nH]5)c(-c5ccccc5)c5nc(c(-c6ccccc6)c6ccc3[nH]6)C=C5)C=C4)cc2)C1
REMARK SMILES IDX 23 1 22 2 21 3 19 4 20 5 18 7 14 8 15 9 79 10 16 11 17 12
REMARK SMILES IDX 12 13 13 14 2 15 1 16 3 17 4 18 5 19 6 20 11 21 7 22 10 23
REMARK SMILES IDX 8 24 9 25 24 26 25 27 26 28 27 29 28 30 29 31 30 33 31 34
REMARK SMILES IDX 32 35 78 36 33 37 77 38 34 39 35 40 36 41 71 42 37 43 76 44
REMARK SMILES IDX 70 45 72 46 38 47 75 48 69 49 68 50 39 52 61 53 46 54 60 55
REMARK SMILES IDX 47 56 50 57 59 58 73 59 48 60 49 61 58 63 74 64 51 65 40 66
REMARK SMILES IDX 41 67 45 68 42 69 44 70 43 71 62 72 63 73 67 74 64 75 66 76
REMARK SMILES IDX 65 77 52 78 53 79 57 80 54 81 56 82 55 83
REMARK H PARENT 21 6 28 32 72 51 50 62
REMARK Flexibility Score: inf
ROOT
ATOM      1  C   UNL A   1      36.578  22.613  23.574  1.00  0.00     0.021 C 
ENDROOT
BRANCH   1   2
ATOM      2  C   UNL A   1      35.627  23.702  24.064  1.00  0.00     0.116 C 
BRANCH   2   3
ATOM      3  N   UNL A   1      34.732  24.182  23.036  1.00  0.00    -0.356 N 
ATOM      4  C   UNL A   1      34.004  25.322  22.941  1.00  0.00     0.224 C 
ATOM      5  O   UNL A   1      33.452  25.525  21.853  1.00  0.00    -0.275 OA
ATOM      6  H   UNL A   1      34.633  23.572  22.269  1.00  0.00     0.163 HD
BRANCH   4   7
ATOM      7  C   UNL A   1      33.820  26.343  24.072  1.00  0.00     0.098 C 
ATOM      8  N   UNL A   1      32.155  25.636  25.800  1.00  0.00    -0.338 N 
ATOM      9  C   UNL A   1      31.379  26.866  25.627  1.00  0.00     0.119 C 
ATOM     10  C   UNL A   1      33.567  25.727  25.451  1.00  0.00     0.133 C 
ATOM     11  C   UNL A   1      31.512  27.497  24.242  1.00  0.00     0.022 C 
ATOM     12  C   UNL A   1      32.948  27.553  23.732  1.00  0.00     0.017 C 
BRANCH   8  13
ATOM     13  C   UNL A   1      31.501  24.467  26.189  1.00  0.00     0.266 C 
ATOM     14  O   UNL A   1      31.168  24.338  27.376  1.00  0.00    -0.270 OA
BRANCH  13  15
ATOM     15  C   UNL A   1      31.382  23.240  25.195  1.00  0.00     0.181 C 
ATOM     16  C   UNL A   1      30.691  23.754  23.914  1.00  0.00     0.067 C 
ATOM     17  C   UNL A   1      30.454  22.255  25.936  1.00  0.00     0.067 C 
BRANCH  15  18
ATOM     18  O   UNL A   1      32.648  22.673  24.823  1.00  0.00    -0.478 OA
BRANCH  18  19
ATOM     19  C   UNL A   1      32.698  21.347  24.493  1.00  0.00     0.121 A 
ATOM     20  C   UNL A   1      32.293  20.873  23.245  1.00  0.00     0.048 A 
ATOM     21  C   UNL A   1      33.277  20.468  25.410  1.00  0.00     0.048 A 
ATOM     22  C   UNL A   1      32.386  19.510  22.947  1.00  0.00     0.024 A 
ATOM     23  C   UNL A   1      33.384  19.106  25.110  1.00  0.00     0.024 A 
ATOM     24  C   UNL A   1      32.925  18.631  23.883  1.00  0.00     0.041 A 
ATOM     25  Cl  UNL A   1      33.041  16.955  23.515  1.00  0.00    -0.084 Cl
ENDBRANCH  18  19
ENDBRANCH  15  18
ENDBRANCH  13  15
ENDBRANCH   8  13
ENDBRANCH   4   7
ENDBRANCH   2   3
ENDBRANCH   1   2
BRANCH   1  26
ATOM     26  C   UNL A   1      37.279  21.844  24.696  1.00  0.00     0.002 C 
BRANCH  26  27
ATOM     27  C   UNL A   1      36.918  20.355  24.802  1.00  0.00     0.002 C 
BRANCH  27  28
ATOM     28  C   UNL A   1      38.094  19.393  24.997  1.00  0.00     0.021 C 
BRANCH  28  29
ATOM     29  C   UNL A   1      39.261  19.946  25.811  1.00  0.00     0.116 C 
BRANCH  29  30
ATOM     30  N   UNL A   1      40.372  19.011  25.892  1.00  0.00    -0.352 N 
ATOM     31  C   UNL A   1      41.706  19.234  26.110  1.00  0.00     0.251 C 
ATOM     32  H   UNL A   1      40.125  18.065  25.769  1.00  0.00     0.163 HD
ATOM     33  O   UNL A   1      42.514  18.324  25.951  1.00  0.00    -0.269 OA
BRANCH  31  34
ATOM     34  C   UNL A   1      42.184  20.567  26.532  1.00  0.00     0.039 A 
ATOM     35  C   UNL A   1      42.674  21.443  25.559  1.00  0.00     0.014 A 
ATOM     36  C   UNL A   1      42.195  20.939  27.880  1.00  0.00     0.014 A 
ATOM     37  C   UNL A   1      43.128  22.710  25.930  1.00  0.00     0.010 A 
ATOM     38  C   UNL A   1      42.586  22.225  28.241  1.00  0.00     0.010 A 
ATOM     39  C   UNL A   1      43.063  23.120  27.272  1.00  0.00    -0.014 A 
BRANCH  39  40
ATOM     40  C   UNL A   1      43.491  24.481  27.679  1.00  0.00     0.031 A 
ATOM     41  C   UNL A   1      42.468  25.528  28.020  1.00  0.00     0.074 A 
ATOM     42  C   UNL A   1      44.800  24.796  27.666  1.00  0.00     0.049 A 
ATOM     43  N   UNL A   1      42.647  26.786  28.336  1.00  0.00    -0.248 NA
ATOM     44  C   UNL A   1      41.057  25.114  27.972  1.00  0.00     0.031 C 
ATOM     45  C   UNL A   1      45.886  23.886  27.301  1.00  0.00     0.029 A 
ATOM     46  N   UNL A   1      45.436  25.977  27.953  1.00  0.00    -0.354 N 
ATOM     47  C   UNL A   1      41.375  27.317  28.501  1.00  0.00     0.074 A 
ATOM     48  C   UNL A   1      40.433  26.258  28.207  1.00  0.00     0.031 C 
ATOM     49  C   UNL A   1      47.056  24.537  27.399  1.00  0.00     0.029 A 
ATOM     50  C   UNL A   1      46.799  25.918  27.799  1.00  0.00     0.049 A 
ATOM     51  H   UNL A   1      44.961  26.790  28.241  1.00  0.00     0.167 HD
ATOM     52  C   UNL A   1      41.020  28.570  28.878  1.00  0.00     0.031 A 
ATOM     53  C   UNL A   1      47.738  26.869  27.951  1.00  0.00     0.031 A 
ATOM     54  C   UNL A   1      41.958  29.618  29.179  1.00  0.00     0.049 A 
ATOM     55  C   UNL A   1      47.326  28.248  28.382  1.00  0.00     0.074 A 
ATOM     56  C   UNL A   1      41.704  30.898  29.641  1.00  0.00     0.029 A 
ATOM     57  N   UNL A   1      43.334  29.509  29.040  1.00  0.00    -0.354 N 
ATOM     58  N   UNL A   1      46.122  28.712  28.617  1.00  0.00    -0.248 NA
ATOM     59  C   UNL A   1      48.402  29.228  28.582  1.00  0.00     0.031 C 
ATOM     60  C   UNL A   1      42.922  31.580  29.733  1.00  0.00     0.029 A 
ATOM     61  C   UNL A   1      43.939  30.708  29.380  1.00  0.00     0.049 A 
ATOM     62  H   UNL A   1      43.810  28.699  28.745  1.00  0.00     0.167 HD
ATOM     63  C   UNL A   1      46.297  30.032  29.012  1.00  0.00     0.074 A 
ATOM     64  C   UNL A   1      47.724  30.287  29.001  1.00  0.00     0.031 C 
ATOM     65  C   UNL A   1      45.359  30.950  29.353  1.00  0.00     0.031 A 
BRANCH  52  66
ATOM     66  C   UNL A   1      39.549  28.872  28.964  1.00  0.00    -0.014 A 
ATOM     67  C   UNL A   1      38.838  29.365  27.859  1.00  0.00     0.009 A 
ATOM     68  C   UNL A   1      38.862  28.648  30.167  1.00  0.00     0.009 A 
ATOM     69  C   UNL A   1      37.480  29.674  27.971  1.00  0.00     0.001 A 
ATOM     70  C   UNL A   1      37.498  28.929  30.268  1.00  0.00     0.001 A 
ATOM     71  C   UNL A   1      36.811  29.454  29.174  1.00  0.00     0.000 A 
ENDBRANCH  52  66
BRANCH  53  72
ATOM     72  C   UNL A   1      49.165  26.539  27.703  1.00  0.00    -0.014 A 
ATOM     73  C   UNL A   1      50.011  26.189  28.765  1.00  0.00     0.009 A 
ATOM     74  C   UNL A   1      49.679  26.545  26.397  1.00  0.00     0.009 A 
ATOM     75  C   UNL A   1      51.351  25.869  28.526  1.00  0.00     0.001 A 
ATOM     76  C   UNL A   1      51.011  26.199  26.158  1.00  0.00     0.001 A 
ATOM     77  C   UNL A   1      51.847  25.868  27.223  1.00  0.00     0.000 A 
ENDBRANCH  53  72
BRANCH  65  78
ATOM     78  C   UNL A   1      45.848  32.309  29.764  1.00  0.00    -0.014 A 
ATOM     79  C   UNL A   1      46.181  32.590  31.098  1.00  0.00     0.009 A 
ATOM     80  C   UNL A   1      46.016  33.310  28.795  1.00  0.00     0.009 A 
ATOM     81  C   UNL A   1      46.644  33.858  31.457  1.00  0.00     0.001 A 
ATOM     82  C   UNL A   1      46.504  34.567  29.151  1.00  0.00     0.001 A 
ATOM     83  C   UNL A   1      46.810  34.843  30.483  1.00  0.00     0.000 A 
ENDBRANCH  65  78
ENDBRANCH  39  40
ENDBRANCH  31  34
ENDBRANCH  29  30
ENDBRANCH  28  29
ENDBRANCH  27  28
ENDBRANCH  26  27
ENDBRANCH   1  26
TORSDOF 17
ENDMDL
MODEL 3
REMARK VINA RESULT:     -10.8      3.455      8.407
REMARK SMILES CC(C)(Oc1ccc(Cl)cc1)C(=O)N1CCC[C@H](C(=O)NCCCCCCNC(=O)c2ccc(-c3c4nc(c(-c5ccccc5)c5ccc([nH]5)c(-c5ccccc5)c5nc(c(-c6ccccc6)c6ccc3[nH]6)C=C5)C=C4)cc2)C1
REMARK SMILES IDX 23 1 22 2 21 3 19 4 20 5 18 7 14 8 15 9 79 10 16 11 17 12
REMARK SMILES IDX 12 13 13 14 2 15 1 16 3 17 4 18 5 19 6 20 11 21 7 22 10 23
REMARK SMILES IDX 8 24 9 25 24 26 25 27 26 28 27 29 28 30 29 31 30 33 31 34
REMARK SMILES IDX 32 35 78 36 33 37 77 38 34 39 35 40 36 41 71 42 37 43 76 44
REMARK SMILES IDX 70 45 72 46 38 47 75 48 69 49 68 50 39 52 61 53 46 54 60 55
REMARK SMILES IDX 47 56 50 57 59 58 73 59 48 60 49 61 58 63 74 64 51 65 40 66
REMARK SMILES IDX 41 67 45 68 42 69 44 70 43 71 62 72 63 73 67 74 64 75 66 76
REMARK SMILES IDX 65 77 52 78 53 79 57 80 54 81 56 82 55 83
REMARK H PARENT 21 6 28 32 72 51 50 62
REMARK Flexibility Score: inf
ROOT
ATOM      1  C   UNL A   1      36.365  23.227  24.637  1.00  0.00     0.021 C 
ENDROOT
BRANCH   1   2
ATOM      2  C   UNL A   1      35.121  22.664  23.956  1.00  0.00     0.116 C 
BRANCH   2   3
ATOM      3  N   UNL A   1      34.553  23.560  22.975  1.00  0.00    -0.356 N 
ATOM      4  C   UNL A   1      33.271  23.767  22.583  1.00  0.00     0.224 C 
ATOM      5  O   UNL A   1      33.082  24.727  21.827  1.00  0.00    -0.275 OA
ATOM      6  H   UNL A   1      35.215  24.119  22.506  1.00  0.00     0.163 HD
BRANCH   4   7
ATOM      7  C   UNL A   1      32.075  22.902  23.003  1.00  0.00     0.098 C 
ATOM      8  N   UNL A   1      30.875  23.765  25.021  1.00  0.00    -0.338 N 
ATOM      9  C   UNL A   1      31.037  22.489  25.724  1.00  0.00     0.119 C 
ATOM     10  C   UNL A   1      30.888  23.689  23.566  1.00  0.00     0.133 C 
ATOM     11  C   UNL A   1      32.253  21.681  25.275  1.00  0.00     0.022 C 
ATOM     12  C   UNL A   1      32.421  21.620  23.762  1.00  0.00     0.017 C 
BRANCH   8  13
ATOM     13  C   UNL A   1      30.810  24.946  25.761  1.00  0.00     0.266 C 
ATOM     14  O   UNL A   1      29.826  25.140  26.489  1.00  0.00    -0.270 OA
BRANCH  13  15
ATOM     15  C   UNL A   1      31.855  26.111  25.514  1.00  0.00     0.181 C 
ATOM     16  C   UNL A   1      33.263  25.516  25.727  1.00  0.00     0.067 C 
ATOM     17  C   UNL A   1      31.538  27.131  26.627  1.00  0.00     0.067 C 
BRANCH  15  18
ATOM     18  O   UNL A   1      31.800  26.664  24.189  1.00  0.00    -0.478 OA
BRANCH  18  19
ATOM     19  C   UNL A   1      30.833  27.590  23.908  1.00  0.00     0.121 A 
ATOM     20  C   UNL A   1      31.088  28.961  23.924  1.00  0.00     0.048 A 
ATOM     21  C   UNL A   1      29.586  27.124  23.488  1.00  0.00     0.048 A 
ATOM     22  C   UNL A   1      30.072  29.868  23.606  1.00  0.00     0.024 A 
ATOM     23  C   UNL A   1      28.572  28.028  23.156  1.00  0.00     0.024 A 
ATOM     24  C   UNL A   1      28.816  29.397  23.229  1.00  0.00     0.041 A 
ATOM     25  Cl  UNL A   1      27.568  30.513  22.836  1.00  0.00    -0.084 Cl
ENDBRANCH  18  19
ENDBRANCH  15  18
ENDBRANCH  13  15
ENDBRANCH   8  13
ENDBRANCH   4   7
ENDBRANCH   2   3
ENDBRANCH   1   2
BRANCH   1  26
ATOM     26  C   UNL A   1      37.343  22.160  25.133  1.00  0.00     0.002 C 
BRANCH  26  27
ATOM     27  C   UNL A   1      36.996  20.715  24.748  1.00  0.00     0.002 C 
BRANCH  27  28
ATOM     28  C   UNL A   1      38.119  19.688  24.917  1.00  0.00     0.021 C 
BRANCH  28  29
ATOM     29  C   UNL A   1      39.127  19.999  26.021  1.00  0.00     0.116 C 
BRANCH  29  30
ATOM     30  N   UNL A   1      40.359  19.240  25.875  1.00  0.00    -0.352 N 
ATOM     31  C   UNL A   1      41.666  19.639  25.985  1.00  0.00     0.251 C 
ATOM     32  H   UNL A   1      40.234  18.287  25.662  1.00  0.00     0.163 HD
ATOM     33  O   UNL A   1      42.568  18.884  25.636  1.00  0.00    -0.269 OA
BRANCH  31  34
ATOM     34  C   UNL A   1      41.998  20.977  26.518  1.00  0.00     0.039 A 
ATOM     35  C   UNL A   1      42.347  21.989  25.619  1.00  0.00     0.014 A 
ATOM     36  C   UNL A   1      42.014  21.224  27.894  1.00  0.00     0.014 A 
ATOM     37  C   UNL A   1      42.662  23.263  26.096  1.00  0.00     0.010 A 
ATOM     38  C   UNL A   1      42.264  22.510  28.364  1.00  0.00     0.010 A 
ATOM     39  C   UNL A   1      42.598  23.540  27.471  1.00  0.00    -0.014 A 
BRANCH  39  40
ATOM     40  C   UNL A   1      42.878  24.900  27.993  1.00  0.00     0.031 A 
ATOM     41  C   UNL A   1      44.265  25.274  28.433  1.00  0.00     0.074 A 
ATOM     42  C   UNL A   1      41.864  25.773  28.143  1.00  0.00     0.049 A 
ATOM     43  N   UNL A   1      44.689  26.389  28.971  1.00  0.00    -0.248 NA
ATOM     44  C   UNL A   1      45.309  24.249  28.272  1.00  0.00     0.031 C 
ATOM     45  C   UNL A   1      40.464  25.513  27.804  1.00  0.00     0.029 A 
ATOM     46  N   UNL A   1      41.856  27.054  28.635  1.00  0.00    -0.354 N 
ATOM     47  C   UNL A   1      46.038  26.192  29.234  1.00  0.00     0.074 A 
ATOM     48  C   UNL A   1      46.352  24.836  28.838  1.00  0.00     0.031 C 
ATOM     49  C   UNL A   1      39.735  26.604  28.086  1.00  0.00     0.029 A 
ATOM     50  C   UNL A   1      40.607  27.626  28.656  1.00  0.00     0.049 A 
ATOM     51  H   UNL A   1      42.667  27.519  28.944  1.00  0.00     0.167 HD
ATOM     52  C   UNL A   1      46.939  27.065  29.746  1.00  0.00     0.031 A 
ATOM     53  C   UNL A   1      40.206  28.832  29.095  1.00  0.00     0.031 A 
ATOM     54  C   UNL A   1      46.628  28.416  30.130  1.00  0.00     0.049 A 
ATOM     55  C   UNL A   1      41.223  29.790  29.647  1.00  0.00     0.074 A 
ATOM     56  C   UNL A   1      47.483  29.403  30.588  1.00  0.00     0.029 A 
ATOM     57  N   UNL A   1      45.355  28.968  30.107  1.00  0.00    -0.354 N 
ATOM     58  N   UNL A   1      42.513  29.619  29.810  1.00  0.00    -0.248 NA
ATOM     59  C   UNL A   1      40.732  31.112  30.060  1.00  0.00     0.031 C 
ATOM     60  C   UNL A   1      46.720  30.536  30.892  1.00  0.00     0.029 A 
ATOM     61  C   UNL A   1      45.398  30.273  30.571  1.00  0.00     0.049 A 
ATOM     62  H   UNL A   1      44.542  28.502  29.806  1.00  0.00     0.167 HD
ATOM     63  C   UNL A   1      42.991  30.816  30.326  1.00  0.00     0.074 A 
ATOM     64  C   UNL A   1      41.855  31.711  30.431  1.00  0.00     0.031 C 
ATOM     65  C   UNL A   1      44.258  31.146  30.681  1.00  0.00     0.031 A 
BRANCH  52  66
ATOM     66  C   UNL A   1      48.347  26.569  29.934  1.00  0.00    -0.014 A 
ATOM     67  C   UNL A   1      48.748  25.941  31.125  1.00  0.00     0.009 A 
ATOM     68  C   UNL A   1      49.284  26.721  28.901  1.00  0.00     0.009 A 
ATOM     69  C   UNL A   1      50.069  25.521  31.294  1.00  0.00     0.001 A 
ATOM     70  C   UNL A   1      50.596  26.273  29.060  1.00  0.00     0.001 A 
ATOM     71  C   UNL A   1      50.991  25.685  30.261  1.00  0.00     0.000 A 
ENDBRANCH  52  66
BRANCH  53  72
ATOM     72  C   UNL A   1      38.770  29.202  29.015  1.00  0.00    -0.014 A 
ATOM     73  C   UNL A   1      38.224  29.692  27.820  1.00  0.00     0.009 A 
ATOM     74  C   UNL A   1      37.932  29.040  30.130  1.00  0.00     0.009 A 
ATOM     75  C   UNL A   1      36.869  30.029  27.747  1.00  0.00     0.001 A 
ATOM     76  C   UNL A   1      36.573  29.353  30.046  1.00  0.00     0.001 A 
ATOM     77  C   UNL A   1      36.045  29.853  28.858  1.00  0.00     0.000 A 
ENDBRANCH  53  72
BRANCH  65  78
ATOM     78  C   UNL A   1      44.485  32.538  31.196  1.00  0.00    -0.014 A 
ATOM     79  C   UNL A   1      44.764  33.600  30.322  1.00  0.00     0.009 A 
ATOM     80  C   UNL A   1      44.379  32.797  32.571  1.00  0.00     0.009 A 
ATOM     81  C   UNL A   1      44.962  34.889  30.820  1.00  0.00     0.001 A 
ATOM     82  C   UNL A   1      44.551  34.091  33.063  1.00  0.00     0.001 A 
ATOM     83  C   UNL A   1      44.850  35.135  32.189  1.00  0.00     0.000 A 
ENDBRANCH  65  78
ENDBRANCH  39  40
ENDBRANCH  31  34
ENDBRANCH  29  30
ENDBRANCH  28  29
ENDBRANCH  27  28
ENDBRANCH  26  27
ENDBRANCH   1  26
TORSDOF 17
ENDMDL
