MODEL 1
REMARK VINA RESULT:     -11.7      0.000      0.000
REMARK SMILES CC(C)(C)OC(=O)N1CCN(C(=O)c2ccc3c(c2)OCO3)[C@H](C(=O)NCCCCCCNC(=O)c2ccc(-c3c4nc(c(-c5ccccc5)c5ccc([nH]5)c(-c5ccccc5)c5nc(c(-c6ccccc6)c6ccc3[nH]6)C=C5)C=C4)cc2)C1
REMARK SMILES IDX 29 1 28 2 27 3 26 4 24 5 25 6 23 8 8 9 9 10 84 11 10 12
REMARK SMILES IDX 11 13 6 14 7 15 5 16 2 17 1 18 3 19 4 20 12 21 13 22 14 23
REMARK SMILES IDX 15 24 19 25 16 26 18 27 17 28 20 29 22 30 21 31 30 32 31 33
REMARK SMILES IDX 32 34 33 35 34 36 35 38 36 39 37 40 83 41 38 42 82 43 39 44
REMARK SMILES IDX 40 45 41 46 76 47 42 48 81 49 75 50 77 51 43 52 80 53 74 54
REMARK SMILES IDX 73 55 44 57 66 58 51 59 65 60 52 61 55 62 64 63 78 64 53 65
REMARK SMILES IDX 54 66 63 68 79 69 56 70 45 71 46 72 50 73 47 74 49 75 48 76
REMARK SMILES IDX 67 77 68 78 72 79 69 80 71 81 70 82 57 83 58 84 62 85 59 86
REMARK SMILES IDX 61 87 60 88
REMARK H PARENT 26 7 33 37 77 56 55 67
REMARK Flexibility Score: inf
ROOT
ATOM      1  C   UNL A   1      31.587  28.698  26.090  1.00  0.00     0.002 C 
ENDROOT
BRANCH   1   2
ATOM      2  C   UNL A   1      32.772  27.890  26.635  1.00  0.00     0.021 C 
BRANCH   2   3
ATOM      3  C   UNL A   1      32.720  26.419  26.233  1.00  0.00     0.116 C 
BRANCH   3   4
ATOM      4  N   UNL A   1      34.018  26.030  25.716  1.00  0.00    -0.354 N 
ATOM      5  C   UNL A   1      34.405  24.847  25.160  1.00  0.00     0.244 C 
ATOM      6  O   UNL A   1      35.611  24.607  25.074  1.00  0.00    -0.273 OA
ATOM      7  H   UNL A   1      34.720  26.719  25.776  1.00  0.00     0.163 HD
BRANCH   5   8
ATOM      8  C   UNL A   1      33.330  23.938  24.558  1.00  0.00     0.194 C 
ATOM      9  N   UNL A   1      32.984  21.516  24.076  1.00  0.00    -0.304 N 
ATOM     10  C   UNL A   1      32.443  21.803  22.752  1.00  0.00     0.144 C 
ATOM     11  C   UNL A   1      33.923  22.508  24.597  1.00  0.00     0.158 C 
ATOM     12  C   UNL A   1      31.849  23.214  22.710  1.00  0.00     0.142 C 
ATOM     13  N   UNL A   1      32.802  24.233  23.182  1.00  0.00    -0.323 N 
BRANCH   9  14
ATOM     14  C   UNL A   1      32.694  20.323  24.696  1.00  0.00     0.410 C 
ATOM     15  O   UNL A   1      31.704  20.165  25.401  1.00  0.00    -0.224 OA
BRANCH  14  16
ATOM     16  O   UNL A   1      33.653  19.387  24.486  1.00  0.00    -0.444 OA
BRANCH  16  17
ATOM     17  C   UNL A   1      33.301  18.019  24.141  1.00  0.00     0.106 C 
ATOM     18  C   UNL A   1      34.641  17.285  23.979  1.00  0.00     0.056 C 
ATOM     19  C   UNL A   1      32.562  18.018  22.801  1.00  0.00     0.056 C 
ATOM     20  C   UNL A   1      32.504  17.292  25.234  1.00  0.00     0.056 C 
ENDBRANCH  16  17
ENDBRANCH  14  16
ENDBRANCH   9  14
BRANCH  13  21
ATOM     21  C   UNL A   1      32.715  25.475  22.542  1.00  0.00     0.254 C 
ATOM     22  O   UNL A   1      33.594  25.899  21.791  1.00  0.00    -0.269 OA
BRANCH  21  23
ATOM     23  C   UNL A   1      31.580  26.390  22.778  1.00  0.00     0.044 A 
ATOM     24  C   UNL A   1      30.459  25.981  23.529  1.00  0.00     0.018 A 
ATOM     25  C   UNL A   1      31.664  27.695  22.274  1.00  0.00     0.064 A 
ATOM     26  C   UNL A   1      29.359  26.835  23.675  1.00  0.00     0.051 A 
ATOM     27  C   UNL A   1      30.566  28.510  22.437  1.00  0.00     0.166 A 
ATOM     28  C   UNL A   1      29.439  28.087  23.104  1.00  0.00     0.165 A 
ATOM     29  O   UNL A   1      30.437  29.774  21.953  1.00  0.00    -0.454 OA
ATOM     30  O   UNL A   1      28.457  29.028  23.108  1.00  0.00    -0.454 OA
ATOM     31  C   UNL A   1      29.096  30.096  22.381  1.00  0.00     0.468 C 
ENDBRANCH  21  23
ENDBRANCH  13  21
ENDBRANCH   5   8
ENDBRANCH   3   4
ENDBRANCH   2   3
ENDBRANCH   1   2
BRANCH   1  32
ATOM     32  C   UNL A   1      31.961  30.089  25.564  1.00  0.00     0.002 C 
BRANCH  32  33
ATOM     33  C   UNL A   1      31.588  31.234  26.505  1.00  0.00     0.021 C 
BRANCH  33  34
ATOM     34  C   UNL A   1      32.791  31.914  27.145  1.00  0.00     0.116 C 
BRANCH  34  35
ATOM     35  N   UNL A   1      32.517  33.304  27.475  1.00  0.00    -0.352 N 
ATOM     36  C   UNL A   1      33.196  34.115  28.352  1.00  0.00     0.251 C 
ATOM     37  H   UNL A   1      31.751  33.715  27.013  1.00  0.00     0.163 HD
ATOM     38  O   UNL A   1      32.746  35.205  28.686  1.00  0.00    -0.269 OA
BRANCH  36  39
ATOM     39  C   UNL A   1      34.475  33.632  28.902  1.00  0.00     0.039 A 
ATOM     40  C   UNL A   1      34.484  32.931  30.109  1.00  0.00     0.014 A 
ATOM     41  C   UNL A   1      35.654  33.821  28.175  1.00  0.00     0.014 A 
ATOM     42  C   UNL A   1      35.674  32.358  30.559  1.00  0.00     0.010 A 
ATOM     43  C   UNL A   1      36.816  33.183  28.583  1.00  0.00     0.010 A 
ATOM     44  C   UNL A   1      36.839  32.450  29.781  1.00  0.00    -0.014 A 
BRANCH  44  45
ATOM     45  C   UNL A   1      38.116  31.815  30.189  1.00  0.00     0.031 A 
ATOM     46  C   UNL A   1      39.046  32.561  31.105  1.00  0.00     0.074 A 
ATOM     47  C   UNL A   1      38.488  30.637  29.657  1.00  0.00     0.049 A 
ATOM     48  N   UNL A   1      40.275  32.275  31.448  1.00  0.00    -0.248 NA
ATOM     49  C   UNL A   1      38.534  33.815  31.683  1.00  0.00     0.031 C 
ATOM     50  C   UNL A   1      37.680  29.818  28.750  1.00  0.00     0.029 A 
ATOM     51  N   UNL A   1      39.657  29.930  29.790  1.00  0.00    -0.354 N 
ATOM     52  C   UNL A   1      40.695  33.329  32.249  1.00  0.00     0.074 A 
ATOM     53  C   UNL A   1      39.606  34.280  32.305  1.00  0.00     0.031 C 
ATOM     54  C   UNL A   1      38.371  28.712  28.426  1.00  0.00     0.029 A 
ATOM     55  C   UNL A   1      39.688  28.772  29.052  1.00  0.00     0.049 A 
ATOM     56  H   UNL A   1      40.403  30.225  30.360  1.00  0.00     0.167 HD
ATOM     57  C   UNL A   1      41.877  33.487  32.889  1.00  0.00     0.031 A 
ATOM     58  C   UNL A   1      40.674  27.869  28.883  1.00  0.00     0.031 A 
ATOM     59  C   UNL A   1      42.950  32.531  32.840  1.00  0.00     0.049 A 
ATOM     60  C   UNL A   1      41.995  28.086  29.572  1.00  0.00     0.074 A 
ATOM     61  C   UNL A   1      44.164  32.567  33.501  1.00  0.00     0.029 A 
ATOM     62  N   UNL A   1      42.938  31.370  32.082  1.00  0.00    -0.354 N 
ATOM     63  N   UNL A   1      42.362  29.062  30.367  1.00  0.00    -0.248 NA
ATOM     64  C   UNL A   1      43.036  27.075  29.342  1.00  0.00     0.031 C 
ATOM     65  C   UNL A   1      44.915  31.463  33.091  1.00  0.00     0.029 A 
ATOM     66  C   UNL A   1      44.137  30.698  32.235  1.00  0.00     0.049 A 
ATOM     67  H   UNL A   1      42.188  31.069  31.520  1.00  0.00     0.167 HD
ATOM     68  C   UNL A   1      43.656  28.758  30.769  1.00  0.00     0.074 A 
ATOM     69  C   UNL A   1      44.012  27.509  30.128  1.00  0.00     0.031 C 
ATOM     70  C   UNL A   1      44.471  29.447  31.605  1.00  0.00     0.031 A 
BRANCH  57  71
ATOM     71  C   UNL A   1      42.079  34.756  33.671  1.00  0.00    -0.014 A 
ATOM     72  C   UNL A   1      41.663  34.871  35.007  1.00  0.00     0.009 A 
ATOM     73  C   UNL A   1      42.719  35.848  33.064  1.00  0.00     0.009 A 
ATOM     74  C   UNL A   1      41.841  36.070  35.703  1.00  0.00     0.001 A 
ATOM     75  C   UNL A   1      42.928  37.032  33.773  1.00  0.00     0.001 A 
ATOM     76  C   UNL A   1      42.477  37.146  35.087  1.00  0.00     0.000 A 
ENDBRANCH  57  71
BRANCH  58  77
ATOM     77  C   UNL A   1      40.449  26.667  28.039  1.00  0.00    -0.014 A 
ATOM     78  C   UNL A   1      39.791  25.545  28.567  1.00  0.00     0.009 A 
ATOM     79  C   UNL A   1      40.892  26.626  26.708  1.00  0.00     0.009 A 
ATOM     80  C   UNL A   1      39.604  24.400  27.790  1.00  0.00     0.001 A 
ATOM     81  C   UNL A   1      40.676  25.490  25.922  1.00  0.00     0.001 A 
ATOM     82  C   UNL A   1      40.041  24.375  26.467  1.00  0.00     0.000 A 
ENDBRANCH  58  77
BRANCH  70  83
ATOM     83  C   UNL A   1      45.806  28.841  31.936  1.00  0.00    -0.014 A 
ATOM     84  C   UNL A   1      45.967  27.942  33.001  1.00  0.00     0.009 A 
ATOM     85  C   UNL A   1      46.907  29.115  31.107  1.00  0.00     0.009 A 
ATOM     86  C   UNL A   1      47.208  27.348  33.240  1.00  0.00     0.001 A 
ATOM     87  C   UNL A   1      48.137  28.496  31.329  1.00  0.00     0.001 A 
ATOM     88  C   UNL A   1      48.288  27.618  32.399  1.00  0.00     0.000 A 
ENDBRANCH  70  83
ENDBRANCH  44  45
ENDBRANCH  36  39
ENDBRANCH  34  35
ENDBRANCH  33  34
ENDBRANCH  32  33
ENDBRANCH   1  32
TORSDOF 18
ENDMDL
MODEL 2
REMARK VINA RESULT:     -11.7      2.731      8.846
REMARK SMILES CC(C)(C)OC(=O)N1CCN(C(=O)c2ccc3c(c2)OCO3)[C@H](C(=O)NCCCCCCNC(=O)c2ccc(-c3c4nc(c(-c5ccccc5)c5ccc([nH]5)c(-c5ccccc5)c5nc(c(-c6ccccc6)c6ccc3[nH]6)C=C5)C=C4)cc2)C1
REMARK SMILES IDX 29 1 28 2 27 3 26 4 24 5 25 6 23 8 8 9 9 10 84 11 10 12
REMARK SMILES IDX 11 13 6 14 7 15 5 16 2 17 1 18 3 19 4 20 12 21 13 22 14 23
REMARK SMILES IDX 15 24 19 25 16 26 18 27 17 28 20 29 22 30 21 31 30 32 31 33
REMARK SMILES IDX 32 34 33 35 34 36 35 38 36 39 37 40 83 41 38 42 82 43 39 44
REMARK SMILES IDX 40 45 41 46 76 47 42 48 81 49 75 50 77 51 43 52 80 53 74 54
REMARK SMILES IDX 73 55 44 57 66 58 51 59 65 60 52 61 55 62 64 63 78 64 53 65
REMARK SMILES IDX 54 66 63 68 79 69 56 70 45 71 46 72 50 73 47 74 49 75 48 76
REMARK SMILES IDX 67 77 68 78 72 79 69 80 71 81 70 82 57 83 58 84 62 85 59 86
REMARK SMILES IDX 61 87 60 88
REMARK H PARENT 26 7 33 37 77 56 55 67
REMARK Flexibility Score: inf
ROOT
ATOM      1  C   UNL A   1      35.492  22.854  25.436  1.00  0.00     0.002 C 
ENDROOT
BRANCH   1   2
ATOM      2  C   UNL A   1      35.641  24.379  25.336  1.00  0.00     0.021 C 
BRANCH   2   3
ATOM      3  C   UNL A   1      34.365  25.069  24.863  1.00  0.00     0.116 C 
BRANCH   3   4
ATOM      4  N   UNL A   1      33.815  25.837  25.963  1.00  0.00    -0.354 N 
ATOM      5  C   UNL A   1      32.783  26.729  25.960  1.00  0.00     0.244 C 
ATOM      6  O   UNL A   1      32.674  27.501  26.913  1.00  0.00    -0.273 OA
ATOM      7  H   UNL A   1      34.249  25.696  26.835  1.00  0.00     0.163 HD
BRANCH   5   8
ATOM      8  C   UNL A   1      31.744  26.637  24.839  1.00  0.00     0.194 C 
ATOM      9  N   UNL A   1      30.131  28.128  23.657  1.00  0.00    -0.304 N 
ATOM     10  C   UNL A   1      29.076  27.124  23.720  1.00  0.00     0.144 C 
ATOM     11  C   UNL A   1      31.130  28.055  24.723  1.00  0.00     0.158 C 
ATOM     12  C   UNL A   1      29.678  25.720  23.828  1.00  0.00     0.142 C 
ATOM     13  N   UNL A   1      30.648  25.613  24.931  1.00  0.00    -0.323 N 
BRANCH   9  14
ATOM     14  C   UNL A   1      30.077  29.128  22.714  1.00  0.00     0.410 C 
ATOM     15  O   UNL A   1      31.042  29.446  22.029  1.00  0.00    -0.224 OA
BRANCH  14  16
ATOM     16  O   UNL A   1      28.869  29.743  22.684  1.00  0.00    -0.444 OA
BRANCH  16  17
ATOM     17  C   UNL A   1      28.712  31.108  23.159  1.00  0.00     0.106 C 
ATOM     18  C   UNL A   1      27.284  31.179  23.725  1.00  0.00     0.056 C 
ATOM     19  C   UNL A   1      28.831  32.065  21.971  1.00  0.00     0.056 C 
ATOM     20  C   UNL A   1      29.678  31.482  24.294  1.00  0.00     0.056 C 
ENDBRANCH  16  17
ENDBRANCH  14  16
ENDBRANCH   9  14
BRANCH  13  21
ATOM     21  C   UNL A   1      30.682  24.373  25.581  1.00  0.00     0.254 C 
ATOM     22  O   UNL A   1      30.215  24.199  26.706  1.00  0.00    -0.269 OA
BRANCH  21  23
ATOM     23  C   UNL A   1      31.341  23.200  24.973  1.00  0.00     0.044 A 
ATOM     24  C   UNL A   1      31.542  23.116  23.580  1.00  0.00     0.018 A 
ATOM     25  C   UNL A   1      31.805  22.186  25.824  1.00  0.00     0.064 A 
ATOM     26  C   UNL A   1      32.097  21.961  23.016  1.00  0.00     0.051 A 
ATOM     27  C   UNL A   1      32.348  21.065  25.236  1.00  0.00     0.166 A 
ATOM     28  C   UNL A   1      32.476  20.948  23.871  1.00  0.00     0.165 A 
ATOM     29  O   UNL A   1      32.781  19.956  25.893  1.00  0.00    -0.454 OA
ATOM     30  O   UNL A   1      32.990  19.745  23.500  1.00  0.00    -0.454 OA
ATOM     31  C   UNL A   1      33.185  19.121  24.786  1.00  0.00     0.468 C 
ENDBRANCH  21  23
ENDBRANCH  13  21
ENDBRANCH   5   8
ENDBRANCH   3   4
ENDBRANCH   2   3
ENDBRANCH   1   2
BRANCH   1  32
ATOM     32  C   UNL A   1      36.243  22.074  24.351  1.00  0.00     0.002 C 
BRANCH  32  33
ATOM     33  C   UNL A   1      36.978  20.837  24.867  1.00  0.00     0.021 C 
BRANCH  33  34
ATOM     34  C   UNL A   1      38.336  21.147  25.483  1.00  0.00     0.116 C 
BRANCH  34  35
ATOM     35  N   UNL A   1      39.187  19.968  25.540  1.00  0.00    -0.352 N 
ATOM     36  C   UNL A   1      40.507  19.896  25.912  1.00  0.00     0.251 C 
ATOM     37  H   UNL A   1      38.765  19.118  25.281  1.00  0.00     0.163 HD
ATOM     38  O   UNL A   1      41.162  18.877  25.731  1.00  0.00    -0.269 OA
BRANCH  36  39
ATOM     39  C   UNL A   1      41.127  21.088  26.520  1.00  0.00     0.039 A 
ATOM     40  C   UNL A   1      41.703  22.057  25.698  1.00  0.00     0.014 A 
ATOM     41  C   UNL A   1      41.070  21.265  27.904  1.00  0.00     0.014 A 
ATOM     42  C   UNL A   1      42.168  23.246  26.263  1.00  0.00     0.010 A 
ATOM     43  C   UNL A   1      41.458  22.478  28.453  1.00  0.00     0.010 A 
ATOM     44  C   UNL A   1      42.016  23.478  27.639  1.00  0.00    -0.014 A 
BRANCH  44  45
ATOM     45  C   UNL A   1      42.445  24.745  28.281  1.00  0.00     0.031 A 
ATOM     46  C   UNL A   1      41.435  25.837  28.497  1.00  0.00     0.074 A 
ATOM     47  C   UNL A   1      43.745  24.955  28.561  1.00  0.00     0.049 A 
ATOM     48  N   UNL A   1      41.623  27.074  28.877  1.00  0.00    -0.248 NA
ATOM     49  C   UNL A   1      40.031  25.499  28.215  1.00  0.00     0.031 C 
ATOM     50  C   UNL A   1      44.824  23.980  28.389  1.00  0.00     0.029 A 
ATOM     51  N   UNL A   1      44.382  26.076  29.035  1.00  0.00    -0.354 N 
ATOM     52  C   UNL A   1      40.370  27.670  28.842  1.00  0.00     0.074 A 
ATOM     53  C   UNL A   1      39.438  26.673  28.363  1.00  0.00     0.031 C 
ATOM     54  C   UNL A   1      45.984  24.539  28.772  1.00  0.00     0.029 A 
ATOM     55  C   UNL A   1      45.741  25.925  29.159  1.00  0.00     0.049 A 
ATOM     56  H   UNL A   1      43.909  26.908  29.264  1.00  0.00     0.167 HD
ATOM     57  C   UNL A   1      40.022  28.932  29.187  1.00  0.00     0.031 A 
ATOM     58  C   UNL A   1      46.689  26.810  29.524  1.00  0.00     0.031 A 
ATOM     59  C   UNL A   1      40.952  29.915  29.675  1.00  0.00     0.049 A 
ATOM     60  C   UNL A   1      46.285  28.220  29.864  1.00  0.00     0.074 A 
ATOM     61  C   UNL A   1      40.693  31.202  30.109  1.00  0.00     0.029 A 
ATOM     62  N   UNL A   1      42.320  29.719  29.787  1.00  0.00    -0.354 N 
ATOM     63  N   UNL A   1      45.089  28.758  29.875  1.00  0.00    -0.248 NA
ATOM     64  C   UNL A   1      47.362  29.145  30.245  1.00  0.00     0.031 C 
ATOM     65  C   UNL A   1      41.912  31.809  30.420  1.00  0.00     0.029 A 
ATOM     66  C   UNL A   1      42.922  30.874  30.254  1.00  0.00     0.049 A 
ATOM     67  H   UNL A   1      42.792  28.884  29.568  1.00  0.00     0.167 HD
ATOM     68  C   UNL A   1      45.265  30.066  30.309  1.00  0.00     0.074 A 
ATOM     69  C   UNL A   1      46.682  30.242  30.547  1.00  0.00     0.031 C 
ATOM     70  C   UNL A   1      44.332  31.030  30.503  1.00  0.00     0.031 A 
BRANCH  57  71
ATOM     71  C   UNL A   1      38.581  29.327  29.017  1.00  0.00    -0.014 A 
ATOM     72  C   UNL A   1      38.068  29.721  27.771  1.00  0.00     0.009 A 
ATOM     73  C   UNL A   1      37.717  29.282  30.122  1.00  0.00     0.009 A 
ATOM     74  C   UNL A   1      36.731  30.107  27.647  1.00  0.00     0.001 A 
ATOM     75  C   UNL A   1      36.373  29.633  29.987  1.00  0.00     0.001 A 
ATOM     76  C   UNL A   1      35.885  30.058  28.753  1.00  0.00     0.000 A 
ENDBRANCH  57  71
BRANCH  58  77
ATOM     77  C   UNL A   1      48.113  26.390  29.605  1.00  0.00    -0.014 A 
ATOM     78  C   UNL A   1      48.620  25.838  30.791  1.00  0.00     0.009 A 
ATOM     79  C   UNL A   1      48.974  26.541  28.507  1.00  0.00     0.009 A 
ATOM     80  C   UNL A   1      49.964  25.470  30.885  1.00  0.00     0.001 A 
ATOM     81  C   UNL A   1      50.310  26.143  28.593  1.00  0.00     0.001 A 
ATOM     82  C   UNL A   1      50.807  25.617  29.785  1.00  0.00     0.000 A 
ENDBRANCH  58  77
BRANCH  70  83
ATOM     83  C   UNL A   1      44.793  32.346  31.063  1.00  0.00    -0.014 A 
ATOM     84  C   UNL A   1      45.209  33.398  30.235  1.00  0.00     0.009 A 
ATOM     85  C   UNL A   1      44.728  32.558  32.451  1.00  0.00     0.009 A 
ATOM     86  C   UNL A   1      45.569  34.629  30.787  1.00  0.00     0.001 A 
ATOM     87  C   UNL A   1      45.058  33.799  32.997  1.00  0.00     0.001 A 
ATOM     88  C   UNL A   1      45.485  34.832  32.165  1.00  0.00     0.000 A 
ENDBRANCH  70  83
ENDBRANCH  44  45
ENDBRANCH  36  39
ENDBRANCH  34  35
ENDBRANCH  33  34
ENDBRANCH  32  33
ENDBRANCH   1  32
TORSDOF 18
ENDMDL
MODEL 3
REMARK VINA RESULT:     -11.5      3.151      9.091
REMARK SMILES CC(C)(C)OC(=O)N1CCN(C(=O)c2ccc3c(c2)OCO3)[C@H](C(=O)NCCCCCCNC(=O)c2ccc(-c3c4nc(c(-c5ccccc5)c5ccc([nH]5)c(-c5ccccc5)c5nc(c(-c6ccccc6)c6ccc3[nH]6)C=C5)C=C4)cc2)C1
REMARK SMILES IDX 29 1 28 2 27 3 26 4 24 5 25 6 23 8 8 9 9 10 84 11 10 12
REMARK SMILES IDX 11 13 6 14 7 15 5 16 2 17 1 18 3 19 4 20 12 21 13 22 14 23
REMARK SMILES IDX 15 24 19 25 16 26 18 27 17 28 20 29 22 30 21 31 30 32 31 33
REMARK SMILES IDX 32 34 33 35 34 36 35 38 36 39 37 40 83 41 38 42 82 43 39 44
REMARK SMILES IDX 40 45 41 46 76 47 42 48 81 49 75 50 77 51 43 52 80 53 74 54
REMARK SMILES IDX 73 55 44 57 66 58 51 59 65 60 52 61 55 62 64 63 78 64 53 65
REMARK SMILES IDX 54 66 63 68 79 69 56 70 45 71 46 72 50 73 47 74 49 75 48 76
REMARK SMILES IDX 67 77 68 78 72 79 69 80 71 81 70 82 57 83 58 84 62 85 59 86
REMARK SMILES IDX 61 87 60 88
REMARK H PARENT 26 7 33 37 77 56 55 67
REMARK Flexibility Score: inf
ROOT
ATOM      1  C   UNL A   1      37.530  22.114  24.679  1.00  0.00     0.002 C 
ENDROOT
BRANCH   1   2
ATOM      2  C   UNL A   1      37.161  23.019  25.863  1.00  0.00     0.021 C 
BRANCH   2   3
ATOM      3  C   UNL A   1      36.024  23.982  25.540  1.00  0.00     0.116 C 
BRANCH   3   4
ATOM      4  N   UNL A   1      35.684  23.851  24.136  1.00  0.00    -0.354 N 
ATOM      5  C   UNL A   1      34.490  23.522  23.565  1.00  0.00     0.244 C 
ATOM      6  O   UNL A   1      34.484  23.160  22.388  1.00  0.00    -0.273 OA
ATOM      7  H   UNL A   1      36.421  24.022  23.506  1.00  0.00     0.163 HD
BRANCH   5   8
ATOM      8  C   UNL A   1      33.209  23.745  24.374  1.00  0.00     0.194 C 
ATOM      9  N   UNL A   1      31.989  25.626  25.466  1.00  0.00    -0.304 N 
ATOM     10  C   UNL A   1      31.736  24.835  26.665  1.00  0.00     0.144 C 
ATOM     11  C   UNL A   1      33.187  25.256  24.713  1.00  0.00     0.158 C 
ATOM     12  C   UNL A   1      31.750  23.340  26.333  1.00  0.00     0.142 C 
ATOM     13  N   UNL A   1      32.975  22.939  25.621  1.00  0.00    -0.323 N 
BRANCH   9  14
ATOM     14  C   UNL A   1      31.196  26.711  25.175  1.00  0.00     0.410 C 
ATOM     15  O   UNL A   1      29.982  26.628  25.035  1.00  0.00    -0.224 OA
BRANCH  14  16
ATOM     16  O   UNL A   1      31.920  27.846  25.003  1.00  0.00    -0.444 OA
BRANCH  16  17
ATOM     17  C   UNL A   1      32.299  28.671  26.139  1.00  0.00     0.106 C 
ATOM     18  C   UNL A   1      31.848  30.094  25.774  1.00  0.00     0.056 C 
ATOM     19  C   UNL A   1      33.823  28.647  26.284  1.00  0.00     0.056 C 
ATOM     20  C   UNL A   1      31.594  28.282  27.447  1.00  0.00     0.056 C 
ENDBRANCH  16  17
ENDBRANCH  14  16
ENDBRANCH   9  14
BRANCH  13  21
ATOM     21  C   UNL A   1      33.445  21.653  25.915  1.00  0.00     0.254 C 
ATOM     22  O   UNL A   1      34.046  21.387  26.956  1.00  0.00    -0.269 OA
BRANCH  21  23
ATOM     23  C   UNL A   1      33.299  20.539  24.958  1.00  0.00     0.044 A 
ATOM     24  C   UNL A   1      32.349  20.592  23.917  1.00  0.00     0.018 A 
ATOM     25  C   UNL A   1      34.161  19.440  25.082  1.00  0.00     0.064 A 
ATOM     26  C   UNL A   1      32.172  19.492  23.068  1.00  0.00     0.051 A 
ATOM     27  C   UNL A   1      33.961  18.377  24.230  1.00  0.00     0.166 A 
ATOM     28  C   UNL A   1      32.984  18.395  23.261  1.00  0.00     0.165 A 
ATOM     29  O   UNL A   1      34.648  17.203  24.251  1.00  0.00    -0.454 OA
ATOM     30  O   UNL A   1      32.925  17.229  22.564  1.00  0.00    -0.454 OA
ATOM     31  C   UNL A   1      33.984  16.478  23.193  1.00  0.00     0.468 C 
ENDBRANCH  21  23
ENDBRANCH  13  21
ENDBRANCH   5   8
ENDBRANCH   3   4
ENDBRANCH   2   3
ENDBRANCH   1   2
BRANCH   1  32
ATOM     32  C   UNL A   1      37.086  20.656  24.836  1.00  0.00     0.002 C 
BRANCH  32  33
ATOM     33  C   UNL A   1      38.238  19.652  24.870  1.00  0.00     0.021 C 
BRANCH  33  34
ATOM     34  C   UNL A   1      39.213  19.880  26.017  1.00  0.00     0.116 C 
BRANCH  34  35
ATOM     35  N   UNL A   1      40.436  19.110  25.852  1.00  0.00    -0.352 N 
ATOM     36  C   UNL A   1      41.733  19.545  25.978  1.00  0.00     0.251 C 
ATOM     37  H   UNL A   1      40.321  18.160  25.621  1.00  0.00     0.163 HD
ATOM     38  O   UNL A   1      42.674  18.846  25.621  1.00  0.00    -0.269 OA
BRANCH  36  39
ATOM     39  C   UNL A   1      41.967  20.890  26.535  1.00  0.00     0.039 A 
ATOM     40  C   UNL A   1      42.068  21.053  27.918  1.00  0.00     0.014 A 
ATOM     41  C   UNL A   1      42.154  21.971  25.671  1.00  0.00     0.014 A 
ATOM     42  C   UNL A   1      42.423  22.299  28.436  1.00  0.00     0.010 A 
ATOM     43  C   UNL A   1      42.585  23.186  26.182  1.00  0.00     0.010 A 
ATOM     44  C   UNL A   1      42.719  23.364  27.569  1.00  0.00    -0.014 A 
BRANCH  44  45
ATOM     45  C   UNL A   1      43.151  24.693  28.067  1.00  0.00     0.031 A 
ATOM     46  C   UNL A   1      42.113  25.743  28.351  1.00  0.00     0.074 A 
ATOM     47  C   UNL A   1      44.460  24.991  28.155  1.00  0.00     0.049 A 
ATOM     48  N   UNL A   1      42.273  27.011  28.625  1.00  0.00    -0.248 NA
ATOM     49  C   UNL A   1      40.707  25.312  28.283  1.00  0.00     0.031 C 
ATOM     50  C   UNL A   1      45.565  24.064  27.898  1.00  0.00     0.029 A 
ATOM     51  N   UNL A   1      45.084  26.173  28.468  1.00  0.00    -0.354 N 
ATOM     52  C   UNL A   1      40.991  27.537  28.724  1.00  0.00     0.074 A 
ATOM     53  C   UNL A   1      40.067  26.461  28.438  1.00  0.00     0.031 C 
ATOM     54  C   UNL A   1      46.729  24.708  28.085  1.00  0.00     0.029 A 
ATOM     55  C   UNL A   1      46.455  26.103  28.415  1.00  0.00     0.049 A 
ATOM     56  H   UNL A   1      44.595  26.993  28.707  1.00  0.00     0.167 HD
ATOM     57  C   UNL A   1      40.615  28.799  29.033  1.00  0.00     0.031 A 
ATOM     58  C   UNL A   1      47.386  27.060  28.593  1.00  0.00     0.031 A 
ATOM     59  C   UNL A   1      41.539  29.862  29.329  1.00  0.00     0.049 A 
ATOM     60  C   UNL A   1      46.945  28.467  28.896  1.00  0.00     0.074 A 
ATOM     61  C   UNL A   1      41.261  31.161  29.714  1.00  0.00     0.029 A 
ATOM     62  N   UNL A   1      42.919  29.746  29.266  1.00  0.00    -0.354 N 
ATOM     63  N   UNL A   1      45.729  28.940  29.037  1.00  0.00    -0.248 NA
ATOM     64  C   UNL A   1      48.004  29.471  29.070  1.00  0.00     0.031 C 
ATOM     65  C   UNL A   1      42.471  31.851  29.818  1.00  0.00     0.029 A 
ATOM     66  C   UNL A   1      43.505  30.961  29.575  1.00  0.00     0.049 A 
ATOM     67  H   UNL A   1      43.409  28.924  29.037  1.00  0.00     0.167 HD
ATOM     68  C   UNL A   1      45.880  30.283  29.361  1.00  0.00     0.074 A 
ATOM     69  C   UNL A   1      47.303  30.550  29.394  1.00  0.00     0.031 C 
ATOM     70  C   UNL A   1      44.924  31.208  29.620  1.00  0.00     0.031 A 
BRANCH  57  71
ATOM     71  C   UNL A   1      39.143  29.105  29.037  1.00  0.00    -0.014 A 
ATOM     72  C   UNL A   1      38.485  29.568  27.886  1.00  0.00     0.009 A 
ATOM     73  C   UNL A   1      38.397  28.905  30.210  1.00  0.00     0.009 A 
ATOM     74  C   UNL A   1      37.120  29.869  27.924  1.00  0.00     0.001 A 
ATOM     75  C   UNL A   1      37.027  29.170  30.234  1.00  0.00     0.001 A 
ATOM     76  C   UNL A   1      36.394  29.665  29.096  1.00  0.00     0.000 A 
ENDBRANCH  57  71
BRANCH  58  77
ATOM     77  C   UNL A   1      48.831  26.723  28.505  1.00  0.00    -0.014 A 
ATOM     78  C   UNL A   1      49.551  26.394  29.664  1.00  0.00     0.009 A 
ATOM     79  C   UNL A   1      49.501  26.731  27.273  1.00  0.00     0.009 A 
ATOM     80  C   UNL A   1      50.916  26.105  29.595  1.00  0.00     0.001 A 
ATOM     81  C   UNL A   1      50.860  26.412  27.201  1.00  0.00     0.001 A 
ATOM     82  C   UNL A   1      51.568  26.110  28.363  1.00  0.00     0.000 A 
ENDBRANCH  58  77
BRANCH  70  83
ATOM     83  C   UNL A   1      45.373  32.582  30.031  1.00  0.00    -0.014 A 
ATOM     84  C   UNL A   1      45.554  33.611  29.096  1.00  0.00     0.009 A 
ATOM     85  C   UNL A   1      45.537  32.868  31.397  1.00  0.00     0.009 A 
ATOM     86  C   UNL A   1      45.910  34.894  29.519  1.00  0.00     0.001 A 
ATOM     87  C   UNL A   1      45.861  34.158  31.819  1.00  0.00     0.001 A 
ATOM     88  C   UNL A   1      46.053  35.168  30.880  1.00  0.00     0.000 A 
ENDBRANCH  70  83
ENDBRANCH  44  45
ENDBRANCH  36  39
ENDBRANCH  34  35
ENDBRANCH  33  34
ENDBRANCH  32  33
ENDBRANCH   1  32
TORSDOF 18
ENDMDL
