MODEL 1
REMARK VINA RESULT:      -8.3      0.000      0.000
REMARK SMILES CC[C@@H](C)[C@H](NC(=O)[C@H](C)N1C(=O)N2CCC3=c4cc(OC)ccc4=N[C@@H]3[C@@]2(C)C1=O)C(=O)NCCCCCCNC(=O)c1ccc(-c2c3nc(c(-c4ccccc4)c4ccc([nH]4)c(-c4ccccc4)c4nc(c(-c5ccccc5)c5ccc2[nH]5)C=C4)C=C3)cc1
REMARK SMILES IDX 36 1 35 2 34 3 32 4 33 5 5 7 3 8 4 9 2 10 1 11 6 12 7 13
REMARK SMILES IDX 8 15 9 16 10 17 11 18 12 19 30 20 14 21 13 22 28 23 31 24
REMARK SMILES IDX 15 25 27 26 29 27 16 28 17 29 26 30 18 31 25 32 19 33 24 34
REMARK SMILES IDX 20 35 23 36 21 37 22 38 37 39 38 40 39 41 40 42 41 43 42 44
REMARK SMILES IDX 43 46 44 47 45 48 91 49 46 50 90 51 47 52 48 53 49 54 84 55
REMARK SMILES IDX 50 56 89 57 83 58 85 59 51 60 88 61 82 62 81 63 52 65 74 66
REMARK SMILES IDX 59 67 73 68 60 69 63 70 72 71 86 72 61 73 62 74 71 76 87 77
REMARK SMILES IDX 64 78 53 79 54 80 58 81 55 82 57 83 56 84 75 85 76 86 80 87
REMARK SMILES IDX 77 88 79 89 78 90 65 91 66 92 70 93 67 94 69 95 68 96
REMARK H PARENT 34 6 6 14 41 45 85 64 63 75
REMARK Flexibility Score: inf
ROOT
ATOM      1  C   UNL A   1      45.889  23.803  25.942  1.00  0.00     0.021 C 
ENDROOT
BRANCH   1   2
ATOM      2  C   UNL A   1      47.129  24.580  25.499  1.00  0.00     0.116 C 
BRANCH   2   3
ATOM      3  N   UNL A   1      46.879  25.620  24.525  1.00  0.00    -0.354 N 
ATOM      4  C   UNL A   1      46.721  26.971  24.660  1.00  0.00     0.242 C 
ATOM      5  O   UNL A   1      46.894  27.622  23.619  1.00  0.00    -0.273 OA
ATOM      6  H   UNL A   1      46.812  25.297  23.598  1.00  0.00     0.163 HD
BRANCH   4   7
ATOM      7  C   UNL A   1      46.514  27.732  26.012  1.00  0.00     0.174 C 
BRANCH   7   8
ATOM      8  C   UNL A   1      45.028  28.140  26.216  1.00  0.00     0.018 C 
ATOM      9  C   UNL A   1      44.852  28.990  27.480  1.00  0.00     0.010 C 
BRANCH   8  10
ATOM     10  C   UNL A   1      44.069  26.932  26.211  1.00  0.00     0.002 C 
ATOM     11  C   UNL A   1      42.876  27.107  25.283  1.00  0.00     0.004 C 
ENDBRANCH   8  10
ENDBRANCH   7   8
BRANCH   7  12
ATOM     12  N   UNL A   1      47.369  28.882  26.267  1.00  0.00    -0.342 N 
ATOM     13  C   UNL A   1      48.648  29.096  26.613  1.00  0.00     0.243 C 
ATOM     14  H   UNL A   1      46.878  29.728  26.156  1.00  0.00     0.164 HD
ATOM     15  O   UNL A   1      48.905  30.315  26.664  1.00  0.00    -0.273 OA
BRANCH  13  16
ATOM     16  C   UNL A   1      49.802  28.096  26.928  1.00  0.00     0.181 C 
ATOM     17  C   UNL A   1      50.707  28.944  27.895  1.00  0.00     0.042 C 
BRANCH  16  18
ATOM     18  N   UNL A   1      50.628  27.383  25.934  1.00  0.00    -0.250 N 
ATOM     19  C   UNL A   1      50.713  27.478  24.542  1.00  0.00     0.328 C 
ATOM     20  C   UNL A   1      51.307  26.255  26.282  1.00  0.00     0.259 C 
ATOM     21  N   UNL A   1      51.801  26.606  24.118  1.00  0.00    -0.307 N 
ATOM     22  O   UNL A   1      50.083  28.215  23.820  1.00  0.00    -0.248 OA
ATOM     23  C   UNL A   1      52.432  26.161  25.332  1.00  0.00     0.147 C 
ATOM     24  O   UNL A   1      51.109  25.460  27.190  1.00  0.00    -0.271 OA
ATOM     25  C   UNL A   1      52.793  26.852  22.992  1.00  0.00     0.127 C 
ATOM     26  C   UNL A   1      53.370  27.358  25.529  1.00  0.00     0.168 C 
ATOM     27  C   UNL A   1      52.934  24.718  25.212  1.00  0.00     0.048 C 
ATOM     28  C   UNL A   1      54.428  26.926  23.474  1.00  0.00     0.055 C 
ATOM     29  C   UNL A   1      54.692  27.012  25.012  1.00  0.00    -0.032 C 
ATOM     30  N   UNL A   1      53.441  28.301  26.645  1.00  0.00    -0.274 NA
ATOM     31  C   UNL A   1      55.590  27.545  25.879  1.00  0.00     0.005 A 
ATOM     32  C   UNL A   1      54.691  28.652  26.441  1.00  0.00     0.066 A 
ATOM     33  C   UNL A   1      55.920  26.860  27.214  1.00  0.00     0.056 A 
ATOM     34  C   UNL A   1      55.436  29.679  27.177  1.00  0.00     0.032 A 
ATOM     35  C   UNL A   1      55.990  27.651  28.328  1.00  0.00     0.119 A 
ATOM     36  C   UNL A   1      56.122  29.099  28.168  1.00  0.00     0.048 A 
BRANCH  35  37
ATOM     37  O   UNL A   1      55.546  27.218  29.569  1.00  0.00    -0.497 OA
ATOM     38  C   UNL A   1      54.436  26.290  29.475  1.00  0.00     0.278 C 
ENDBRANCH  35  37
ENDBRANCH  16  18
ENDBRANCH  13  16
ENDBRANCH   7  12
ENDBRANCH   4   7
ENDBRANCH   2   3
ENDBRANCH   1   2
BRANCH   1  39
ATOM     39  C   UNL A   1      45.829  22.294  25.686  1.00  0.00     0.002 C 
BRANCH  39  40
ATOM     40  C   UNL A   1      45.547  21.794  24.268  1.00  0.00     0.002 C 
BRANCH  40  41
ATOM     41  C   UNL A   1      44.977  20.388  24.103  1.00  0.00     0.021 C 
BRANCH  41  42
ATOM     42  C   UNL A   1      44.464  19.694  25.358  1.00  0.00     0.116 C 
BRANCH  42  43
ATOM     43  N   UNL A   1      43.100  19.209  25.259  1.00  0.00    -0.352 N 
ATOM     44  C   UNL A   1      41.939  19.770  25.746  1.00  0.00     0.251 C 
ATOM     45  H   UNL A   1      42.987  18.359  24.774  1.00  0.00     0.163 HD
ATOM     46  O   UNL A   1      40.872  19.179  25.618  1.00  0.00    -0.269 OA
BRANCH  44  47
ATOM     47  C   UNL A   1      41.977  21.067  26.468  1.00  0.00     0.039 A 
ATOM     48  C   UNL A   1      42.160  22.273  25.789  1.00  0.00     0.014 A 
ATOM     49  C   UNL A   1      41.836  21.071  27.860  1.00  0.00     0.014 A 
ATOM     50  C   UNL A   1      42.374  23.447  26.507  1.00  0.00     0.010 A 
ATOM     51  C   UNL A   1      41.961  22.268  28.576  1.00  0.00     0.010 A 
ATOM     52  C   UNL A   1      42.278  23.460  27.909  1.00  0.00    -0.014 A 
BRANCH  52  53
ATOM     53  C   UNL A   1      42.487  24.741  28.637  1.00  0.00     0.031 A 
ATOM     54  C   UNL A   1      43.827  25.100  29.221  1.00  0.00     0.074 A 
ATOM     55  C   UNL A   1      41.471  25.623  28.707  1.00  0.00     0.049 A 
ATOM     56  N   UNL A   1      44.198  26.217  29.797  1.00  0.00    -0.248 NA
ATOM     57  C   UNL A   1      44.886  24.081  29.156  1.00  0.00     0.031 C 
ATOM     58  C   UNL A   1      40.123  25.393  28.184  1.00  0.00     0.029 A 
ATOM     59  N   UNL A   1      41.424  26.901  29.204  1.00  0.00    -0.354 N 
ATOM     60  C   UNL A   1      45.525  26.035  30.166  1.00  0.00     0.074 A 
ATOM     61  C   UNL A   1      45.886  24.687  29.782  1.00  0.00     0.031 C 
ATOM     62  C   UNL A   1      39.404  26.516  28.319  1.00  0.00     0.029 A 
ATOM     63  C   UNL A   1      40.220  27.525  28.987  1.00  0.00     0.049 A 
ATOM     64  H   UNL A   1      42.179  27.329  29.669  1.00  0.00     0.167 HD
ATOM     65  C   UNL A   1      46.369  26.913  30.760  1.00  0.00     0.031 A 
ATOM     66  C   UNL A   1      39.810  28.773  29.284  1.00  0.00     0.031 A 
ATOM     67  C   UNL A   1      46.012  28.252  31.151  1.00  0.00     0.049 A 
ATOM     68  C   UNL A   1      40.756  29.719  29.959  1.00  0.00     0.074 A 
ATOM     69  C   UNL A   1      46.805  29.211  31.760  1.00  0.00     0.029 A 
ATOM     70  N   UNL A   1      44.763  28.823  30.970  1.00  0.00    -0.354 N 
ATOM     71  N   UNL A   1      42.008  29.528  30.298  1.00  0.00    -0.248 NA
ATOM     72  C   UNL A   1      40.235  31.052  30.294  1.00  0.00     0.031 C 
ATOM     73  C   UNL A   1      46.021  30.346  31.991  1.00  0.00     0.029 A 
ATOM     74  C   UNL A   1      44.757  30.115  31.474  1.00  0.00     0.049 A 
ATOM     75  H   UNL A   1      43.993  28.377  30.548  1.00  0.00     0.167 HD
ATOM     76  C   UNL A   1      42.424  30.712  30.891  1.00  0.00     0.074 A 
ATOM     77  C   UNL A   1      41.302  31.627  30.836  1.00  0.00     0.031 C 
ATOM     78  C   UNL A   1      43.627  31.007  31.440  1.00  0.00     0.031 A 
BRANCH  65  79
ATOM     79  C   UNL A   1      47.774  26.450  31.037  1.00  0.00    -0.014 A 
ATOM     80  C   UNL A   1      48.087  25.858  32.270  1.00  0.00     0.009 A 
ATOM     81  C   UNL A   1      48.802  26.660  30.104  1.00  0.00     0.009 A 
ATOM     82  C   UNL A   1      49.400  25.487  32.566  1.00  0.00     0.001 A 
ATOM     83  C   UNL A   1      50.110  26.265  30.392  1.00  0.00     0.001 A 
ATOM     84  C   UNL A   1      50.409  25.685  31.625  1.00  0.00     0.000 A 
ENDBRANCH  65  79
BRANCH  66  85
ATOM     85  C   UNL A   1      38.431  29.186  28.917  1.00  0.00    -0.014 A 
ATOM     86  C   UNL A   1      38.153  29.663  27.626  1.00  0.00     0.009 A 
ATOM     87  C   UNL A   1      37.408  29.177  29.875  1.00  0.00     0.009 A 
ATOM     88  C   UNL A   1      36.884  30.150  27.309  1.00  0.00     0.001 A 
ATOM     89  C   UNL A   1      36.131  29.640  29.547  1.00  0.00     0.001 A 
ATOM     90  C   UNL A   1      35.873  30.136  28.269  1.00  0.00     0.000 A 
ENDBRANCH  66  85
BRANCH  78  91
ATOM     91  C   UNL A   1      43.793  32.373  32.044  1.00  0.00    -0.014 A 
ATOM     92  C   UNL A   1      43.470  32.587  33.393  1.00  0.00     0.009 A 
ATOM     93  C   UNL A   1      44.207  33.461  31.261  1.00  0.00     0.009 A 
ATOM     94  C   UNL A   1      43.556  33.867  33.946  1.00  0.00     0.001 A 
ATOM     95  C   UNL A   1      44.317  34.734  31.824  1.00  0.00     0.001 A 
ATOM     96  C   UNL A   1      43.986  34.937  33.163  1.00  0.00     0.000 A 
ENDBRANCH  78  91
ENDBRANCH  52  53
ENDBRANCH  44  47
ENDBRANCH  42  43
ENDBRANCH  41  42
ENDBRANCH  40  41
ENDBRANCH  39  40
ENDBRANCH   1  39
TORSDOF 19
ENDMDL
MODEL 2
REMARK VINA RESULT:      -8.3      6.014     13.669
REMARK SMILES CC[C@@H](C)[C@H](NC(=O)[C@H](C)N1C(=O)N2CCC3=c4cc(OC)ccc4=N[C@@H]3[C@@]2(C)C1=O)C(=O)NCCCCCCNC(=O)c1ccc(-c2c3nc(c(-c4ccccc4)c4ccc([nH]4)c(-c4ccccc4)c4nc(c(-c5ccccc5)c5ccc2[nH]5)C=C4)C=C3)cc1
REMARK SMILES IDX 36 1 35 2 34 3 32 4 33 5 5 7 3 8 4 9 2 10 1 11 6 12 7 13
REMARK SMILES IDX 8 15 9 16 10 17 11 18 12 19 30 20 14 21 13 22 28 23 31 24
REMARK SMILES IDX 15 25 27 26 29 27 16 28 17 29 26 30 18 31 25 32 19 33 24 34
REMARK SMILES IDX 20 35 23 36 21 37 22 38 37 39 38 40 39 41 40 42 41 43 42 44
REMARK SMILES IDX 43 46 44 47 45 48 91 49 46 50 90 51 47 52 48 53 49 54 84 55
REMARK SMILES IDX 50 56 89 57 83 58 85 59 51 60 88 61 82 62 81 63 52 65 74 66
REMARK SMILES IDX 59 67 73 68 60 69 63 70 72 71 86 72 61 73 62 74 71 76 87 77
REMARK SMILES IDX 64 78 53 79 54 80 58 81 55 82 57 83 56 84 75 85 76 86 80 87
REMARK SMILES IDX 77 88 79 89 78 90 65 91 66 92 70 93 67 94 69 95 68 96
REMARK H PARENT 34 6 6 14 41 45 85 64 63 75
REMARK Flexibility Score: inf
ROOT
ATOM      1  C   UNL A   1      36.268  32.954  33.891  1.00  0.00     0.021 C 
ENDROOT
BRANCH   1   2
ATOM      2  C   UNL A   1      37.101  32.949  35.172  1.00  0.00     0.116 C 
BRANCH   2   3
ATOM      3  N   UNL A   1      37.653  31.661  35.534  1.00  0.00    -0.354 N 
ATOM      4  C   UNL A   1      38.768  30.998  35.104  1.00  0.00     0.242 C 
ATOM      5  O   UNL A   1      39.165  30.102  35.863  1.00  0.00    -0.273 OA
ATOM      6  H   UNL A   1      37.131  31.176  36.212  1.00  0.00     0.163 HD
BRANCH   4   7
ATOM      7  C   UNL A   1      39.636  31.387  33.862  1.00  0.00     0.174 C 
BRANCH   7   8
ATOM      8  C   UNL A   1      39.627  30.266  32.784  1.00  0.00     0.018 C 
ATOM      9  C   UNL A   1      38.359  29.409  32.881  1.00  0.00     0.010 C 
BRANCH   8  10
ATOM     10  C   UNL A   1      40.900  29.396  32.815  1.00  0.00     0.002 C 
ATOM     11  C   UNL A   1      40.659  27.983  33.322  1.00  0.00     0.004 C 
ENDBRANCH   8  10
ENDBRANCH   7   8
BRANCH   7  12
ATOM     12  N   UNL A   1      41.007  31.805  34.111  1.00  0.00    -0.342 N 
ATOM     13  C   UNL A   1      41.674  32.458  35.076  1.00  0.00     0.243 C 
ATOM     14  H   UNL A   1      41.606  31.536  33.376  1.00  0.00     0.164 HD
ATOM     15  O   UNL A   1      42.893  32.521  34.820  1.00  0.00    -0.273 OA
BRANCH  13  16
ATOM     16  C   UNL A   1      41.176  33.100  36.406  1.00  0.00     0.181 C 
ATOM     17  C   UNL A   1      40.432  34.383  35.884  1.00  0.00     0.042 C 
BRANCH  16  18
ATOM     18  N   UNL A   1      42.011  33.425  37.579  1.00  0.00    -0.250 N 
ATOM     19  C   UNL A   1      42.798  34.538  37.893  1.00  0.00     0.328 C 
ATOM     20  C   UNL A   1      42.336  32.460  38.485  1.00  0.00     0.259 C 
ATOM     21  N   UNL A   1      43.292  34.345  39.251  1.00  0.00    -0.307 N 
ATOM     22  O   UNL A   1      42.964  35.528  37.221  1.00  0.00    -0.248 OA
ATOM     23  C   UNL A   1      42.611  33.176  39.745  1.00  0.00     0.147 C 
ATOM     24  O   UNL A   1      42.380  31.244  38.364  1.00  0.00    -0.271 OA
ATOM     25  C   UNL A   1      43.489  35.409  40.318  1.00  0.00     0.127 C 
ATOM     26  C   UNL A   1      41.333  33.870  40.230  1.00  0.00     0.168 C 
ATOM     27  C   UNL A   1      43.510  32.346  40.666  1.00  0.00     0.048 C 
ATOM     28  C   UNL A   1      42.565  35.190  41.736  1.00  0.00     0.055 C 
ATOM     29  C   UNL A   1      41.440  34.108  41.667  1.00  0.00    -0.032 C 
ATOM     30  N   UNL A   1      39.949  33.657  39.805  1.00  0.00    -0.274 NA
ATOM     31  C   UNL A   1      40.210  33.859  42.185  1.00  0.00     0.005 A 
ATOM     32  C   UNL A   1      39.402  34.114  40.909  1.00  0.00     0.066 A 
ATOM     33  C   UNL A   1      39.724  32.426  42.446  1.00  0.00     0.056 A 
ATOM     34  C   UNL A   1      37.966  34.281  41.162  1.00  0.00     0.032 A 
ATOM     35  C   UNL A   1      38.447  32.114  42.066  1.00  0.00     0.119 A 
ATOM     36  C   UNL A   1      37.501  33.195  41.790  1.00  0.00     0.048 A 
BRANCH  35  37
ATOM     37  O   UNL A   1      38.115  30.871  41.545  1.00  0.00    -0.497 OA
ATOM     38  C   UNL A   1      38.281  29.798  42.505  1.00  0.00     0.278 C 
ENDBRANCH  35  37
ENDBRANCH  16  18
ENDBRANCH  13  16
ENDBRANCH   7  12
ENDBRANCH   4   7
ENDBRANCH   2   3
ENDBRANCH   1   2
BRANCH   1  39
ATOM     39  C   UNL A   1      34.887  33.616  33.908  1.00  0.00     0.002 C 
BRANCH  39  40
ATOM     40  C   UNL A   1      34.693  34.942  33.169  1.00  0.00     0.002 C 
BRANCH  40  41
ATOM     41  C   UNL A   1      33.423  35.122  32.340  1.00  0.00     0.021 C 
BRANCH  41  42
ATOM     42  C   UNL A   1      33.552  35.884  31.028  1.00  0.00     0.116 C 
BRANCH  42  43
ATOM     43  N   UNL A   1      32.813  35.302  29.923  1.00  0.00    -0.352 N 
ATOM     44  C   UNL A   1      33.197  34.308  29.048  1.00  0.00     0.251 C 
ATOM     45  H   UNL A   1      31.911  35.667  29.778  1.00  0.00     0.163 HD
ATOM     46  O   UNL A   1      32.455  33.984  28.126  1.00  0.00    -0.269 OA
BRANCH  44  47
ATOM     47  C   UNL A   1      34.525  33.658  29.184  1.00  0.00     0.039 A 
ATOM     48  C   UNL A   1      34.771  32.705  30.175  1.00  0.00     0.014 A 
ATOM     49  C   UNL A   1      35.550  34.021  28.304  1.00  0.00     0.014 A 
ATOM     50  C   UNL A   1      36.069  32.251  30.392  1.00  0.00     0.010 A 
ATOM     51  C   UNL A   1      36.837  33.495  28.468  1.00  0.00     0.010 A 
ATOM     52  C   UNL A   1      37.119  32.641  29.543  1.00  0.00    -0.014 A 
BRANCH  52  53
ATOM     53  C   UNL A   1      38.487  32.112  29.795  1.00  0.00     0.031 A 
ATOM     54  C   UNL A   1      38.897  30.744  29.318  1.00  0.00     0.074 A 
ATOM     55  C   UNL A   1      39.392  32.907  30.397  1.00  0.00     0.049 A 
ATOM     56  N   UNL A   1      40.078  30.177  29.370  1.00  0.00    -0.248 NA
ATOM     57  C   UNL A   1      37.857  29.903  28.707  1.00  0.00     0.031 C 
ATOM     58  C   UNL A   1      39.118  34.251  30.910  1.00  0.00     0.029 A 
ATOM     59  N   UNL A   1      40.729  32.721  30.643  1.00  0.00    -0.354 N 
ATOM     60  C   UNL A   1      39.922  28.917  28.807  1.00  0.00     0.074 A 
ATOM     61  C   UNL A   1      38.525  28.786  28.451  1.00  0.00     0.031 C 
ATOM     62  C   UNL A   1      40.265  34.796  31.339  1.00  0.00     0.029 A 
ATOM     63  C   UNL A   1      41.342  33.823  31.185  1.00  0.00     0.049 A 
ATOM     64  H   UNL A   1      41.203  31.880  30.448  1.00  0.00     0.167 HD
ATOM     65  C   UNL A   1      40.857  27.959  28.595  1.00  0.00     0.031 A 
ATOM     66  C   UNL A   1      42.628  34.040  31.520  1.00  0.00     0.031 A 
ATOM     67  C   UNL A   1      42.246  28.082  28.954  1.00  0.00     0.049 A 
ATOM     68  C   UNL A   1      43.641  32.958  31.294  1.00  0.00     0.074 A 
ATOM     69  C   UNL A   1      43.265  27.161  28.777  1.00  0.00     0.029 A 
ATOM     70  N   UNL A   1      42.812  29.192  29.560  1.00  0.00    -0.354 N 
ATOM     71  N   UNL A   1      43.473  31.774  30.758  1.00  0.00    -0.248 NA
ATOM     72  C   UNL A   1      45.019  33.241  31.718  1.00  0.00     0.031 C 
ATOM     73  C   UNL A   1      44.439  27.695  29.319  1.00  0.00     0.029 A 
ATOM     74  C   UNL A   1      44.163  28.972  29.781  1.00  0.00     0.049 A 
ATOM     75  H   UNL A   1      42.328  30.015  29.798  1.00  0.00     0.167 HD
ATOM     76  C   UNL A   1      44.721  31.166  30.786  1.00  0.00     0.074 A 
ATOM     77  C   UNL A   1      45.643  32.126  31.360  1.00  0.00     0.031 C 
ATOM     78  C   UNL A   1      45.066  29.921  30.379  1.00  0.00     0.031 A 
BRANCH  65  79
ATOM     79  C   UNL A   1      40.409  26.678  27.947  1.00  0.00    -0.014 A 
ATOM     80  C   UNL A   1      40.705  26.433  26.597  1.00  0.00     0.009 A 
ATOM     81  C   UNL A   1      39.636  25.742  28.653  1.00  0.00     0.009 A 
ATOM     82  C   UNL A   1      40.236  25.280  25.965  1.00  0.00     0.001 A 
ATOM     83  C   UNL A   1      39.188  24.577  28.025  1.00  0.00     0.001 A 
ATOM     84  C   UNL A   1      39.483  24.350  26.681  1.00  0.00     0.000 A 
ENDBRANCH  65  79
BRANCH  66  85
ATOM     85  C   UNL A   1      43.014  35.356  32.089  1.00  0.00    -0.014 A 
ATOM     86  C   UNL A   1      43.608  36.335  31.275  1.00  0.00     0.009 A 
ATOM     87  C   UNL A   1      42.860  35.611  33.459  1.00  0.00     0.009 A 
ATOM     88  C   UNL A   1      44.067  37.532  31.828  1.00  0.00     0.001 A 
ATOM     89  C   UNL A   1      43.297  36.820  34.004  1.00  0.00     0.001 A 
ATOM     90  C   UNL A   1      43.909  37.775  33.192  1.00  0.00     0.000 A 
ENDBRANCH  66  85
BRANCH  78  91
ATOM     91  C   UNL A   1      46.500  29.510  30.555  1.00  0.00    -0.014 A 
ATOM     92  C   UNL A   1      47.425  29.727  29.522  1.00  0.00     0.009 A 
ATOM     93  C   UNL A   1      46.922  28.850  31.720  1.00  0.00     0.009 A 
ATOM     94  C   UNL A   1      48.744  29.289  29.649  1.00  0.00     0.001 A 
ATOM     95  C   UNL A   1      48.249  28.435  31.854  1.00  0.00     0.001 A 
ATOM     96  C   UNL A   1      49.156  28.649  30.817  1.00  0.00     0.000 A 
ENDBRANCH  78  91
ENDBRANCH  52  53
ENDBRANCH  44  47
ENDBRANCH  42  43
ENDBRANCH  41  42
ENDBRANCH  40  41
ENDBRANCH  39  40
ENDBRANCH   1  39
TORSDOF 19
ENDMDL
MODEL 3
REMARK VINA RESULT:      -8.2      5.519     13.982
REMARK SMILES CC[C@@H](C)[C@H](NC(=O)[C@H](C)N1C(=O)N2CCC3=c4cc(OC)ccc4=N[C@@H]3[C@@]2(C)C1=O)C(=O)NCCCCCCNC(=O)c1ccc(-c2c3nc(c(-c4ccccc4)c4ccc([nH]4)c(-c4ccccc4)c4nc(c(-c5ccccc5)c5ccc2[nH]5)C=C4)C=C3)cc1
REMARK SMILES IDX 36 1 35 2 34 3 32 4 33 5 5 7 3 8 4 9 2 10 1 11 6 12 7 13
REMARK SMILES IDX 8 15 9 16 10 17 11 18 12 19 30 20 14 21 13 22 28 23 31 24
REMARK SMILES IDX 15 25 27 26 29 27 16 28 17 29 26 30 18 31 25 32 19 33 24 34
REMARK SMILES IDX 20 35 23 36 21 37 22 38 37 39 38 40 39 41 40 42 41 43 42 44
REMARK SMILES IDX 43 46 44 47 45 48 91 49 46 50 90 51 47 52 48 53 49 54 84 55
REMARK SMILES IDX 50 56 89 57 83 58 85 59 51 60 88 61 82 62 81 63 52 65 74 66
REMARK SMILES IDX 59 67 73 68 60 69 63 70 72 71 86 72 61 73 62 74 71 76 87 77
REMARK SMILES IDX 64 78 53 79 54 80 58 81 55 82 57 83 56 84 75 85 76 86 80 87
REMARK SMILES IDX 77 88 79 89 78 90 65 91 66 92 70 93 67 94 69 95 68 96
REMARK H PARENT 34 6 6 14 41 45 85 64 63 75
REMARK Flexibility Score: inf
ROOT
ATOM      1  C   UNL A   1      38.315  29.413  28.633  1.00  0.00     0.021 C 
ENDROOT
BRANCH   1   2
ATOM      2  C   UNL A   1      37.574  30.518  29.385  1.00  0.00     0.116 C 
BRANCH   2   3
ATOM      3  N   UNL A   1      37.505  31.785  28.690  1.00  0.00    -0.354 N 
ATOM      4  C   UNL A   1      36.482  32.402  28.024  1.00  0.00     0.242 C 
ATOM      5  O   UNL A   1      36.626  33.623  27.866  1.00  0.00    -0.273 OA
ATOM      6  H   UNL A   1      38.346  32.296  28.697  1.00  0.00     0.163 HD
BRANCH   4   7
ATOM      7  C   UNL A   1      35.126  31.733  27.620  1.00  0.00     0.174 C 
BRANCH   7   8
ATOM      8  C   UNL A   1      33.965  32.188  28.550  1.00  0.00     0.018 C 
ATOM      9  C   UNL A   1      33.150  33.318  27.910  1.00  0.00     0.010 C 
BRANCH   8  10
ATOM     10  C   UNL A   1      34.446  32.569  29.965  1.00  0.00     0.002 C 
ATOM     11  C   UNL A   1      34.182  34.023  30.326  1.00  0.00     0.004 C 
ENDBRANCH   8  10
ENDBRANCH   7   8
BRANCH   7  12
ATOM     12  N   UNL A   1      35.107  30.283  27.502  1.00  0.00    -0.342 N 
ATOM     13  C   UNL A   1      34.345  29.358  26.897  1.00  0.00     0.243 C 
ATOM     14  H   UNL A   1      35.852  29.870  27.996  1.00  0.00     0.164 HD
ATOM     15  O   UNL A   1      34.797  28.210  27.077  1.00  0.00    -0.273 OA
BRANCH  13  16
ATOM     16  C   UNL A   1      33.053  29.504  26.035  1.00  0.00     0.181 C 
ATOM     17  C   UNL A   1      31.933  29.115  27.068  1.00  0.00     0.042 C 
BRANCH  16  18
ATOM     18  N   UNL A   1      32.804  28.860  24.730  1.00  0.00    -0.250 N 
ATOM     19  C   UNL A   1      33.536  28.837  23.539  1.00  0.00     0.328 C 
ATOM     20  C   UNL A   1      31.574  28.357  24.432  1.00  0.00     0.259 C 
ATOM     21  N   UNL A   1      32.846  27.931  22.629  1.00  0.00    -0.307 N 
ATOM     22  O   UNL A   1      34.596  29.376  23.323  1.00  0.00    -0.248 OA
ATOM     23  C   UNL A   1      31.808  27.315  23.414  1.00  0.00     0.147 C 
ATOM     24  O   UNL A   1      30.474  28.633  24.889  1.00  0.00    -0.271 OA
ATOM     25  C   UNL A   1      33.477  26.975  21.629  1.00  0.00     0.127 C 
ATOM     26  C   UNL A   1      32.648  26.185  24.020  1.00  0.00     0.168 C 
ATOM     27  C   UNL A   1      30.546  27.064  22.582  1.00  0.00     0.048 C 
ATOM     28  C   UNL A   1      33.118  25.326  21.882  1.00  0.00     0.055 C 
ATOM     29  C   UNL A   1      32.434  24.968  23.241  1.00  0.00    -0.032 C 
ATOM     30  N   UNL A   1      32.934  25.900  25.426  1.00  0.00    -0.274 NA
ATOM     31  C   UNL A   1      32.382  23.950  24.137  1.00  0.00     0.005 A 
ATOM     32  C   UNL A   1      33.189  24.624  25.252  1.00  0.00     0.066 A 
ATOM     33  C   UNL A   1      31.113  23.664  24.954  1.00  0.00     0.056 A 
ATOM     34  C   UNL A   1      33.649  23.681  26.279  1.00  0.00     0.032 A 
ATOM     35  C   UNL A   1      31.268  23.404  26.289  1.00  0.00     0.119 A 
ATOM     36  C   UNL A   1      32.592  23.046  26.797  1.00  0.00     0.048 A 
BRANCH  35  37
ATOM     37  O   UNL A   1      30.355  23.845  27.236  1.00  0.00    -0.497 OA
ATOM     38  C   UNL A   1      29.264  22.912  27.442  1.00  0.00     0.278 C 
ENDBRANCH  35  37
ENDBRANCH  16  18
ENDBRANCH  13  16
ENDBRANCH   7  12
ENDBRANCH   4   7
ENDBRANCH   2   3
ENDBRANCH   1   2
BRANCH   1  39
ATOM     39  C   UNL A   1      39.701  28.985  29.124  1.00  0.00     0.002 C 
BRANCH  39  40
ATOM     40  C   UNL A   1      40.369  27.765  28.485  1.00  0.00     0.002 C 
BRANCH  40  41
ATOM     41  C   UNL A   1      39.612  26.440  28.504  1.00  0.00     0.021 C 
BRANCH  41  42
ATOM     42  C   UNL A   1      39.878  25.470  27.361  1.00  0.00     0.116 C 
BRANCH  42  43
ATOM     43  N   UNL A   1      40.430  24.193  27.777  1.00  0.00    -0.352 N 
ATOM     44  C   UNL A   1      41.749  23.813  27.897  1.00  0.00     0.251 C 
ATOM     45  H   UNL A   1      39.768  23.500  28.005  1.00  0.00     0.163 HD
ATOM     46  O   UNL A   1      42.029  22.659  28.206  1.00  0.00    -0.269 OA
BRANCH  44  47
ATOM     47  C   UNL A   1      42.839  24.780  27.609  1.00  0.00     0.039 A 
ATOM     48  C   UNL A   1      43.602  25.343  28.634  1.00  0.00     0.014 A 
ATOM     49  C   UNL A   1      43.094  25.137  26.280  1.00  0.00     0.014 A 
ATOM     50  C   UNL A   1      44.488  26.378  28.349  1.00  0.00     0.010 A 
ATOM     51  C   UNL A   1      44.051  26.115  25.987  1.00  0.00     0.010 A 
ATOM     52  C   UNL A   1      44.724  26.779  27.023  1.00  0.00    -0.014 A 
BRANCH  52  53
ATOM     53  C   UNL A   1      45.699  27.871  26.759  1.00  0.00     0.031 A 
ATOM     54  C   UNL A   1      45.289  29.318  26.815  1.00  0.00     0.074 A 
ATOM     55  C   UNL A   1      46.990  27.553  26.539  1.00  0.00     0.049 A 
ATOM     56  N   UNL A   1      46.037  30.389  26.708  1.00  0.00    -0.248 NA
ATOM     57  C   UNL A   1      43.860  29.606  27.015  1.00  0.00     0.031 C 
ATOM     58  C   UNL A   1      47.514  26.188  26.455  1.00  0.00     0.029 A 
ATOM     59  N   UNL A   1      48.098  28.348  26.387  1.00  0.00    -0.354 N 
ATOM     60  C   UNL A   1      45.175  31.471  26.821  1.00  0.00     0.074 A 
ATOM     61  C   UNL A   1      43.840  30.932  26.969  1.00  0.00     0.031 C 
ATOM     62  C   UNL A   1      48.849  26.240  26.344  1.00  0.00     0.029 A 
ATOM     63  C   UNL A   1      49.269  27.637  26.291  1.00  0.00     0.049 A 
ATOM     64  H   UNL A   1      48.057  29.331  26.351  1.00  0.00     0.167 HD
ATOM     65  C   UNL A   1      45.467  32.795  26.812  1.00  0.00     0.031 A 
ATOM     66  C   UNL A   1      50.544  28.053  26.178  1.00  0.00     0.031 A 
ATOM     67  C   UNL A   1      46.792  33.336  26.657  1.00  0.00     0.049 A 
ATOM     68  C   UNL A   1      50.841  29.522  26.152  1.00  0.00     0.074 A 
ATOM     69  C   UNL A   1      47.181  34.666  26.637  1.00  0.00     0.029 A 
ATOM     70  N   UNL A   1      47.943  32.582  26.499  1.00  0.00    -0.354 N 
ATOM     71  N   UNL A   1      50.010  30.530  26.261  1.00  0.00    -0.248 NA
ATOM     72  C   UNL A   1      52.248  29.911  25.985  1.00  0.00     0.031 C 
ATOM     73  C   UNL A   1      48.562  34.715  26.418  1.00  0.00     0.029 A 
ATOM     74  C   UNL A   1      49.041  33.417  26.361  1.00  0.00     0.049 A 
ATOM     75  H   UNL A   1      47.976  31.598  26.486  1.00  0.00     0.167 HD
ATOM     76  C   UNL A   1      50.791  31.674  26.171  1.00  0.00     0.074 A 
ATOM     77  C   UNL A   1      52.165  31.235  26.032  1.00  0.00     0.031 C 
ATOM     78  C   UNL A   1      50.400  32.971  26.193  1.00  0.00     0.031 A 
BRANCH  65  79
ATOM     79  C   UNL A   1      44.325  33.762  26.968  1.00  0.00    -0.014 A 
ATOM     80  C   UNL A   1      43.729  34.331  25.832  1.00  0.00     0.009 A 
ATOM     81  C   UNL A   1      43.883  34.161  28.239  1.00  0.00     0.009 A 
ATOM     82  C   UNL A   1      42.714  35.282  25.964  1.00  0.00     0.001 A 
ATOM     83  C   UNL A   1      42.851  35.094  28.369  1.00  0.00     0.001 A 
ATOM     84  C   UNL A   1      42.273  35.658  27.231  1.00  0.00     0.000 A 
ENDBRANCH  65  79
BRANCH  66  85
ATOM     85  C   UNL A   1      51.629  27.042  26.101  1.00  0.00    -0.014 A 
ATOM     86  C   UNL A   1      51.944  26.430  24.877  1.00  0.00     0.009 A 
ATOM     87  C   UNL A   1      52.301  26.630  27.261  1.00  0.00     0.009 A 
ATOM     88  C   UNL A   1      52.890  25.405  24.821  1.00  0.00     0.001 A 
ATOM     89  C   UNL A   1      53.266  25.623  27.197  1.00  0.00     0.001 A 
ATOM     90  C   UNL A   1      53.552  25.004  25.980  1.00  0.00     0.000 A 
ENDBRANCH  66  85
BRANCH  78  91
ATOM     91  C   UNL A   1      51.468  34.017  26.045  1.00  0.00    -0.014 A 
ATOM     92  C   UNL A   1      52.101  34.540  27.184  1.00  0.00     0.009 A 
ATOM     93  C   UNL A   1      51.802  34.531  24.783  1.00  0.00     0.009 A 
ATOM     94  C   UNL A   1      53.047  35.560  27.061  1.00  0.00     0.001 A 
ATOM     95  C   UNL A   1      52.767  35.534  24.662  1.00  0.00     0.001 A 
ATOM     96  C   UNL A   1      53.383  36.051  25.801  1.00  0.00     0.000 A 
ENDBRANCH  78  91
ENDBRANCH  52  53
ENDBRANCH  44  47
ENDBRANCH  42  43
ENDBRANCH  41  42
ENDBRANCH  40  41
ENDBRANCH  39  40
ENDBRANCH   1  39
TORSDOF 19
ENDMDL
