MODEL 1
REMARK VINA RESULT:     -11.3      0.000      0.000
REMARK SMILES CCc1ccc(NC(=O)c2c(C(=O)NCCCCCCNC(=O)c3ccc(-c4c5nc(c(-c6ccccc6)c6ccc([nH]6)c(-c6ccccc6)c6nc(c(-c7ccccc7)c7ccc4[nH]7)C=C6)C=C5)cc3)cnn2C)cc1
REMARK SMILES IDX 17 1 16 2 15 3 14 4 12 5 13 6 11 8 10 9 74 10 72 11 73 12
REMARK SMILES IDX 75 13 8 14 7 15 9 17 6 18 3 19 4 20 77 21 5 22 76 23 2 24
REMARK SMILES IDX 1 25 18 26 19 27 20 28 21 29 22 30 23 32 24 33 25 34 71 35
REMARK SMILES IDX 26 36 70 37 27 38 28 39 29 40 64 41 30 42 69 43 63 44 65 45
REMARK SMILES IDX 31 46 68 47 62 48 61 49 32 51 54 52 39 53 53 54 40 55 43 56
REMARK SMILES IDX 52 57 66 58 41 59 42 60 51 62 67 63 44 64 33 65 34 66 38 67
REMARK SMILES IDX 35 68 37 69 36 70 55 71 56 72 60 73 57 74 59 75 58 76 45 77
REMARK SMILES IDX 46 78 50 79 47 80 49 81 48 82
REMARK H PARENT 14 7 7 16 21 31 65 50 43 61
REMARK Flexibility Score: inf
ROOT
ATOM      1  C   UNL A   1      32.443  29.625  26.910  1.00  0.00     0.002 C 
ENDROOT
BRANCH   1   2
ATOM      2  C   UNL A   1      31.781  28.344  27.404  1.00  0.00     0.021 C 
BRANCH   2   3
ATOM      3  C   UNL A   1      31.475  27.280  26.362  1.00  0.00     0.116 C 
BRANCH   3   4
ATOM      4  N   UNL A   1      31.051  26.007  26.871  1.00  0.00    -0.352 N 
ATOM      5  C   UNL A   1      31.533  24.743  26.637  1.00  0.00     0.255 C 
ATOM      6  O   UNL A   1      30.927  23.838  27.221  1.00  0.00    -0.269 OA
ATOM      7  H   UNL A   1      30.288  26.047  27.492  1.00  0.00     0.163 HD
BRANCH   5   8
ATOM      8  C   UNL A   1      32.643  24.405  25.741  1.00  0.00     0.090 A 
ATOM      9  C   UNL A   1      32.787  23.804  24.487  1.00  0.00     0.138 A 
ATOM     10  N   UNL A   1      34.137  23.839  24.201  1.00  0.00    -0.262 N 
ATOM     11  C   UNL A   1      33.991  24.695  26.108  1.00  0.00     0.149 A 
ATOM     12  N   UNL A   1      34.889  24.327  25.198  1.00  0.00    -0.180 NA
ATOM     13  C   UNL A   1      34.816  23.347  23.021  1.00  0.00     0.174 C 
BRANCH   9  14
ATOM     14  C   UNL A   1      31.838  23.268  23.557  1.00  0.00     0.274 C 
ATOM     15  N   UNL A   1      30.902  24.090  22.955  1.00  0.00    -0.321 N 
ATOM     16  H   UNL A   1      30.325  23.623  22.308  1.00  0.00     0.170 HD
ATOM     17  O   UNL A   1      31.801  22.069  23.275  1.00  0.00    -0.267 OA
BRANCH  15  18
ATOM     18  C   UNL A   1      30.611  25.464  23.082  1.00  0.00     0.041 A 
ATOM     19  C   UNL A   1      29.929  28.177  22.707  1.00  0.00    -0.048 A 
ATOM     20  C   UNL A   1      29.108  27.325  23.452  1.00  0.00     0.006 A 
ATOM     21  C   UNL A   1      31.175  27.695  22.298  1.00  0.00     0.006 A 
ATOM     22  C   UNL A   1      29.463  25.992  23.664  1.00  0.00     0.026 A 
ATOM     23  C   UNL A   1      31.514  26.350  22.489  1.00  0.00     0.026 A 
BRANCH  19  24
ATOM     24  C   UNL A   1      29.386  29.539  22.343  1.00  0.00     0.032 C 
ATOM     25  C   UNL A   1      29.213  30.534  23.481  1.00  0.00     0.009 C 
ENDBRANCH  19  24
ENDBRANCH  15  18
ENDBRANCH   9  14
ENDBRANCH   5   8
ENDBRANCH   3   4
ENDBRANCH   2   3
ENDBRANCH   1   2
BRANCH   1  26
ATOM     26  C   UNL A   1      31.587  30.550  26.043  1.00  0.00     0.002 C 
BRANCH  26  27
ATOM     27  C   UNL A   1      31.418  31.990  26.535  1.00  0.00     0.021 C 
BRANCH  27  28
ATOM     28  C   UNL A   1      32.624  32.601  27.239  1.00  0.00     0.116 C 
BRANCH  28  29
ATOM     29  N   UNL A   1      32.414  33.987  27.619  1.00  0.00    -0.352 N 
ATOM     30  C   UNL A   1      33.092  34.762  28.528  1.00  0.00     0.251 C 
ATOM     31  H   UNL A   1      31.674  34.440  27.153  1.00  0.00     0.163 HD
ATOM     32  O   UNL A   1      32.670  35.873  28.825  1.00  0.00    -0.269 OA
BRANCH  30  33
ATOM     33  C   UNL A   1      34.322  34.249  29.170  1.00  0.00     0.039 A 
ATOM     34  C   UNL A   1      34.213  33.570  30.386  1.00  0.00     0.014 A 
ATOM     35  C   UNL A   1      35.578  34.451  28.590  1.00  0.00     0.014 A 
ATOM     36  C   UNL A   1      35.355  33.044  30.992  1.00  0.00     0.010 A 
ATOM     37  C   UNL A   1      36.705  33.859  29.155  1.00  0.00     0.010 A 
ATOM     38  C   UNL A   1      36.607  33.156  30.365  1.00  0.00    -0.014 A 
BRANCH  38  39
ATOM     39  C   UNL A   1      37.823  32.548  30.963  1.00  0.00     0.031 A 
ATOM     40  C   UNL A   1      38.433  31.315  30.353  1.00  0.00     0.074 A 
ATOM     41  C   UNL A   1      38.350  33.075  32.086  1.00  0.00     0.049 A 
ATOM     42  N   UNL A   1      39.462  30.616  30.760  1.00  0.00    -0.248 NA
ATOM     43  C   UNL A   1      37.787  30.785  29.142  1.00  0.00     0.031 C 
ATOM     44  C   UNL A   1      37.837  34.251  32.792  1.00  0.00     0.029 A 
ATOM     45  N   UNL A   1      39.434  32.687  32.831  1.00  0.00    -0.354 N 
ATOM     46  C   UNL A   1      39.579  29.562  29.862  1.00  0.00     0.074 A 
ATOM     47  C   UNL A   1      38.482  29.678  28.928  1.00  0.00     0.031 C 
ATOM     48  C   UNL A   1      38.627  34.509  33.846  1.00  0.00     0.029 A 
ATOM     49  C   UNL A   1      39.671  33.492  33.919  1.00  0.00     0.049 A 
ATOM     50  H   UNL A   1      39.990  31.905  32.608  1.00  0.00     0.167 HD
ATOM     51  C   UNL A   1      40.527  28.594  29.806  1.00  0.00     0.031 A 
ATOM     52  C   UNL A   1      40.618  33.417  34.873  1.00  0.00     0.031 A 
ATOM     53  C   UNL A   1      41.618  28.476  30.737  1.00  0.00     0.049 A 
ATOM     54  C   UNL A   1      41.633  32.308  34.813  1.00  0.00     0.074 A 
ATOM     55  C   UNL A   1      42.651  27.557  30.742  1.00  0.00     0.029 A 
ATOM     56  N   UNL A   1      41.813  29.304  31.833  1.00  0.00    -0.354 N 
ATOM     57  N   UNL A   1      41.764  31.354  33.924  1.00  0.00    -0.248 NA
ATOM     58  C   UNL A   1      42.637  32.275  35.887  1.00  0.00     0.031 C 
ATOM     59  C   UNL A   1      43.438  27.789  31.875  1.00  0.00     0.029 A 
ATOM     60  C   UNL A   1      42.934  28.898  32.537  1.00  0.00     0.049 A 
ATOM     61  H   UNL A   1      41.238  30.067  32.075  1.00  0.00     0.167 HD
ATOM     62  C   UNL A   1      42.885  30.629  34.311  1.00  0.00     0.074 A 
ATOM     63  C   UNL A   1      43.404  31.262  35.505  1.00  0.00     0.031 C 
ATOM     64  C   UNL A   1      43.438  29.537  33.726  1.00  0.00     0.031 A 
BRANCH  51  65
ATOM     65  C   UNL A   1      40.412  27.578  28.701  1.00  0.00    -0.014 A 
ATOM     66  C   UNL A   1      39.702  26.379  28.884  1.00  0.00     0.009 A 
ATOM     67  C   UNL A   1      41.001  27.832  27.453  1.00  0.00     0.009 A 
ATOM     68  C   UNL A   1      39.625  25.437  27.855  1.00  0.00     0.001 A 
ATOM     69  C   UNL A   1      40.892  26.905  26.415  1.00  0.00     0.001 A 
ATOM     70  C   UNL A   1      40.215  25.704  26.620  1.00  0.00     0.000 A 
ENDBRANCH  51  65
BRANCH  52  71
ATOM     71  C   UNL A   1      40.668  34.432  35.959  1.00  0.00    -0.014 A 
ATOM     72  C   UNL A   1      41.417  35.608  35.801  1.00  0.00     0.009 A 
ATOM     73  C   UNL A   1      39.977  34.225  37.164  1.00  0.00     0.009 A 
ATOM     74  C   UNL A   1      41.498  36.541  36.837  1.00  0.00     0.001 A 
ATOM     75  C   UNL A   1      40.033  35.176  38.185  1.00  0.00     0.001 A 
ATOM     76  C   UNL A   1      40.802  36.327  38.025  1.00  0.00     0.000 A 
ENDBRANCH  52  71
BRANCH  64  77
ATOM     77  C   UNL A   1      44.692  28.984  34.344  1.00  0.00    -0.014 A 
ATOM     78  C   UNL A   1      45.961  29.469  33.991  1.00  0.00     0.009 A 
ATOM     79  C   UNL A   1      44.596  27.985  35.326  1.00  0.00     0.009 A 
ATOM     80  C   UNL A   1      47.109  28.939  34.583  1.00  0.00     0.001 A 
ATOM     81  C   UNL A   1      45.743  27.481  35.941  1.00  0.00     0.001 A 
ATOM     82  C   UNL A   1      46.999  27.950  35.561  1.00  0.00     0.000 A 
ENDBRANCH  64  77
ENDBRANCH  38  39
ENDBRANCH  30  33
ENDBRANCH  28  29
ENDBRANCH  27  28
ENDBRANCH  26  27
ENDBRANCH   1  26
TORSDOF 16
ENDMDL
MODEL 2
REMARK VINA RESULT:     -11.2      0.846      5.897
REMARK SMILES CCc1ccc(NC(=O)c2c(C(=O)NCCCCCCNC(=O)c3ccc(-c4c5nc(c(-c6ccccc6)c6ccc([nH]6)c(-c6ccccc6)c6nc(c(-c7ccccc7)c7ccc4[nH]7)C=C6)C=C5)cc3)cnn2C)cc1
REMARK SMILES IDX 17 1 16 2 15 3 14 4 12 5 13 6 11 8 10 9 74 10 72 11 73 12
REMARK SMILES IDX 75 13 8 14 7 15 9 17 6 18 3 19 4 20 77 21 5 22 76 23 2 24
REMARK SMILES IDX 1 25 18 26 19 27 20 28 21 29 22 30 23 32 24 33 25 34 71 35
REMARK SMILES IDX 26 36 70 37 27 38 28 39 29 40 64 41 30 42 69 43 63 44 65 45
REMARK SMILES IDX 31 46 68 47 62 48 61 49 32 51 54 52 39 53 53 54 40 55 43 56
REMARK SMILES IDX 52 57 66 58 41 59 42 60 51 62 67 63 44 64 33 65 34 66 38 67
REMARK SMILES IDX 35 68 37 69 36 70 55 71 56 72 60 73 57 74 59 75 58 76 45 77
REMARK SMILES IDX 46 78 50 79 47 80 49 81 48 82
REMARK H PARENT 14 7 7 16 21 31 65 50 43 61
REMARK Flexibility Score: inf
ROOT
ATOM      1  C   UNL A   1      32.343  29.623  26.970  1.00  0.00     0.002 C 
ENDROOT
BRANCH   1   2
ATOM      2  C   UNL A   1      31.626  28.332  27.347  1.00  0.00     0.021 C 
BRANCH   2   3
ATOM      3  C   UNL A   1      31.831  27.136  26.431  1.00  0.00     0.116 C 
BRANCH   3   4
ATOM      4  N   UNL A   1      31.374  25.874  26.936  1.00  0.00    -0.352 N 
ATOM      5  C   UNL A   1      31.829  24.599  26.708  1.00  0.00     0.255 C 
ATOM      6  O   UNL A   1      31.197  23.709  27.286  1.00  0.00    -0.269 OA
ATOM      7  H   UNL A   1      30.605  25.931  27.548  1.00  0.00     0.163 HD
BRANCH   5   8
ATOM      8  C   UNL A   1      32.941  24.236  25.825  1.00  0.00     0.090 A 
ATOM      9  C   UNL A   1      33.110  23.464  24.671  1.00  0.00     0.138 A 
ATOM     10  N   UNL A   1      34.440  23.586  24.322  1.00  0.00    -0.262 N 
ATOM     11  C   UNL A   1      34.262  24.709  26.083  1.00  0.00     0.149 A 
ATOM     12  N   UNL A   1      35.167  24.293  25.199  1.00  0.00    -0.180 NA
ATOM     13  C   UNL A   1      35.131  22.985  23.201  1.00  0.00     0.174 C 
BRANCH   9  14
ATOM     14  C   UNL A   1      32.194  22.701  23.876  1.00  0.00     0.274 C 
ATOM     15  N   UNL A   1      31.271  23.335  23.063  1.00  0.00    -0.321 N 
ATOM     16  H   UNL A   1      30.718  22.714  22.536  1.00  0.00     0.170 HD
ATOM     17  O   UNL A   1      32.175  21.469  23.899  1.00  0.00    -0.267 OA
BRANCH  15  18
ATOM     18  C   UNL A   1      30.965  24.693  22.838  1.00  0.00     0.041 A 
ATOM     19  C   UNL A   1      30.570  27.484  22.982  1.00  0.00    -0.048 A 
ATOM     20  C   UNL A   1      31.515  26.935  22.110  1.00  0.00     0.006 A 
ATOM     21  C   UNL A   1      29.713  26.609  23.654  1.00  0.00     0.006 A 
ATOM     22  C   UNL A   1      31.686  25.552  22.015  1.00  0.00     0.026 A 
ATOM     23  C   UNL A   1      29.906  25.225  23.578  1.00  0.00     0.026 A 
BRANCH  19  24
ATOM     24  C   UNL A   1      30.584  28.981  23.186  1.00  0.00     0.032 C 
ATOM     25  C   UNL A   1      29.733  29.808  22.234  1.00  0.00     0.009 C 
ENDBRANCH  19  24
ENDBRANCH  15  18
ENDBRANCH   9  14
ENDBRANCH   5   8
ENDBRANCH   3   4
ENDBRANCH   2   3
ENDBRANCH   1   2
BRANCH   1  26
ATOM     26  C   UNL A   1      31.520  30.670  26.216  1.00  0.00     0.002 C 
BRANCH  26  27
ATOM     27  C   UNL A   1      31.384  32.044  26.878  1.00  0.00     0.021 C 
BRANCH  27  28
ATOM     28  C   UNL A   1      32.684  32.810  27.099  1.00  0.00     0.116 C 
BRANCH  28  29
ATOM     29  N   UNL A   1      32.476  34.110  27.710  1.00  0.00    -0.352 N 
ATOM     30  C   UNL A   1      33.174  34.730  28.717  1.00  0.00     0.251 C 
ATOM     31  H   UNL A   1      31.720  34.627  27.347  1.00  0.00     0.163 HD
ATOM     32  O   UNL A   1      32.754  35.771  29.207  1.00  0.00    -0.269 OA
BRANCH  30  33
ATOM     33  C   UNL A   1      34.426  34.131  29.230  1.00  0.00     0.039 A 
ATOM     34  C   UNL A   1      34.355  33.249  30.311  1.00  0.00     0.014 A 
ATOM     35  C   UNL A   1      35.665  34.450  28.665  1.00  0.00     0.014 A 
ATOM     36  C   UNL A   1      35.518  32.641  30.789  1.00  0.00     0.010 A 
ATOM     37  C   UNL A   1      36.812  33.785  29.092  1.00  0.00     0.010 A 
ATOM     38  C   UNL A   1      36.752  32.879  30.162  1.00  0.00    -0.014 A 
BRANCH  38  39
ATOM     39  C   UNL A   1      37.989  32.194  30.615  1.00  0.00     0.031 A 
ATOM     40  C   UNL A   1      38.838  32.801  31.700  1.00  0.00     0.074 A 
ATOM     41  C   UNL A   1      38.377  31.051  30.016  1.00  0.00     0.049 A 
ATOM     42  N   UNL A   1      39.974  32.377  32.193  1.00  0.00    -0.248 NA
ATOM     43  C   UNL A   1      38.360  34.062  32.289  1.00  0.00     0.031 C 
ATOM     44  C   UNL A   1      37.659  30.374  28.934  1.00  0.00     0.029 A 
ATOM     45  N   UNL A   1      39.476  30.257  30.233  1.00  0.00    -0.354 N 
ATOM     46  C   UNL A   1      40.349  33.322  33.140  1.00  0.00     0.074 A 
ATOM     47  C   UNL A   1      39.353  34.370  33.109  1.00  0.00     0.031 C 
ATOM     48  C   UNL A   1      38.316  29.251  28.607  1.00  0.00     0.029 A 
ATOM     49  C   UNL A   1      39.524  29.151  29.419  1.00  0.00     0.049 A 
ATOM     50  H   UNL A   1      40.164  30.462  30.906  1.00  0.00     0.167 HD
ATOM     51  C   UNL A   1      41.415  33.310  33.977  1.00  0.00     0.031 A 
ATOM     52  C   UNL A   1      40.441  28.170  29.332  1.00  0.00     0.031 A 
ATOM     53  C   UNL A   1      42.407  32.268  34.007  1.00  0.00     0.049 A 
ATOM     54  C   UNL A   1      41.638  28.201  30.243  1.00  0.00     0.074 A 
ATOM     55  C   UNL A   1      43.501  32.143  34.845  1.00  0.00     0.029 A 
ATOM     56  N   UNL A   1      42.427  31.172  33.157  1.00  0.00    -0.354 N 
ATOM     57  N   UNL A   1      41.947  29.071  31.173  1.00  0.00    -0.248 NA
ATOM     58  C   UNL A   1      42.608  27.106  30.095  1.00  0.00     0.031 C 
ATOM     59  C   UNL A   1      44.218  31.004  34.461  1.00  0.00     0.029 A 
ATOM     60  C   UNL A   1      43.531  30.382  33.431  1.00  0.00     0.049 A 
ATOM     61  H   UNL A   1      41.756  30.985  32.461  1.00  0.00     0.167 HD
ATOM     62  C   UNL A   1      43.127  28.611  31.745  1.00  0.00     0.074 A 
ATOM     63  C   UNL A   1      43.469  27.378  31.066  1.00  0.00     0.031 C 
ATOM     64  C   UNL A   1      43.860  29.158  32.746  1.00  0.00     0.031 A 
BRANCH  51  65
ATOM     65  C   UNL A   1      41.564  34.472  34.922  1.00  0.00    -0.014 A 
ATOM     66  C   UNL A   1      40.979  34.453  36.200  1.00  0.00     0.009 A 
ATOM     67  C   UNL A   1      42.320  35.591  34.541  1.00  0.00     0.009 A 
ATOM     68  C   UNL A   1      41.109  35.550  37.055  1.00  0.00     0.001 A 
ATOM     69  C   UNL A   1      42.478  36.671  35.412  1.00  0.00     0.001 A 
ATOM     70  C   UNL A   1      41.863  36.654  36.663  1.00  0.00     0.000 A 
ENDBRANCH  51  65
BRANCH  52  71
ATOM     71  C   UNL A   1      40.258  27.060  28.359  1.00  0.00    -0.014 A 
ATOM     72  C   UNL A   1      39.559  25.900  28.726  1.00  0.00     0.009 A 
ATOM     73  C   UNL A   1      40.792  27.148  27.064  1.00  0.00     0.009 A 
ATOM     74  C   UNL A   1      39.423  24.839  27.827  1.00  0.00     0.001 A 
ATOM     75  C   UNL A   1      40.626  26.100  26.156  1.00  0.00     0.001 A 
ATOM     76  C   UNL A   1      39.952  24.943  26.541  1.00  0.00     0.000 A 
ENDBRANCH  52  71
BRANCH  64  77
ATOM     77  C   UNL A   1      45.081  28.405  33.198  1.00  0.00    -0.014 A 
ATOM     78  C   UNL A   1      46.346  28.658  32.646  1.00  0.00     0.009 A 
ATOM     79  C   UNL A   1      44.964  27.451  34.222  1.00  0.00     0.009 A 
ATOM     80  C   UNL A   1      47.464  27.945  33.087  1.00  0.00     0.001 A 
ATOM     81  C   UNL A   1      46.088  26.764  34.684  1.00  0.00     0.001 A 
ATOM     82  C   UNL A   1      47.334  27.003  34.108  1.00  0.00     0.000 A 
ENDBRANCH  64  77
ENDBRANCH  38  39
ENDBRANCH  30  33
ENDBRANCH  28  29
ENDBRANCH  27  28
ENDBRANCH  26  27
ENDBRANCH   1  26
TORSDOF 16
ENDMDL
MODEL 3
REMARK VINA RESULT:     -11.2      3.952      8.750
REMARK SMILES CCc1ccc(NC(=O)c2c(C(=O)NCCCCCCNC(=O)c3ccc(-c4c5nc(c(-c6ccccc6)c6ccc([nH]6)c(-c6ccccc6)c6nc(c(-c7ccccc7)c7ccc4[nH]7)C=C6)C=C5)cc3)cnn2C)cc1
REMARK SMILES IDX 17 1 16 2 15 3 14 4 12 5 13 6 11 8 10 9 74 10 72 11 73 12
REMARK SMILES IDX 75 13 8 14 7 15 9 17 6 18 3 19 4 20 77 21 5 22 76 23 2 24
REMARK SMILES IDX 1 25 18 26 19 27 20 28 21 29 22 30 23 32 24 33 25 34 71 35
REMARK SMILES IDX 26 36 70 37 27 38 28 39 29 40 64 41 30 42 69 43 63 44 65 45
REMARK SMILES IDX 31 46 68 47 62 48 61 49 32 51 54 52 39 53 53 54 40 55 43 56
REMARK SMILES IDX 52 57 66 58 41 59 42 60 51 62 67 63 44 64 33 65 34 66 38 67
REMARK SMILES IDX 35 68 37 69 36 70 55 71 56 72 60 73 57 74 59 75 58 76 45 77
REMARK SMILES IDX 46 78 50 79 47 80 49 81 48 82
REMARK H PARENT 14 7 7 16 21 31 65 50 43 61
REMARK Flexibility Score: inf
ROOT
ATOM      1  C   UNL A   1      37.772  22.381  25.223  1.00  0.00     0.002 C 
ENDROOT
BRANCH   1   2
ATOM      2  C   UNL A   1      36.867  23.593  25.038  1.00  0.00     0.021 C 
BRANCH   2   3
ATOM      3  C   UNL A   1      35.997  23.991  26.220  1.00  0.00     0.116 C 
BRANCH   3   4
ATOM      4  N   UNL A   1      35.330  22.916  26.897  1.00  0.00    -0.352 N 
ATOM      5  C   UNL A   1      34.115  22.324  26.661  1.00  0.00     0.255 C 
ATOM      6  O   UNL A   1      33.812  21.422  27.448  1.00  0.00    -0.269 OA
ATOM      7  H   UNL A   1      35.829  22.539  27.659  1.00  0.00     0.163 HD
BRANCH   5   8
ATOM      8  C   UNL A   1      33.170  22.708  25.607  1.00  0.00     0.090 A 
ATOM      9  C   UNL A   1      31.929  23.348  25.541  1.00  0.00     0.138 A 
ATOM     10  N   UNL A   1      31.612  23.428  24.200  1.00  0.00    -0.262 N 
ATOM     11  C   UNL A   1      33.444  22.410  24.239  1.00  0.00     0.149 A 
ATOM     12  N   UNL A   1      32.494  22.814  23.398  1.00  0.00    -0.180 NA
ATOM     13  C   UNL A   1      30.432  24.005  23.591  1.00  0.00     0.174 C 
BRANCH   9  14
ATOM     14  C   UNL A   1      31.075  23.905  26.547  1.00  0.00     0.274 C 
ATOM     15  N   UNL A   1      30.989  25.275  26.719  1.00  0.00    -0.321 N 
ATOM     16  H   UNL A   1      30.345  25.546  27.412  1.00  0.00     0.170 HD
ATOM     17  O   UNL A   1      30.407  23.198  27.305  1.00  0.00    -0.267 OA
BRANCH  15  18
ATOM     18  C   UNL A   1      31.638  26.361  26.095  1.00  0.00     0.041 A 
ATOM     19  C   UNL A   1      33.137  28.087  24.440  1.00  0.00    -0.048 A 
ATOM     20  C   UNL A   1      31.745  28.190  24.514  1.00  0.00     0.006 A 
ATOM     21  C   UNL A   1      33.779  27.223  25.332  1.00  0.00     0.006 A 
ATOM     22  C   UNL A   1      31.008  27.358  25.358  1.00  0.00     0.026 A 
ATOM     23  C   UNL A   1      33.034  26.371  26.156  1.00  0.00     0.026 A 
BRANCH  19  24
ATOM     24  C   UNL A   1      33.847  28.869  23.360  1.00  0.00     0.032 C 
ATOM     25  C   UNL A   1      34.026  28.174  22.018  1.00  0.00     0.009 C 
ENDBRANCH  19  24
ENDBRANCH  15  18
ENDBRANCH   9  14
ENDBRANCH   5   8
ENDBRANCH   3   4
ENDBRANCH   2   3
ENDBRANCH   1   2
BRANCH   1  26
ATOM     26  C   UNL A   1      37.322  21.081  24.552  1.00  0.00     0.002 C 
BRANCH  26  27
ATOM     27  C   UNL A   1      38.120  19.820  24.893  1.00  0.00     0.021 C 
BRANCH  27  28
ATOM     28  C   UNL A   1      39.113  19.949  26.043  1.00  0.00     0.116 C 
BRANCH  28  29
ATOM     29  N   UNL A   1      40.316  19.161  25.841  1.00  0.00    -0.352 N 
ATOM     30  C   UNL A   1      41.635  19.525  25.958  1.00  0.00     0.251 C 
ATOM     31  H   UNL A   1      40.163  18.223  25.582  1.00  0.00     0.163 HD
ATOM     32  O   UNL A   1      42.519  18.758  25.598  1.00  0.00    -0.269 OA
BRANCH  30  33
ATOM     33  C   UNL A   1      41.993  20.855  26.499  1.00  0.00     0.039 A 
ATOM     34  C   UNL A   1      42.330  21.875  25.606  1.00  0.00     0.014 A 
ATOM     35  C   UNL A   1      42.017  21.093  27.877  1.00  0.00     0.014 A 
ATOM     36  C   UNL A   1      42.634  23.149  26.090  1.00  0.00     0.010 A 
ATOM     37  C   UNL A   1      42.245  22.382  28.353  1.00  0.00     0.010 A 
ATOM     38  C   UNL A   1      42.562  23.421  27.466  1.00  0.00    -0.014 A 
BRANCH  38  39
ATOM     39  C   UNL A   1      42.822  24.784  27.994  1.00  0.00     0.031 A 
ATOM     40  C   UNL A   1      44.213  25.190  28.398  1.00  0.00     0.074 A 
ATOM     41  C   UNL A   1      41.795  25.643  28.159  1.00  0.00     0.049 A 
ATOM     42  N   UNL A   1      44.625  26.316  28.924  1.00  0.00    -0.248 NA
ATOM     43  C   UNL A   1      45.276  24.190  28.210  1.00  0.00     0.031 C 
ATOM     44  C   UNL A   1      40.395  25.363  27.833  1.00  0.00     0.029 A 
ATOM     45  N   UNL A   1      41.773  26.926  28.646  1.00  0.00    -0.354 N 
ATOM     46  C   UNL A   1      45.989  26.155  29.136  1.00  0.00     0.074 A 
ATOM     47  C   UNL A   1      46.322  24.805  28.741  1.00  0.00     0.031 C 
ATOM     48  C   UNL A   1      39.658  26.454  28.095  1.00  0.00     0.029 A 
ATOM     49  C   UNL A   1      40.521  27.491  28.651  1.00  0.00     0.049 A 
ATOM     50  H   UNL A   1      42.579  27.396  28.962  1.00  0.00     0.167 HD
ATOM     51  C   UNL A   1      46.889  27.056  29.599  1.00  0.00     0.031 A 
ATOM     52  C   UNL A   1      40.112  28.705  29.062  1.00  0.00     0.031 A 
ATOM     53  C   UNL A   1      46.558  28.400  29.994  1.00  0.00     0.049 A 
ATOM     54  C   UNL A   1      41.123  29.673  29.613  1.00  0.00     0.074 A 
ATOM     55  C   UNL A   1      47.403  29.401  30.438  1.00  0.00     0.029 A 
ATOM     56  N   UNL A   1      45.275  28.928  29.998  1.00  0.00    -0.354 N 
ATOM     57  N   UNL A   1      42.418  29.525  29.753  1.00  0.00    -0.248 NA
ATOM     58  C   UNL A   1      40.613  30.980  30.053  1.00  0.00     0.031 C 
ATOM     59  C   UNL A   1      46.624  30.516  30.768  1.00  0.00     0.029 A 
ATOM     60  C   UNL A   1      45.303  30.232  30.464  1.00  0.00     0.049 A 
ATOM     61  H   UNL A   1      44.465  28.446  29.713  1.00  0.00     0.167 HD
ATOM     62  C   UNL A   1      42.883  30.732  30.263  1.00  0.00     0.074 A 
ATOM     63  C   UNL A   1      41.734  31.603  30.394  1.00  0.00     0.031 C 
ATOM     64  C   UNL A   1      44.150  31.087  30.590  1.00  0.00     0.031 A 
BRANCH  51  65
ATOM     65  C   UNL A   1      48.321  26.607  29.713  1.00  0.00    -0.014 A 
ATOM     66  C   UNL A   1      49.237  26.816  28.667  1.00  0.00     0.009 A 
ATOM     67  C   UNL A   1      48.769  25.986  30.889  1.00  0.00     0.009 A 
ATOM     68  C   UNL A   1      50.556  26.372  28.780  1.00  0.00     0.001 A 
ATOM     69  C   UNL A   1      50.097  25.575  31.014  1.00  0.00     0.001 A 
ATOM     70  C   UNL A   1      50.986  25.758  29.955  1.00  0.00     0.000 A 
ENDBRANCH  51  65
BRANCH  52  71
ATOM     71  C   UNL A   1      38.678  29.087  28.955  1.00  0.00    -0.014 A 
ATOM     72  C   UNL A   1      38.161  29.578  27.746  1.00  0.00     0.009 A 
ATOM     73  C   UNL A   1      37.822  28.975  30.062  1.00  0.00     0.009 A 
ATOM     74  C   UNL A   1      36.826  29.977  27.656  1.00  0.00     0.001 A 
ATOM     75  C   UNL A   1      36.478  29.343  29.959  1.00  0.00     0.001 A 
ATOM     76  C   UNL A   1      35.985  29.854  28.761  1.00  0.00     0.000 A 
ENDBRANCH  52  71
BRANCH  64  77
ATOM     77  C   UNL A   1      44.367  32.492  31.081  1.00  0.00    -0.014 A 
ATOM     78  C   UNL A   1      44.603  33.552  30.193  1.00  0.00     0.009 A 
ATOM     79  C   UNL A   1      44.296  32.762  32.457  1.00  0.00     0.009 A 
ATOM     80  C   UNL A   1      44.799  34.848  30.676  1.00  0.00     0.001 A 
ATOM     81  C   UNL A   1      44.459  34.063  32.935  1.00  0.00     0.001 A 
ATOM     82  C   UNL A   1      44.721  35.103  32.045  1.00  0.00     0.000 A 
ENDBRANCH  64  77
ENDBRANCH  38  39
ENDBRANCH  30  33
ENDBRANCH  28  29
ENDBRANCH  27  28
ENDBRANCH  26  27
ENDBRANCH   1  26
TORSDOF 16
ENDMDL
