MODEL 1
REMARK VINA RESULT:     -11.8      0.000      0.000
REMARK SMILES Nc1cc(C(=O)NCCCCCCNC(=O)c2ccc(-c3c4nc(c(-c5ccccc5)c5ccc([nH]5)c(-c5ccccc5)c5nc(c(-c6ccccc6)c6ccc3[nH]6)C=C5)C=C4)cc2)ccc1N1CC2(CCOCC2)C1
REMARK SMILES IDX 11 1 10 2 9 3 8 4 7 5 5 6 6 7 4 9 2 10 3 11 67 12 66 13
REMARK SMILES IDX 65 14 1 15 68 18 69 19 76 20 70 21 71 22 75 23 72 24 74 25
REMARK SMILES IDX 73 26 12 27 13 28 14 29 15 30 16 32 17 33 18 34 64 35 19 36
REMARK SMILES IDX 63 37 20 38 21 39 22 40 57 41 23 42 62 43 56 44 58 45 24 46
REMARK SMILES IDX 61 47 55 48 54 49 25 51 47 52 32 53 46 54 33 55 36 56 45 57
REMARK SMILES IDX 59 58 34 59 35 60 44 62 60 63 37 64 26 65 27 66 31 67 28 68
REMARK SMILES IDX 30 69 29 70 48 71 49 72 53 73 50 74 52 75 51 76 38 77 39 78
REMARK SMILES IDX 43 79 40 80 42 81 41 82
REMARK H PARENT 7 8 1 16 1 17 14 31 58 50 36 61
REMARK Flexibility Score: inf
ROOT
ATOM      1  C   UNL A   1      36.085  20.883  25.341  1.00  0.00     0.002 C 
ENDROOT
BRANCH   1   2
ATOM      2  C   UNL A   1      35.549  21.954  24.380  1.00  0.00     0.002 C 
BRANCH   2   3
ATOM      3  C   UNL A   1      35.160  23.281  25.051  1.00  0.00     0.021 C 
BRANCH   3   4
ATOM      4  C   UNL A   1      33.780  23.780  24.622  1.00  0.00     0.116 C 
BRANCH   4   5
ATOM      5  N   UNL A   1      32.912  23.865  25.773  1.00  0.00    -0.352 N 
ATOM      6  C   UNL A   1      31.859  24.666  26.114  1.00  0.00     0.251 C 
ATOM      7  O   UNL A   1      31.413  24.508  27.254  1.00  0.00    -0.269 OA
ATOM      8  H   UNL A   1      33.126  23.198  26.465  1.00  0.00     0.163 HD
BRANCH   6   9
ATOM      9  C   UNL A   1      31.193  25.653  25.209  1.00  0.00     0.041 A 
ATOM     10  C   UNL A   1      30.985  28.041  24.685  1.00  0.00     0.056 A 
ATOM     11  C   UNL A   1      31.556  26.993  25.415  1.00  0.00     0.041 A 
ATOM     12  C   UNL A   1      29.958  27.759  23.762  1.00  0.00     0.060 A 
ATOM     13  C   UNL A   1      29.609  26.425  23.533  1.00  0.00     0.029 A 
ATOM     14  C   UNL A   1      30.255  25.381  24.213  1.00  0.00     0.016 A 
BRANCH  10  15
ATOM     15  N   UNL A   1      31.321  29.349  25.032  1.00  0.00    -0.397 N 
ATOM     16  H   UNL A   1      31.856  29.523  25.840  1.00  0.00     0.156 HD
ATOM     17  H   UNL A   1      31.023  30.100  24.468  1.00  0.00     0.156 HD
ENDBRANCH  10  15
BRANCH  12  18
ATOM     18  N   UNL A   1      29.281  28.794  23.109  1.00  0.00    -0.369 N 
ATOM     19  C   UNL A   1      29.751  29.837  22.262  1.00  0.00     0.125 C 
ATOM     20  C   UNL A   1      27.912  28.979  22.759  1.00  0.00     0.125 C 
ATOM     21  C   UNL A   1      28.320  30.430  22.382  1.00  0.00     0.010 C 
ATOM     22  C   UNL A   1      27.710  31.005  21.107  1.00  0.00     0.039 C 
ATOM     23  C   UNL A   1      28.154  31.435  23.537  1.00  0.00     0.039 C 
ATOM     24  C   UNL A   1      28.351  32.362  20.829  1.00  0.00     0.161 C 
ATOM     25  C   UNL A   1      28.782  32.759  23.126  1.00  0.00     0.161 C 
ATOM     26  O   UNL A   1      28.162  33.248  21.935  1.00  0.00    -0.381 OA
ENDBRANCH  12  18
ENDBRANCH   6   9
ENDBRANCH   4   5
ENDBRANCH   3   4
ENDBRANCH   2   3
ENDBRANCH   1   2
BRANCH   1  27
ATOM     27  C   UNL A   1      37.326  20.139  24.842  1.00  0.00     0.021 C 
BRANCH  27  28
ATOM     28  C   UNL A   1      38.639  20.710  25.367  1.00  0.00     0.116 C 
BRANCH  28  29
ATOM     29  N   UNL A   1      39.623  19.663  25.588  1.00  0.00    -0.352 N 
ATOM     30  C   UNL A   1      40.924  19.772  26.009  1.00  0.00     0.251 C 
ATOM     31  H   UNL A   1      39.312  18.745  25.409  1.00  0.00     0.163 HD
ATOM     32  O   UNL A   1      41.691  18.822  25.906  1.00  0.00    -0.269 OA
BRANCH  30  33
ATOM     33  C   UNL A   1      41.398  21.048  26.581  1.00  0.00     0.039 A 
ATOM     34  C   UNL A   1      41.981  21.996  25.736  1.00  0.00     0.014 A 
ATOM     35  C   UNL A   1      41.283  21.297  27.951  1.00  0.00     0.014 A 
ATOM     36  C   UNL A   1      42.405  23.218  26.260  1.00  0.00     0.010 A 
ATOM     37  C   UNL A   1      41.639  22.542  28.459  1.00  0.00     0.010 A 
ATOM     38  C   UNL A   1      42.211  23.510  27.620  1.00  0.00    -0.014 A 
BRANCH  38  39
ATOM     39  C   UNL A   1      42.609  24.822  28.187  1.00  0.00     0.031 A 
ATOM     40  C   UNL A   1      41.581  25.900  28.388  1.00  0.00     0.074 A 
ATOM     41  C   UNL A   1      43.906  25.063  28.461  1.00  0.00     0.049 A 
ATOM     42  N   UNL A   1      41.743  27.127  28.813  1.00  0.00    -0.248 NA
ATOM     43  C   UNL A   1      40.190  25.564  28.043  1.00  0.00     0.031 C 
ATOM     44  C   UNL A   1      45.003  24.111  28.273  1.00  0.00     0.029 A 
ATOM     45  N   UNL A   1      44.520  26.187  28.950  1.00  0.00    -0.354 N 
ATOM     46  C   UNL A   1      40.483  27.712  28.770  1.00  0.00     0.074 A 
ATOM     47  C   UNL A   1      39.576  26.723  28.230  1.00  0.00     0.031 C 
ATOM     48  C   UNL A   1      46.152  24.684  28.670  1.00  0.00     0.029 A 
ATOM     49  C   UNL A   1      45.879  26.052  29.097  1.00  0.00     0.049 A 
ATOM     50  H   UNL A   1      44.033  27.013  29.174  1.00  0.00     0.167 HD
ATOM     51  C   UNL A   1      40.111  28.953  29.163  1.00  0.00     0.031 A 
ATOM     52  C   UNL A   1      46.803  26.932  29.524  1.00  0.00     0.031 A 
ATOM     53  C   UNL A   1      41.013  29.931  29.710  1.00  0.00     0.049 A 
ATOM     54  C   UNL A   1      46.366  28.310  29.940  1.00  0.00     0.074 A 
ATOM     55  C   UNL A   1      40.724  31.197  30.188  1.00  0.00     0.029 A 
ATOM     56  N   UNL A   1      42.380  29.751  29.849  1.00  0.00    -0.354 N 
ATOM     57  N   UNL A   1      45.160  28.825  29.954  1.00  0.00    -0.248 NA
ATOM     58  C   UNL A   1      47.418  29.223  30.408  1.00  0.00     0.031 C 
ATOM     59  C   UNL A   1      41.925  31.804  30.567  1.00  0.00     0.029 A 
ATOM     60  C   UNL A   1      42.953  30.892  30.382  1.00  0.00     0.049 A 
ATOM     61  H   UNL A   1      42.871  28.933  29.605  1.00  0.00     0.167 HD
ATOM     62  C   UNL A   1      45.304  30.110  30.463  1.00  0.00     0.074 A 
ATOM     63  C   UNL A   1      46.711  30.289  30.756  1.00  0.00     0.031 C 
ATOM     64  C   UNL A   1      44.355  31.054  30.671  1.00  0.00     0.031 A 
BRANCH  51  65
ATOM     65  C   UNL A   1      38.662  29.323  29.006  1.00  0.00    -0.014 A 
ATOM     66  C   UNL A   1      38.173  29.857  27.802  1.00  0.00     0.009 A 
ATOM     67  C   UNL A   1      37.766  29.101  30.063  1.00  0.00     0.009 A 
ATOM     68  C   UNL A   1      36.825  30.197  27.675  1.00  0.00     0.001 A 
ATOM     69  C   UNL A   1      36.412  29.414  29.922  1.00  0.00     0.001 A 
ATOM     70  C   UNL A   1      35.945  29.970  28.732  1.00  0.00     0.000 A 
ENDBRANCH  51  65
BRANCH  52  71
ATOM     71  C   UNL A   1      48.233  26.536  29.596  1.00  0.00    -0.014 A 
ATOM     72  C   UNL A   1      49.102  26.808  28.528  1.00  0.00     0.009 A 
ATOM     73  C   UNL A   1      48.738  25.878  30.729  1.00  0.00     0.009 A 
ATOM     74  C   UNL A   1      50.438  26.404  28.581  1.00  0.00     0.001 A 
ATOM     75  C   UNL A   1      50.081  25.503  30.793  1.00  0.00     0.001 A 
ATOM     76  C   UNL A   1      50.927  25.757  29.715  1.00  0.00     0.000 A 
ENDBRANCH  52  71
BRANCH  64  77
ATOM     77  C   UNL A   1      44.800  32.353  31.282  1.00  0.00    -0.014 A 
ATOM     78  C   UNL A   1      45.151  33.454  30.485  1.00  0.00     0.009 A 
ATOM     79  C   UNL A   1      44.824  32.488  32.678  1.00  0.00     0.009 A 
ATOM     80  C   UNL A   1      45.549  34.654  31.078  1.00  0.00     0.001 A 
ATOM     81  C   UNL A   1      45.192  33.697  33.268  1.00  0.00     0.001 A 
ATOM     82  C   UNL A   1      45.563  34.776  32.468  1.00  0.00     0.000 A 
ENDBRANCH  64  77
ENDBRANCH  38  39
ENDBRANCH  30  33
ENDBRANCH  28  29
ENDBRANCH  27  28
ENDBRANCH   1  27
TORSDOF 15
ENDMDL
MODEL 2
REMARK VINA RESULT:     -11.7      3.049      8.519
REMARK SMILES Nc1cc(C(=O)NCCCCCCNC(=O)c2ccc(-c3c4nc(c(-c5ccccc5)c5ccc([nH]5)c(-c5ccccc5)c5nc(c(-c6ccccc6)c6ccc3[nH]6)C=C5)C=C4)cc2)ccc1N1CC2(CCOCC2)C1
REMARK SMILES IDX 11 1 10 2 9 3 8 4 7 5 5 6 6 7 4 9 2 10 3 11 67 12 66 13
REMARK SMILES IDX 65 14 1 15 68 18 69 19 76 20 70 21 71 22 75 23 72 24 74 25
REMARK SMILES IDX 73 26 12 27 13 28 14 29 15 30 16 32 17 33 18 34 64 35 19 36
REMARK SMILES IDX 63 37 20 38 21 39 22 40 57 41 23 42 62 43 56 44 58 45 24 46
REMARK SMILES IDX 61 47 55 48 54 49 25 51 47 52 32 53 46 54 33 55 36 56 45 57
REMARK SMILES IDX 59 58 34 59 35 60 44 62 60 63 37 64 26 65 27 66 31 67 28 68
REMARK SMILES IDX 30 69 29 70 48 71 49 72 53 73 50 74 52 75 51 76 38 77 39 78
REMARK SMILES IDX 43 79 40 80 42 81 41 82
REMARK H PARENT 7 8 1 16 1 17 14 31 58 50 36 61
REMARK Flexibility Score: inf
ROOT
ATOM      1  C   UNL A   1      34.560  24.053  25.819  1.00  0.00     0.002 C 
ENDROOT
BRANCH   1   2
ATOM      2  C   UNL A   1      34.637  25.423  25.128  1.00  0.00     0.002 C 
BRANCH   2   3
ATOM      3  C   UNL A   1      33.510  26.397  25.507  1.00  0.00     0.021 C 
BRANCH   3   4
ATOM      4  C   UNL A   1      33.013  27.220  24.318  1.00  0.00     0.116 C 
BRANCH   4   5
ATOM      5  N   UNL A   1      31.605  26.976  24.110  1.00  0.00    -0.352 N 
ATOM      6  C   UNL A   1      30.867  25.871  23.793  1.00  0.00     0.251 C 
ATOM      7  O   UNL A   1      29.666  26.069  23.594  1.00  0.00    -0.269 OA
ATOM      8  H   UNL A   1      31.055  27.786  24.219  1.00  0.00     0.163 HD
BRANCH   6   9
ATOM      9  C   UNL A   1      31.389  24.471  23.730  1.00  0.00     0.041 A 
ATOM     10  C   UNL A   1      31.493  22.334  24.934  1.00  0.00     0.056 A 
ATOM     11  C   UNL A   1      31.042  23.654  24.818  1.00  0.00     0.041 A 
ATOM     12  C   UNL A   1      32.384  21.824  23.968  1.00  0.00     0.060 A 
ATOM     13  C   UNL A   1      32.713  22.622  22.870  1.00  0.00     0.029 A 
ATOM     14  C   UNL A   1      32.180  23.913  22.727  1.00  0.00     0.016 A 
BRANCH  10  15
ATOM     15  N   UNL A   1      31.194  21.633  26.101  1.00  0.00    -0.397 N 
ATOM     16  H   UNL A   1      31.521  21.959  26.970  1.00  0.00     0.156 HD
ATOM     17  H   UNL A   1      30.655  20.809  26.056  1.00  0.00     0.156 HD
ENDBRANCH  10  15
BRANCH  12  18
ATOM     18  N   UNL A   1      32.951  20.554  24.121  1.00  0.00    -0.369 N 
ATOM     19  C   UNL A   1      32.683  19.320  23.465  1.00  0.00     0.125 C 
ATOM     20  C   UNL A   1      34.181  20.111  24.688  1.00  0.00     0.125 C 
ATOM     21  C   UNL A   1      33.605  18.676  24.537  1.00  0.00     0.010 C 
ATOM     22  C   UNL A   1      34.568  17.598  24.050  1.00  0.00     0.039 C 
ATOM     23  C   UNL A   1      32.857  18.179  25.787  1.00  0.00     0.039 C 
ATOM     24  C   UNL A   1      33.782  16.311  23.816  1.00  0.00     0.161 C 
ATOM     25  C   UNL A   1      32.157  16.870  25.451  1.00  0.00     0.161 C 
ATOM     26  O   UNL A   1      33.113  15.902  25.013  1.00  0.00    -0.381 OA
ENDBRANCH  12  18
ENDBRANCH   6   9
ENDBRANCH   4   5
ENDBRANCH   3   4
ENDBRANCH   2   3
ENDBRANCH   1   2
BRANCH   1  27
ATOM     27  C   UNL A   1      35.904  23.505  26.302  1.00  0.00     0.021 C 
BRANCH  27  28
ATOM     28  C   UNL A   1      37.033  23.655  25.288  1.00  0.00     0.116 C 
BRANCH  28  29
ATOM     29  N   UNL A   1      38.116  22.722  25.557  1.00  0.00    -0.352 N 
ATOM     30  C   UNL A   1      39.347  22.961  26.111  1.00  0.00     0.251 C 
ATOM     31  H   UNL A   1      37.941  21.786  25.304  1.00  0.00     0.163 HD
ATOM     32  O   UNL A   1      40.234  22.118  26.041  1.00  0.00    -0.269 OA
BRANCH  30  33
ATOM     33  C   UNL A   1      39.601  24.248  26.789  1.00  0.00     0.039 A 
ATOM     34  C   UNL A   1      39.121  24.438  28.087  1.00  0.00     0.014 A 
ATOM     35  C   UNL A   1      40.298  25.269  26.136  1.00  0.00     0.014 A 
ATOM     36  C   UNL A   1      39.383  25.638  28.750  1.00  0.00     0.010 A 
ATOM     37  C   UNL A   1      40.619  26.434  26.822  1.00  0.00     0.010 A 
ATOM     38  C   UNL A   1      40.157  26.634  28.132  1.00  0.00    -0.014 A 
BRANCH  38  39
ATOM     39  C   UNL A   1      40.488  27.896  28.837  1.00  0.00     0.031 A 
ATOM     40  C   UNL A   1      41.823  28.056  29.512  1.00  0.00     0.074 A 
ATOM     41  C   UNL A   1      39.565  28.873  28.924  1.00  0.00     0.049 A 
ATOM     42  N   UNL A   1      42.272  29.056  30.226  1.00  0.00    -0.248 NA
ATOM     43  C   UNL A   1      42.767  26.933  29.390  1.00  0.00     0.031 C 
ATOM     44  C   UNL A   1      38.221  28.822  28.343  1.00  0.00     0.029 A 
ATOM     45  N   UNL A   1      39.616  30.096  29.539  1.00  0.00    -0.354 N 
ATOM     46  C   UNL A   1      43.540  28.678  30.650  1.00  0.00     0.074 A 
ATOM     47  C   UNL A   1      43.769  27.336  30.157  1.00  0.00     0.031 C 
ATOM     48  C   UNL A   1      37.586  29.976  28.608  1.00  0.00     0.029 A 
ATOM     49  C   UNL A   1      38.459  30.826  29.410  1.00  0.00     0.049 A 
ATOM     50  H   UNL A   1      40.406  30.422  30.028  1.00  0.00     0.167 HD
ATOM     51  C   UNL A   1      44.441  29.389  31.368  1.00  0.00     0.031 A 
ATOM     52  C   UNL A   1      38.136  32.043  29.887  1.00  0.00     0.031 A 
ATOM     53  C   UNL A   1      44.216  30.726  31.847  1.00  0.00     0.049 A 
ATOM     54  C   UNL A   1      39.149  32.806  30.696  1.00  0.00     0.074 A 
ATOM     55  C   UNL A   1      45.087  31.552  32.537  1.00  0.00     0.029 A 
ATOM     56  N   UNL A   1      43.034  31.432  31.688  1.00  0.00    -0.354 N 
ATOM     57  N   UNL A   1      40.367  32.459  31.032  1.00  0.00    -0.248 NA
ATOM     58  C   UNL A   1      38.742  34.132  31.179  1.00  0.00     0.031 C 
ATOM     59  C   UNL A   1      44.412  32.738  32.842  1.00  0.00     0.029 A 
ATOM     60  C   UNL A   1      43.143  32.674  32.288  1.00  0.00     0.049 A 
ATOM     61  H   UNL A   1      42.235  31.099  31.218  1.00  0.00     0.167 HD
ATOM     62  C   UNL A   1      40.885  33.537  31.740  1.00  0.00     0.074 A 
ATOM     63  C   UNL A   1      39.852  34.552  31.770  1.00  0.00     0.031 C 
ATOM     64  C   UNL A   1      42.107  33.675  32.309  1.00  0.00     0.031 A 
BRANCH  51  65
ATOM     65  C   UNL A   1      45.753  28.725  31.684  1.00  0.00    -0.014 A 
ATOM     66  C   UNL A   1      45.942  28.019  32.883  1.00  0.00     0.009 A 
ATOM     67  C   UNL A   1      46.804  28.777  30.755  1.00  0.00     0.009 A 
ATOM     68  C   UNL A   1      47.168  27.410  33.161  1.00  0.00     0.001 A 
ATOM     69  C   UNL A   1      48.019  28.142  31.022  1.00  0.00     0.001 A 
ATOM     70  C   UNL A   1      48.202  27.467  32.228  1.00  0.00     0.000 A 
ENDBRANCH  51  65
BRANCH  52  71
ATOM     71  C   UNL A   1      36.798  32.624  29.602  1.00  0.00    -0.014 A 
ATOM     72  C   UNL A   1      35.758  32.510  30.537  1.00  0.00     0.009 A 
ATOM     73  C   UNL A   1      36.551  33.291  28.391  1.00  0.00     0.009 A 
ATOM     74  C   UNL A   1      34.492  33.026  30.254  1.00  0.00     0.001 A 
ATOM     75  C   UNL A   1      35.292  33.833  28.124  1.00  0.00     0.001 A 
ATOM     76  C   UNL A   1      34.261  33.690  29.050  1.00  0.00     0.000 A 
ENDBRANCH  52  71
BRANCH  64  77
ATOM     77  C   UNL A   1      42.410  34.985  32.978  1.00  0.00    -0.014 A 
ATOM     78  C   UNL A   1      41.978  35.255  34.287  1.00  0.00     0.009 A 
ATOM     79  C   UNL A   1      43.179  35.945  32.304  1.00  0.00     0.009 A 
ATOM     80  C   UNL A   1      42.284  36.476  34.891  1.00  0.00     0.001 A 
ATOM     81  C   UNL A   1      43.510  37.151  32.922  1.00  0.00     0.001 A 
ATOM     82  C   UNL A   1      43.053  37.420  34.211  1.00  0.00     0.000 A 
ENDBRANCH  64  77
ENDBRANCH  38  39
ENDBRANCH  30  33
ENDBRANCH  28  29
ENDBRANCH  27  28
ENDBRANCH   1  27
TORSDOF 15
ENDMDL
MODEL 3
REMARK VINA RESULT:     -11.7      2.041      6.692
REMARK SMILES Nc1cc(C(=O)NCCCCCCNC(=O)c2ccc(-c3c4nc(c(-c5ccccc5)c5ccc([nH]5)c(-c5ccccc5)c5nc(c(-c6ccccc6)c6ccc3[nH]6)C=C5)C=C4)cc2)ccc1N1CC2(CCOCC2)C1
REMARK SMILES IDX 11 1 10 2 9 3 8 4 7 5 5 6 6 7 4 9 2 10 3 11 67 12 66 13
REMARK SMILES IDX 65 14 1 15 68 18 69 19 76 20 70 21 71 22 75 23 72 24 74 25
REMARK SMILES IDX 73 26 12 27 13 28 14 29 15 30 16 32 17 33 18 34 64 35 19 36
REMARK SMILES IDX 63 37 20 38 21 39 22 40 57 41 23 42 62 43 56 44 58 45 24 46
REMARK SMILES IDX 61 47 55 48 54 49 25 51 47 52 32 53 46 54 33 55 36 56 45 57
REMARK SMILES IDX 59 58 34 59 35 60 44 62 60 63 37 64 26 65 27 66 31 67 28 68
REMARK SMILES IDX 30 69 29 70 48 71 49 72 53 73 50 74 52 75 51 76 38 77 39 78
REMARK SMILES IDX 43 79 40 80 42 81 41 82
REMARK H PARENT 7 8 1 16 1 17 14 31 58 50 36 61
REMARK Flexibility Score: inf
ROOT
ATOM      1  C   UNL A   1      33.323  26.454  25.934  1.00  0.00     0.002 C 
ENDROOT
BRANCH   1   2
ATOM      2  C   UNL A   1      34.419  25.607  25.271  1.00  0.00     0.002 C 
BRANCH   2   3
ATOM      3  C   UNL A   1      34.223  24.089  25.397  1.00  0.00     0.021 C 
BRANCH   3   4
ATOM      4  C   UNL A   1      34.750  23.319  24.185  1.00  0.00     0.116 C 
BRANCH   4   5
ATOM      5  N   UNL A   1      33.709  22.471  23.654  1.00  0.00    -0.352 N 
ATOM      6  C   UNL A   1      32.389  22.658  23.358  1.00  0.00     0.251 C 
ATOM      7  O   UNL A   1      31.772  21.649  23.004  1.00  0.00    -0.269 OA
ATOM      8  H   UNL A   1      34.019  21.556  23.463  1.00  0.00     0.163 HD
BRANCH   6   9
ATOM      9  C   UNL A   1      31.674  23.971  23.377  1.00  0.00     0.041 A 
ATOM     10  C   UNL A   1      31.576  26.194  22.341  1.00  0.00     0.056 A 
ATOM     11  C   UNL A   1      32.109  24.903  22.420  1.00  0.00     0.041 A 
ATOM     12  C   UNL A   1      30.624  26.606  23.296  1.00  0.00     0.060 A 
ATOM     13  C   UNL A   1      30.168  25.677  24.234  1.00  0.00     0.029 A 
ATOM     14  C   UNL A   1      30.651  24.359  24.242  1.00  0.00     0.016 A 
BRANCH  10  15
ATOM     15  N   UNL A   1      32.144  27.089  21.436  1.00  0.00    -0.397 N 
ATOM     16  H   UNL A   1      32.222  26.846  20.485  1.00  0.00     0.156 HD
ATOM     17  H   UNL A   1      32.467  27.966  21.748  1.00  0.00     0.156 HD
ENDBRANCH  10  15
BRANCH  12  18
ATOM     18  N   UNL A   1      30.166  27.927  23.321  1.00  0.00    -0.369 N 
ATOM     19  C   UNL A   1      28.849  28.466  23.289  1.00  0.00     0.125 C 
ATOM     20  C   UNL A   1      30.773  29.149  23.733  1.00  0.00     0.125 C 
ATOM     21  C   UNL A   1      29.536  29.847  23.102  1.00  0.00     0.010 C 
ATOM     22  C   UNL A   1      28.940  31.018  23.876  1.00  0.00     0.039 C 
ATOM     23  C   UNL A   1      29.742  30.248  21.629  1.00  0.00     0.039 C 
ATOM     24  C   UNL A   1      27.654  31.458  23.181  1.00  0.00     0.161 C 
ATOM     25  C   UNL A   1      28.410  30.716  21.059  1.00  0.00     0.161 C 
ATOM     26  O   UNL A   1      27.911  31.818  21.821  1.00  0.00    -0.381 OA
ENDBRANCH  12  18
ENDBRANCH   6   9
ENDBRANCH   4   5
ENDBRANCH   3   4
ENDBRANCH   2   3
ENDBRANCH   1   2
BRANCH   1  27
ATOM     27  C   UNL A   1      33.683  27.928  26.128  1.00  0.00     0.021 C 
BRANCH  27  28
ATOM     28  C   UNL A   1      33.307  28.480  27.499  1.00  0.00     0.116 C 
BRANCH  28  29
ATOM     29  N   UNL A   1      33.349  29.933  27.517  1.00  0.00    -0.352 N 
ATOM     30  C   UNL A   1      34.337  30.765  27.976  1.00  0.00     0.251 C 
ATOM     31  H   UNL A   1      32.554  30.384  27.148  1.00  0.00     0.163 HD
ATOM     32  O   UNL A   1      34.115  31.958  28.147  1.00  0.00    -0.269 OA
BRANCH  30  33
ATOM     33  C   UNL A   1      35.674  30.212  28.271  1.00  0.00     0.039 A 
ATOM     34  C   UNL A   1      36.637  30.188  27.259  1.00  0.00     0.014 A 
ATOM     35  C   UNL A   1      35.967  29.703  29.539  1.00  0.00     0.014 A 
ATOM     36  C   UNL A   1      37.914  29.697  27.535  1.00  0.00     0.010 A 
ATOM     37  C   UNL A   1      37.260  29.281  29.832  1.00  0.00     0.010 A 
ATOM     38  C   UNL A   1      38.242  29.266  28.831  1.00  0.00    -0.014 A 
BRANCH  38  39
ATOM     39  C   UNL A   1      39.607  28.786  29.157  1.00  0.00     0.031 A 
ATOM     40  C   UNL A   1      40.578  29.694  29.861  1.00  0.00     0.074 A 
ATOM     41  C   UNL A   1      39.994  27.557  28.764  1.00  0.00     0.049 A 
ATOM     42  N   UNL A   1      41.829  29.479  30.178  1.00  0.00    -0.248 NA
ATOM     43  C   UNL A   1      40.085  31.030  30.237  1.00  0.00     0.031 C 
ATOM     44  C   UNL A   1      39.157  26.597  28.041  1.00  0.00     0.029 A 
ATOM     45  N   UNL A   1      41.192  26.909  28.913  1.00  0.00    -0.354 N 
ATOM     46  C   UNL A   1      42.276  30.653  30.772  1.00  0.00     0.074 A 
ATOM     47  C   UNL A   1      41.178  31.595  30.726  1.00  0.00     0.031 C 
ATOM     48  C   UNL A   1      39.861  25.471  27.835  1.00  0.00     0.029 A 
ATOM     49  C   UNL A   1      41.206  25.647  28.370  1.00  0.00     0.049 A 
ATOM     50  H   UNL A   1      41.970  27.309  29.365  1.00  0.00     0.167 HD
ATOM     51  C   UNL A   1      43.483  30.917  31.324  1.00  0.00     0.031 A 
ATOM     52  C   UNL A   1      42.194  24.734  28.308  1.00  0.00     0.031 A 
ATOM     53  C   UNL A   1      44.569  29.976  31.378  1.00  0.00     0.049 A 
ATOM     54  C   UNL A   1      43.531  25.058  28.914  1.00  0.00     0.074 A 
ATOM     55  C   UNL A   1      45.814  30.129  31.964  1.00  0.00     0.029 A 
ATOM     56  N   UNL A   1      44.540  28.706  30.824  1.00  0.00    -0.354 N 
ATOM     57  N   UNL A   1      43.916  26.150  29.530  1.00  0.00    -0.248 NA
ATOM     58  C   UNL A   1      44.565  24.018  28.825  1.00  0.00     0.031 C 
ATOM     59  C   UNL A   1      46.557  28.970  31.717  1.00  0.00     0.029 A 
ATOM     60  C   UNL A   1      45.753  28.073  31.032  1.00  0.00     0.049 A 
ATOM     61  H   UNL A   1      43.770  28.312  30.352  1.00  0.00     0.167 HD
ATOM     62  C   UNL A   1      45.226  25.916  29.930  1.00  0.00     0.074 A 
ATOM     63  C   UNL A   1      45.562  24.575  29.498  1.00  0.00     0.031 C 
ATOM     64  C   UNL A   1      46.072  26.737  30.598  1.00  0.00     0.031 A 
BRANCH  51  65
ATOM     65  C   UNL A   1      43.693  32.287  31.907  1.00  0.00    -0.014 A 
ATOM     66  C   UNL A   1      44.177  33.347  31.122  1.00  0.00     0.009 A 
ATOM     67  C   UNL A   1      43.368  32.532  33.250  1.00  0.00     0.009 A 
ATOM     68  C   UNL A   1      44.368  34.612  31.681  1.00  0.00     0.001 A 
ATOM     69  C   UNL A   1      43.532  33.807  33.798  1.00  0.00     0.001 A 
ATOM     70  C   UNL A   1      44.039  34.842  33.016  1.00  0.00     0.000 A 
ENDBRANCH  51  65
BRANCH  52  71
ATOM     71  C   UNL A   1      41.953  23.419  27.659  1.00  0.00    -0.014 A 
ATOM     72  C   UNL A   1      42.315  23.209  26.319  1.00  0.00     0.009 A 
ATOM     73  C   UNL A   1      41.354  22.368  28.372  1.00  0.00     0.009 A 
ATOM     74  C   UNL A   1      42.057  21.985  25.699  1.00  0.00     0.001 A 
ATOM     75  C   UNL A   1      41.125  21.135  27.759  1.00  0.00     0.001 A 
ATOM     76  C   UNL A   1      41.467  20.948  26.421  1.00  0.00     0.000 A 
ENDBRANCH  52  71
BRANCH  64  77
ATOM     77  C   UNL A   1      47.430  26.194  30.939  1.00  0.00    -0.014 A 
ATOM     78  C   UNL A   1      48.460  26.148  29.987  1.00  0.00     0.009 A 
ATOM     79  C   UNL A   1      47.694  25.764  32.249  1.00  0.00     0.009 A 
ATOM     80  C   UNL A   1      49.718  25.650  30.334  1.00  0.00     0.001 A 
ATOM     81  C   UNL A   1      48.960  25.296  32.600  1.00  0.00     0.001 A 
ATOM     82  C   UNL A   1      49.969  25.230  31.640  1.00  0.00     0.000 A 
ENDBRANCH  64  77
ENDBRANCH  38  39
ENDBRANCH  30  33
ENDBRANCH  28  29
ENDBRANCH  27  28
ENDBRANCH   1  27
TORSDOF 15
ENDMDL
