MODEL 1
REMARK VINA RESULT:     -11.9      0.000      0.000
REMARK SMILES Cc1cc(C)n(CC(=O)N[C@@H]2C(=O)N3C(C(=O)NCCCCCCNC(=O)c4ccc(-c5c6nc(c(-c7ccccc7)c7ccc([nH]7)c(-c7ccccc7)c7nc(c(-c8ccccc8)c8ccc5[nH]8)C=C7)C=C6)cc4)=C(CSc4nnc(C)s4)CS[C@H]23)n1
REMARK SMILES IDX 21 1 20 2 19 3 18 4 16 5 17 6 15 8 11 9 12 10 87 11 13 12
REMARK SMILES IDX 14 13 86 14 85 15 76 16 10 17 8 18 9 19 7 21 6 22 1 23 2 24
REMARK SMILES IDX 3 25 88 26 4 27 5 28 77 29 78 30 79 31 80 32 84 33 81 34
REMARK SMILES IDX 82 35 83 36 22 37 23 38 24 39 25 40 26 41 27 43 28 44 29 45
REMARK SMILES IDX 75 46 30 47 74 48 31 49 32 50 33 51 68 52 34 53 73 54 67 55
REMARK SMILES IDX 69 56 35 57 72 58 66 59 65 60 36 62 58 63 43 64 57 65 44 66
REMARK SMILES IDX 47 67 56 68 70 69 45 70 46 71 55 73 71 74 48 75 37 76 38 77
REMARK SMILES IDX 42 78 39 79 41 80 40 81 59 82 60 83 64 84 61 85 63 86 62 87
REMARK SMILES IDX 49 88 50 89 54 90 51 91 53 92 52 93
REMARK H PARENT 18 7 10 20 25 42 69 61 47 72
REMARK Flexibility Score: inf
ROOT
ATOM      1  C   UNL A   1      34.449  31.810  28.522  1.00  0.00     0.002 C 
ENDROOT
BRANCH   1   2
ATOM      2  C   UNL A   1      34.678  30.833  27.364  1.00  0.00     0.021 C 
BRANCH   2   3
ATOM      3  C   UNL A   1      34.661  29.347  27.748  1.00  0.00     0.116 C 
BRANCH   3   4
ATOM      4  N   UNL A   1      33.304  28.849  27.812  1.00  0.00    -0.351 N 
ATOM      5  C   UNL A   1      32.425  28.256  26.969  1.00  0.00     0.268 C 
ATOM      6  O   UNL A   1      31.476  27.730  27.564  1.00  0.00    -0.268 OA
ATOM      7  H   UNL A   1      32.915  28.977  28.708  1.00  0.00     0.163 HD
BRANCH   5   8
ATOM      8  C   UNL A   1      32.601  28.022  25.458  1.00  0.00     0.111 C 
ATOM      9  C   UNL A   1      33.658  24.900  24.499  1.00  0.00     0.205 C 
ATOM     10  C   UNL A   1      32.817  25.590  25.586  1.00  0.00     0.253 C 
ATOM     11  C   UNL A   1      33.769  26.349  23.917  1.00  0.00     0.181 C 
ATOM     12  O   UNL A   1      31.929  25.199  26.337  1.00  0.00    -0.272 OA
ATOM     13  N   UNL A   1      33.259  26.825  25.202  1.00  0.00    -0.290 N 
ATOM     14  S   UNL A   1      32.598  26.716  22.568  1.00  0.00    -0.129 SA
ATOM     15  C   UNL A   1      32.529  28.461  22.982  1.00  0.00     0.106 C 
ATOM     16  C   UNL A   1      32.039  28.673  24.404  1.00  0.00    -0.020 C 
BRANCH   9  17
ATOM     17  N   UNL A   1      32.920  23.875  23.705  1.00  0.00    -0.340 N 
ATOM     18  C   UNL A   1      32.667  22.574  24.038  1.00  0.00     0.242 C 
ATOM     19  O   UNL A   1      32.040  21.862  23.250  1.00  0.00    -0.273 OA
ATOM     20  H   UNL A   1      32.573  24.173  22.832  1.00  0.00     0.164 HD
BRANCH  18  21
ATOM     21  C   UNL A   1      33.126  22.048  25.374  1.00  0.00     0.244 C 
BRANCH  21  22
ATOM     22  N   UNL A   1      34.473  21.515  25.304  1.00  0.00    -0.260 N 
ATOM     23  C   UNL A   1      37.947  22.131  25.623  1.00  0.00     0.069 C 
ATOM     24  C   UNL A   1      36.593  21.564  25.415  1.00  0.00     0.060 A 
ATOM     25  C   UNL A   1      36.243  20.262  25.002  1.00  0.00     0.048 A 
ATOM     26  N   UNL A   1      35.511  22.327  25.599  1.00  0.00    -0.178 NA
ATOM     27  C   UNL A   1      34.866  20.251  24.944  1.00  0.00     0.036 A 
ATOM     28  C   UNL A   1      33.925  19.169  24.564  1.00  0.00     0.066 C 
ENDBRANCH  21  22
ENDBRANCH  18  21
ENDBRANCH   9  17
BRANCH  16  29
ATOM     29  C   UNL A   1      30.738  29.442  24.444  1.00  0.00     0.111 C 
BRANCH  29  30
ATOM     30  S   UNL A   1      29.563  28.730  23.258  1.00  0.00    -0.089 SA
BRANCH  30  31
ATOM     31  C   UNL A   1      28.760  30.162  22.722  1.00  0.00     0.174 A 
ATOM     32  N   UNL A   1      28.336  31.081  23.559  1.00  0.00    -0.132 NA
ATOM     33  S   UNL A   1      28.486  30.503  21.073  1.00  0.00    -0.091 S 
ATOM     34  N   UNL A   1      27.838  32.181  22.895  1.00  0.00    -0.143 NA
ATOM     35  C   UNL A   1      27.905  32.031  21.591  1.00  0.00     0.115 A 
ATOM     36  C   UNL A   1      27.620  33.083  20.600  1.00  0.00     0.081 C 
ENDBRANCH  30  31
ENDBRANCH  29  30
ENDBRANCH  16  29
ENDBRANCH   5   8
ENDBRANCH   3   4
ENDBRANCH   2   3
ENDBRANCH   1   2
BRANCH   1  37
ATOM     37  C   UNL A   1      34.578  33.296  28.172  1.00  0.00     0.002 C 
BRANCH  37  38
ATOM     38  C   UNL A   1      33.381  34.181  28.546  1.00  0.00     0.021 C 
BRANCH  38  39
ATOM     39  C   UNL A   1      33.747  35.474  29.275  1.00  0.00     0.116 C 
BRANCH  39  40
ATOM     40  N   UNL A   1      33.128  35.558  30.587  1.00  0.00    -0.352 N 
ATOM     41  C   UNL A   1      33.454  34.894  31.745  1.00  0.00     0.251 C 
ATOM     42  H   UNL A   1      32.367  36.179  30.656  1.00  0.00     0.163 HD
ATOM     43  O   UNL A   1      32.673  34.892  32.691  1.00  0.00    -0.269 OA
BRANCH  41  44
ATOM     44  C   UNL A   1      34.718  34.133  31.834  1.00  0.00     0.039 A 
ATOM     45  C   UNL A   1      34.655  32.739  31.853  1.00  0.00     0.014 A 
ATOM     46  C   UNL A   1      35.953  34.778  31.914  1.00  0.00     0.014 A 
ATOM     47  C   UNL A   1      35.837  31.996  31.863  1.00  0.00     0.010 A 
ATOM     48  C   UNL A   1      37.134  34.035  31.876  1.00  0.00     0.010 A 
ATOM     49  C   UNL A   1      37.090  32.636  31.841  1.00  0.00    -0.014 A 
BRANCH  49  50
ATOM     50  C   UNL A   1      38.294  31.802  31.636  1.00  0.00     0.031 A 
ATOM     51  C   UNL A   1      39.111  31.513  32.857  1.00  0.00     0.074 A 
ATOM     52  C   UNL A   1      38.640  31.126  30.516  1.00  0.00     0.049 A 
ATOM     53  N   UNL A   1      40.378  31.711  33.038  1.00  0.00    -0.248 NA
ATOM     54  C   UNL A   1      38.421  30.925  34.017  1.00  0.00     0.031 C 
ATOM     55  C   UNL A   1      37.858  30.979  29.291  1.00  0.00     0.029 A 
ATOM     56  N   UNL A   1      39.748  30.343  30.278  1.00  0.00    -0.354 N 
ATOM     57  C   UNL A   1      40.685  31.146  34.274  1.00  0.00     0.074 A 
ATOM     58  C   UNL A   1      39.434  30.742  34.867  1.00  0.00     0.031 C 
ATOM     59  C   UNL A   1      38.411  30.015  28.524  1.00  0.00     0.029 A 
ATOM     60  C   UNL A   1      39.655  29.563  29.133  1.00  0.00     0.049 A 
ATOM     61  H   UNL A   1      40.538  30.337  30.866  1.00  0.00     0.167 HD
ATOM     62  C   UNL A   1      41.961  30.869  34.654  1.00  0.00     0.031 A 
ATOM     63  C   UNL A   1      40.507  28.607  28.686  1.00  0.00     0.031 A 
ATOM     64  C   UNL A   1      42.954  31.502  33.835  1.00  0.00     0.049 A 
ATOM     65  C   UNL A   1      41.849  28.824  29.267  1.00  0.00     0.074 A 
ATOM     66  C   UNL A   1      43.599  32.714  33.754  1.00  0.00     0.029 A 
ATOM     67  N   UNL A   1      43.302  30.786  32.728  1.00  0.00    -0.354 N 
ATOM     68  N   UNL A   1      42.631  29.805  28.921  1.00  0.00    -0.248 NA
ATOM     69  C   UNL A   1      42.334  28.003  30.374  1.00  0.00     0.031 C 
ATOM     70  C   UNL A   1      44.217  32.760  32.465  1.00  0.00     0.029 A 
ATOM     71  C   UNL A   1      43.911  31.581  31.795  1.00  0.00     0.049 A 
ATOM     72  H   UNL A   1      43.136  29.822  32.615  1.00  0.00     0.167 HD
ATOM     73  C   UNL A   1      43.475  29.968  29.997  1.00  0.00     0.074 A 
ATOM     74  C   UNL A   1      43.394  28.725  30.747  1.00  0.00     0.031 C 
ATOM     75  C   UNL A   1      43.859  31.213  30.397  1.00  0.00     0.031 A 
BRANCH  62  76
ATOM     76  C   UNL A   1      42.348  29.678  35.502  1.00  0.00    -0.014 A 
ATOM     77  C   UNL A   1      43.343  29.845  36.486  1.00  0.00     0.009 A 
ATOM     78  C   UNL A   1      42.009  28.354  35.164  1.00  0.00     0.009 A 
ATOM     79  C   UNL A   1      43.991  28.748  37.067  1.00  0.00     0.001 A 
ATOM     80  C   UNL A   1      42.630  27.256  35.771  1.00  0.00     0.001 A 
ATOM     81  C   UNL A   1      43.636  27.453  36.707  1.00  0.00     0.000 A 
ENDBRANCH  62  76
BRANCH  63  82
ATOM     82  C   UNL A   1      40.269  27.463  27.768  1.00  0.00    -0.014 A 
ATOM     83  C   UNL A   1      41.048  27.288  26.614  1.00  0.00     0.009 A 
ATOM     84  C   UNL A   1      39.424  26.404  28.129  1.00  0.00     0.009 A 
ATOM     85  C   UNL A   1      41.026  26.084  25.897  1.00  0.00     0.001 A 
ATOM     86  C   UNL A   1      39.404  25.196  27.426  1.00  0.00     0.001 A 
ATOM     87  C   UNL A   1      40.219  25.030  26.316  1.00  0.00     0.000 A 
ENDBRANCH  63  82
BRANCH  75  88
ATOM     88  C   UNL A   1      43.903  32.293  29.357  1.00  0.00    -0.014 A 
ATOM     89  C   UNL A   1      44.812  32.279  28.286  1.00  0.00     0.009 A 
ATOM     90  C   UNL A   1      42.987  33.351  29.444  1.00  0.00     0.009 A 
ATOM     91  C   UNL A   1      44.843  33.327  27.363  1.00  0.00     0.001 A 
ATOM     92  C   UNL A   1      43.001  34.385  28.505  1.00  0.00     0.001 A 
ATOM     93  C   UNL A   1      43.938  34.379  27.473  1.00  0.00     0.000 A 
ENDBRANCH  75  88
ENDBRANCH  49  50
ENDBRANCH  41  44
ENDBRANCH  39  40
ENDBRANCH  38  39
ENDBRANCH  37  38
ENDBRANCH   1  37
TORSDOF 19
ENDMDL
MODEL 2
REMARK VINA RESULT:     -11.7      2.811      4.343
REMARK SMILES Cc1cc(C)n(CC(=O)N[C@@H]2C(=O)N3C(C(=O)NCCCCCCNC(=O)c4ccc(-c5c6nc(c(-c7ccccc7)c7ccc([nH]7)c(-c7ccccc7)c7nc(c(-c8ccccc8)c8ccc5[nH]8)C=C7)C=C6)cc4)=C(CSc4nnc(C)s4)CS[C@H]23)n1
REMARK SMILES IDX 21 1 20 2 19 3 18 4 16 5 17 6 15 8 11 9 12 10 87 11 13 12
REMARK SMILES IDX 14 13 86 14 85 15 76 16 10 17 8 18 9 19 7 21 6 22 1 23 2 24
REMARK SMILES IDX 3 25 88 26 4 27 5 28 77 29 78 30 79 31 80 32 84 33 81 34
REMARK SMILES IDX 82 35 83 36 22 37 23 38 24 39 25 40 26 41 27 43 28 44 29 45
REMARK SMILES IDX 75 46 30 47 74 48 31 49 32 50 33 51 68 52 34 53 73 54 67 55
REMARK SMILES IDX 69 56 35 57 72 58 66 59 65 60 36 62 58 63 43 64 57 65 44 66
REMARK SMILES IDX 47 67 56 68 70 69 45 70 46 71 55 73 71 74 48 75 37 76 38 77
REMARK SMILES IDX 42 78 39 79 41 80 40 81 59 82 60 83 64 84 61 85 63 86 62 87
REMARK SMILES IDX 49 88 50 89 54 90 51 91 53 92 52 93
REMARK H PARENT 18 7 10 20 25 42 69 61 47 72
REMARK Flexibility Score: inf
ROOT
ATOM      1  C   UNL A   1      35.902  30.784  27.644  1.00  0.00     0.002 C 
ENDROOT
BRANCH   1   2
ATOM      2  C   UNL A   1      34.496  30.220  27.409  1.00  0.00     0.021 C 
BRANCH   2   3
ATOM      3  C   UNL A   1      34.333  28.723  27.708  1.00  0.00     0.116 C 
BRANCH   3   4
ATOM      4  N   UNL A   1      32.965  28.303  27.489  1.00  0.00    -0.351 N 
ATOM      5  C   UNL A   1      32.257  27.709  26.498  1.00  0.00     0.268 C 
ATOM      6  O   UNL A   1      31.169  27.269  26.890  1.00  0.00    -0.268 OA
ATOM      7  H   UNL A   1      32.398  28.503  28.269  1.00  0.00     0.163 HD
BRANCH   5   8
ATOM      8  C   UNL A   1      32.747  27.379  25.077  1.00  0.00     0.111 C 
ATOM      9  C   UNL A   1      33.362  24.072  24.393  1.00  0.00     0.205 C 
ATOM     10  C   UNL A   1      32.437  24.960  25.241  1.00  0.00     0.253 C 
ATOM     11  C   UNL A   1      33.898  25.445  23.865  1.00  0.00     0.181 C 
ATOM     12  O   UNL A   1      31.332  24.782  25.746  1.00  0.00    -0.272 OA
ATOM     13  N   UNL A   1      33.196  26.067  24.986  1.00  0.00    -0.290 N 
ATOM     14  S   UNL A   1      33.189  25.973  22.269  1.00  0.00    -0.129 SA
ATOM     15  C   UNL A   1      33.370  27.714  22.663  1.00  0.00     0.106 C 
ATOM     16  C   UNL A   1      32.600  28.080  23.920  1.00  0.00    -0.020 C 
BRANCH   9  17
ATOM     17  N   UNL A   1      32.652  23.175  23.435  1.00  0.00    -0.340 N 
ATOM     18  C   UNL A   1      32.181  21.912  23.655  1.00  0.00     0.242 C 
ATOM     19  O   UNL A   1      31.618  21.311  22.738  1.00  0.00    -0.273 OA
ATOM     20  H   UNL A   1      32.504  23.540  22.532  1.00  0.00     0.164 HD
BRANCH  18  21
ATOM     21  C   UNL A   1      32.328  21.294  25.023  1.00  0.00     0.244 C 
BRANCH  21  22
ATOM     22  N   UNL A   1      32.947  19.984  24.954  1.00  0.00    -0.260 N 
ATOM     23  C   UNL A   1      32.518  16.470  25.086  1.00  0.00     0.069 C 
ATOM     24  C   UNL A   1      33.019  17.862  24.986  1.00  0.00     0.060 A 
ATOM     25  C   UNL A   1      34.349  18.306  24.842  1.00  0.00     0.048 A 
ATOM     26  N   UNL A   1      32.164  18.888  25.053  1.00  0.00    -0.178 NA
ATOM     27  C   UNL A   1      34.278  19.682  24.817  1.00  0.00     0.036 A 
ATOM     28  C   UNL A   1      35.349  20.702  24.697  1.00  0.00     0.066 C 
ENDBRANCH  21  22
ENDBRANCH  18  21
ENDBRANCH   9  17
BRANCH  16  29
ATOM     29  C   UNL A   1      31.509  29.088  23.640  1.00  0.00     0.111 C 
BRANCH  29  30
ATOM     30  S   UNL A   1      29.936  28.230  23.350  1.00  0.00    -0.089 SA
BRANCH  30  31
ATOM     31  C   UNL A   1      28.966  29.546  22.791  1.00  0.00     0.174 A 
ATOM     32  N   UNL A   1      27.873  29.923  23.414  1.00  0.00    -0.132 NA
ATOM     33  S   UNL A   1      29.369  30.467  21.414  1.00  0.00    -0.091 S 
ATOM     34  N   UNL A   1      27.338  31.063  22.856  1.00  0.00    -0.143 NA
ATOM     35  C   UNL A   1      28.051  31.481  21.834  1.00  0.00     0.115 A 
ATOM     36  C   UNL A   1      27.854  32.760  21.129  1.00  0.00     0.081 C 
ENDBRANCH  30  31
ENDBRANCH  29  30
ENDBRANCH  16  29
ENDBRANCH   5   8
ENDBRANCH   3   4
ENDBRANCH   2   3
ENDBRANCH   1   2
BRANCH   1  37
ATOM     37  C   UNL A   1      36.115  31.499  28.982  1.00  0.00     0.002 C 
BRANCH  37  38
ATOM     38  C   UNL A   1      36.220  33.028  28.918  1.00  0.00     0.021 C 
BRANCH  38  39
ATOM     39  C   UNL A   1      37.646  33.566  28.810  1.00  0.00     0.116 C 
BRANCH  39  40
ATOM     40  N   UNL A   1      38.044  34.309  29.994  1.00  0.00    -0.352 N 
ATOM     41  C   UNL A   1      38.795  33.893  31.067  1.00  0.00     0.251 C 
ATOM     42  H   UNL A   1      37.732  35.242  30.033  1.00  0.00     0.163 HD
ATOM     43  O   UNL A   1      38.823  34.565  32.093  1.00  0.00    -0.269 OA
BRANCH  41  44
ATOM     44  C   UNL A   1      39.524  32.609  31.011  1.00  0.00     0.039 A 
ATOM     45  C   UNL A   1      38.905  31.469  31.524  1.00  0.00     0.014 A 
ATOM     46  C   UNL A   1      40.810  32.523  30.473  1.00  0.00     0.014 A 
ATOM     47  C   UNL A   1      39.540  30.231  31.417  1.00  0.00     0.010 A 
ATOM     48  C   UNL A   1      41.424  31.279  30.324  1.00  0.00     0.010 A 
ATOM     49  C   UNL A   1      40.793  30.117  30.786  1.00  0.00    -0.014 A 
BRANCH  49  50
ATOM     50  C   UNL A   1      41.315  28.761  30.512  1.00  0.00     0.031 A 
ATOM     51  C   UNL A   1      42.166  28.154  31.584  1.00  0.00     0.074 A 
ATOM     52  C   UNL A   1      40.966  27.940  29.495  1.00  0.00     0.049 A 
ATOM     53  N   UNL A   1      43.358  27.658  31.475  1.00  0.00    -0.248 NA
ATOM     54  C   UNL A   1      41.611  28.092  32.946  1.00  0.00     0.031 C 
ATOM     55  C   UNL A   1      39.924  28.160  28.496  1.00  0.00     0.029 A 
ATOM     56  N   UNL A   1      41.425  26.675  29.198  1.00  0.00    -0.354 N 
ATOM     57  C   UNL A   1      43.656  27.091  32.712  1.00  0.00     0.074 A 
ATOM     58  C   UNL A   1      42.579  27.449  33.601  1.00  0.00     0.031 C 
ATOM     59  C   UNL A   1      39.693  27.006  27.832  1.00  0.00     0.029 A 
ATOM     60  C   UNL A   1      40.655  25.999  28.262  1.00  0.00     0.049 A 
ATOM     61  H   UNL A   1      42.228  26.285  29.613  1.00  0.00     0.167 HD
ATOM     62  C   UNL A   1      44.669  26.200  32.882  1.00  0.00     0.031 A 
ATOM     63  C   UNL A   1      40.761  24.711  27.847  1.00  0.00     0.031 A 
ATOM     64  C   UNL A   1      45.589  26.159  31.781  1.00  0.00     0.049 A 
ATOM     65  C   UNL A   1      42.129  24.215  28.105  1.00  0.00     0.074 A 
ATOM     66  C   UNL A   1      46.705  26.835  31.349  1.00  0.00     0.029 A 
ATOM     67  N   UNL A   1      45.224  25.305  30.784  1.00  0.00    -0.354 N 
ATOM     68  N   UNL A   1      43.173  24.608  27.435  1.00  0.00    -0.248 NA
ATOM     69  C   UNL A   1      42.411  23.329  29.231  1.00  0.00     0.031 C 
ATOM     70  C   UNL A   1      46.897  26.471  29.980  1.00  0.00     0.029 A 
ATOM     71  C   UNL A   1      45.877  25.598  29.616  1.00  0.00     0.049 A 
ATOM     72  H   UNL A   1      44.575  24.571  30.889  1.00  0.00     0.167 HD
ATOM     73  C   UNL A   1      44.235  24.361  28.276  1.00  0.00     0.074 A 
ATOM     74  C   UNL A   1      43.745  23.398  29.248  1.00  0.00     0.031 C 
ATOM     75  C   UNL A   1      45.281  25.233  28.351  1.00  0.00     0.031 A 
BRANCH  62  76
ATOM     76  C   UNL A   1      44.617  25.038  33.849  1.00  0.00    -0.014 A 
ATOM     77  C   UNL A   1      45.521  25.018  34.929  1.00  0.00     0.009 A 
ATOM     78  C   UNL A   1      43.947  23.834  33.563  1.00  0.00     0.009 A 
ATOM     79  C   UNL A   1      45.770  23.846  35.656  1.00  0.00     0.001 A 
ATOM     80  C   UNL A   1      44.166  22.672  34.312  1.00  0.00     0.001 A 
ATOM     81  C   UNL A   1      45.095  22.673  35.344  1.00  0.00     0.000 A 
ENDBRANCH  62  76
BRANCH  63  82
ATOM     82  C   UNL A   1      39.749  23.817  27.226  1.00  0.00    -0.014 A 
ATOM     83  C   UNL A   1      38.567  24.337  26.677  1.00  0.00     0.009 A 
ATOM     84  C   UNL A   1      40.031  22.470  26.963  1.00  0.00     0.009 A 
ATOM     85  C   UNL A   1      37.745  23.557  25.851  1.00  0.00     0.001 A 
ATOM     86  C   UNL A   1      39.223  21.689  26.133  1.00  0.00     0.001 A 
ATOM     87  C   UNL A   1      38.086  22.239  25.562  1.00  0.00     0.000 A 
ENDBRANCH  63  82
BRANCH  75  88
ATOM     88  C   UNL A   1      45.582  26.060  27.137  1.00  0.00    -0.014 A 
ATOM     89  C   UNL A   1      46.301  25.563  26.038  1.00  0.00     0.009 A 
ATOM     90  C   UNL A   1      45.110  27.380  27.087  1.00  0.00     0.009 A 
ATOM     91  C   UNL A   1      46.592  26.383  24.945  1.00  0.00     0.001 A 
ATOM     92  C   UNL A   1      45.379  28.192  25.982  1.00  0.00     0.001 A 
ATOM     93  C   UNL A   1      46.131  27.696  24.918  1.00  0.00     0.000 A 
ENDBRANCH  75  88
ENDBRANCH  49  50
ENDBRANCH  41  44
ENDBRANCH  39  40
ENDBRANCH  38  39
ENDBRANCH  37  38
ENDBRANCH   1  37
TORSDOF 19
ENDMDL
MODEL 3
REMARK VINA RESULT:     -11.4      2.285      3.175
REMARK SMILES Cc1cc(C)n(CC(=O)N[C@@H]2C(=O)N3C(C(=O)NCCCCCCNC(=O)c4ccc(-c5c6nc(c(-c7ccccc7)c7ccc([nH]7)c(-c7ccccc7)c7nc(c(-c8ccccc8)c8ccc5[nH]8)C=C7)C=C6)cc4)=C(CSc4nnc(C)s4)CS[C@H]23)n1
REMARK SMILES IDX 21 1 20 2 19 3 18 4 16 5 17 6 15 8 11 9 12 10 87 11 13 12
REMARK SMILES IDX 14 13 86 14 85 15 76 16 10 17 8 18 9 19 7 21 6 22 1 23 2 24
REMARK SMILES IDX 3 25 88 26 4 27 5 28 77 29 78 30 79 31 80 32 84 33 81 34
REMARK SMILES IDX 82 35 83 36 22 37 23 38 24 39 25 40 26 41 27 43 28 44 29 45
REMARK SMILES IDX 75 46 30 47 74 48 31 49 32 50 33 51 68 52 34 53 73 54 67 55
REMARK SMILES IDX 69 56 35 57 72 58 66 59 65 60 36 62 58 63 43 64 57 65 44 66
REMARK SMILES IDX 47 67 56 68 70 69 45 70 46 71 55 73 71 74 48 75 37 76 38 77
REMARK SMILES IDX 42 78 39 79 41 80 40 81 59 82 60 83 64 84 61 85 63 86 62 87
REMARK SMILES IDX 49 88 50 89 54 90 51 91 53 92 52 93
REMARK H PARENT 18 7 10 20 25 42 69 61 47 72
REMARK Flexibility Score: inf
ROOT
ATOM      1  C   UNL A   1      36.001  30.404  27.661  1.00  0.00     0.002 C 
ENDROOT
BRANCH   1   2
ATOM      2  C   UNL A   1      34.512  30.092  27.476  1.00  0.00     0.021 C 
BRANCH   2   3
ATOM      3  C   UNL A   1      34.176  28.611  27.254  1.00  0.00     0.116 C 
BRANCH   3   4
ATOM      4  N   UNL A   1      32.751  28.385  27.370  1.00  0.00    -0.351 N 
ATOM      5  C   UNL A   1      31.797  27.707  26.688  1.00  0.00     0.268 C 
ATOM      6  O   UNL A   1      30.760  27.555  27.346  1.00  0.00    -0.268 OA
ATOM      7  H   UNL A   1      32.375  28.849  28.152  1.00  0.00     0.163 HD
BRANCH   5   8
ATOM      8  C   UNL A   1      31.956  26.984  25.339  1.00  0.00     0.111 C 
ATOM      9  C   UNL A   1      33.072  23.740  25.455  1.00  0.00     0.205 C 
ATOM     10  C   UNL A   1      32.231  24.739  26.266  1.00  0.00     0.253 C 
ATOM     11  C   UNL A   1      33.140  24.913  24.420  1.00  0.00     0.181 C 
ATOM     12  O   UNL A   1      31.363  24.607  27.124  1.00  0.00    -0.272 OA
ATOM     13  N   UNL A   1      32.638  25.782  25.483  1.00  0.00    -0.290 N 
ATOM     14  S   UNL A   1      31.940  24.788  23.051  1.00  0.00    -0.129 SA
ATOM     15  C   UNL A   1      31.837  26.568  22.861  1.00  0.00     0.106 C 
ATOM     16  C   UNL A   1      31.363  27.236  24.140  1.00  0.00    -0.020 C 
BRANCH   9  17
ATOM     17  N   UNL A   1      32.346  22.495  25.065  1.00  0.00    -0.340 N 
ATOM     18  C   UNL A   1      32.577  21.218  25.490  1.00  0.00     0.242 C 
ATOM     19  O   UNL A   1      31.876  20.302  25.055  1.00  0.00    -0.273 OA
ATOM     20  H   UNL A   1      31.610  22.609  24.420  1.00  0.00     0.164 HD
BRANCH  18  21
ATOM     21  C   UNL A   1      33.659  20.960  26.509  1.00  0.00     0.244 C 
BRANCH  21  22
ATOM     22  N   UNL A   1      34.980  21.194  25.957  1.00  0.00    -0.260 N 
ATOM     23  C   UNL A   1      37.724  23.408  25.621  1.00  0.00     0.069 C 
ATOM     24  C   UNL A   1      36.763  22.281  25.571  1.00  0.00     0.060 A 
ATOM     25  C   UNL A   1      36.873  21.066  24.865  1.00  0.00     0.048 A 
ATOM     26  N   UNL A   1      35.607  22.357  26.238  1.00  0.00    -0.178 NA
ATOM     27  C   UNL A   1      35.711  20.375  25.135  1.00  0.00     0.036 A 
ATOM     28  C   UNL A   1      35.248  19.045  24.669  1.00  0.00     0.066 C 
ENDBRANCH  21  22
ENDBRANCH  18  21
ENDBRANCH   9  17
BRANCH  16  29
ATOM     29  C   UNL A   1      30.045  27.951  23.949  1.00  0.00     0.111 C 
BRANCH  29  30
ATOM     30  S   UNL A   1      30.267  29.734  24.207  1.00  0.00    -0.089 SA
BRANCH  30  31
ATOM     31  C   UNL A   1      29.516  30.348  22.778  1.00  0.00     0.174 A 
ATOM     32  N   UNL A   1      29.141  29.564  21.793  1.00  0.00    -0.132 NA
ATOM     33  S   UNL A   1      29.179  32.004  22.554  1.00  0.00    -0.091 S 
ATOM     34  N   UNL A   1      28.461  30.262  20.820  1.00  0.00    -0.143 NA
ATOM     35  C   UNL A   1      28.366  31.539  21.117  1.00  0.00     0.115 A 
ATOM     36  C   UNL A   1      27.555  32.524  20.380  1.00  0.00     0.081 C 
ENDBRANCH  30  31
ENDBRANCH  29  30
ENDBRANCH  16  29
ENDBRANCH   5   8
ENDBRANCH   3   4
ENDBRANCH   2   3
ENDBRANCH   1   2
BRANCH   1  37
ATOM     37  C   UNL A   1      36.350  31.883  27.854  1.00  0.00     0.002 C 
BRANCH  37  38
ATOM     38  C   UNL A   1      35.346  32.710  28.668  1.00  0.00     0.021 C 
BRANCH  38  39
ATOM     39  C   UNL A   1      35.979  33.738  29.606  1.00  0.00     0.116 C 
BRANCH  39  40
ATOM     40  N   UNL A   1      35.604  33.520  30.993  1.00  0.00    -0.352 N 
ATOM     41  C   UNL A   1      35.916  32.469  31.822  1.00  0.00     0.251 C 
ATOM     42  H   UNL A   1      35.047  34.225  31.396  1.00  0.00     0.163 HD
ATOM     43  O   UNL A   1      35.310  32.320  32.878  1.00  0.00    -0.269 OA
BRANCH  41  44
ATOM     44  C   UNL A   1      36.940  31.483  31.418  1.00  0.00     0.039 A 
ATOM     45  C   UNL A   1      38.256  31.920  31.255  1.00  0.00     0.014 A 
ATOM     46  C   UNL A   1      36.615  30.145  31.186  1.00  0.00     0.014 A 
ATOM     47  C   UNL A   1      39.255  30.996  30.947  1.00  0.00     0.010 A 
ATOM     48  C   UNL A   1      37.622  29.216  30.924  1.00  0.00     0.010 A 
ATOM     49  C   UNL A   1      38.955  29.629  30.810  1.00  0.00    -0.014 A 
BRANCH  49  50
ATOM     50  C   UNL A   1      40.081  28.676  30.697  1.00  0.00     0.031 A 
ATOM     51  C   UNL A   1      40.876  28.446  31.944  1.00  0.00     0.074 A 
ATOM     52  C   UNL A   1      40.359  27.858  29.656  1.00  0.00     0.049 A 
ATOM     53  N   UNL A   1      42.157  28.549  32.107  1.00  0.00    -0.248 NA
ATOM     54  C   UNL A   1      40.145  28.045  33.158  1.00  0.00     0.031 C 
ATOM     55  C   UNL A   1      39.559  27.653  28.451  1.00  0.00     0.029 A 
ATOM     56  N   UNL A   1      41.393  26.960  29.504  1.00  0.00    -0.354 N 
ATOM     57  C   UNL A   1      42.421  28.093  33.397  1.00  0.00     0.074 A 
ATOM     58  C   UNL A   1      41.143  27.865  34.025  1.00  0.00     0.031 C 
ATOM     59  C   UNL A   1      40.020  26.568  27.791  1.00  0.00     0.029 A 
ATOM     60  C   UNL A   1      41.224  26.076  28.448  1.00  0.00     0.049 A 
ATOM     61  H   UNL A   1      42.182  26.947  30.093  1.00  0.00     0.167 HD
ATOM     62  C   UNL A   1      43.670  27.745  33.808  1.00  0.00     0.031 A 
ATOM     63  C   UNL A   1      41.986  25.006  28.106  1.00  0.00     0.031 A 
ATOM     64  C   UNL A   1      44.710  28.200  32.929  1.00  0.00     0.049 A 
ATOM     65  C   UNL A   1      43.345  25.164  28.665  1.00  0.00     0.074 A 
ATOM     66  C   UNL A   1      45.459  29.335  32.724  1.00  0.00     0.029 A 
ATOM     67  N   UNL A   1      44.987  27.344  31.905  1.00  0.00    -0.354 N 
ATOM     68  N   UNL A   1      44.208  26.031  28.221  1.00  0.00    -0.248 NA
ATOM     69  C   UNL A   1      43.764  24.425  29.853  1.00  0.00     0.031 C 
ATOM     70  C   UNL A   1      46.069  29.192  31.439  1.00  0.00     0.029 A 
ATOM     71  C   UNL A   1      45.658  27.980  30.895  1.00  0.00     0.049 A 
ATOM     72  H   UNL A   1      44.736  26.392  31.893  1.00  0.00     0.167 HD
ATOM     73  C   UNL A   1      45.070  26.231  29.276  1.00  0.00     0.074 A 
ATOM     74  C   UNL A   1      44.885  25.086  30.151  1.00  0.00     0.031 C 
ATOM     75  C   UNL A   1      45.564  27.474  29.544  1.00  0.00     0.031 A 
BRANCH  62  76
ATOM     76  C   UNL A   1      43.957  26.621  34.778  1.00  0.00    -0.014 A 
ATOM     77  C   UNL A   1      45.189  26.616  35.460  1.00  0.00     0.009 A 
ATOM     78  C   UNL A   1      43.215  25.425  34.804  1.00  0.00     0.009 A 
ATOM     79  C   UNL A   1      45.670  25.466  36.099  1.00  0.00     0.001 A 
ATOM     80  C   UNL A   1      43.677  24.285  35.474  1.00  0.00     0.001 A 
ATOM     81  C   UNL A   1      44.914  24.300  36.102  1.00  0.00     0.000 A 
ENDBRANCH  62  76
BRANCH  63  82
ATOM     82  C   UNL A   1      41.643  23.798  27.313  1.00  0.00    -0.014 A 
ATOM     83  C   UNL A   1      42.392  23.439  26.182  1.00  0.00     0.009 A 
ATOM     84  C   UNL A   1      40.716  22.857  27.783  1.00  0.00     0.009 A 
ATOM     85  C   UNL A   1      42.261  22.173  25.594  1.00  0.00     0.001 A 
ATOM     86  C   UNL A   1      40.587  21.590  27.210  1.00  0.00     0.001 A 
ATOM     87  C   UNL A   1      41.373  21.241  26.123  1.00  0.00     0.000 A 
ENDBRANCH  63  82
BRANCH  75  88
ATOM     88  C   UNL A   1      45.696  28.430  28.396  1.00  0.00    -0.014 A 
ATOM     89  C   UNL A   1      46.720  28.332  27.440  1.00  0.00     0.009 A 
ATOM     90  C   UNL A   1      44.747  29.454  28.259  1.00  0.00     0.009 A 
ATOM     91  C   UNL A   1      46.827  29.269  26.409  1.00  0.00     0.001 A 
ATOM     92  C   UNL A   1      44.840  30.375  27.213  1.00  0.00     0.001 A 
ATOM     93  C   UNL A   1      45.887  30.290  26.297  1.00  0.00     0.000 A 
ENDBRANCH  75  88
ENDBRANCH  49  50
ENDBRANCH  41  44
ENDBRANCH  39  40
ENDBRANCH  38  39
ENDBRANCH  37  38
ENDBRANCH   1  37
TORSDOF 19
ENDMDL
