MODEL 1
REMARK VINA RESULT:     -11.1      0.000      0.000
REMARK SMILES O=C(Cc1c[nH]c(=O)n(Cc2ccccc2)c1=O)NCCCCCCNC(=O)c1ccc(-c2c3nc(c(-c4ccccc4)c4ccc([nH]4)c(-c4ccccc4)c4nc(c(-c5ccccc5)c5ccc2[nH]5)C=C4)C=C3)cc1
REMARK SMILES IDX 22 1 21 2 20 3 19 4 1 5 2 6 3 8 4 9 5 10 17 11 6 12 9 13
REMARK SMILES IDX 18 14 7 15 8 17 10 18 11 19 12 20 16 21 13 22 15 23 14 24
REMARK SMILES IDX 23 25 24 26 25 27 26 28 27 29 28 31 29 32 30 33 76 34 31 35
REMARK SMILES IDX 75 36 32 37 33 38 34 39 69 40 35 41 74 42 68 43 70 44 36 45
REMARK SMILES IDX 73 46 67 47 66 48 37 50 59 51 44 52 58 53 45 54 48 55 57 56
REMARK SMILES IDX 71 57 46 58 47 59 56 61 72 62 49 63 38 64 39 65 43 66 40 67
REMARK SMILES IDX 42 68 41 69 60 70 61 71 65 72 62 73 64 74 63 75 50 76 51 77
REMARK SMILES IDX 55 78 52 79 54 80 53 81
REMARK H PARENT 19 7 6 16 26 30 70 49 48 60
REMARK Flexibility Score: inf
ROOT
ATOM      1  C   UNL A   1      32.478  28.755  26.394  1.00  0.00     0.002 C 
ENDROOT
BRANCH   1   2
ATOM      2  C   UNL A   1      33.648  27.970  25.786  1.00  0.00     0.021 C 
BRANCH   2   3
ATOM      3  C   UNL A   1      33.608  27.801  24.270  1.00  0.00     0.116 C 
BRANCH   3   4
ATOM      4  N   UNL A   1      33.098  26.508  23.860  1.00  0.00    -0.356 N 
ATOM      5  O   UNL A   1      33.948  26.624  21.729  1.00  0.00    -0.275 OA
ATOM      6  C   UNL A   1      33.374  25.991  22.609  1.00  0.00     0.224 C 
ATOM      7  H   UNL A   1      32.544  25.988  24.486  1.00  0.00     0.163 HD
BRANCH   6   8
ATOM      8  C   UNL A   1      32.991  24.525  22.444  1.00  0.00     0.142 C 
BRANCH   8   9
ATOM      9  C   UNL A   1      33.830  23.603  23.293  1.00  0.00     0.043 A 
ATOM     10  C   UNL A   1      35.154  23.681  23.477  1.00  0.00     0.097 A 
ATOM     11  C   UNL A   1      33.100  22.508  24.003  1.00  0.00     0.260 A 
ATOM     12  N   UNL A   1      35.795  22.881  24.368  1.00  0.00    -0.314 N 
ATOM     13  N   UNL A   1      33.860  21.664  24.799  1.00  0.00    -0.256 N 
ATOM     14  O   UNL A   1      31.879  22.417  23.873  1.00  0.00    -0.269 OA
ATOM     15  C   UNL A   1      35.185  21.909  25.106  1.00  0.00     0.328 A 
ATOM     16  H   UNL A   1      36.764  23.011  24.489  1.00  0.00     0.171 HD
ATOM     17  O   UNL A   1      35.830  21.333  25.980  1.00  0.00    -0.248 OA
BRANCH  13  18
ATOM     18  C   UNL A   1      33.235  20.485  25.384  1.00  0.00     0.166 C 
BRANCH  18  19
ATOM     19  C   UNL A   1      33.423  19.264  24.498  1.00  0.00    -0.028 A 
ATOM     20  C   UNL A   1      32.478  18.945  23.510  1.00  0.00     0.005 A 
ATOM     21  C   UNL A   1      34.520  18.410  24.675  1.00  0.00     0.005 A 
ATOM     22  C   UNL A   1      32.609  17.793  22.736  1.00  0.00     0.000 A 
ATOM     23  C   UNL A   1      34.661  17.266  23.884  1.00  0.00     0.000 A 
ATOM     24  C   UNL A   1      33.702  16.954  22.921  1.00  0.00     0.000 A 
ENDBRANCH  18  19
ENDBRANCH  13  18
ENDBRANCH   8   9
ENDBRANCH   6   8
ENDBRANCH   3   4
ENDBRANCH   2   3
ENDBRANCH   1   2
BRANCH   1  25
ATOM     25  C   UNL A   1      32.117  30.073  25.701  1.00  0.00     0.002 C 
BRANCH  25  26
ATOM     26  C   UNL A   1      31.722  31.225  26.625  1.00  0.00     0.021 C 
BRANCH  26  27
ATOM     27  C   UNL A   1      32.877  32.053  27.178  1.00  0.00     0.116 C 
BRANCH  27  28
ATOM     28  N   UNL A   1      32.496  33.405  27.558  1.00  0.00    -0.352 N 
ATOM     29  C   UNL A   1      33.142  34.283  28.401  1.00  0.00     0.251 C 
ATOM     30  H   UNL A   1      31.661  33.738  27.158  1.00  0.00     0.163 HD
ATOM     31  O   UNL A   1      32.629  35.360  28.689  1.00  0.00    -0.269 OA
BRANCH  29  32
ATOM     32  C   UNL A   1      34.441  33.901  29.000  1.00  0.00     0.039 A 
ATOM     33  C   UNL A   1      35.643  34.242  28.376  1.00  0.00     0.014 A 
ATOM     34  C   UNL A   1      34.451  33.151  30.180  1.00  0.00     0.014 A 
ATOM     35  C   UNL A   1      36.834  33.682  28.827  1.00  0.00     0.010 A 
ATOM     36  C   UNL A   1      35.660  32.658  30.679  1.00  0.00     0.010 A 
ATOM     37  C   UNL A   1      36.855  32.872  29.975  1.00  0.00    -0.014 A 
BRANCH  37  38
ATOM     38  C   UNL A   1      38.132  32.244  30.404  1.00  0.00     0.031 A 
ATOM     39  C   UNL A   1      38.934  32.824  31.539  1.00  0.00     0.074 A 
ATOM     40  C   UNL A   1      38.540  31.105  29.811  1.00  0.00     0.049 A 
ATOM     41  N   UNL A   1      40.047  32.381  32.071  1.00  0.00    -0.248 NA
ATOM     42  C   UNL A   1      38.426  34.057  32.161  1.00  0.00     0.031 C 
ATOM     43  C   UNL A   1      37.841  30.430  28.716  1.00  0.00     0.029 A 
ATOM     44  N   UNL A   1      39.622  30.298  30.062  1.00  0.00    -0.354 N 
ATOM     45  C   UNL A   1      40.378  33.285  33.073  1.00  0.00     0.074 A 
ATOM     46  C   UNL A   1      39.367  34.319  33.060  1.00  0.00     0.031 C 
ATOM     47  C   UNL A   1      38.476  29.283  28.431  1.00  0.00     0.029 A 
ATOM     48  C   UNL A   1      39.661  29.173  29.275  1.00  0.00     0.049 A 
ATOM     49  H   UNL A   1      40.303  30.506  30.743  1.00  0.00     0.167 HD
ATOM     50  C   UNL A   1      41.424  33.251  33.932  1.00  0.00     0.031 A 
ATOM     51  C   UNL A   1      40.553  28.165  29.228  1.00  0.00     0.031 A 
ATOM     52  C   UNL A   1      42.424  32.217  33.955  1.00  0.00     0.049 A 
ATOM     53  C   UNL A   1      41.730  28.177  30.158  1.00  0.00     0.074 A 
ATOM     54  C   UNL A   1      43.508  32.092  34.806  1.00  0.00     0.029 A 
ATOM     55  N   UNL A   1      42.463  31.133  33.093  1.00  0.00    -0.354 N 
ATOM     56  N   UNL A   1      42.022  29.037  31.103  1.00  0.00    -0.248 NA
ATOM     57  C   UNL A   1      42.703  27.084  30.016  1.00  0.00     0.031 C 
ATOM     58  C   UNL A   1      44.235  30.962  34.425  1.00  0.00     0.029 A 
ATOM     59  C   UNL A   1      43.569  30.349  33.376  1.00  0.00     0.049 A 
ATOM     60  H   UNL A   1      41.804  30.947  32.385  1.00  0.00     0.167 HD
ATOM     61  C   UNL A   1      43.205  28.586  31.675  1.00  0.00     0.074 A 
ATOM     62  C   UNL A   1      43.565  27.364  30.985  1.00  0.00     0.031 C 
ATOM     63  C   UNL A   1      43.924  29.139  32.680  1.00  0.00     0.031 A 
BRANCH  50  64
ATOM     64  C   UNL A   1      41.561  34.372  34.925  1.00  0.00    -0.014 A 
ATOM     65  C   UNL A   1      40.927  34.276  36.175  1.00  0.00     0.009 A 
ATOM     66  C   UNL A   1      42.229  35.561  34.592  1.00  0.00     0.009 A 
ATOM     67  C   UNL A   1      40.948  35.351  37.065  1.00  0.00     0.001 A 
ATOM     68  C   UNL A   1      42.269  36.625  35.496  1.00  0.00     0.001 A 
ATOM     69  C   UNL A   1      41.621  36.523  36.727  1.00  0.00     0.000 A 
ENDBRANCH  50  64
BRANCH  51  70
ATOM     70  C   UNL A   1      40.346  27.058  28.258  1.00  0.00    -0.014 A 
ATOM     71  C   UNL A   1      39.633  25.908  28.632  1.00  0.00     0.009 A 
ATOM     72  C   UNL A   1      40.912  27.119  26.976  1.00  0.00     0.009 A 
ATOM     73  C   UNL A   1      39.513  24.829  27.753  1.00  0.00     0.001 A 
ATOM     74  C   UNL A   1      40.765  26.051  26.088  1.00  0.00     0.001 A 
ATOM     75  C   UNL A   1      40.077  24.903  26.481  1.00  0.00     0.000 A 
ENDBRANCH  51  70
BRANCH  63  76
ATOM     76  C   UNL A   1      45.178  28.435  33.116  1.00  0.00    -0.014 A 
ATOM     77  C   UNL A   1      46.396  28.722  32.479  1.00  0.00     0.009 A 
ATOM     78  C   UNL A   1      45.136  27.417  34.080  1.00  0.00     0.009 A 
ATOM     79  C   UNL A   1      47.545  27.993  32.786  1.00  0.00     0.001 A 
ATOM     80  C   UNL A   1      46.294  26.708  34.405  1.00  0.00     0.001 A 
ATOM     81  C   UNL A   1      47.494  26.990  33.752  1.00  0.00     0.000 A 
ENDBRANCH  63  76
ENDBRANCH  37  38
ENDBRANCH  29  32
ENDBRANCH  27  28
ENDBRANCH  26  27
ENDBRANCH  25  26
ENDBRANCH   1  25
TORSDOF 16
ENDMDL
MODEL 2
REMARK VINA RESULT:     -11.1      3.563      8.929
REMARK SMILES O=C(Cc1c[nH]c(=O)n(Cc2ccccc2)c1=O)NCCCCCCNC(=O)c1ccc(-c2c3nc(c(-c4ccccc4)c4ccc([nH]4)c(-c4ccccc4)c4nc(c(-c5ccccc5)c5ccc2[nH]5)C=C4)C=C3)cc1
REMARK SMILES IDX 22 1 21 2 20 3 19 4 1 5 2 6 3 8 4 9 5 10 17 11 6 12 9 13
REMARK SMILES IDX 18 14 7 15 8 17 10 18 11 19 12 20 16 21 13 22 15 23 14 24
REMARK SMILES IDX 23 25 24 26 25 27 26 28 27 29 28 31 29 32 30 33 76 34 31 35
REMARK SMILES IDX 75 36 32 37 33 38 34 39 69 40 35 41 74 42 68 43 70 44 36 45
REMARK SMILES IDX 73 46 67 47 66 48 37 50 59 51 44 52 58 53 45 54 48 55 57 56
REMARK SMILES IDX 71 57 46 58 47 59 56 61 72 62 49 63 38 64 39 65 43 66 40 67
REMARK SMILES IDX 42 68 41 69 60 70 61 71 65 72 62 73 64 74 63 75 50 76 51 77
REMARK SMILES IDX 55 78 52 79 54 80 53 81
REMARK H PARENT 19 7 6 16 26 30 70 49 48 60
REMARK Flexibility Score: inf
ROOT
ATOM      1  C   UNL A   1      37.218  23.266  24.881  1.00  0.00     0.002 C 
ENDROOT
BRANCH   1   2
ATOM      2  C   UNL A   1      36.095  23.823  25.767  1.00  0.00     0.021 C 
BRANCH   2   3
ATOM      3  C   UNL A   1      35.277  22.779  26.523  1.00  0.00     0.116 C 
BRANCH   3   4
ATOM      4  N   UNL A   1      33.874  22.798  26.167  1.00  0.00    -0.356 N 
ATOM      5  O   UNL A   1      33.866  20.684  25.269  1.00  0.00    -0.275 OA
ATOM      6  C   UNL A   1      33.258  21.693  25.610  1.00  0.00     0.224 C 
ATOM      7  H   UNL A   1      33.347  23.616  26.324  1.00  0.00     0.163 HD
BRANCH   6   8
ATOM      8  C   UNL A   1      31.738  21.794  25.547  1.00  0.00     0.142 C 
BRANCH   8   9
ATOM      9  C   UNL A   1      31.264  23.073  24.907  1.00  0.00     0.043 A 
ATOM     10  C   UNL A   1      31.053  23.275  23.600  1.00  0.00     0.097 A 
ATOM     11  C   UNL A   1      30.993  24.217  25.831  1.00  0.00     0.260 A 
ATOM     12  N   UNL A   1      30.498  24.426  23.139  1.00  0.00    -0.314 N 
ATOM     13  N   UNL A   1      30.542  25.394  25.254  1.00  0.00    -0.256 N 
ATOM     14  O   UNL A   1      31.156  24.063  27.041  1.00  0.00    -0.269 OA
ATOM     15  C   UNL A   1      30.157  25.485  23.929  1.00  0.00     0.328 A 
ATOM     16  H   UNL A   1      30.330  24.501  22.172  1.00  0.00     0.171 HD
ATOM     17  O   UNL A   1      29.538  26.423  23.432  1.00  0.00    -0.248 OA
BRANCH  13  18
ATOM     18  C   UNL A   1      30.417  26.589  26.079  1.00  0.00     0.166 C 
BRANCH  18  19
ATOM     19  C   UNL A   1      31.620  27.502  25.914  1.00  0.00    -0.028 A 
ATOM     20  C   UNL A   1      32.883  27.113  26.389  1.00  0.00     0.005 A 
ATOM     21  C   UNL A   1      31.489  28.765  25.321  1.00  0.00     0.005 A 
ATOM     22  C   UNL A   1      33.980  27.970  26.299  1.00  0.00     0.000 A 
ATOM     23  C   UNL A   1      32.594  29.614  25.212  1.00  0.00     0.000 A 
ATOM     24  C   UNL A   1      33.836  29.220  25.708  1.00  0.00     0.000 A 
ENDBRANCH  18  19
ENDBRANCH  13  18
ENDBRANCH   8   9
ENDBRANCH   6   8
ENDBRANCH   3   4
ENDBRANCH   2   3
ENDBRANCH   1   2
BRANCH   1  25
ATOM     25  C   UNL A   1      36.938  21.921  24.202  1.00  0.00     0.002 C 
BRANCH  25  26
ATOM     26  C   UNL A   1      37.554  20.695  24.875  1.00  0.00     0.021 C 
BRANCH  26  27
ATOM     27  C   UNL A   1      38.805  20.958  25.708  1.00  0.00     0.116 C 
BRANCH  27  28
ATOM     28  N   UNL A   1      39.750  19.852  25.706  1.00  0.00    -0.352 N 
ATOM     29  C   UNL A   1      41.080  19.847  26.066  1.00  0.00     0.251 C 
ATOM     30  H   UNL A   1      39.389  18.986  25.407  1.00  0.00     0.163 HD
ATOM     31  O   UNL A   1      41.761  18.838  25.913  1.00  0.00    -0.269 OA
BRANCH  29  32
ATOM     32  C   UNL A   1      41.699  21.083  26.594  1.00  0.00     0.039 A 
ATOM     33  C   UNL A   1      41.719  21.342  27.966  1.00  0.00     0.014 A 
ATOM     34  C   UNL A   1      42.227  22.016  25.697  1.00  0.00     0.014 A 
ATOM     35  C   UNL A   1      42.096  22.601  28.422  1.00  0.00     0.010 A 
ATOM     36  C   UNL A   1      42.683  23.251  26.167  1.00  0.00     0.010 A 
ATOM     37  C   UNL A   1      42.567  23.576  27.527  1.00  0.00    -0.014 A 
BRANCH  37  38
ATOM     38  C   UNL A   1      42.912  24.930  28.034  1.00  0.00     0.031 A 
ATOM     39  C   UNL A   1      41.841  25.965  28.262  1.00  0.00     0.074 A 
ATOM     40  C   UNL A   1      44.190  25.209  28.354  1.00  0.00     0.049 A 
ATOM     41  N   UNL A   1      41.959  27.179  28.738  1.00  0.00    -0.248 NA
ATOM     42  C   UNL A   1      40.460  25.593  27.913  1.00  0.00     0.031 C 
ATOM     43  C   UNL A   1      45.316  24.286  28.203  1.00  0.00     0.029 A 
ATOM     44  N   UNL A   1      44.754  26.335  28.900  1.00  0.00    -0.354 N 
ATOM     45  C   UNL A   1      40.678  27.718  28.731  1.00  0.00     0.074 A 
ATOM     46  C   UNL A   1      39.799  26.712  28.177  1.00  0.00     0.031 C 
ATOM     47  C   UNL A   1      46.423  24.859  28.700  1.00  0.00     0.029 A 
ATOM     48  C   UNL A   1      46.100  26.211  29.144  1.00  0.00     0.049 A 
ATOM     49  H   UNL A   1      44.242  27.153  29.099  1.00  0.00     0.167 HD
ATOM     50  C   UNL A   1      40.270  28.937  29.157  1.00  0.00     0.031 A 
ATOM     51  C   UNL A   1      46.984  27.086  29.660  1.00  0.00     0.031 A 
ATOM     52  C   UNL A   1      41.140  29.935  29.720  1.00  0.00     0.049 A 
ATOM     53  C   UNL A   1      46.514  28.449  30.079  1.00  0.00     0.074 A 
ATOM     54  C   UNL A   1      40.808  31.190  30.198  1.00  0.00     0.029 A 
ATOM     55  N   UNL A   1      42.509  29.792  29.884  1.00  0.00    -0.354 N 
ATOM     56  N   UNL A   1      45.298  28.938  30.070  1.00  0.00    -0.248 NA
ATOM     57  C   UNL A   1      47.536  29.383  30.575  1.00  0.00     0.031 C 
ATOM     58  C   UNL A   1      41.983  31.830  30.600  1.00  0.00     0.029 A 
ATOM     59  C   UNL A   1      43.039  30.948  30.431  1.00  0.00     0.049 A 
ATOM     60  H   UNL A   1      43.027  28.989  29.647  1.00  0.00     0.167 HD
ATOM     61  C   UNL A   1      45.405  30.230  30.568  1.00  0.00     0.074 A 
ATOM     62  C   UNL A   1      46.801  30.442  30.888  1.00  0.00     0.031 C 
ATOM     63  C   UNL A   1      44.430  31.154  30.740  1.00  0.00     0.031 A 
BRANCH  50  64
ATOM     64  C   UNL A   1      38.812  29.281  29.026  1.00  0.00    -0.014 A 
ATOM     65  C   UNL A   1      37.951  29.089  30.118  1.00  0.00     0.009 A 
ATOM     66  C   UNL A   1      38.271  29.699  27.800  1.00  0.00     0.009 A 
ATOM     67  C   UNL A   1      36.576  29.295  29.983  1.00  0.00     0.001 A 
ATOM     68  C   UNL A   1      36.899  29.928  27.675  1.00  0.00     0.001 A 
ATOM     69  C   UNL A   1      36.052  29.717  28.763  1.00  0.00     0.000 A 
ENDBRANCH  50  64
BRANCH  51  70
ATOM     70  C   UNL A   1      48.405  26.680  29.810  1.00  0.00    -0.014 A 
ATOM     71  C   UNL A   1      49.328  26.924  28.780  1.00  0.00     0.009 A 
ATOM     72  C   UNL A   1      48.834  25.994  30.956  1.00  0.00     0.009 A 
ATOM     73  C   UNL A   1      50.643  26.465  28.881  1.00  0.00     0.001 A 
ATOM     74  C   UNL A   1      50.158  25.562  31.068  1.00  0.00     0.001 A 
ATOM     75  C   UNL A   1      51.057  25.787  30.026  1.00  0.00     0.000 A 
ENDBRANCH  51  70
BRANCH  63  76
ATOM     76  C   UNL A   1      44.820  32.488  31.309  1.00  0.00    -0.014 A 
ATOM     77  C   UNL A   1      45.242  33.516  30.450  1.00  0.00     0.009 A 
ATOM     78  C   UNL A   1      44.872  32.695  32.695  1.00  0.00     0.009 A 
ATOM     79  C   UNL A   1      45.722  34.720  30.967  1.00  0.00     0.001 A 
ATOM     80  C   UNL A   1      45.327  33.911  33.210  1.00  0.00     0.001 A 
ATOM     81  C   UNL A   1      45.761  34.917  32.346  1.00  0.00     0.000 A 
ENDBRANCH  63  76
ENDBRANCH  37  38
ENDBRANCH  29  32
ENDBRANCH  27  28
ENDBRANCH  26  27
ENDBRANCH  25  26
ENDBRANCH   1  25
TORSDOF 16
ENDMDL
MODEL 3
REMARK VINA RESULT:     -11.1      3.446      9.100
REMARK SMILES O=C(Cc1c[nH]c(=O)n(Cc2ccccc2)c1=O)NCCCCCCNC(=O)c1ccc(-c2c3nc(c(-c4ccccc4)c4ccc([nH]4)c(-c4ccccc4)c4nc(c(-c5ccccc5)c5ccc2[nH]5)C=C4)C=C3)cc1
REMARK SMILES IDX 22 1 21 2 20 3 19 4 1 5 2 6 3 8 4 9 5 10 17 11 6 12 9 13
REMARK SMILES IDX 18 14 7 15 8 17 10 18 11 19 12 20 16 21 13 22 15 23 14 24
REMARK SMILES IDX 23 25 24 26 25 27 26 28 27 29 28 31 29 32 30 33 76 34 31 35
REMARK SMILES IDX 75 36 32 37 33 38 34 39 69 40 35 41 74 42 68 43 70 44 36 45
REMARK SMILES IDX 73 46 67 47 66 48 37 50 59 51 44 52 58 53 45 54 48 55 57 56
REMARK SMILES IDX 71 57 46 58 47 59 56 61 72 62 49 63 38 64 39 65 43 66 40 67
REMARK SMILES IDX 42 68 41 69 60 70 61 71 65 72 62 73 64 74 63 75 50 76 51 77
REMARK SMILES IDX 55 78 52 79 54 80 53 81
REMARK H PARENT 19 7 6 16 26 30 70 49 48 60
REMARK Flexibility Score: inf
ROOT
ATOM      1  C   UNL A   1      37.470  23.130  25.205  1.00  0.00     0.002 C 
ENDROOT
BRANCH   1   2
ATOM      2  C   UNL A   1      36.276  23.762  25.932  1.00  0.00     0.021 C 
BRANCH   2   3
ATOM      3  C   UNL A   1      35.180  22.790  26.363  1.00  0.00     0.116 C 
BRANCH   3   4
ATOM      4  N   UNL A   1      33.942  22.979  25.634  1.00  0.00    -0.356 N 
ATOM      5  O   UNL A   1      33.922  20.870  24.724  1.00  0.00    -0.275 OA
ATOM      6  C   UNL A   1      33.373  21.952  24.906  1.00  0.00     0.224 C 
ATOM      7  H   UNL A   1      33.498  23.858  25.657  1.00  0.00     0.163 HD
BRANCH   6   8
ATOM      8  C   UNL A   1      31.954  22.239  24.429  1.00  0.00     0.142 C 
BRANCH   8   9
ATOM      9  C   UNL A   1      31.833  23.566  23.724  1.00  0.00     0.043 A 
ATOM     10  C   UNL A   1      32.368  23.887  22.540  1.00  0.00     0.097 A 
ATOM     11  C   UNL A   1      31.023  24.615  24.419  1.00  0.00     0.260 A 
ATOM     12  N   UNL A   1      32.088  25.068  21.930  1.00  0.00    -0.314 N 
ATOM     13  N   UNL A   1      30.892  25.834  23.772  1.00  0.00    -0.256 N 
ATOM     14  O   UNL A   1      30.499  24.350  25.501  1.00  0.00    -0.269 OA
ATOM     15  C   UNL A   1      31.301  26.043  22.468  1.00  0.00     0.328 A 
ATOM     16  H   UNL A   1      32.480  25.231  21.041  1.00  0.00     0.171 HD
ATOM     17  O   UNL A   1      31.002  27.015  21.778  1.00  0.00    -0.248 OA
BRANCH  13  18
ATOM     18  C   UNL A   1      30.256  26.944  24.470  1.00  0.00     0.166 C 
BRANCH  18  19
ATOM     19  C   UNL A   1      31.268  27.745  25.271  1.00  0.00    -0.028 A 
ATOM     20  C   UNL A   1      31.418  27.533  26.651  1.00  0.00     0.005 A 
ATOM     21  C   UNL A   1      32.044  28.740  24.660  1.00  0.00     0.005 A 
ATOM     22  C   UNL A   1      32.299  28.306  27.407  1.00  0.00     0.000 A 
ATOM     23  C   UNL A   1      32.942  29.500  25.415  1.00  0.00     0.000 A 
ATOM     24  C   UNL A   1      33.063  29.289  26.788  1.00  0.00     0.000 A 
ENDBRANCH  18  19
ENDBRANCH  13  18
ENDBRANCH   8   9
ENDBRANCH   6   8
ENDBRANCH   3   4
ENDBRANCH   2   3
ENDBRANCH   1   2
BRANCH   1  25
ATOM     25  C   UNL A   1      37.159  21.915  24.325  1.00  0.00     0.002 C 
BRANCH  25  26
ATOM     26  C   UNL A   1      37.676  20.571  24.840  1.00  0.00     0.021 C 
BRANCH  26  27
ATOM     27  C   UNL A   1      38.768  20.646  25.902  1.00  0.00     0.116 C 
BRANCH  27  28
ATOM     28  N   UNL A   1      39.780  19.609  25.772  1.00  0.00    -0.352 N 
ATOM     29  C   UNL A   1      41.128  19.673  26.050  1.00  0.00     0.251 C 
ATOM     30  H   UNL A   1      39.457  18.740  25.440  1.00  0.00     0.163 HD
ATOM     31  O   UNL A   1      41.862  18.725  25.792  1.00  0.00    -0.269 OA
BRANCH  29  32
ATOM     32  C   UNL A   1      41.699  20.915  26.618  1.00  0.00     0.039 A 
ATOM     33  C   UNL A   1      41.761  21.105  28.000  1.00  0.00     0.014 A 
ATOM     34  C   UNL A   1      42.137  21.921  25.751  1.00  0.00     0.014 A 
ATOM     35  C   UNL A   1      42.086  22.360  28.507  1.00  0.00     0.010 A 
ATOM     36  C   UNL A   1      42.542  23.155  26.267  1.00  0.00     0.010 A 
ATOM     37  C   UNL A   1      42.465  23.404  27.647  1.00  0.00    -0.014 A 
BRANCH  37  38
ATOM     38  C   UNL A   1      42.755  24.748  28.210  1.00  0.00     0.031 A 
ATOM     39  C   UNL A   1      44.169  25.170  28.511  1.00  0.00     0.074 A 
ATOM     40  C   UNL A   1      41.744  25.620  28.391  1.00  0.00     0.049 A 
ATOM     41  N   UNL A   1      44.606  26.319  28.965  1.00  0.00    -0.248 NA
ATOM     42  C   UNL A   1      45.233  24.181  28.273  1.00  0.00     0.031 C 
ATOM     43  C   UNL A   1      40.334  25.341  28.116  1.00  0.00     0.029 A 
ATOM     44  N   UNL A   1      41.748  26.924  28.820  1.00  0.00    -0.354 N 
ATOM     45  C   UNL A   1      45.984  26.186  29.081  1.00  0.00     0.074 A 
ATOM     46  C   UNL A   1      46.313  24.836  28.678  1.00  0.00     0.031 C 
ATOM     47  C   UNL A   1      39.618  26.457  28.324  1.00  0.00     0.029 A 
ATOM     48  C   UNL A   1      40.505  27.509  28.809  1.00  0.00     0.049 A 
ATOM     49  H   UNL A   1      42.565  27.395  29.106  1.00  0.00     0.167 HD
ATOM     50  C   UNL A   1      46.894  27.107  29.477  1.00  0.00     0.031 A 
ATOM     51  C   UNL A   1      40.115  28.749  29.157  1.00  0.00     0.031 A 
ATOM     52  C   UNL A   1      46.570  28.454  29.866  1.00  0.00     0.049 A 
ATOM     53  C   UNL A   1      41.137  29.737  29.640  1.00  0.00     0.074 A 
ATOM     54  C   UNL A   1      47.432  29.462  30.262  1.00  0.00     0.029 A 
ATOM     55  N   UNL A   1      45.290  28.981  29.907  1.00  0.00    -0.354 N 
ATOM     56  N   UNL A   1      42.436  29.593  29.736  1.00  0.00    -0.248 NA
ATOM     57  C   UNL A   1      40.643  31.054  30.066  1.00  0.00     0.031 C 
ATOM     58  C   UNL A   1      46.669  30.583  30.597  1.00  0.00     0.029 A 
ATOM     59  C   UNL A   1      45.337  30.293  30.348  1.00  0.00     0.049 A 
ATOM     60  H   UNL A   1      44.469  28.497  29.660  1.00  0.00     0.167 HD
ATOM     61  C   UNL A   1      42.916  30.802  30.222  1.00  0.00     0.074 A 
ATOM     62  C   UNL A   1      41.772  31.675  30.382  1.00  0.00     0.031 C 
ATOM     63  C   UNL A   1      44.192  31.152  30.510  1.00  0.00     0.031 A 
BRANCH  50  64
ATOM     64  C   UNL A   1      48.340  26.698  29.526  1.00  0.00    -0.014 A 
ATOM     65  C   UNL A   1      49.170  26.944  28.419  1.00  0.00     0.009 A 
ATOM     66  C   UNL A   1      48.858  25.984  30.617  1.00  0.00     0.009 A 
ATOM     67  C   UNL A   1      50.484  26.473  28.400  1.00  0.00     0.001 A 
ATOM     68  C   UNL A   1      50.181  25.536  30.605  1.00  0.00     0.001 A 
ATOM     69  C   UNL A   1      50.989  25.772  29.493  1.00  0.00     0.000 A 
ENDBRANCH  50  64
BRANCH  51  70
ATOM     70  C   UNL A   1      38.679  29.116  29.047  1.00  0.00    -0.014 A 
ATOM     71  C   UNL A   1      38.166  29.634  27.847  1.00  0.00     0.009 A 
ATOM     72  C   UNL A   1      37.829  29.008  30.158  1.00  0.00     0.009 A 
ATOM     73  C   UNL A   1      36.839  30.062  27.769  1.00  0.00     0.001 A 
ATOM     74  C   UNL A   1      36.494  29.409  30.067  1.00  0.00     0.001 A 
ATOM     75  C   UNL A   1      36.004  29.947  28.877  1.00  0.00     0.000 A 
ENDBRANCH  51  70
BRANCH  63  76
ATOM     76  C   UNL A   1      44.441  32.541  31.024  1.00  0.00    -0.014 A 
ATOM     77  C   UNL A   1      44.370  32.798  32.403  1.00  0.00     0.009 A 
ATOM     78  C   UNL A   1      44.639  33.613  30.141  1.00  0.00     0.009 A 
ATOM     79  C   UNL A   1      44.478  34.102  32.888  1.00  0.00     0.001 A 
ATOM     80  C   UNL A   1      44.773  34.914  30.630  1.00  0.00     0.001 A 
ATOM     81  C   UNL A   1      44.683  35.158  32.001  1.00  0.00     0.000 A 
ENDBRANCH  63  76
ENDBRANCH  37  38
ENDBRANCH  29  32
ENDBRANCH  27  28
ENDBRANCH  26  27
ENDBRANCH  25  26
ENDBRANCH   1  25
TORSDOF 16
ENDMDL
