MODEL 1
REMARK VINA RESULT:     -10.1      0.000      0.000
REMARK SMILES O=C(CNS(=O)(=O)c1ccccc1)N[C@@H](CO)C(=O)NCCCCCCNC(=O)c1ccc(-c2c3nc(c(-c4ccccc4)c4ccc([nH]4)c(-c4ccccc4)c4nc(c(-c5ccccc5)c5ccc2[nH]5)C=C4)C=C3)cc1
REMARK SMILES IDX 22 1 21 2 20 3 18 4 19 5 15 7 14 8 1 9 2 10 3 12 4 13 5 15
REMARK SMILES IDX 6 16 7 17 8 18 9 19 13 20 10 21 12 22 11 23 16 24 17 25
REMARK SMILES IDX 23 27 24 28 25 29 26 30 27 31 28 32 29 34 30 35 31 36 77 37
REMARK SMILES IDX 32 38 76 39 33 40 34 41 35 42 70 43 36 44 75 45 69 46 71 47
REMARK SMILES IDX 37 48 74 49 68 50 67 51 38 53 60 54 45 55 59 56 46 57 49 58
REMARK SMILES IDX 58 59 72 60 47 61 48 62 57 64 73 65 50 66 39 67 40 68 44 69
REMARK SMILES IDX 41 70 43 71 42 72 61 73 62 74 66 75 63 76 65 77 64 78 51 79
REMARK SMILES IDX 52 80 56 81 53 82 55 83 54 84
REMARK H PARENT 20 6 14 11 4 14 17 26 27 33 71 52 49 63
REMARK Flexibility Score: inf
ROOT
ATOM      1  C   UNL A   1      34.994  22.864  23.231  1.00  0.00     0.021 C 
ENDROOT
BRANCH   1   2
ATOM      2  C   UNL A   1      34.147  24.134  23.207  1.00  0.00     0.116 C 
BRANCH   2   3
ATOM      3  N   UNL A   1      33.624  24.410  21.884  1.00  0.00    -0.354 N 
ATOM      4  C   UNL A   1      32.919  25.469  21.402  1.00  0.00     0.244 C 
ATOM      5  O   UNL A   1      32.837  25.566  20.172  1.00  0.00    -0.273 OA
ATOM      6  H   UNL A   1      33.812  23.708  21.220  1.00  0.00     0.163 HD
BRANCH   4   7
ATOM      7  C   UNL A   1      32.314  26.556  22.307  1.00  0.00     0.197 C 
BRANCH   7   8
ATOM      8  N   UNL A   1      31.636  26.011  23.484  1.00  0.00    -0.341 N 
ATOM      9  O   UNL A   1      30.079  27.679  23.634  1.00  0.00    -0.274 OA
ATOM     10  C   UNL A   1      30.503  26.590  24.009  1.00  0.00     0.235 C 
ATOM     11  H   UNL A   1      32.002  25.205  23.913  1.00  0.00     0.164 HD
BRANCH  10  12
ATOM     12  C   UNL A   1      29.821  25.783  25.113  1.00  0.00     0.198 C 
BRANCH  12  13
ATOM     13  N   UNL A   1      30.311  24.382  25.130  1.00  0.00    -0.202 NA
ATOM     14  H   UNL A   1      31.031  24.292  24.413  1.00  0.00     0.141 HD
BRANCH  13  15
ATOM     15  S   UNL A   1      30.969  23.851  26.597  1.00  0.00     0.241 S 
ATOM     16  O   UNL A   1      31.782  24.931  27.108  1.00  0.00    -0.207 OA
ATOM     17  O   UNL A   1      29.856  23.305  27.339  1.00  0.00    -0.207 OA
BRANCH  15  18
ATOM     18  C   UNL A   1      32.031  22.499  26.172  1.00  0.00     0.082 A 
ATOM     19  C   UNL A   1      33.238  22.367  26.865  1.00  0.00     0.022 A 
ATOM     20  C   UNL A   1      31.693  21.608  25.150  1.00  0.00     0.022 A 
ATOM     21  C   UNL A   1      34.112  21.332  26.536  1.00  0.00     0.001 A 
ATOM     22  C   UNL A   1      32.578  20.581  24.819  1.00  0.00     0.001 A 
ATOM     23  C   UNL A   1      33.783  20.443  25.512  1.00  0.00     0.000 A 
ENDBRANCH  15  18
ENDBRANCH  13  15
ENDBRANCH  12  13
ENDBRANCH  10  12
ENDBRANCH   7   8
BRANCH   7  24
ATOM     24  C   UNL A   1      33.327  27.667  22.619  1.00  0.00     0.191 C 
BRANCH  24  25
ATOM     25  O   UNL A   1      34.129  28.028  21.493  1.00  0.00    -0.394 OA
ATOM     26  H   UNL A   1      33.574  28.466  20.828  1.00  0.00     0.210 HD
ENDBRANCH  24  25
ENDBRANCH   7  24
ENDBRANCH   4   7
ENDBRANCH   2   3
ENDBRANCH   1   2
BRANCH   1  27
ATOM     27  C   UNL A   1      36.504  23.086  23.373  1.00  0.00     0.002 C 
BRANCH  27  28
ATOM     28  C   UNL A   1      37.141  22.549  24.658  1.00  0.00     0.002 C 
BRANCH  28  29
ATOM     29  C   UNL A   1      37.758  21.152  24.566  1.00  0.00     0.021 C 
BRANCH  29  30
ATOM     30  C   UNL A   1      38.242  20.555  25.883  1.00  0.00     0.116 C 
BRANCH  30  31
ATOM     31  N   UNL A   1      39.333  19.612  25.711  1.00  0.00    -0.352 N 
ATOM     32  C   UNL A   1      40.675  19.780  25.944  1.00  0.00     0.251 C 
ATOM     33  H   UNL A   1      39.072  18.722  25.381  1.00  0.00     0.163 HD
ATOM     34  O   UNL A   1      41.470  18.901  25.625  1.00  0.00    -0.269 OA
BRANCH  32  35
ATOM     35  C   UNL A   1      41.178  21.035  26.549  1.00  0.00     0.039 A 
ATOM     36  C   UNL A   1      41.681  22.029  25.705  1.00  0.00     0.014 A 
ATOM     37  C   UNL A   1      41.175  21.227  27.934  1.00  0.00     0.014 A 
ATOM     38  C   UNL A   1      42.128  23.238  26.244  1.00  0.00     0.010 A 
ATOM     39  C   UNL A   1      41.567  22.456  28.465  1.00  0.00     0.010 A 
ATOM     40  C   UNL A   1      42.048  23.472  27.625  1.00  0.00    -0.014 A 
BRANCH  40  41
ATOM     41  C   UNL A   1      42.465  24.772  28.206  1.00  0.00     0.031 A 
ATOM     42  C   UNL A   1      41.456  25.865  28.423  1.00  0.00     0.074 A 
ATOM     43  C   UNL A   1      43.763  24.992  28.487  1.00  0.00     0.049 A 
ATOM     44  N   UNL A   1      41.640  27.083  28.867  1.00  0.00    -0.248 NA
ATOM     45  C   UNL A   1      40.060  25.558  28.072  1.00  0.00     0.031 C 
ATOM     46  C   UNL A   1      44.849  24.031  28.289  1.00  0.00     0.029 A 
ATOM     47  N   UNL A   1      44.391  26.104  28.993  1.00  0.00    -0.354 N 
ATOM     48  C   UNL A   1      40.392  27.692  28.830  1.00  0.00     0.074 A 
ATOM     49  C   UNL A   1      39.465  26.723  28.286  1.00  0.00     0.031 C 
ATOM     50  C   UNL A   1      46.006  24.586  28.688  1.00  0.00     0.029 A 
ATOM     51  C   UNL A   1      45.748  25.950  29.140  1.00  0.00     0.049 A 
ATOM     52  H   UNL A   1      43.914  26.932  29.228  1.00  0.00     0.167 HD
ATOM     53  C   UNL A   1      40.045  28.939  29.226  1.00  0.00     0.031 A 
ATOM     54  C   UNL A   1      46.681  26.811  29.587  1.00  0.00     0.031 A 
ATOM     55  C   UNL A   1      40.958  29.899  29.787  1.00  0.00     0.049 A 
ATOM     56  C   UNL A   1      46.268  28.185  30.033  1.00  0.00     0.074 A 
ATOM     57  C   UNL A   1      40.686  31.166  30.273  1.00  0.00     0.029 A 
ATOM     58  N   UNL A   1      42.320  29.696  29.939  1.00  0.00    -0.354 N 
ATOM     59  N   UNL A   1      45.074  28.723  30.045  1.00  0.00    -0.248 NA
ATOM     60  C   UNL A   1      47.334  29.064  30.535  1.00  0.00     0.031 C 
ATOM     61  C   UNL A   1      41.891  31.745  30.686  1.00  0.00     0.029 A 
ATOM     62  C   UNL A   1      42.905  30.820  30.494  1.00  0.00     0.049 A 
ATOM     63  H   UNL A   1      42.800  28.873  29.688  1.00  0.00     0.167 HD
ATOM     64  C   UNL A   1      45.239  29.994  30.578  1.00  0.00     0.074 A 
ATOM     65  C   UNL A   1      46.647  30.141  30.888  1.00  0.00     0.031 C 
ATOM     66  C   UNL A   1      44.307  30.953  30.794  1.00  0.00     0.031 A 
BRANCH  53  67
ATOM     67  C   UNL A   1      38.607  29.339  29.058  1.00  0.00    -0.014 A 
ATOM     68  C   UNL A   1      38.108  29.749  27.811  1.00  0.00     0.009 A 
ATOM     69  C   UNL A   1      37.732  29.277  30.154  1.00  0.00     0.009 A 
ATOM     70  C   UNL A   1      36.770  30.123  27.674  1.00  0.00     0.001 A 
ATOM     71  C   UNL A   1      36.388  29.626  30.007  1.00  0.00     0.001 A 
ATOM     72  C   UNL A   1      35.910  30.057  28.770  1.00  0.00     0.000 A 
ENDBRANCH  53  67
BRANCH  54  73
ATOM     73  C   UNL A   1      48.103  26.390  29.656  1.00  0.00    -0.014 A 
ATOM     74  C   UNL A   1      48.593  25.729  30.792  1.00  0.00     0.009 A 
ATOM     75  C   UNL A   1      48.976  26.645  28.586  1.00  0.00     0.009 A 
ATOM     76  C   UNL A   1      49.936  25.352  30.867  1.00  0.00     0.001 A 
ATOM     77  C   UNL A   1      50.312  26.246  28.654  1.00  0.00     0.001 A 
ATOM     78  C   UNL A   1      50.792  25.607  29.797  1.00  0.00     0.000 A 
ENDBRANCH  54  73
BRANCH  66  79
ATOM     79  C   UNL A   1      44.774  32.236  31.418  1.00  0.00    -0.014 A 
ATOM     80  C   UNL A   1      44.815  32.392  32.811  1.00  0.00     0.009 A 
ATOM     81  C   UNL A   1      45.212  33.288  30.599  1.00  0.00     0.009 A 
ATOM     82  C   UNL A   1      45.260  33.590  33.373  1.00  0.00     0.001 A 
ATOM     83  C   UNL A   1      45.678  34.476  31.164  1.00  0.00     0.001 A 
ATOM     84  C   UNL A   1      45.695  34.629  32.550  1.00  0.00     0.000 A 
ENDBRANCH  66  79
ENDBRANCH  40  41
ENDBRANCH  32  35
ENDBRANCH  30  31
ENDBRANCH  29  30
ENDBRANCH  28  29
ENDBRANCH  27  28
ENDBRANCH   1  27
TORSDOF 20
ENDMDL
MODEL 2
REMARK VINA RESULT:      -9.8      1.684      6.677
REMARK SMILES O=C(CNS(=O)(=O)c1ccccc1)N[C@@H](CO)C(=O)NCCCCCCNC(=O)c1ccc(-c2c3nc(c(-c4ccccc4)c4ccc([nH]4)c(-c4ccccc4)c4nc(c(-c5ccccc5)c5ccc2[nH]5)C=C4)C=C3)cc1
REMARK SMILES IDX 22 1 21 2 20 3 18 4 19 5 15 7 14 8 1 9 2 10 3 12 4 13 5 15
REMARK SMILES IDX 6 16 7 17 8 18 9 19 13 20 10 21 12 22 11 23 16 24 17 25
REMARK SMILES IDX 23 27 24 28 25 29 26 30 27 31 28 32 29 34 30 35 31 36 77 37
REMARK SMILES IDX 32 38 76 39 33 40 34 41 35 42 70 43 36 44 75 45 69 46 71 47
REMARK SMILES IDX 37 48 74 49 68 50 67 51 38 53 60 54 45 55 59 56 46 57 49 58
REMARK SMILES IDX 58 59 72 60 47 61 48 62 57 64 73 65 50 66 39 67 40 68 44 69
REMARK SMILES IDX 41 70 43 71 42 72 61 73 62 74 66 75 63 76 65 77 64 78 51 79
REMARK SMILES IDX 52 80 56 81 53 82 55 83 54 84
REMARK H PARENT 20 6 14 11 4 14 17 26 27 33 71 52 49 63
REMARK Flexibility Score: inf
ROOT
ATOM      1  C   UNL A   1      36.961  22.918  24.299  1.00  0.00     0.021 C 
ENDROOT
BRANCH   1   2
ATOM      2  C   UNL A   1      35.593  22.253  24.429  1.00  0.00     0.116 C 
BRANCH   2   3
ATOM      3  N   UNL A   1      35.182  22.129  25.813  1.00  0.00    -0.354 N 
ATOM      4  C   UNL A   1      34.094  21.538  26.376  1.00  0.00     0.244 C 
ATOM      5  O   UNL A   1      34.135  21.348  27.596  1.00  0.00    -0.273 OA
ATOM      6  H   UNL A   1      35.799  22.545  26.458  1.00  0.00     0.163 HD
BRANCH   4   7
ATOM      7  C   UNL A   1      32.891  21.040  25.555  1.00  0.00     0.197 C 
BRANCH   7   8
ATOM      8  N   UNL A   1      32.333  22.067  24.675  1.00  0.00    -0.341 N 
ATOM      9  O   UNL A   1      30.458  22.439  25.930  1.00  0.00    -0.274 OA
ATOM     10  C   UNL A   1      31.179  22.751  24.986  1.00  0.00     0.235 C 
ATOM     11  H   UNL A   1      32.797  22.277  23.833  1.00  0.00     0.164 HD
BRANCH  10  12
ATOM     12  C   UNL A   1      30.849  23.915  24.055  1.00  0.00     0.198 C 
BRANCH  12  13
ATOM     13  N   UNL A   1      31.465  25.177  24.539  1.00  0.00    -0.202 NA
ATOM     14  H   UNL A   1      31.929  25.623  23.748  1.00  0.00     0.141 HD
BRANCH  13  15
ATOM     15  S   UNL A   1      30.396  26.303  25.216  1.00  0.00     0.241 S 
ATOM     16  O   UNL A   1      29.539  26.765  24.148  1.00  0.00    -0.207 OA
ATOM     17  O   UNL A   1      29.875  25.667  26.403  1.00  0.00    -0.207 OA
BRANCH  15  18
ATOM     18  C   UNL A   1      31.412  27.652  25.746  1.00  0.00     0.082 A 
ATOM     19  C   UNL A   1      32.176  27.485  26.906  1.00  0.00     0.022 A 
ATOM     20  C   UNL A   1      31.428  28.863  25.050  1.00  0.00     0.022 A 
ATOM     21  C   UNL A   1      32.965  28.537  27.369  1.00  0.00     0.001 A 
ATOM     22  C   UNL A   1      32.212  29.915  25.526  1.00  0.00     0.001 A 
ATOM     23  C   UNL A   1      32.979  29.751  26.682  1.00  0.00     0.000 A 
ENDBRANCH  15  18
ENDBRANCH  13  15
ENDBRANCH  12  13
ENDBRANCH  10  12
ENDBRANCH   7   8
BRANCH   7  24
ATOM     24  C   UNL A   1      33.190  19.705  24.858  1.00  0.00     0.191 C 
BRANCH  24  25
ATOM     25  O   UNL A   1      34.428  19.123  25.269  1.00  0.00    -0.394 OA
ATOM     26  H   UNL A   1      34.718  18.478  24.604  1.00  0.00     0.210 HD
ENDBRANCH  24  25
ENDBRANCH   7  24
ENDBRANCH   4   7
ENDBRANCH   2   3
ENDBRANCH   1   2
BRANCH   1  27
ATOM     27  C   UNL A   1      37.600  23.364  25.619  1.00  0.00     0.002 C 
BRANCH  27  28
ATOM     28  C   UNL A   1      38.726  22.472  26.152  1.00  0.00     0.002 C 
BRANCH  28  29
ATOM     29  C   UNL A   1      38.922  21.139  25.427  1.00  0.00     0.021 C 
BRANCH  29  30
ATOM     30  C   UNL A   1      39.315  19.958  26.309  1.00  0.00     0.116 C 
BRANCH  30  31
ATOM     31  N   UNL A   1      40.522  19.290  25.858  1.00  0.00    -0.352 N 
ATOM     32  C   UNL A   1      41.816  19.749  25.834  1.00  0.00     0.251 C 
ATOM     33  H   UNL A   1      40.396  18.374  25.520  1.00  0.00     0.163 HD
ATOM     34  O   UNL A   1      42.697  19.081  25.302  1.00  0.00    -0.269 OA
BRANCH  32  35
ATOM     35  C   UNL A   1      42.152  21.067  26.421  1.00  0.00     0.039 A 
ATOM     36  C   UNL A   1      42.541  22.100  25.563  1.00  0.00     0.014 A 
ATOM     37  C   UNL A   1      42.107  21.283  27.801  1.00  0.00     0.014 A 
ATOM     38  C   UNL A   1      42.828  23.365  26.082  1.00  0.00     0.010 A 
ATOM     39  C   UNL A   1      42.337  22.560  28.312  1.00  0.00     0.010 A 
ATOM     40  C   UNL A   1      42.702  23.612  27.458  1.00  0.00    -0.014 A 
BRANCH  40  41
ATOM     41  C   UNL A   1      42.947  24.964  28.018  1.00  0.00     0.031 A 
ATOM     42  C   UNL A   1      44.328  25.365  28.456  1.00  0.00     0.074 A 
ATOM     43  C   UNL A   1      41.917  25.813  28.187  1.00  0.00     0.049 A 
ATOM     44  N   UNL A   1      44.725  26.480  29.016  1.00  0.00    -0.248 NA
ATOM     45  C   UNL A   1      45.400  24.376  28.259  1.00  0.00     0.031 C 
ATOM     46  C   UNL A   1      40.522  25.535  27.840  1.00  0.00     0.029 A 
ATOM     47  N   UNL A   1      41.884  27.086  28.704  1.00  0.00    -0.354 N 
ATOM     48  C   UNL A   1      46.084  26.319  29.258  1.00  0.00     0.074 A 
ATOM     49  C   UNL A   1      46.436  24.986  28.817  1.00  0.00     0.031 C 
ATOM     50  C   UNL A   1      39.773  26.611  28.134  1.00  0.00     0.029 A 
ATOM     51  C   UNL A   1      40.628  27.641  28.717  1.00  0.00     0.049 A 
ATOM     52  H   UNL A   1      42.684  27.554  29.033  1.00  0.00     0.167 HD
ATOM     53  C   UNL A   1      46.963  27.203  29.785  1.00  0.00     0.031 A 
ATOM     54  C   UNL A   1      40.209  28.844  29.153  1.00  0.00     0.031 A 
ATOM     55  C   UNL A   1      46.623  28.536  30.205  1.00  0.00     0.049 A 
ATOM     56  C   UNL A   1      41.207  29.813  29.722  1.00  0.00     0.074 A 
ATOM     57  C   UNL A   1      47.458  29.525  30.696  1.00  0.00     0.029 A 
ATOM     58  N   UNL A   1      45.344  29.067  30.183  1.00  0.00    -0.354 N 
ATOM     59  N   UNL A   1      42.497  29.665  29.889  1.00  0.00    -0.248 NA
ATOM     60  C   UNL A   1      40.687  31.119  30.153  1.00  0.00     0.031 C 
ATOM     61  C   UNL A   1      46.677  30.644  31.005  1.00  0.00     0.029 A 
ATOM     62  C   UNL A   1      45.363  30.364  30.667  1.00  0.00     0.049 A 
ATOM     63  H   UNL A   1      44.540  28.592  29.869  1.00  0.00     0.167 HD
ATOM     64  C   UNL A   1      42.950  30.864  30.421  1.00  0.00     0.074 A 
ATOM     65  C   UNL A   1      41.796  31.734  30.538  1.00  0.00     0.031 C 
ATOM     66  C   UNL A   1      44.208  31.215  30.780  1.00  0.00     0.031 A 
BRANCH  53  67
ATOM     67  C   UNL A   1      48.386  26.749  29.943  1.00  0.00    -0.014 A 
ATOM     68  C   UNL A   1      49.343  26.998  28.946  1.00  0.00     0.009 A 
ATOM     69  C   UNL A   1      48.782  26.089  31.117  1.00  0.00     0.009 A 
ATOM     70  C   UNL A   1      50.660  26.565  29.107  1.00  0.00     0.001 A 
ATOM     71  C   UNL A   1      50.106  25.680  31.285  1.00  0.00     0.001 A 
ATOM     72  C   UNL A   1      51.042  25.909  30.277  1.00  0.00     0.000 A 
ENDBRANCH  53  67
BRANCH  54  73
ATOM     73  C   UNL A   1      38.775  29.211  29.048  1.00  0.00    -0.014 A 
ATOM     74  C   UNL A   1      37.923  29.063  30.153  1.00  0.00     0.009 A 
ATOM     75  C   UNL A   1      38.251  29.711  27.846  1.00  0.00     0.009 A 
ATOM     76  C   UNL A   1      36.568  29.387  30.049  1.00  0.00     0.001 A 
ATOM     77  C   UNL A   1      36.901  30.056  27.752  1.00  0.00     0.001 A 
ATOM     78  C   UNL A   1      36.060  29.887  28.851  1.00  0.00     0.000 A 
ENDBRANCH  54  73
BRANCH  66  79
ATOM     79  C   UNL A   1      44.408  32.607  31.305  1.00  0.00    -0.014 A 
ATOM     80  C   UNL A   1      44.679  33.677  30.440  1.00  0.00     0.009 A 
ATOM     81  C   UNL A   1      44.290  32.854  32.682  1.00  0.00     0.009 A 
ATOM     82  C   UNL A   1      44.855  34.966  30.947  1.00  0.00     0.001 A 
ATOM     83  C   UNL A   1      44.443  34.147  33.184  1.00  0.00     0.001 A 
ATOM     84  C   UNL A   1      44.733  35.200  32.317  1.00  0.00     0.000 A 
ENDBRANCH  66  79
ENDBRANCH  40  41
ENDBRANCH  32  35
ENDBRANCH  30  31
ENDBRANCH  29  30
ENDBRANCH  28  29
ENDBRANCH  27  28
ENDBRANCH   1  27
TORSDOF 20
ENDMDL
MODEL 3
REMARK VINA RESULT:      -9.8      1.495      6.630
REMARK SMILES O=C(CNS(=O)(=O)c1ccccc1)N[C@@H](CO)C(=O)NCCCCCCNC(=O)c1ccc(-c2c3nc(c(-c4ccccc4)c4ccc([nH]4)c(-c4ccccc4)c4nc(c(-c5ccccc5)c5ccc2[nH]5)C=C4)C=C3)cc1
REMARK SMILES IDX 22 1 21 2 20 3 18 4 19 5 15 7 14 8 1 9 2 10 3 12 4 13 5 15
REMARK SMILES IDX 6 16 7 17 8 18 9 19 13 20 10 21 12 22 11 23 16 24 17 25
REMARK SMILES IDX 23 27 24 28 25 29 26 30 27 31 28 32 29 34 30 35 31 36 77 37
REMARK SMILES IDX 32 38 76 39 33 40 34 41 35 42 70 43 36 44 75 45 69 46 71 47
REMARK SMILES IDX 37 48 74 49 68 50 67 51 38 53 60 54 45 55 59 56 46 57 49 58
REMARK SMILES IDX 58 59 72 60 47 61 48 62 57 64 73 65 50 66 39 67 40 68 44 69
REMARK SMILES IDX 41 70 43 71 42 72 61 73 62 74 66 75 63 76 65 77 64 78 51 79
REMARK SMILES IDX 52 80 56 81 53 82 55 83 54 84
REMARK H PARENT 20 6 14 11 4 14 17 26 27 33 71 52 49 63
REMARK Flexibility Score: inf
ROOT
ATOM      1  C   UNL A   1      35.837  23.157  25.336  1.00  0.00     0.021 C 
ENDROOT
BRANCH   1   2
ATOM      2  C   UNL A   1      34.360  23.516  25.484  1.00  0.00     0.116 C 
BRANCH   2   3
ATOM      3  N   UNL A   1      33.543  22.862  24.481  1.00  0.00    -0.354 N 
ATOM      4  C   UNL A   1      32.226  22.999  24.171  1.00  0.00     0.244 C 
ATOM      5  O   UNL A   1      31.857  22.515  23.095  1.00  0.00    -0.273 OA
ATOM      6  H   UNL A   1      34.026  22.205  23.930  1.00  0.00     0.163 HD
BRANCH   4   7
ATOM      7  C   UNL A   1      31.234  23.783  25.047  1.00  0.00     0.197 C 
BRANCH   7   8
ATOM      8  N   UNL A   1      30.209  24.481  24.270  1.00  0.00    -0.341 N 
ATOM      9  O   UNL A   1      30.027  26.262  25.693  1.00  0.00    -0.274 OA
ATOM     10  C   UNL A   1      29.741  25.727  24.626  1.00  0.00     0.235 C 
ATOM     11  H   UNL A   1      29.842  24.047  23.467  1.00  0.00     0.164 HD
BRANCH  10  12
ATOM     12  C   UNL A   1      28.821  26.385  23.601  1.00  0.00     0.198 C 
BRANCH  12  13
ATOM     13  N   UNL A   1      29.118  27.833  23.468  1.00  0.00    -0.202 NA
ATOM     14  H   UNL A   1      29.237  28.216  24.405  1.00  0.00     0.141 HD
BRANCH  13  15
ATOM     15  S   UNL A   1      30.501  28.220  22.569  1.00  0.00     0.241 S 
ATOM     16  O   UNL A   1      30.916  27.011  21.895  1.00  0.00    -0.207 OA
ATOM     17  O   UNL A   1      30.164  29.427  21.851  1.00  0.00    -0.207 OA
BRANCH  15  18
ATOM     18  C   UNL A   1      31.733  28.648  23.766  1.00  0.00     0.082 A 
ATOM     19  C   UNL A   1      33.052  28.248  23.527  1.00  0.00     0.022 A 
ATOM     20  C   UNL A   1      31.396  29.335  24.936  1.00  0.00     0.022 A 
ATOM     21  C   UNL A   1      34.041  28.543  24.463  1.00  0.00     0.001 A 
ATOM     22  C   UNL A   1      32.392  29.615  25.874  1.00  0.00     0.001 A 
ATOM     23  C   UNL A   1      33.710  29.222  25.636  1.00  0.00     0.000 A 
ENDBRANCH  15  18
ENDBRANCH  13  15
ENDBRANCH  12  13
ENDBRANCH  10  12
ENDBRANCH   7   8
BRANCH   7  24
ATOM     24  C   UNL A   1      30.681  22.923  26.193  1.00  0.00     0.191 C 
BRANCH  24  25
ATOM     25  O   UNL A   1      30.216  23.696  27.301  1.00  0.00    -0.394 OA
ATOM     26  H   UNL A   1      30.975  24.065  27.779  1.00  0.00     0.210 HD
ENDBRANCH  24  25
ENDBRANCH   7  24
ENDBRANCH   4   7
ENDBRANCH   2   3
ENDBRANCH   1   2
BRANCH   1  27
ATOM     27  C   UNL A   1      36.221  21.753  25.818  1.00  0.00     0.002 C 
BRANCH  27  28
ATOM     28  C   UNL A   1      36.435  20.705  24.721  1.00  0.00     0.002 C 
BRANCH  28  29
ATOM     29  C   UNL A   1      37.568  19.706  24.963  1.00  0.00     0.021 C 
BRANCH  29  30
ATOM     30  C   UNL A   1      38.750  20.232  25.771  1.00  0.00     0.116 C 
BRANCH  30  31
ATOM     31  N   UNL A   1      39.893  19.336  25.753  1.00  0.00    -0.352 N 
ATOM     32  C   UNL A   1      41.204  19.589  26.072  1.00  0.00     0.251 C 
ATOM     33  H   UNL A   1      39.700  18.413  25.472  1.00  0.00     0.163 HD
ATOM     34  O   UNL A   1      42.061  18.732  25.880  1.00  0.00    -0.269 OA
BRANCH  32  35
ATOM     35  C   UNL A   1      41.599  20.908  26.617  1.00  0.00     0.039 A 
ATOM     36  C   UNL A   1      42.037  21.895  25.728  1.00  0.00     0.014 A 
ATOM     37  C   UNL A   1      41.561  21.170  27.989  1.00  0.00     0.014 A 
ATOM     38  C   UNL A   1      42.381  23.161  26.208  1.00  0.00     0.010 A 
ATOM     39  C   UNL A   1      41.849  22.451  28.460  1.00  0.00     0.010 A 
ATOM     40  C   UNL A   1      42.264  23.457  27.574  1.00  0.00    -0.014 A 
BRANCH  40  41
ATOM     41  C   UNL A   1      42.570  24.814  28.092  1.00  0.00     0.031 A 
ATOM     42  C   UNL A   1      43.971  25.170  28.506  1.00  0.00     0.074 A 
ATOM     43  C   UNL A   1      41.577  25.710  28.244  1.00  0.00     0.049 A 
ATOM     44  N   UNL A   1      44.419  26.283  29.030  1.00  0.00    -0.248 NA
ATOM     45  C   UNL A   1      44.999  24.131  28.330  1.00  0.00     0.031 C 
ATOM     46  C   UNL A   1      40.169  25.480  27.917  1.00  0.00     0.029 A 
ATOM     47  N   UNL A   1      41.602  26.997  28.723  1.00  0.00    -0.354 N 
ATOM     48  C   UNL A   1      45.772  26.073  29.265  1.00  0.00     0.074 A 
ATOM     49  C   UNL A   1      46.065  24.714  28.861  1.00  0.00     0.031 C 
ATOM     50  C   UNL A   1      39.468  26.594  28.185  1.00  0.00     0.029 A 
ATOM     51  C   UNL A   1      40.370  27.605  28.731  1.00  0.00     0.049 A 
ATOM     52  H   UNL A   1      42.424  27.441  29.031  1.00  0.00     0.167 HD
ATOM     53  C   UNL A   1      46.691  26.935  29.758  1.00  0.00     0.031 A 
ATOM     54  C   UNL A   1      40.006  28.836  29.133  1.00  0.00     0.031 A 
ATOM     55  C   UNL A   1      46.412  28.293  30.141  1.00  0.00     0.049 A 
ATOM     56  C   UNL A   1      41.048  29.779  29.666  1.00  0.00     0.074 A 
ATOM     57  C   UNL A   1      47.291  29.260  30.595  1.00  0.00     0.029 A 
ATOM     58  N   UNL A   1      45.155  28.876  30.114  1.00  0.00    -0.354 N 
ATOM     59  N   UNL A   1      42.333  29.582  29.826  1.00  0.00    -0.248 NA
ATOM     60  C   UNL A   1      40.587  31.117  30.062  1.00  0.00     0.031 C 
ATOM     61  C   UNL A   1      46.560  30.419  30.877  1.00  0.00     0.029 A 
ATOM     62  C   UNL A   1      45.232  30.184  30.559  1.00  0.00     0.049 A 
ATOM     63  H   UNL A   1      44.329  28.425  29.821  1.00  0.00     0.167 HD
ATOM     64  C   UNL A   1      42.839  30.777  30.318  1.00  0.00     0.074 A 
ATOM     65  C   UNL A   1      41.724  31.697  30.418  1.00  0.00     0.031 C 
ATOM     66  C   UNL A   1      44.114  31.086  30.656  1.00  0.00     0.031 A 
BRANCH  53  67
ATOM     67  C   UNL A   1      48.096  26.426  29.918  1.00  0.00    -0.014 A 
ATOM     68  C   UNL A   1      48.517  25.819  31.111  1.00  0.00     0.009 A 
ATOM     69  C   UNL A   1      49.002  26.529  28.850  1.00  0.00     0.009 A 
ATOM     70  C   UNL A   1      49.828  25.356  31.245  1.00  0.00     0.001 A 
ATOM     71  C   UNL A   1      50.304  26.042  28.978  1.00  0.00     0.001 A 
ATOM     72  C   UNL A   1      50.719  25.465  30.177  1.00  0.00     0.000 A 
ENDBRANCH  53  67
BRANCH  54  73
ATOM     73  C   UNL A   1      38.587  29.259  29.030  1.00  0.00    -0.014 A 
ATOM     74  C   UNL A   1      38.081  29.753  27.817  1.00  0.00     0.009 A 
ATOM     75  C   UNL A   1      37.732  29.171  30.139  1.00  0.00     0.009 A 
ATOM     76  C   UNL A   1      36.752  30.171  27.725  1.00  0.00     0.001 A 
ATOM     77  C   UNL A   1      36.398  29.568  30.037  1.00  0.00     0.001 A 
ATOM     78  C   UNL A   1      35.911  30.074  28.832  1.00  0.00     0.000 A 
ENDBRANCH  54  73
BRANCH  66  79
ATOM     79  C   UNL A   1      44.377  32.482  31.138  1.00  0.00    -0.014 A 
ATOM     80  C   UNL A   1      44.685  33.515  30.239  1.00  0.00     0.009 A 
ATOM     81  C   UNL A   1      44.280  32.775  32.507  1.00  0.00     0.009 A 
ATOM     82  C   UNL A   1      44.919  34.809  30.706  1.00  0.00     0.001 A 
ATOM     83  C   UNL A   1      44.492  34.074  32.969  1.00  0.00     0.001 A 
ATOM     84  C   UNL A   1      44.818  35.089  32.069  1.00  0.00     0.000 A 
ENDBRANCH  66  79
ENDBRANCH  40  41
ENDBRANCH  32  35
ENDBRANCH  30  31
ENDBRANCH  29  30
ENDBRANCH  28  29
ENDBRANCH  27  28
ENDBRANCH   1  27
TORSDOF 20
ENDMDL
