MODEL 1
REMARK VINA RESULT:     -11.8      0.000      0.000
REMARK SMILES CS(=O)(=O)c1ccc(C2=NN(c3ccc(C(=O)NCCCCCCNC(=O)c4ccc(-c5c6nc(c(-c7ccccc7)c7ccc([nH]7)c(-c7ccccc7)c7nc(c(-c8ccccc8)c8ccc5[nH]8)C=C7)C=C6)cc4)cc3)[C@H](c3ccc(F)cc3)C2)cc1
REMARK SMILES IDX 21 1 20 2 19 3 18 4 16 5 17 6 15 8 12 9 13 10 77 11 14 12
REMARK SMILES IDX 76 13 11 14 9 15 10 16 86 17 78 18 8 19 5 20 6 21 88 22 7 23
REMARK SMILES IDX 87 24 2 25 1 26 3 27 4 28 79 29 80 30 85 31 81 32 84 33
REMARK SMILES IDX 82 34 83 35 22 36 23 37 24 38 25 39 26 40 27 42 28 43 29 44
REMARK SMILES IDX 75 45 30 46 74 47 31 48 32 49 33 50 68 51 34 52 73 53 67 54
REMARK SMILES IDX 69 55 35 56 72 57 66 58 65 59 36 61 58 62 43 63 57 64 44 65
REMARK SMILES IDX 47 66 56 67 70 68 45 69 46 70 55 72 71 73 48 74 37 75 38 76
REMARK SMILES IDX 42 77 39 78 41 79 40 80 59 81 60 82 64 83 61 84 63 85 62 86
REMARK SMILES IDX 49 87 50 88 54 89 51 90 53 91 52 92
REMARK H PARENT 18 7 25 41 69 60 47 71
REMARK Flexibility Score: inf
ROOT
ATOM      1  C   UNL A   1      37.898  30.479  30.147  1.00  0.00     0.002 C 
ENDROOT
BRANCH   1   2
ATOM      2  C   UNL A   1      36.421  30.068  30.142  1.00  0.00     0.021 C 
BRANCH   2   3
ATOM      3  C   UNL A   1      35.883  29.786  28.737  1.00  0.00     0.116 C 
BRANCH   3   4
ATOM      4  N   UNL A   1      34.854  30.751  28.397  1.00  0.00    -0.352 N 
ATOM      5  C   UNL A   1      33.752  30.655  27.585  1.00  0.00     0.251 C 
ATOM      6  O   UNL A   1      33.012  31.632  27.481  1.00  0.00    -0.269 OA
ATOM      7  H   UNL A   1      34.968  31.631  28.824  1.00  0.00     0.163 HD
BRANCH   5   8
ATOM      8  C   UNL A   1      33.388  29.384  26.910  1.00  0.00     0.039 A 
ATOM      9  C   UNL A   1      32.686  27.144  25.365  1.00  0.00     0.060 A 
ATOM     10  C   UNL A   1      33.906  27.791  25.155  1.00  0.00     0.029 A 
ATOM     11  C   UNL A   1      31.877  27.563  26.425  1.00  0.00     0.029 A 
ATOM     12  C   UNL A   1      34.258  28.904  25.924  1.00  0.00     0.016 A 
ATOM     13  C   UNL A   1      32.232  28.662  27.207  1.00  0.00     0.016 A 
BRANCH   9  14
ATOM     14  N   UNL A   1      32.252  26.113  24.553  1.00  0.00    -0.257 N 
ATOM     15  C   UNL A   1      32.351  24.124  23.839  1.00  0.00     0.071 C 
ATOM     16  N   UNL A   1      32.547  24.844  24.897  1.00  0.00    -0.176 NA
ATOM     17  C   UNL A   1      31.932  24.875  22.603  1.00  0.00     0.091 C 
ATOM     18  C   UNL A   1      31.731  26.284  23.196  1.00  0.00     0.144 C 
BRANCH  15  19
ATOM     19  C   UNL A   1      32.547  22.666  23.858  1.00  0.00    -0.002 A 
ATOM     20  C   UNL A   1      32.726  19.895  23.861  1.00  0.00     0.067 A 
ATOM     21  C   UNL A   1      32.156  20.543  22.763  1.00  0.00     0.021 A 
ATOM     22  C   UNL A   1      33.195  20.622  24.963  1.00  0.00     0.021 A 
ATOM     23  C   UNL A   1      32.065  21.933  22.767  1.00  0.00     0.011 A 
ATOM     24  C   UNL A   1      33.116  22.017  24.956  1.00  0.00     0.011 A 
BRANCH  20  25
ATOM     25  S   UNL A   1      32.782  18.118  23.877  1.00  0.00     0.175 S 
ATOM     26  C   UNL A   1      34.467  17.773  24.314  1.00  0.00     0.163 C 
ATOM     27  O   UNL A   1      32.566  17.667  22.514  1.00  0.00    -0.224 OA
ATOM     28  O   UNL A   1      31.934  17.662  24.958  1.00  0.00    -0.224 OA
ENDBRANCH  20  25
ENDBRANCH  15  19
BRANCH  18  29
ATOM     29  C   UNL A   1      30.312  26.857  23.242  1.00  0.00    -0.023 A 
ATOM     30  C   UNL A   1      29.218  26.213  23.845  1.00  0.00     0.009 A 
ATOM     31  C   UNL A   1      30.092  28.139  22.689  1.00  0.00     0.009 A 
ATOM     32  C   UNL A   1      27.957  26.824  23.886  1.00  0.00     0.039 A 
ATOM     33  C   UNL A   1      28.843  28.761  22.758  1.00  0.00     0.039 A 
ATOM     34  C   UNL A   1      27.784  28.094  23.353  1.00  0.00     0.123 A 
ATOM     35  F   UNL A   1      26.584  28.685  23.420  1.00  0.00    -0.207 F 
ENDBRANCH  18  29
ENDBRANCH   9  14
ENDBRANCH   5   8
ENDBRANCH   3   4
ENDBRANCH   2   3
ENDBRANCH   1   2
BRANCH   1  36
ATOM     36  C   UNL A   1      38.177  31.853  29.527  1.00  0.00     0.002 C 
BRANCH  36  37
ATOM     37  C   UNL A   1      38.673  32.913  30.514  1.00  0.00     0.021 C 
BRANCH  37  38
ATOM     38  C   UNL A   1      37.875  34.211  30.487  1.00  0.00     0.116 C 
BRANCH  38  39
ATOM     39  N   UNL A   1      36.478  33.987  30.822  1.00  0.00    -0.352 N 
ATOM     40  C   UNL A   1      35.930  33.404  31.935  1.00  0.00     0.251 C 
ATOM     41  H   UNL A   1      35.829  34.301  30.150  1.00  0.00     0.163 HD
ATOM     42  O   UNL A   1      34.749  33.072  31.937  1.00  0.00    -0.269 OA
BRANCH  40  43
ATOM     43  C   UNL A   1      36.765  33.164  33.130  1.00  0.00     0.039 A 
ATOM     44  C   UNL A   1      37.234  34.261  33.855  1.00  0.00     0.014 A 
ATOM     45  C   UNL A   1      37.110  31.865  33.517  1.00  0.00     0.014 A 
ATOM     46  C   UNL A   1      38.012  34.053  34.994  1.00  0.00     0.010 A 
ATOM     47  C   UNL A   1      37.818  31.658  34.698  1.00  0.00     0.010 A 
ATOM     48  C   UNL A   1      38.287  32.749  35.441  1.00  0.00    -0.014 A 
BRANCH  48  49
ATOM     49  C   UNL A   1      39.071  32.521  36.681  1.00  0.00     0.031 A 
ATOM     50  C   UNL A   1      38.389  32.510  38.023  1.00  0.00     0.074 A 
ATOM     51  C   UNL A   1      40.405  32.346  36.599  1.00  0.00     0.049 A 
ATOM     52  N   UNL A   1      38.909  32.323  39.210  1.00  0.00    -0.248 NA
ATOM     53  C   UNL A   1      36.939  32.760  38.036  1.00  0.00     0.031 C 
ATOM     54  C   UNL A   1      41.189  32.368  35.362  1.00  0.00     0.029 A 
ATOM     55  N   UNL A   1      41.337  32.106  37.577  1.00  0.00    -0.354 N 
ATOM     56  C   UNL A   1      37.853  32.432  40.107  1.00  0.00     0.074 A 
ATOM     57  C   UNL A   1      36.677  32.766  39.335  1.00  0.00     0.031 C 
ATOM     58  C   UNL A   1      42.474  32.104  35.651  1.00  0.00     0.029 A 
ATOM     59  C   UNL A   1      42.612  31.940  37.094  1.00  0.00     0.049 A 
ATOM     60  H   UNL A   1      41.113  32.055  38.534  1.00  0.00     0.167 HD
ATOM     61  C   UNL A   1      37.854  32.242  41.448  1.00  0.00     0.031 A 
ATOM     62  C   UNL A   1      43.765  31.685  37.741  1.00  0.00     0.031 A 
ATOM     63  C   UNL A   1      39.025  31.914  42.216  1.00  0.00     0.049 A 
ATOM     64  C   UNL A   1      43.743  31.527  39.237  1.00  0.00     0.074 A 
ATOM     65  C   UNL A   1      39.125  31.676  43.576  1.00  0.00     0.029 A 
ATOM     66  N   UNL A   1      40.301  31.780  41.692  1.00  0.00    -0.354 N 
ATOM     67  N   UNL A   1      42.724  31.572  40.060  1.00  0.00    -0.248 NA
ATOM     68  C   UNL A   1      45.035  31.270  39.889  1.00  0.00     0.031 C 
ATOM     69  C   UNL A   1      40.471  31.451  43.883  1.00  0.00     0.029 A 
ATOM     70  C   UNL A   1      41.198  31.483  42.704  1.00  0.00     0.049 A 
ATOM     71  H   UNL A   1      40.535  31.880  40.741  1.00  0.00     0.167 HD
ATOM     72  C   UNL A   1      43.247  31.311  41.321  1.00  0.00     0.074 A 
ATOM     73  C   UNL A   1      44.667  31.089  41.149  1.00  0.00     0.031 C 
ATOM     74  C   UNL A   1      42.608  31.261  42.516  1.00  0.00     0.031 A 
BRANCH  61  75
ATOM     75  C   UNL A   1      36.541  32.381  42.168  1.00  0.00    -0.014 A 
ATOM     76  C   UNL A   1      36.010  33.647  42.469  1.00  0.00     0.009 A 
ATOM     77  C   UNL A   1      35.802  31.239  42.513  1.00  0.00     0.009 A 
ATOM     78  C   UNL A   1      34.785  33.764  43.129  1.00  0.00     0.001 A 
ATOM     79  C   UNL A   1      34.562  31.359  43.144  1.00  0.00     0.001 A 
ATOM     80  C   UNL A   1      34.059  32.621  43.460  1.00  0.00     0.000 A 
ENDBRANCH  61  75
BRANCH  62  81
ATOM     81  C   UNL A   1      45.040  31.545  36.987  1.00  0.00    -0.014 A 
ATOM     82  C   UNL A   1      45.824  32.672  36.696  1.00  0.00     0.009 A 
ATOM     83  C   UNL A   1      45.461  30.291  36.518  1.00  0.00     0.009 A 
ATOM     84  C   UNL A   1      46.976  32.554  35.917  1.00  0.00     0.001 A 
ATOM     85  C   UNL A   1      46.633  30.169  35.770  1.00  0.00     0.001 A 
ATOM     86  C   UNL A   1      47.382  31.303  35.457  1.00  0.00     0.000 A 
ENDBRANCH  62  81
BRANCH  74  87
ATOM     87  C   UNL A   1      43.436  30.904  43.720  1.00  0.00    -0.014 A 
ATOM     88  C   UNL A   1      44.078  31.889  44.487  1.00  0.00     0.009 A 
ATOM     89  C   UNL A   1      43.554  29.559  44.105  1.00  0.00     0.009 A 
ATOM     90  C   UNL A   1      44.860  31.528  45.586  1.00  0.00     0.001 A 
ATOM     91  C   UNL A   1      44.306  29.205  45.226  1.00  0.00     0.001 A 
ATOM     92  C   UNL A   1      44.969  30.188  45.957  1.00  0.00     0.000 A 
ENDBRANCH  74  87
ENDBRANCH  48  49
ENDBRANCH  40  43
ENDBRANCH  38  39
ENDBRANCH  37  38
ENDBRANCH  36  37
ENDBRANCH   1  36
TORSDOF 17
ENDMDL
MODEL 2
REMARK VINA RESULT:     -11.7      5.611     10.811
REMARK SMILES CS(=O)(=O)c1ccc(C2=NN(c3ccc(C(=O)NCCCCCCNC(=O)c4ccc(-c5c6nc(c(-c7ccccc7)c7ccc([nH]7)c(-c7ccccc7)c7nc(c(-c8ccccc8)c8ccc5[nH]8)C=C7)C=C6)cc4)cc3)[C@H](c3ccc(F)cc3)C2)cc1
REMARK SMILES IDX 21 1 20 2 19 3 18 4 16 5 17 6 15 8 12 9 13 10 77 11 14 12
REMARK SMILES IDX 76 13 11 14 9 15 10 16 86 17 78 18 8 19 5 20 6 21 88 22 7 23
REMARK SMILES IDX 87 24 2 25 1 26 3 27 4 28 79 29 80 30 85 31 81 32 84 33
REMARK SMILES IDX 82 34 83 35 22 36 23 37 24 38 25 39 26 40 27 42 28 43 29 44
REMARK SMILES IDX 75 45 30 46 74 47 31 48 32 49 33 50 68 51 34 52 73 53 67 54
REMARK SMILES IDX 69 55 35 56 72 57 66 58 65 59 36 61 58 62 43 63 57 64 44 65
REMARK SMILES IDX 47 66 56 67 70 68 45 69 46 70 55 72 71 73 48 74 37 75 38 76
REMARK SMILES IDX 42 77 39 78 41 79 40 80 59 81 60 82 64 83 61 84 63 85 62 86
REMARK SMILES IDX 49 87 50 88 54 89 51 90 53 91 52 92
REMARK H PARENT 18 7 25 41 69 60 47 71
REMARK Flexibility Score: inf
ROOT
ATOM      1  C   UNL A   1      39.528  35.689  35.876  1.00  0.00     0.002 C 
ENDROOT
BRANCH   1   2
ATOM      2  C   UNL A   1      39.347  34.793  34.645  1.00  0.00     0.021 C 
BRANCH   2   3
ATOM      3  C   UNL A   1      37.944  34.191  34.543  1.00  0.00     0.116 C 
BRANCH   3   4
ATOM      4  N   UNL A   1      37.848  33.012  35.384  1.00  0.00    -0.352 N 
ATOM      5  C   UNL A   1      37.851  31.676  35.076  1.00  0.00     0.251 C 
ATOM      6  O   UNL A   1      37.778  30.860  35.993  1.00  0.00    -0.269 OA
ATOM      7  H   UNL A   1      37.764  33.206  36.346  1.00  0.00     0.163 HD
BRANCH   5   8
ATOM      8  C   UNL A   1      38.033  31.196  33.682  1.00  0.00     0.039 A 
ATOM      9  C   UNL A   1      38.253  30.014  31.142  1.00  0.00     0.060 A 
ATOM     10  C   UNL A   1      36.995  30.241  31.708  1.00  0.00     0.029 A 
ATOM     11  C   UNL A   1      39.385  30.484  31.812  1.00  0.00     0.029 A 
ATOM     12  C   UNL A   1      36.884  30.831  32.971  1.00  0.00     0.016 A 
ATOM     13  C   UNL A   1      39.278  31.088  33.064  1.00  0.00     0.016 A 
BRANCH   9  14
ATOM     14  N   UNL A   1      38.409  29.334  29.949  1.00  0.00    -0.257 N 
ATOM     15  C   UNL A   1      39.225  27.773  28.777  1.00  0.00     0.071 C 
ATOM     16  N   UNL A   1      38.835  28.056  29.979  1.00  0.00    -0.176 NA
ATOM     17  C   UNL A   1      39.145  28.897  27.780  1.00  0.00     0.091 C 
ATOM     18  C   UNL A   1      38.416  29.961  28.626  1.00  0.00     0.144 C 
BRANCH  15  19
ATOM     19  C   UNL A   1      39.729  26.435  28.432  1.00  0.00    -0.002 A 
ATOM     20  C   UNL A   1      40.831  23.996  27.690  1.00  0.00     0.067 A 
ATOM     21  C   UNL A   1      41.610  24.910  28.402  1.00  0.00     0.021 A 
ATOM     22  C   UNL A   1      39.510  24.298  27.334  1.00  0.00     0.021 A 
ATOM     23  C   UNL A   1      41.055  26.134  28.769  1.00  0.00     0.011 A 
ATOM     24  C   UNL A   1      38.952  25.520  27.718  1.00  0.00     0.011 A 
BRANCH  20  25
ATOM     25  S   UNL A   1      41.565  22.462  27.170  1.00  0.00     0.175 S 
ATOM     26  C   UNL A   1      43.275  22.669  27.595  1.00  0.00     0.163 C 
ATOM     27  O   UNL A   1      41.461  22.404  25.723  1.00  0.00    -0.224 OA
ATOM     28  O   UNL A   1      41.018  21.410  28.001  1.00  0.00    -0.224 OA
ENDBRANCH  20  25
ENDBRANCH  15  19
BRANCH  18  29
ATOM     29  C   UNL A   1      36.995  30.362  28.222  1.00  0.00    -0.023 A 
ATOM     30  C   UNL A   1      36.003  29.454  27.816  1.00  0.00     0.009 A 
ATOM     31  C   UNL A   1      36.637  31.726  28.310  1.00  0.00     0.009 A 
ATOM     32  C   UNL A   1      34.709  29.895  27.506  1.00  0.00     0.039 A 
ATOM     33  C   UNL A   1      35.339  32.161  28.030  1.00  0.00     0.039 A 
ATOM     34  C   UNL A   1      34.387  31.240  27.626  1.00  0.00     0.123 A 
ATOM     35  F   UNL A   1      33.142  31.652  27.354  1.00  0.00    -0.207 F 
ENDBRANCH  18  29
ENDBRANCH   9  14
ENDBRANCH   5   8
ENDBRANCH   3   4
ENDBRANCH   2   3
ENDBRANCH   1   2
BRANCH   1  36
ATOM     36  C   UNL A   1      40.974  36.131  36.133  1.00  0.00     0.002 C 
BRANCH  36  37
ATOM     37  C   UNL A   1      41.288  36.478  37.591  1.00  0.00     0.021 C 
BRANCH  37  38
ATOM     38  C   UNL A   1      40.295  35.904  38.595  1.00  0.00     0.116 C 
BRANCH  38  39
ATOM     39  N   UNL A   1      40.970  35.178  39.659  1.00  0.00    -0.352 N 
ATOM     40  C   UNL A   1      41.575  33.949  39.628  1.00  0.00     0.251 C 
ATOM     41  H   UNL A   1      40.996  35.637  40.530  1.00  0.00     0.163 HD
ATOM     42  O   UNL A   1      41.873  33.383  40.675  1.00  0.00    -0.269 OA
BRANCH  40  43
ATOM     43  C   UNL A   1      41.861  33.298  38.332  1.00  0.00     0.039 A 
ATOM     44  C   UNL A   1      43.156  33.365  37.816  1.00  0.00     0.014 A 
ATOM     45  C   UNL A   1      40.850  32.653  37.613  1.00  0.00     0.014 A 
ATOM     46  C   UNL A   1      43.448  32.746  36.601  1.00  0.00     0.010 A 
ATOM     47  C   UNL A   1      41.161  31.967  36.442  1.00  0.00     0.010 A 
ATOM     48  C   UNL A   1      42.459  32.017  35.917  1.00  0.00    -0.014 A 
BRANCH  48  49
ATOM     49  C   UNL A   1      42.775  31.312  34.649  1.00  0.00     0.031 A 
ATOM     50  C   UNL A   1      42.792  32.062  33.345  1.00  0.00     0.074 A 
ATOM     51  C   UNL A   1      43.026  29.989  34.671  1.00  0.00     0.049 A 
ATOM     52  N   UNL A   1      43.050  31.616  32.141  1.00  0.00    -0.248 NA
ATOM     53  C   UNL A   1      42.458  33.495  33.394  1.00  0.00     0.031 C 
ATOM     54  C   UNL A   1      43.008  29.141  35.867  1.00  0.00     0.029 A 
ATOM     55  N   UNL A   1      43.354  29.124  33.658  1.00  0.00    -0.354 N 
ATOM     56  C   UNL A   1      42.910  32.709  31.294  1.00  0.00     0.074 A 
ATOM     57  C   UNL A   1      42.481  33.823  32.110  1.00  0.00     0.031 C 
ATOM     58  C   UNL A   1      43.356  27.890  35.524  1.00  0.00     0.029 A 
ATOM     59  C   UNL A   1      43.577  27.836  34.083  1.00  0.00     0.049 A 
ATOM     60  H   UNL A   1      43.424  29.399  32.716  1.00  0.00     0.167 HD
ATOM     61  C   UNL A   1      43.146  32.789  29.963  1.00  0.00     0.031 A 
ATOM     62  C   UNL A   1      43.922  26.735  33.389  1.00  0.00     0.031 A 
ATOM     63  C   UNL A   1      43.568  31.680  29.150  1.00  0.00     0.049 A 
ATOM     64  C   UNL A   1      44.130  26.843  31.903  1.00  0.00     0.074 A 
ATOM     65  C   UNL A   1      43.858  31.664  27.797  1.00  0.00     0.029 A 
ATOM     66  N   UNL A   1      43.759  30.388  29.614  1.00  0.00    -0.354 N 
ATOM     67  N   UNL A   1      44.053  27.899  31.131  1.00  0.00    -0.248 NA
ATOM     68  C   UNL A   1      44.484  25.604  31.198  1.00  0.00     0.031 C 
ATOM     69  C   UNL A   1      44.172  30.351  27.432  1.00  0.00     0.029 A 
ATOM     70  C   UNL A   1      44.143  29.563  28.571  1.00  0.00     0.049 A 
ATOM     71  H   UNL A   1      43.641  30.100  30.549  1.00  0.00     0.167 HD
ATOM     72  C   UNL A   1      44.387  27.459  29.855  1.00  0.00     0.074 A 
ATOM     73  C   UNL A   1      44.686  26.046  29.965  1.00  0.00     0.031 C 
ATOM     74  C   UNL A   1      44.441  28.160  28.697  1.00  0.00     0.031 A 
BRANCH  61  75
ATOM     75  C   UNL A   1      42.955  34.127  29.304  1.00  0.00    -0.014 A 
ATOM     76  C   UNL A   1      44.054  34.945  28.991  1.00  0.00     0.009 A 
ATOM     77  C   UNL A   1      41.667  34.560  28.951  1.00  0.00     0.009 A 
ATOM     78  C   UNL A   1      43.864  36.181  28.370  1.00  0.00     0.001 A 
ATOM     79  C   UNL A   1      41.483  35.783  28.301  1.00  0.00     0.001 A 
ATOM     80  C   UNL A   1      42.580  36.596  28.019  1.00  0.00     0.000 A 
ENDBRANCH  61  75
BRANCH  62  81
ATOM     81  C   UNL A   1      44.111  25.433  34.084  1.00  0.00    -0.014 A 
ATOM     82  C   UNL A   1      43.050  24.519  34.186  1.00  0.00     0.009 A 
ATOM     83  C   UNL A   1      45.339  25.112  34.683  1.00  0.00     0.009 A 
ATOM     84  C   UNL A   1      43.201  23.334  34.909  1.00  0.00     0.001 A 
ATOM     85  C   UNL A   1      45.499  23.911  35.375  1.00  0.00     0.001 A 
ATOM     86  C   UNL A   1      44.426  23.029  35.501  1.00  0.00     0.000 A 
ENDBRANCH  62  81
BRANCH  74  87
ATOM     87  C   UNL A   1      44.887  27.417  27.467  1.00  0.00    -0.014 A 
ATOM     88  C   UNL A   1      46.247  27.239  27.169  1.00  0.00     0.009 A 
ATOM     89  C   UNL A   1      43.924  26.867  26.605  1.00  0.00     0.009 A 
ATOM     90  C   UNL A   1      46.633  26.566  26.008  1.00  0.00     0.001 A 
ATOM     91  C   UNL A   1      44.314  26.163  25.464  1.00  0.00     0.001 A 
ATOM     92  C   UNL A   1      45.667  26.025  25.161  1.00  0.00     0.000 A 
ENDBRANCH  74  87
ENDBRANCH  48  49
ENDBRANCH  40  43
ENDBRANCH  38  39
ENDBRANCH  37  38
ENDBRANCH  36  37
ENDBRANCH   1  36
TORSDOF 17
ENDMDL
MODEL 3
REMARK VINA RESULT:     -11.5      6.906     12.199
REMARK SMILES CS(=O)(=O)c1ccc(C2=NN(c3ccc(C(=O)NCCCCCCNC(=O)c4ccc(-c5c6nc(c(-c7ccccc7)c7ccc([nH]7)c(-c7ccccc7)c7nc(c(-c8ccccc8)c8ccc5[nH]8)C=C7)C=C6)cc4)cc3)[C@H](c3ccc(F)cc3)C2)cc1
REMARK SMILES IDX 21 1 20 2 19 3 18 4 16 5 17 6 15 8 12 9 13 10 77 11 14 12
REMARK SMILES IDX 76 13 11 14 9 15 10 16 86 17 78 18 8 19 5 20 6 21 88 22 7 23
REMARK SMILES IDX 87 24 2 25 1 26 3 27 4 28 79 29 80 30 85 31 81 32 84 33
REMARK SMILES IDX 82 34 83 35 22 36 23 37 24 38 25 39 26 40 27 42 28 43 29 44
REMARK SMILES IDX 75 45 30 46 74 47 31 48 32 49 33 50 68 51 34 52 73 53 67 54
REMARK SMILES IDX 69 55 35 56 72 57 66 58 65 59 36 61 58 62 43 63 57 64 44 65
REMARK SMILES IDX 47 66 56 67 70 68 45 69 46 70 55 72 71 73 48 74 37 75 38 76
REMARK SMILES IDX 42 77 39 78 41 79 40 80 59 81 60 82 64 83 61 84 63 85 62 86
REMARK SMILES IDX 49 87 50 88 54 89 51 90 53 91 52 92
REMARK H PARENT 18 7 25 41 69 60 47 71
REMARK Flexibility Score: inf
ROOT
ATOM      1  C   UNL A   1      49.086  25.524  26.366  1.00  0.00     0.002 C 
ENDROOT
BRANCH   1   2
ATOM      2  C   UNL A   1      47.759  24.891  26.798  1.00  0.00     0.021 C 
BRANCH   2   3
ATOM      3  C   UNL A   1      46.583  25.295  25.906  1.00  0.00     0.116 C 
BRANCH   3   4
ATOM      4  N   UNL A   1      46.896  26.524  25.200  1.00  0.00    -0.352 N 
ATOM      5  C   UNL A   1      46.152  27.655  24.975  1.00  0.00     0.251 C 
ATOM      6  O   UNL A   1      46.667  28.584  24.354  1.00  0.00    -0.269 OA
ATOM      7  H   UNL A   1      47.801  26.551  24.814  1.00  0.00     0.163 HD
BRANCH   5   8
ATOM      8  C   UNL A   1      44.788  27.818  25.537  1.00  0.00     0.039 A 
ATOM      9  C   UNL A   1      42.318  27.999  26.867  1.00  0.00     0.060 A 
ATOM     10  C   UNL A   1      43.413  28.748  27.307  1.00  0.00     0.029 A 
ATOM     11  C   UNL A   1      42.445  27.249  25.695  1.00  0.00     0.029 A 
ATOM     12  C   UNL A   1      44.642  28.660  26.645  1.00  0.00     0.016 A 
ATOM     13  C   UNL A   1      43.664  27.172  25.021  1.00  0.00     0.016 A 
BRANCH   9  14
ATOM     14  N   UNL A   1      41.122  27.972  27.559  1.00  0.00    -0.257 N 
ATOM     15  C   UNL A   1      39.404  28.906  28.365  1.00  0.00     0.071 C 
ATOM     16  N   UNL A   1      40.244  28.978  27.383  1.00  0.00    -0.176 NA
ATOM     17  C   UNL A   1      39.671  27.825  29.378  1.00  0.00     0.091 C 
ATOM     18  C   UNL A   1      40.832  27.082  28.685  1.00  0.00     0.144 C 
BRANCH  15  19
ATOM     19  C   UNL A   1      38.275  29.842  28.477  1.00  0.00    -0.002 A 
ATOM     20  C   UNL A   1      36.142  31.621  28.492  1.00  0.00     0.067 A 
ATOM     21  C   UNL A   1      36.051  30.450  27.739  1.00  0.00     0.021 A 
ATOM     22  C   UNL A   1      37.298  31.917  29.228  1.00  0.00     0.021 A 
ATOM     23  C   UNL A   1      37.124  29.562  27.730  1.00  0.00     0.011 A 
ATOM     24  C   UNL A   1      38.367  31.015  29.230  1.00  0.00     0.011 A 
BRANCH  20  25
ATOM     25  S   UNL A   1      34.795  32.780  28.449  1.00  0.00     0.175 S 
ATOM     26  C   UNL A   1      33.478  31.840  27.723  1.00  0.00     0.163 C 
ATOM     27  O   UNL A   1      35.163  33.835  27.520  1.00  0.00    -0.224 OA
ATOM     28  O   UNL A   1      34.432  33.083  29.817  1.00  0.00    -0.224 OA
ENDBRANCH  20  25
ENDBRANCH  15  19
BRANCH  18  29
ATOM     29  C   UNL A   1      40.585  25.657  28.184  1.00  0.00    -0.023 A 
ATOM     30  C   UNL A   1      41.473  24.585  28.380  1.00  0.00     0.009 A 
ATOM     31  C   UNL A   1      39.365  25.383  27.525  1.00  0.00     0.009 A 
ATOM     32  C   UNL A   1      41.154  23.297  27.929  1.00  0.00     0.039 A 
ATOM     33  C   UNL A   1      39.034  24.093  27.105  1.00  0.00     0.039 A 
ATOM     34  C   UNL A   1      39.936  23.061  27.307  1.00  0.00     0.123 A 
ATOM     35  F   UNL A   1      39.625  21.822  26.903  1.00  0.00    -0.207 F 
ENDBRANCH  18  29
ENDBRANCH   9  14
ENDBRANCH   5   8
ENDBRANCH   3   4
ENDBRANCH   2   3
ENDBRANCH   1   2
BRANCH   1  36
ATOM     36  C   UNL A   1      50.260  25.249  27.314  1.00  0.00     0.002 C 
BRANCH  36  37
ATOM     37  C   UNL A   1      49.874  25.114  28.789  1.00  0.00     0.021 C 
BRANCH  37  38
ATOM     38  C   UNL A   1      50.598  26.086  29.713  1.00  0.00     0.116 C 
BRANCH  38  39
ATOM     39  N   UNL A   1      51.186  27.190  28.973  1.00  0.00    -0.352 N 
ATOM     40  C   UNL A   1      50.616  28.369  28.566  1.00  0.00     0.251 C 
ATOM     41  H   UNL A   1      52.133  27.076  28.728  1.00  0.00     0.163 HD
ATOM     42  O   UNL A   1      51.185  29.074  27.739  1.00  0.00    -0.269 OA
BRANCH  40  43
ATOM     43  C   UNL A   1      49.310  28.788  29.117  1.00  0.00     0.039 A 
ATOM     44  C   UNL A   1      49.288  29.620  30.238  1.00  0.00     0.014 A 
ATOM     45  C   UNL A   1      48.114  28.337  28.551  1.00  0.00     0.014 A 
ATOM     46  C   UNL A   1      48.064  30.036  30.764  1.00  0.00     0.010 A 
ATOM     47  C   UNL A   1      46.897  28.818  29.027  1.00  0.00     0.010 A 
ATOM     48  C   UNL A   1      46.859  29.662  30.145  1.00  0.00    -0.014 A 
BRANCH  48  49
ATOM     49  C   UNL A   1      45.555  30.143  30.668  1.00  0.00     0.031 A 
ATOM     50  C   UNL A   1      44.922  31.387  30.107  1.00  0.00     0.074 A 
ATOM     51  C   UNL A   1      44.953  29.469  31.667  1.00  0.00     0.049 A 
ATOM     52  N   UNL A   1      43.788  31.955  30.436  1.00  0.00    -0.248 NA
ATOM     53  C   UNL A   1      45.665  32.098  29.054  1.00  0.00     0.031 C 
ATOM     54  C   UNL A   1      45.480  28.267  32.319  1.00  0.00     0.029 A 
ATOM     55  N   UNL A   1      43.759  29.693  32.304  1.00  0.00    -0.354 N 
ATOM     56  C   UNL A   1      43.683  33.083  29.632  1.00  0.00     0.074 A 
ATOM     57  C   UNL A   1      44.896  33.158  28.848  1.00  0.00     0.031 C 
ATOM     58  C   UNL A   1      44.592  27.835  33.230  1.00  0.00     0.029 A 
ATOM     59  C   UNL A   1      43.457  28.752  33.259  1.00  0.00     0.049 A 
ATOM     60  H   UNL A   1      43.172  30.456  32.096  1.00  0.00     0.167 HD
ATOM     61  C   UNL A   1      42.658  33.963  29.532  1.00  0.00     0.031 A 
ATOM     62  C   UNL A   1      42.387  28.639  34.067  1.00  0.00     0.031 A 
ATOM     63  C   UNL A   1      41.454  33.893  30.315  1.00  0.00     0.049 A 
ATOM     64  C   UNL A   1      41.286  29.659  33.968  1.00  0.00     0.074 A 
ATOM     65  C   UNL A   1      40.346  34.721  30.269  1.00  0.00     0.029 A 
ATOM     66  N   UNL A   1      41.199  32.939  31.287  1.00  0.00    -0.354 N 
ATOM     67  N   UNL A   1      41.177  30.685  33.157  1.00  0.00    -0.248 NA
ATOM     68  C   UNL A   1      40.154  29.496  34.890  1.00  0.00     0.031 C 
ATOM     69  C   UNL A   1      39.445  34.301  31.252  1.00  0.00     0.029 A 
ATOM     70  C   UNL A   1      39.962  33.170  31.863  1.00  0.00     0.049 A 
ATOM     71  H   UNL A   1      41.809  32.204  31.531  1.00  0.00     0.167 HD
ATOM     72  C   UNL A   1      39.947  31.264  33.446  1.00  0.00     0.074 A 
ATOM     73  C   UNL A   1      39.342  30.464  34.490  1.00  0.00     0.031 C 
ATOM     74  C   UNL A   1      39.371  32.362  32.898  1.00  0.00     0.031 A 
BRANCH  61  75
ATOM     75  C   UNL A   1      42.798  35.079  28.533  1.00  0.00    -0.014 A 
ATOM     76  C   UNL A   1      42.696  34.834  27.152  1.00  0.00     0.009 A 
ATOM     77  C   UNL A   1      42.990  36.398  28.972  1.00  0.00     0.009 A 
ATOM     78  C   UNL A   1      42.817  35.879  26.235  1.00  0.00     0.001 A 
ATOM     79  C   UNL A   1      43.079  37.446  28.054  1.00  0.00     0.001 A 
ATOM     80  C   UNL A   1      43.002  37.185  26.686  1.00  0.00     0.000 A 
ENDBRANCH  61  75
BRANCH  62  81
ATOM     81  C   UNL A   1      42.285  27.513  35.034  1.00  0.00    -0.014 A 
ATOM     82  C   UNL A   1      41.622  26.327  34.682  1.00  0.00     0.009 A 
ATOM     83  C   UNL A   1      42.816  27.631  36.328  1.00  0.00     0.009 A 
ATOM     84  C   UNL A   1      41.453  25.304  35.616  1.00  0.00     0.001 A 
ATOM     85  C   UNL A   1      42.678  26.592  37.250  1.00  0.00     0.001 A 
ATOM     86  C   UNL A   1      41.984  25.435  36.898  1.00  0.00     0.000 A 
ENDBRANCH  62  81
BRANCH  74  87
ATOM     87  C   UNL A   1      37.995  32.729  33.384  1.00  0.00    -0.014 A 
ATOM     88  C   UNL A   1      36.840  32.265  32.736  1.00  0.00     0.009 A 
ATOM     89  C   UNL A   1      37.858  33.534  34.526  1.00  0.00     0.009 A 
ATOM     90  C   UNL A   1      35.575  32.640  33.194  1.00  0.00     0.001 A 
ATOM     91  C   UNL A   1      36.592  33.877  35.004  1.00  0.00     0.001 A 
ATOM     92  C   UNL A   1      35.453  33.441  34.330  1.00  0.00     0.000 A 
ENDBRANCH  74  87
ENDBRANCH  48  49
ENDBRANCH  40  43
ENDBRANCH  38  39
ENDBRANCH  37  38
ENDBRANCH  36  37
ENDBRANCH   1  36
TORSDOF 17
ENDMDL
