MODEL 1
REMARK VINA RESULT:     -11.7      0.000      0.000
REMARK SMILES O=C(NCCCCCCNC(=O)[C@H]1CCCCN1c1cc(-c2ccccc2)nc(-c2cccc(Cl)c2)n1)c1ccc(-c2c3nc(c(-c4ccccc4)c4ccc([nH]4)c(-c4ccccc4)c4nc(c(-c5ccccc5)c5ccc2[nH]5)C=C4)C=C3)cc1
REMARK SMILES IDX 6 1 5 2 4 3 3 4 1 5 2 6 38 8 39 9 85 10 40 11 84 12 41 13
REMARK SMILES IDX 42 14 43 15 78 16 44 17 83 18 77 19 79 20 45 21 82 22 76 23
REMARK SMILES IDX 75 24 46 26 68 27 53 28 67 29 54 30 57 31 66 32 80 33 55 34
REMARK SMILES IDX 56 35 65 37 81 38 58 39 47 40 48 41 52 42 49 43 51 44 50 45
REMARK SMILES IDX 69 46 70 47 74 48 71 49 73 50 72 51 59 52 60 53 64 54 61 55
REMARK SMILES IDX 63 56 62 57 7 58 8 59 9 60 10 61 11 62 12 64 13 65 14 66
REMARK SMILES IDX 18 67 15 68 17 69 16 70 19 71 20 72 37 73 21 74 29 75 28 76
REMARK SMILES IDX 22 77 23 78 27 79 24 80 26 81 25 82 30 83 31 84 36 85 32 86
REMARK SMILES IDX 34 87 33 88 35 89
REMARK H PARENT 3 7 79 25 57 36 10 63
REMARK Flexibility Score: inf
ROOT
ATOM      1  C   UNL A   1      39.313  24.018  27.177  1.00  0.00     0.002 C 
ENDROOT
BRANCH   1   2
ATOM      2  C   UNL A   1      40.565  24.852  26.917  1.00  0.00     0.021 C 
BRANCH   2   3
ATOM      3  C   UNL A   1      41.723  24.547  27.855  1.00  0.00     0.116 C 
BRANCH   3   4
ATOM      4  N   UNL A   1      42.507  23.408  27.407  1.00  0.00    -0.352 N 
ATOM      5  O   UNL A   1      44.182  22.376  26.294  1.00  0.00    -0.269 OA
ATOM      6  C   UNL A   1      43.730  23.406  26.785  1.00  0.00     0.251 C 
ATOM      7  H   UNL A   1      42.109  22.523  27.571  1.00  0.00     0.163 HD
BRANCH   6   8
ATOM      8  C   UNL A   1      44.496  24.665  26.704  1.00  0.00     0.039 A 
ATOM      9  C   UNL A   1      45.137  25.173  27.838  1.00  0.00     0.014 A 
ATOM     10  C   UNL A   1      44.582  25.336  25.482  1.00  0.00     0.014 A 
ATOM     11  C   UNL A   1      45.774  26.404  27.778  1.00  0.00     0.010 A 
ATOM     12  C   UNL A   1      45.300  26.532  25.402  1.00  0.00     0.010 A 
ATOM     13  C   UNL A   1      45.897  27.076  26.551  1.00  0.00    -0.014 A 
BRANCH  13  14
ATOM     14  C   UNL A   1      46.771  28.269  26.463  1.00  0.00     0.031 A 
ATOM     15  C   UNL A   1      46.216  29.658  26.566  1.00  0.00     0.074 A 
ATOM     16  C   UNL A   1      48.089  28.069  26.260  1.00  0.00     0.049 A 
ATOM     17  N   UNL A   1      46.849  30.800  26.462  1.00  0.00    -0.248 NA
ATOM     18  C   UNL A   1      44.772  29.791  26.810  1.00  0.00     0.031 C 
ATOM     19  C   UNL A   1      48.734  26.758  26.134  1.00  0.00     0.029 A 
ATOM     20  N   UNL A   1      49.121  28.959  26.124  1.00  0.00    -0.354 N 
ATOM     21  C   UNL A   1      45.880  31.785  26.602  1.00  0.00     0.074 A 
ATOM     22  C   UNL A   1      44.614  31.109  26.788  1.00  0.00     0.031 C 
ATOM     23  C   UNL A   1      50.052  26.929  25.965  1.00  0.00     0.029 A 
ATOM     24  C   UNL A   1      50.335  28.357  25.893  1.00  0.00     0.049 A 
ATOM     25  H   UNL A   1      49.006  29.936  26.186  1.00  0.00     0.167 HD
ATOM     26  C   UNL A   1      46.040  33.129  26.572  1.00  0.00     0.031 A 
ATOM     27  C   UNL A   1      51.537  28.888  25.609  1.00  0.00     0.031 A 
ATOM     28  C   UNL A   1      47.307  33.790  26.388  1.00  0.00     0.049 A 
ATOM     29  C   UNL A   1      51.666  30.380  25.528  1.00  0.00     0.074 A 
ATOM     30  C   UNL A   1      47.580  35.147  26.408  1.00  0.00     0.029 A 
ATOM     31  N   UNL A   1      48.507  33.144  26.130  1.00  0.00    -0.354 N 
ATOM     32  N   UNL A   1      50.755  31.299  25.741  1.00  0.00    -0.248 NA
ATOM     33  C   UNL A   1      52.986  30.911  25.164  1.00  0.00     0.031 C 
ATOM     34  C   UNL A   1      48.929  35.327  26.089  1.00  0.00     0.029 A 
ATOM     35  C   UNL A   1      49.511  34.078  25.936  1.00  0.00     0.049 A 
ATOM     36  H   UNL A   1      48.627  32.168  26.092  1.00  0.00     0.167 HD
ATOM     37  C   UNL A   1      51.394  32.514  25.549  1.00  0.00     0.074 A 
ATOM     38  C   UNL A   1      52.776  32.218  25.234  1.00  0.00     0.031 C 
ATOM     39  C   UNL A   1      50.880  33.765  25.619  1.00  0.00     0.031 A 
BRANCH  26  40
ATOM     40  C   UNL A   1      44.817  33.995  26.701  1.00  0.00    -0.014 A 
ATOM     41  C   UNL A   1      44.059  34.370  25.582  1.00  0.00     0.009 A 
ATOM     42  C   UNL A   1      44.365  34.361  27.979  1.00  0.00     0.009 A 
ATOM     43  C   UNL A   1      42.883  35.108  25.740  1.00  0.00     0.001 A 
ATOM     44  C   UNL A   1      43.177  35.076  28.137  1.00  0.00     0.001 A 
ATOM     45  C   UNL A   1      42.439  35.454  27.018  1.00  0.00     0.000 A 
ENDBRANCH  26  40
BRANCH  27  46
ATOM     46  C   UNL A   1      52.694  28.002  25.317  1.00  0.00    -0.014 A 
ATOM     47  C   UNL A   1      53.564  27.593  26.338  1.00  0.00     0.009 A 
ATOM     48  C   UNL A   1      52.942  27.571  24.002  1.00  0.00     0.009 A 
ATOM     49  C   UNL A   1      54.676  26.801  26.043  1.00  0.00     0.001 A 
ATOM     50  C   UNL A   1      54.033  26.750  23.717  1.00  0.00     0.001 A 
ATOM     51  C   UNL A   1      54.907  26.378  24.735  1.00  0.00     0.000 A 
ENDBRANCH  27  46
BRANCH  39  52
ATOM     52  C   UNL A   1      51.822  34.908  25.367  1.00  0.00    -0.014 A 
ATOM     53  C   UNL A   1      52.594  35.452  26.406  1.00  0.00     0.009 A 
ATOM     54  C   UNL A   1      51.974  35.413  24.068  1.00  0.00     0.009 A 
ATOM     55  C   UNL A   1      53.481  36.499  26.150  1.00  0.00     0.001 A 
ATOM     56  C   UNL A   1      52.885  36.437  23.809  1.00  0.00     0.001 A 
ATOM     57  C   UNL A   1      53.632  36.984  24.852  1.00  0.00     0.000 A 
ENDBRANCH  39  52
ENDBRANCH  13  14
ENDBRANCH   6   8
ENDBRANCH   3   4
ENDBRANCH   2   3
ENDBRANCH   1   2
BRANCH   1  58
ATOM     58  C   UNL A   1      38.102  24.383  26.312  1.00  0.00     0.002 C 
BRANCH  58  59
ATOM     59  C   UNL A   1      37.446  23.214  25.567  1.00  0.00     0.021 C 
BRANCH  59  60
ATOM     60  C   UNL A   1      36.112  23.546  24.902  1.00  0.00     0.116 C 
BRANCH  60  61
ATOM     61  N   UNL A   1      34.998  23.263  25.782  1.00  0.00    -0.354 N 
ATOM     62  C   UNL A   1      33.732  23.773  25.778  1.00  0.00     0.242 C 
ATOM     63  H   UNL A   1      35.181  22.603  26.490  1.00  0.00     0.163 HD
ATOM     64  O   UNL A   1      32.973  23.387  26.669  1.00  0.00    -0.273 OA
BRANCH  62  65
ATOM     65  C   UNL A   1      33.325  24.814  24.703  1.00  0.00     0.173 C 
ATOM     66  C   UNL A   1      33.306  24.192  23.302  1.00  0.00     0.035 C 
ATOM     67  N   UNL A   1      32.005  25.378  25.044  1.00  0.00    -0.344 N 
ATOM     68  C   UNL A   1      32.095  23.296  23.045  1.00  0.00     0.004 C 
ATOM     69  C   UNL A   1      30.829  24.536  24.852  1.00  0.00     0.119 C 
ATOM     70  C   UNL A   1      30.795  24.002  23.419  1.00  0.00     0.022 C 
BRANCH  67  71
ATOM     71  C   UNL A   1      31.872  26.743  25.193  1.00  0.00     0.133 A 
ATOM     72  C   UNL A   1      32.727  27.435  26.030  1.00  0.00     0.076 A 
ATOM     73  N   UNL A   1      30.960  27.389  24.453  1.00  0.00    -0.211 NA
ATOM     74  C   UNL A   1      32.639  28.814  26.045  1.00  0.00     0.076 A 
ATOM     75  C   UNL A   1      30.902  28.729  24.570  1.00  0.00     0.162 A 
ATOM     76  N   UNL A   1      31.718  29.479  25.324  1.00  0.00    -0.228 NA
BRANCH  74  77
ATOM     77  C   UNL A   1      33.588  29.649  26.792  1.00  0.00     0.000 A 
ATOM     78  C   UNL A   1      34.855  29.161  27.152  1.00  0.00     0.010 A 
ATOM     79  C   UNL A   1      33.246  30.953  27.193  1.00  0.00     0.010 A 
ATOM     80  C   UNL A   1      35.753  29.952  27.874  1.00  0.00     0.001 A 
ATOM     81  C   UNL A   1      34.138  31.741  27.923  1.00  0.00     0.001 A 
ATOM     82  C   UNL A   1      35.393  31.242  28.261  1.00  0.00     0.000 A 
ENDBRANCH  74  77
BRANCH  75  83
ATOM     83  C   UNL A   1      29.895  29.426  23.770  1.00  0.00     0.021 A 
ATOM     84  C   UNL A   1      29.014  28.714  22.936  1.00  0.00     0.012 A 
ATOM     85  C   UNL A   1      29.791  30.827  23.807  1.00  0.00     0.032 A 
ATOM     86  C   UNL A   1      28.060  29.380  22.160  1.00  0.00     0.002 A 
ATOM     87  C   UNL A   1      28.854  31.488  23.014  1.00  0.00     0.041 A 
ATOM     88  C   UNL A   1      27.987  30.772  22.194  1.00  0.00     0.020 A 
ATOM     89  Cl  UNL A   1      28.779  33.208  23.039  1.00  0.00    -0.084 Cl
ENDBRANCH  75  83
ENDBRANCH  67  71
ENDBRANCH  62  65
ENDBRANCH  60  61
ENDBRANCH  59  60
ENDBRANCH  58  59
ENDBRANCH   1  58
TORSDOF 16
ENDMDL
MODEL 2
REMARK VINA RESULT:     -11.7      6.609     10.551
REMARK SMILES O=C(NCCCCCCNC(=O)[C@H]1CCCCN1c1cc(-c2ccccc2)nc(-c2cccc(Cl)c2)n1)c1ccc(-c2c3nc(c(-c4ccccc4)c4ccc([nH]4)c(-c4ccccc4)c4nc(c(-c5ccccc5)c5ccc2[nH]5)C=C4)C=C3)cc1
REMARK SMILES IDX 6 1 5 2 4 3 3 4 1 5 2 6 38 8 39 9 85 10 40 11 84 12 41 13
REMARK SMILES IDX 42 14 43 15 78 16 44 17 83 18 77 19 79 20 45 21 82 22 76 23
REMARK SMILES IDX 75 24 46 26 68 27 53 28 67 29 54 30 57 31 66 32 80 33 55 34
REMARK SMILES IDX 56 35 65 37 81 38 58 39 47 40 48 41 52 42 49 43 51 44 50 45
REMARK SMILES IDX 69 46 70 47 74 48 71 49 73 50 72 51 59 52 60 53 64 54 61 55
REMARK SMILES IDX 63 56 62 57 7 58 8 59 9 60 10 61 11 62 12 64 13 65 14 66
REMARK SMILES IDX 18 67 15 68 17 69 16 70 19 71 20 72 37 73 21 74 29 75 28 76
REMARK SMILES IDX 22 77 23 78 27 79 24 80 26 81 25 82 30 83 31 84 36 85 32 86
REMARK SMILES IDX 34 87 33 88 35 89
REMARK H PARENT 3 7 79 25 57 36 10 63
REMARK Flexibility Score: inf
ROOT
ATOM      1  C   UNL A   1      31.762  24.122  26.883  1.00  0.00     0.002 C 
ENDROOT
BRANCH   1   2
ATOM      2  C   UNL A   1      32.196  25.373  26.123  1.00  0.00     0.021 C 
BRANCH   2   3
ATOM      3  C   UNL A   1      31.515  26.652  26.585  1.00  0.00     0.116 C 
BRANCH   3   4
ATOM      4  N   UNL A   1      31.227  27.551  25.480  1.00  0.00    -0.352 N 
ATOM      5  O   UNL A   1      31.249  29.523  24.375  1.00  0.00    -0.269 OA
ATOM      6  C   UNL A   1      31.729  28.806  25.249  1.00  0.00     0.251 C 
ATOM      7  H   UNL A   1      30.589  27.215  24.811  1.00  0.00     0.163 HD
BRANCH   6   8
ATOM      8  C   UNL A   1      32.854  29.294  26.073  1.00  0.00     0.039 A 
ATOM      9  C   UNL A   1      32.780  30.544  26.694  1.00  0.00     0.014 A 
ATOM     10  C   UNL A   1      33.984  28.490  26.232  1.00  0.00     0.014 A 
ATOM     11  C   UNL A   1      33.876  31.037  27.387  1.00  0.00     0.010 A 
ATOM     12  C   UNL A   1      35.053  28.950  27.004  1.00  0.00     0.010 A 
ATOM     13  C   UNL A   1      35.007  30.229  27.583  1.00  0.00    -0.014 A 
BRANCH  13  14
ATOM     14  C   UNL A   1      36.069  30.683  28.512  1.00  0.00     0.031 A 
ATOM     15  C   UNL A   1      35.807  31.736  29.548  1.00  0.00     0.074 A 
ATOM     16  C   UNL A   1      37.295  30.138  28.382  1.00  0.00     0.049 A 
ATOM     17  N   UNL A   1      36.646  32.269  30.400  1.00  0.00    -0.248 NA
ATOM     18  C   UNL A   1      34.438  32.265  29.640  1.00  0.00     0.031 C 
ATOM     19  C   UNL A   1      37.662  29.112  27.399  1.00  0.00     0.029 A 
ATOM     20  N   UNL A   1      38.456  30.364  29.072  1.00  0.00    -0.354 N 
ATOM     21  C   UNL A   1      35.916  33.212  31.112  1.00  0.00     0.074 A 
ATOM     22  C   UNL A   1      34.568  33.187  30.586  1.00  0.00     0.031 C 
ATOM     23  C   UNL A   1      38.949  28.782  27.568  1.00  0.00     0.029 A 
ATOM     24  C   UNL A   1      39.518  29.622  28.612  1.00  0.00     0.049 A 
ATOM     25  H   UNL A   1      38.524  30.996  29.825  1.00  0.00     0.167 HD
ATOM     26  C   UNL A   1      36.341  34.024  32.109  1.00  0.00     0.031 A 
ATOM     27  C   UNL A   1      40.817  29.644  28.958  1.00  0.00     0.031 A 
ATOM     28  C   UNL A   1      37.687  34.036  32.625  1.00  0.00     0.049 A 
ATOM     29  C   UNL A   1      41.263  30.596  30.028  1.00  0.00     0.074 A 
ATOM     30  C   UNL A   1      38.197  34.777  33.677  1.00  0.00     0.029 A 
ATOM     31  N   UNL A   1      38.739  33.290  32.113  1.00  0.00    -0.354 N 
ATOM     32  N   UNL A   1      40.545  31.426  30.745  1.00  0.00    -0.248 NA
ATOM     33  C   UNL A   1      42.699  30.620  30.335  1.00  0.00     0.031 C 
ATOM     34  C   UNL A   1      39.572  34.536  33.756  1.00  0.00     0.029 A 
ATOM     35  C   UNL A   1      39.905  33.593  32.795  1.00  0.00     0.049 A 
ATOM     36  H   UNL A   1      38.666  32.641  31.377  1.00  0.00     0.167 HD
ATOM     37  C   UNL A   1      41.438  32.059  31.595  1.00  0.00     0.074 A 
ATOM     38  C   UNL A   1      42.745  31.498  31.328  1.00  0.00     0.031 C 
ATOM     39  C   UNL A   1      41.198  33.028  32.512  1.00  0.00     0.031 A 
BRANCH  26  40
ATOM     40  C   UNL A   1      35.363  35.003  32.696  1.00  0.00    -0.014 A 
ATOM     41  C   UNL A   1      34.970  34.935  34.041  1.00  0.00     0.009 A 
ATOM     42  C   UNL A   1      34.902  36.071  31.908  1.00  0.00     0.009 A 
ATOM     43  C   UNL A   1      34.121  35.906  34.579  1.00  0.00     0.001 A 
ATOM     44  C   UNL A   1      34.075  37.054  32.455  1.00  0.00     0.001 A 
ATOM     45  C   UNL A   1      33.681  36.969  33.788  1.00  0.00     0.000 A 
ENDBRANCH  26  40
BRANCH  27  46
ATOM     46  C   UNL A   1      41.794  28.784  28.241  1.00  0.00    -0.014 A 
ATOM     47  C   UNL A   1      42.415  29.227  27.063  1.00  0.00     0.009 A 
ATOM     48  C   UNL A   1      42.099  27.502  28.728  1.00  0.00     0.009 A 
ATOM     49  C   UNL A   1      43.293  28.389  26.371  1.00  0.00     0.001 A 
ATOM     50  C   UNL A   1      43.005  26.683  28.053  1.00  0.00     0.001 A 
ATOM     51  C   UNL A   1      43.590  27.122  26.868  1.00  0.00     0.000 A 
ENDBRANCH  27  46
BRANCH  39  52
ATOM     52  C   UNL A   1      42.373  33.528  33.303  1.00  0.00    -0.014 A 
ATOM     53  C   UNL A   1      42.832  32.835  34.434  1.00  0.00     0.009 A 
ATOM     54  C   UNL A   1      43.057  34.679  32.884  1.00  0.00     0.009 A 
ATOM     55  C   UNL A   1      43.940  33.301  35.144  1.00  0.00     0.001 A 
ATOM     56  C   UNL A   1      44.182  35.125  33.577  1.00  0.00     0.001 A 
ATOM     57  C   UNL A   1      44.618  34.439  34.711  1.00  0.00     0.000 A 
ENDBRANCH  39  52
ENDBRANCH  13  14
ENDBRANCH   6   8
ENDBRANCH   3   4
ENDBRANCH   2   3
ENDBRANCH   1   2
BRANCH   1  58
ATOM     58  C   UNL A   1      32.816  23.014  26.961  1.00  0.00     0.002 C 
BRANCH  58  59
ATOM     59  C   UNL A   1      32.281  21.582  26.833  1.00  0.00     0.021 C 
BRANCH  59  60
ATOM     60  C   UNL A   1      33.289  20.488  27.180  1.00  0.00     0.116 C 
BRANCH  60  61
ATOM     61  N   UNL A   1      32.766  19.173  26.877  1.00  0.00    -0.354 N 
ATOM     62  C   UNL A   1      32.981  18.380  25.787  1.00  0.00     0.242 C 
ATOM     63  H   UNL A   1      32.165  18.793  27.558  1.00  0.00     0.163 HD
ATOM     64  O   UNL A   1      32.381  17.303  25.754  1.00  0.00    -0.273 OA
BRANCH  62  65
ATOM     65  C   UNL A   1      33.916  18.869  24.651  1.00  0.00     0.173 C 
ATOM     66  C   UNL A   1      34.197  17.753  23.638  1.00  0.00     0.035 C 
ATOM     67  N   UNL A   1      33.311  20.038  23.987  1.00  0.00    -0.344 N 
ATOM     68  C   UNL A   1      33.027  17.470  22.697  1.00  0.00     0.004 C 
ATOM     69  C   UNL A   1      32.164  19.813  23.113  1.00  0.00     0.119 C 
ATOM     70  C   UNL A   1      32.506  18.756  22.062  1.00  0.00     0.022 C 
BRANCH  67  71
ATOM     71  C   UNL A   1      34.018  21.220  23.922  1.00  0.00     0.133 A 
ATOM     72  C   UNL A   1      33.472  22.320  23.287  1.00  0.00     0.076 A 
ATOM     73  N   UNL A   1      35.198  21.305  24.553  1.00  0.00    -0.211 NA
ATOM     74  C   UNL A   1      34.160  23.517  23.363  1.00  0.00     0.076 A 
ATOM     75  C   UNL A   1      35.830  22.493  24.530  1.00  0.00     0.162 A 
ATOM     76  N   UNL A   1      35.354  23.617  23.976  1.00  0.00    -0.228 NA
BRANCH  74  77
ATOM     77  C   UNL A   1      33.603  24.772  22.843  1.00  0.00     0.000 A 
ATOM     78  C   UNL A   1      34.140  26.013  23.217  1.00  0.00     0.010 A 
ATOM     79  C   UNL A   1      32.495  24.766  21.976  1.00  0.00     0.010 A 
ATOM     80  C   UNL A   1      33.600  27.207  22.730  1.00  0.00     0.001 A 
ATOM     81  C   UNL A   1      31.947  25.959  21.497  1.00  0.00     0.001 A 
ATOM     82  C   UNL A   1      32.503  27.179  21.872  1.00  0.00     0.000 A 
ENDBRANCH  74  77
BRANCH  75  83
ATOM     83  C   UNL A   1      37.123  22.574  25.209  1.00  0.00     0.021 A 
ATOM     84  C   UNL A   1      37.978  21.459  25.273  1.00  0.00     0.012 A 
ATOM     85  C   UNL A   1      37.539  23.767  25.824  1.00  0.00     0.032 A 
ATOM     86  C   UNL A   1      39.208  21.531  25.934  1.00  0.00     0.002 A 
ATOM     87  C   UNL A   1      38.756  23.827  26.501  1.00  0.00     0.041 A 
ATOM     88  C   UNL A   1      39.593  22.717  26.557  1.00  0.00     0.020 A 
ATOM     89  Cl  UNL A   1      39.221  25.286  27.290  1.00  0.00    -0.084 Cl
ENDBRANCH  75  83
ENDBRANCH  67  71
ENDBRANCH  62  65
ENDBRANCH  60  61
ENDBRANCH  59  60
ENDBRANCH  58  59
ENDBRANCH   1  58
TORSDOF 16
ENDMDL
MODEL 3
REMARK VINA RESULT:     -11.7      6.935     11.974
REMARK SMILES O=C(NCCCCCCNC(=O)[C@H]1CCCCN1c1cc(-c2ccccc2)nc(-c2cccc(Cl)c2)n1)c1ccc(-c2c3nc(c(-c4ccccc4)c4ccc([nH]4)c(-c4ccccc4)c4nc(c(-c5ccccc5)c5ccc2[nH]5)C=C4)C=C3)cc1
REMARK SMILES IDX 6 1 5 2 4 3 3 4 1 5 2 6 38 8 39 9 85 10 40 11 84 12 41 13
REMARK SMILES IDX 42 14 43 15 78 16 44 17 83 18 77 19 79 20 45 21 82 22 76 23
REMARK SMILES IDX 75 24 46 26 68 27 53 28 67 29 54 30 57 31 66 32 80 33 55 34
REMARK SMILES IDX 56 35 65 37 81 38 58 39 47 40 48 41 52 42 49 43 51 44 50 45
REMARK SMILES IDX 69 46 70 47 74 48 71 49 73 50 72 51 59 52 60 53 64 54 61 55
REMARK SMILES IDX 63 56 62 57 7 58 8 59 9 60 10 61 11 62 12 64 13 65 14 66
REMARK SMILES IDX 18 67 15 68 17 69 16 70 19 71 20 72 37 73 21 74 29 75 28 76
REMARK SMILES IDX 22 77 23 78 27 79 24 80 26 81 25 82 30 83 31 84 36 85 32 86
REMARK SMILES IDX 34 87 33 88 35 89
REMARK H PARENT 3 7 79 25 57 36 10 63
REMARK Flexibility Score: inf
ROOT
ATOM      1  C   UNL A   1      31.743  24.067  26.817  1.00  0.00     0.002 C 
ENDROOT
BRANCH   1   2
ATOM      2  C   UNL A   1      32.316  25.393  26.324  1.00  0.00     0.021 C 
BRANCH   2   3
ATOM      3  C   UNL A   1      31.548  26.619  26.796  1.00  0.00     0.116 C 
BRANCH   3   4
ATOM      4  N   UNL A   1      31.184  27.496  25.695  1.00  0.00    -0.352 N 
ATOM      5  O   UNL A   1      31.099  29.453  24.569  1.00  0.00    -0.269 OA
ATOM      6  C   UNL A   1      31.639  28.761  25.426  1.00  0.00     0.251 C 
ATOM      7  H   UNL A   1      30.525  27.134  25.060  1.00  0.00     0.163 HD
BRANCH   6   8
ATOM      8  C   UNL A   1      32.787  29.290  26.191  1.00  0.00     0.039 A 
ATOM      9  C   UNL A   1      32.675  30.501  26.880  1.00  0.00     0.014 A 
ATOM     10  C   UNL A   1      33.979  28.563  26.226  1.00  0.00     0.014 A 
ATOM     11  C   UNL A   1      33.784  31.039  27.517  1.00  0.00     0.010 A 
ATOM     12  C   UNL A   1      35.069  29.063  26.942  1.00  0.00     0.010 A 
ATOM     13  C   UNL A   1      34.980  30.306  27.589  1.00  0.00    -0.014 A 
BRANCH  13  14
ATOM     14  C   UNL A   1      36.075  30.792  28.461  1.00  0.00     0.031 A 
ATOM     15  C   UNL A   1      37.438  30.168  28.431  1.00  0.00     0.074 A 
ATOM     16  C   UNL A   1      35.802  31.803  29.309  1.00  0.00     0.049 A 
ATOM     17  N   UNL A   1      38.483  30.453  29.166  1.00  0.00    -0.248 NA
ATOM     18  C   UNL A   1      37.662  29.084  27.461  1.00  0.00     0.031 C 
ATOM     19  C   UNL A   1      34.503  32.477  29.429  1.00  0.00     0.029 A 
ATOM     20  N   UNL A   1      36.590  32.441  30.230  1.00  0.00    -0.354 N 
ATOM     21  C   UNL A   1      39.480  29.571  28.768  1.00  0.00     0.074 A 
ATOM     22  C   UNL A   1      38.913  28.733  27.734  1.00  0.00     0.031 C 
ATOM     23  C   UNL A   1      34.594  33.447  30.348  1.00  0.00     0.029 A 
ATOM     24  C   UNL A   1      35.926  33.415  30.937  1.00  0.00     0.049 A 
ATOM     25  H   UNL A   1      37.541  32.224  30.371  1.00  0.00     0.167 HD
ATOM     26  C   UNL A   1      40.748  29.473  29.233  1.00  0.00     0.031 A 
ATOM     27  C   UNL A   1      36.326  34.171  31.975  1.00  0.00     0.031 A 
ATOM     28  C   UNL A   1      41.300  30.316  30.263  1.00  0.00     0.049 A 
ATOM     29  C   UNL A   1      37.720  33.996  32.500  1.00  0.00     0.074 A 
ATOM     30  C   UNL A   1      42.594  30.336  30.754  1.00  0.00     0.029 A 
ATOM     31  N   UNL A   1      40.587  31.271  30.972  1.00  0.00    -0.354 N 
ATOM     32  N   UNL A   1      38.674  33.212  32.061  1.00  0.00    -0.248 NA
ATOM     33  C   UNL A   1      38.093  34.806  33.667  1.00  0.00     0.031 C 
ATOM     34  C   UNL A   1      42.645  31.250  31.811  1.00  0.00     0.029 A 
ATOM     35  C   UNL A   1      41.401  31.848  31.933  1.00  0.00     0.049 A 
ATOM     36  H   UNL A   1      39.644  31.505  30.815  1.00  0.00     0.167 HD
ATOM     37  C   UNL A   1      39.763  33.443  32.888  1.00  0.00     0.074 A 
ATOM     38  C   UNL A   1      39.362  34.463  33.835  1.00  0.00     0.031 C 
ATOM     39  C   UNL A   1      40.984  32.858  32.870  1.00  0.00     0.031 A 
BRANCH  26  40
ATOM     40  C   UNL A   1      41.631  28.395  28.669  1.00  0.00    -0.014 A 
ATOM     41  C   UNL A   1      41.683  27.113  29.238  1.00  0.00     0.009 A 
ATOM     42  C   UNL A   1      42.352  28.642  27.489  1.00  0.00     0.009 A 
ATOM     43  C   UNL A   1      42.453  26.108  28.646  1.00  0.00     0.001 A 
ATOM     44  C   UNL A   1      43.098  27.629  26.885  1.00  0.00     0.001 A 
ATOM     45  C   UNL A   1      43.153  26.364  27.466  1.00  0.00     0.000 A 
ENDBRANCH  26  40
BRANCH  27  46
ATOM     46  C   UNL A   1      35.374  35.110  32.623  1.00  0.00    -0.014 A 
ATOM     47  C   UNL A   1      34.886  36.230  31.935  1.00  0.00     0.009 A 
ATOM     48  C   UNL A   1      34.960  34.895  33.949  1.00  0.00     0.009 A 
ATOM     49  C   UNL A   1      34.032  37.133  32.572  1.00  0.00     0.001 A 
ATOM     50  C   UNL A   1      34.077  35.779  34.570  1.00  0.00     0.001 A 
ATOM     51  C   UNL A   1      33.625  36.905  33.886  1.00  0.00     0.000 A 
ENDBRANCH  27  46
BRANCH  39  52
ATOM     52  C   UNL A   1      41.979  33.319  33.896  1.00  0.00    -0.014 A 
ATOM     53  C   UNL A   1      42.110  32.656  35.127  1.00  0.00     0.009 A 
ATOM     54  C   UNL A   1      42.827  34.399  33.609  1.00  0.00     0.009 A 
ATOM     55  C   UNL A   1      43.056  33.084  36.060  1.00  0.00     0.001 A 
ATOM     56  C   UNL A   1      43.793  34.804  34.530  1.00  0.00     0.001 A 
ATOM     57  C   UNL A   1      43.901  34.151  35.758  1.00  0.00     0.000 A 
ENDBRANCH  39  52
ENDBRANCH  13  14
ENDBRANCH   6   8
ENDBRANCH   3   4
ENDBRANCH   2   3
ENDBRANCH   1   2
BRANCH   1  58
ATOM     58  C   UNL A   1      32.775  22.955  27.030  1.00  0.00     0.002 C 
BRANCH  58  59
ATOM     59  C   UNL A   1      32.242  21.524  26.892  1.00  0.00     0.021 C 
BRANCH  59  60
ATOM     60  C   UNL A   1      33.262  20.429  27.200  1.00  0.00     0.116 C 
BRANCH  60  61
ATOM     61  N   UNL A   1      32.743  19.117  26.876  1.00  0.00    -0.354 N 
ATOM     62  C   UNL A   1      32.960  18.342  25.773  1.00  0.00     0.242 C 
ATOM     63  H   UNL A   1      32.143  18.726  27.551  1.00  0.00     0.163 HD
ATOM     64  O   UNL A   1      32.363  17.264  25.724  1.00  0.00    -0.273 OA
BRANCH  62  65
ATOM     65  C   UNL A   1      33.895  18.850  24.646  1.00  0.00     0.173 C 
ATOM     66  C   UNL A   1      34.189  17.747  23.623  1.00  0.00     0.035 C 
ATOM     67  N   UNL A   1      33.282  20.021  23.992  1.00  0.00    -0.344 N 
ATOM     68  C   UNL A   1      33.025  17.464  22.675  1.00  0.00     0.004 C 
ATOM     69  C   UNL A   1      32.140  19.794  23.112  1.00  0.00     0.119 C 
ATOM     70  C   UNL A   1      32.495  18.751  22.051  1.00  0.00     0.022 C 
BRANCH  67  71
ATOM     71  C   UNL A   1      33.979  21.210  23.941  1.00  0.00     0.133 A 
ATOM     72  C   UNL A   1      33.415  22.318  23.336  1.00  0.00     0.076 A 
ATOM     73  N   UNL A   1      35.167  21.291  24.557  1.00  0.00    -0.211 NA
ATOM     74  C   UNL A   1      34.096  23.518  23.427  1.00  0.00     0.076 A 
ATOM     75  C   UNL A   1      35.790  22.484  24.550  1.00  0.00     0.162 A 
ATOM     76  N   UNL A   1      35.297  23.615  24.025  1.00  0.00    -0.228 NA
BRANCH  74  77
ATOM     77  C   UNL A   1      33.522  24.779  22.941  1.00  0.00     0.000 A 
ATOM     78  C   UNL A   1      32.421  24.785  22.069  1.00  0.00     0.010 A 
ATOM     79  C   UNL A   1      34.076  26.017  23.312  1.00  0.00     0.010 A 
ATOM     80  C   UNL A   1      31.883  25.986  21.597  1.00  0.00     0.001 A 
ATOM     81  C   UNL A   1      33.547  27.218  22.833  1.00  0.00     0.001 A 
ATOM     82  C   UNL A   1      32.448  27.202  21.979  1.00  0.00     0.000 A 
ENDBRANCH  74  77
BRANCH  75  83
ATOM     83  C   UNL A   1      37.091  22.562  25.212  1.00  0.00     0.021 A 
ATOM     84  C   UNL A   1      37.947  21.446  25.260  1.00  0.00     0.012 A 
ATOM     85  C   UNL A   1      37.516  23.751  25.828  1.00  0.00     0.032 A 
ATOM     86  C   UNL A   1      39.186  21.514  25.904  1.00  0.00     0.002 A 
ATOM     87  C   UNL A   1      38.742  23.808  26.489  1.00  0.00     0.041 A 
ATOM     88  C   UNL A   1      39.579  22.697  26.528  1.00  0.00     0.020 A 
ATOM     89  Cl  UNL A   1      39.217  25.263  27.279  1.00  0.00    -0.084 Cl
ENDBRANCH  75  83
ENDBRANCH  67  71
ENDBRANCH  62  65
ENDBRANCH  60  61
ENDBRANCH  59  60
ENDBRANCH  58  59
ENDBRANCH   1  58
TORSDOF 16
ENDMDL
