MODEL 1
REMARK VINA RESULT:     -11.3      0.000      0.000
REMARK SMILES O=C(CSc1ccc(NC(=O)c2cccc3ccccc23)cc1)NCCCCCCNC(=O)c1ccc(-c2c3nc(c(-c4ccccc4)c4ccc([nH]4)c(-c4ccccc4)c4nc(c(-c5ccccc5)c5ccc2[nH]5)C=C4)C=C3)cc1
REMARK SMILES IDX 26 1 25 2 24 3 1 4 2 5 3 7 4 8 5 9 6 10 23 11 7 12 22 13
REMARK SMILES IDX 8 14 9 15 10 16 11 18 12 19 13 20 21 21 14 22 16 23 20 24
REMARK SMILES IDX 15 25 17 26 19 27 18 28 27 29 28 30 29 31 30 32 31 33 32 34
REMARK SMILES IDX 33 36 34 37 35 38 81 39 36 40 80 41 37 42 38 43 39 44 74 45
REMARK SMILES IDX 40 46 79 47 73 48 75 49 41 50 78 51 72 52 71 53 42 55 64 56
REMARK SMILES IDX 49 57 63 58 50 59 53 60 62 61 76 62 51 63 52 64 61 66 77 67
REMARK SMILES IDX 54 68 43 69 44 70 48 71 45 72 47 73 46 74 65 75 66 76 70 77
REMARK SMILES IDX 67 78 69 79 68 80 55 81 56 82 60 83 57 84 59 85 58 86
REMARK H PARENT 24 6 9 17 31 35 75 54 53 65
REMARK Flexibility Score: inf
ROOT
ATOM      1  C   UNL A   1      35.450  31.687  27.948  1.00  0.00     0.021 C 
ENDROOT
BRANCH   1   2
ATOM      2  C   UNL A   1      35.168  30.202  27.725  1.00  0.00     0.116 C 
BRANCH   2   3
ATOM      3  N   UNL A   1      33.771  29.972  27.436  1.00  0.00    -0.355 N 
ATOM      4  O   UNL A   1      33.971  27.817  26.678  1.00  0.00    -0.274 OA
ATOM      5  C   UNL A   1      33.269  28.789  26.941  1.00  0.00     0.230 C 
ATOM      6  H   UNL A   1      33.138  30.707  27.604  1.00  0.00     0.163 HD
BRANCH   5   7
ATOM      7  C   UNL A   1      31.778  28.813  26.634  1.00  0.00     0.174 C 
BRANCH   7   8
ATOM      8  S   UNL A   1      31.411  29.422  24.943  1.00  0.00    -0.116 SA
BRANCH   8   9
ATOM      9  C   UNL A   1      31.315  27.857  24.101  1.00  0.00     0.008 A 
ATOM     10  C   UNL A   1      32.375  27.432  23.299  1.00  0.00     0.017 A 
ATOM     11  C   UNL A   1      30.203  27.032  24.259  1.00  0.00     0.017 A 
ATOM     12  C   UNL A   1      32.365  26.152  22.738  1.00  0.00     0.027 A 
ATOM     13  C   UNL A   1      30.206  25.745  23.717  1.00  0.00     0.027 A 
ATOM     14  C   UNL A   1      31.325  25.272  23.023  1.00  0.00     0.041 A 
BRANCH  14  15
ATOM     15  N   UNL A   1      31.339  23.902  22.733  1.00  0.00    -0.322 N 
ATOM     16  C   UNL A   1      31.986  22.826  23.290  1.00  0.00     0.256 C 
ATOM     17  H   UNL A   1      30.764  23.658  21.972  1.00  0.00     0.170 HD
ATOM     18  O   UNL A   1      31.835  21.723  22.755  1.00  0.00    -0.269 OA
BRANCH  16  19
ATOM     19  C   UNL A   1      32.852  22.886  24.492  1.00  0.00     0.048 A 
ATOM     20  C   UNL A   1      32.139  22.875  25.705  1.00  0.00     0.014 A 
ATOM     21  C   UNL A   1      34.271  23.034  24.482  1.00  0.00    -0.006 A 
ATOM     22  C   UNL A   1      32.803  23.013  26.917  1.00  0.00     0.001 A 
ATOM     23  C   UNL A   1      34.926  23.168  25.736  1.00  0.00    -0.018 A 
ATOM     24  C   UNL A   1      35.095  23.034  23.327  1.00  0.00     0.009 A 
ATOM     25  C   UNL A   1      34.184  23.175  26.927  1.00  0.00     0.009 A 
ATOM     26  C   UNL A   1      36.324  23.275  25.799  1.00  0.00     0.009 A 
ATOM     27  C   UNL A   1      36.490  23.048  23.414  1.00  0.00     0.001 A 
ATOM     28  C   UNL A   1      37.105  23.178  24.650  1.00  0.00     0.001 A 
ENDBRANCH  16  19
ENDBRANCH  14  15
ENDBRANCH   8   9
ENDBRANCH   7   8
ENDBRANCH   5   7
ENDBRANCH   2   3
ENDBRANCH   1   2
BRANCH   1  29
ATOM     29  C   UNL A   1      34.578  32.348  29.026  1.00  0.00     0.002 C 
BRANCH  29  30
ATOM     30  C   UNL A   1      34.681  33.874  29.109  1.00  0.00     0.002 C 
BRANCH  30  31
ATOM     31  C   UNL A   1      33.343  34.615  29.107  1.00  0.00     0.021 C 
BRANCH  31  32
ATOM     32  C   UNL A   1      33.399  36.038  29.653  1.00  0.00     0.116 C 
BRANCH  32  33
ATOM     33  N   UNL A   1      32.502  36.237  30.782  1.00  0.00    -0.352 N 
ATOM     34  C   UNL A   1      32.588  35.745  32.063  1.00  0.00     0.251 C 
ATOM     35  H   UNL A   1      31.719  36.805  30.601  1.00  0.00     0.163 HD
ATOM     36  O   UNL A   1      31.649  35.875  32.838  1.00  0.00    -0.269 OA
BRANCH  34  37
ATOM     37  C   UNL A   1      33.810  35.032  32.497  1.00  0.00     0.039 A 
ATOM     38  C   UNL A   1      33.702  33.706  32.924  1.00  0.00     0.014 A 
ATOM     39  C   UNL A   1      35.056  35.665  32.486  1.00  0.00     0.014 A 
ATOM     40  C   UNL A   1      34.850  32.996  33.277  1.00  0.00     0.010 A 
ATOM     41  C   UNL A   1      36.208  34.933  32.761  1.00  0.00     0.010 A 
ATOM     42  C   UNL A   1      36.118  33.591  33.162  1.00  0.00    -0.014 A 
BRANCH  42  43
ATOM     43  C   UNL A   1      37.358  32.826  33.450  1.00  0.00     0.031 A 
ATOM     44  C   UNL A   1      38.128  33.075  34.719  1.00  0.00     0.074 A 
ATOM     45  C   UNL A   1      37.824  31.944  32.543  1.00  0.00     0.049 A 
ATOM     46  N   UNL A   1      39.255  32.542  35.118  1.00  0.00    -0.248 NA
ATOM     47  C   UNL A   1      37.572  34.071  35.649  1.00  0.00     0.031 C 
ATOM     48  C   UNL A   1      37.192  31.633  31.259  1.00  0.00     0.029 A 
ATOM     49  N   UNL A   1      38.945  31.151  32.562  1.00  0.00    -0.354 N 
ATOM     50  C   UNL A   1      39.548  33.146  36.336  1.00  0.00     0.074 A 
ATOM     51  C   UNL A   1      38.510  34.124  36.582  1.00  0.00     0.031 C 
ATOM     52  C   UNL A   1      37.916  30.695  30.629  1.00  0.00     0.029 A 
ATOM     53  C   UNL A   1      39.087  30.372  31.438  1.00  0.00     0.049 A 
ATOM     54  H   UNL A   1      39.585  31.139  33.310  1.00  0.00     0.167 HD
ATOM     55  C   UNL A   1      40.576  32.897  37.182  1.00  0.00     0.031 A 
ATOM     56  C   UNL A   1      40.055  29.503  31.092  1.00  0.00     0.031 A 
ATOM     57  C   UNL A   1      41.608  31.925  36.937  1.00  0.00     0.049 A 
ATOM     58  C   UNL A   1      41.205  29.270  32.034  1.00  0.00     0.074 A 
ATOM     59  C   UNL A   1      42.663  31.565  37.756  1.00  0.00     0.029 A 
ATOM     60  N   UNL A   1      41.719  31.163  35.784  1.00  0.00    -0.354 N 
ATOM     61  N   UNL A   1      41.429  29.799  33.213  1.00  0.00    -0.248 NA
ATOM     62  C   UNL A   1      42.229  28.311  31.600  1.00  0.00     0.031 C 
ATOM     63  C   UNL A   1      43.449  30.631  37.073  1.00  0.00     0.029 A 
ATOM     64  C   UNL A   1      42.843  30.357  35.858  1.00  0.00     0.049 A 
ATOM     65  H   UNL A   1      41.092  31.191  35.026  1.00  0.00     0.167 HD
ATOM     66  C   UNL A   1      42.600  29.213  33.674  1.00  0.00     0.074 A 
ATOM     67  C   UNL A   1      43.031  28.277  32.656  1.00  0.00     0.031 C 
ATOM     68  C   UNL A   1      43.261  29.430  34.838  1.00  0.00     0.031 A 
BRANCH  55  69
ATOM     69  C   UNL A   1      40.641  33.704  38.451  1.00  0.00    -0.014 A 
ATOM     70  C   UNL A   1      40.026  33.258  39.631  1.00  0.00     0.009 A 
ATOM     71  C   UNL A   1      41.360  34.909  38.477  1.00  0.00     0.009 A 
ATOM     72  C   UNL A   1      40.098  34.020  40.800  1.00  0.00     0.001 A 
ATOM     73  C   UNL A   1      41.458  35.653  39.654  1.00  0.00     0.001 A 
ATOM     74  C   UNL A   1      40.818  35.213  40.811  1.00  0.00     0.000 A 
ENDBRANCH  55  69
BRANCH  56  75
ATOM     75  C   UNL A   1      39.981  28.779  29.795  1.00  0.00    -0.014 A 
ATOM     76  C   UNL A   1      39.416  27.496  29.725  1.00  0.00     0.009 A 
ATOM     77  C   UNL A   1      40.488  29.361  28.622  1.00  0.00     0.009 A 
ATOM     78  C   UNL A   1      39.391  26.799  28.515  1.00  0.00     0.001 A 
ATOM     79  C   UNL A   1      40.431  28.674  27.407  1.00  0.00     0.001 A 
ATOM     80  C   UNL A   1      39.894  27.389  27.356  1.00  0.00     0.000 A 
ENDBRANCH  56  75
BRANCH  68  81
ATOM     81  C   UNL A   1      44.496  28.612  35.093  1.00  0.00    -0.014 A 
ATOM     82  C   UNL A   1      45.771  29.070  34.724  1.00  0.00     0.009 A 
ATOM     83  C   UNL A   1      44.385  27.376  35.752  1.00  0.00     0.009 A 
ATOM     84  C   UNL A   1      46.902  28.291  34.976  1.00  0.00     0.001 A 
ATOM     85  C   UNL A   1      45.521  26.616  36.034  1.00  0.00     0.001 A 
ATOM     86  C   UNL A   1      46.776  27.069  35.636  1.00  0.00     0.000 A 
ENDBRANCH  68  81
ENDBRANCH  42  43
ENDBRANCH  34  37
ENDBRANCH  32  33
ENDBRANCH  31  32
ENDBRANCH  30  31
ENDBRANCH  29  30
ENDBRANCH   1  29
TORSDOF 17
ENDMDL
MODEL 2
REMARK VINA RESULT:     -11.1      6.318     11.718
REMARK SMILES O=C(CSc1ccc(NC(=O)c2cccc3ccccc23)cc1)NCCCCCCNC(=O)c1ccc(-c2c3nc(c(-c4ccccc4)c4ccc([nH]4)c(-c4ccccc4)c4nc(c(-c5ccccc5)c5ccc2[nH]5)C=C4)C=C3)cc1
REMARK SMILES IDX 26 1 25 2 24 3 1 4 2 5 3 7 4 8 5 9 6 10 23 11 7 12 22 13
REMARK SMILES IDX 8 14 9 15 10 16 11 18 12 19 13 20 21 21 14 22 16 23 20 24
REMARK SMILES IDX 15 25 17 26 19 27 18 28 27 29 28 30 29 31 30 32 31 33 32 34
REMARK SMILES IDX 33 36 34 37 35 38 81 39 36 40 80 41 37 42 38 43 39 44 74 45
REMARK SMILES IDX 40 46 79 47 73 48 75 49 41 50 78 51 72 52 71 53 42 55 64 56
REMARK SMILES IDX 49 57 63 58 50 59 53 60 62 61 76 62 51 63 52 64 61 66 77 67
REMARK SMILES IDX 54 68 43 69 44 70 48 71 45 72 47 73 46 74 65 75 66 76 70 77
REMARK SMILES IDX 67 78 69 79 68 80 55 81 56 82 60 83 57 84 59 85 58 86
REMARK H PARENT 24 6 9 17 31 35 75 54 53 65
REMARK Flexibility Score: inf
ROOT
ATOM      1  C   UNL A   1      40.244  22.301  26.462  1.00  0.00     0.021 C 
ENDROOT
BRANCH   1   2
ATOM      2  C   UNL A   1      39.090  21.498  25.864  1.00  0.00     0.116 C 
BRANCH   2   3
ATOM      3  N   UNL A   1      37.813  22.080  26.210  1.00  0.00    -0.355 N 
ATOM      4  O   UNL A   1      36.975  22.252  24.082  1.00  0.00    -0.274 OA
ATOM      5  C   UNL A   1      36.840  22.408  25.292  1.00  0.00     0.230 C 
ATOM      6  H   UNL A   1      37.627  22.254  27.160  1.00  0.00     0.163 HD
BRANCH   5   7
ATOM      7  C   UNL A   1      35.615  23.089  25.885  1.00  0.00     0.174 C 
BRANCH   7   8
ATOM      8  S   UNL A   1      34.381  21.895  26.529  1.00  0.00    -0.116 SA
BRANCH   8   9
ATOM      9  C   UNL A   1      32.898  22.691  25.951  1.00  0.00     0.008 A 
ATOM     10  C   UNL A   1      32.033  23.298  26.862  1.00  0.00     0.017 A 
ATOM     11  C   UNL A   1      32.604  22.743  24.589  1.00  0.00     0.017 A 
ATOM     12  C   UNL A   1      30.936  24.035  26.410  1.00  0.00     0.027 A 
ATOM     13  C   UNL A   1      31.520  23.499  24.139  1.00  0.00     0.027 A 
ATOM     14  C   UNL A   1      30.730  24.216  25.044  1.00  0.00     0.041 A 
BRANCH  14  15
ATOM     15  N   UNL A   1      29.831  25.134  24.489  1.00  0.00    -0.322 N 
ATOM     16  C   UNL A   1      29.953  26.431  24.053  1.00  0.00     0.256 C 
ATOM     17  H   UNL A   1      28.919  24.775  24.388  1.00  0.00     0.170 HD
ATOM     18  O   UNL A   1      28.934  27.005  23.660  1.00  0.00    -0.269 OA
BRANCH  16  19
ATOM     19  C   UNL A   1      31.223  27.195  24.014  1.00  0.00     0.048 A 
ATOM     20  C   UNL A   1      31.768  27.323  22.723  1.00  0.00     0.014 A 
ATOM     21  C   UNL A   1      31.920  27.699  25.152  1.00  0.00    -0.006 A 
ATOM     22  C   UNL A   1      32.999  27.937  22.532  1.00  0.00     0.001 A 
ATOM     23  C   UNL A   1      33.174  28.329  24.928  1.00  0.00    -0.018 A 
ATOM     24  C   UNL A   1      31.458  27.652  26.493  1.00  0.00     0.009 A 
ATOM     25  C   UNL A   1      33.701  28.420  23.631  1.00  0.00     0.009 A 
ATOM     26  C   UNL A   1      33.892  28.884  26.000  1.00  0.00     0.009 A 
ATOM     27  C   UNL A   1      32.140  28.290  27.533  1.00  0.00     0.001 A 
ATOM     28  C   UNL A   1      33.363  28.898  27.289  1.00  0.00     0.001 A 
ENDBRANCH  16  19
ENDBRANCH  14  15
ENDBRANCH   8   9
ENDBRANCH   7   8
ENDBRANCH   5   7
ENDBRANCH   2   3
ENDBRANCH   1   2
BRANCH   1  29
ATOM     29  C   UNL A   1      41.622  21.633  26.333  1.00  0.00     0.002 C 
BRANCH  29  30
ATOM     30  C   UNL A   1      41.699  20.186  26.828  1.00  0.00     0.002 C 
BRANCH  30  31
ATOM     31  C   UNL A   1      42.182  19.170  25.792  1.00  0.00     0.021 C 
BRANCH  31  32
ATOM     32  C   UNL A   1      43.604  18.663  26.007  1.00  0.00     0.116 C 
BRANCH  32  33
ATOM     33  N   UNL A   1      44.366  18.601  24.768  1.00  0.00    -0.352 N 
ATOM     34  C   UNL A   1      44.913  19.623  24.028  1.00  0.00     0.251 C 
ATOM     35  H   UNL A   1      44.510  17.697  24.408  1.00  0.00     0.163 HD
ATOM     36  O   UNL A   1      45.377  19.399  22.917  1.00  0.00    -0.269 OA
BRANCH  34  37
ATOM     37  C   UNL A   1      44.916  21.001  24.566  1.00  0.00     0.039 A 
ATOM     38  C   UNL A   1      45.499  21.236  25.815  1.00  0.00     0.014 A 
ATOM     39  C   UNL A   1      44.349  22.057  23.848  1.00  0.00     0.014 A 
ATOM     40  C   UNL A   1      45.570  22.539  26.311  1.00  0.00     0.010 A 
ATOM     41  C   UNL A   1      44.493  23.364  24.307  1.00  0.00     0.010 A 
ATOM     42  C   UNL A   1      45.101  23.619  25.545  1.00  0.00    -0.014 A 
BRANCH  42  43
ATOM     43  C   UNL A   1      45.246  25.020  26.018  1.00  0.00     0.031 A 
ATOM     44  C   UNL A   1      46.587  25.701  25.979  1.00  0.00     0.074 A 
ATOM     45  C   UNL A   1      44.181  25.662  26.537  1.00  0.00     0.049 A 
ATOM     46  N   UNL A   1      46.917  26.897  26.394  1.00  0.00    -0.248 NA
ATOM     47  C   UNL A   1      47.709  24.928  25.423  1.00  0.00     0.031 C 
ATOM     48  C   UNL A   1      42.832  25.105  26.664  1.00  0.00     0.029 A 
ATOM     49  N   UNL A   1      44.067  26.927  27.060  1.00  0.00    -0.354 N 
ATOM     50  C   UNL A   1      48.282  27.015  26.162  1.00  0.00     0.074 A 
ATOM     51  C   UNL A   1      48.729  25.749  25.621  1.00  0.00     0.031 C 
ATOM     52  C   UNL A   1      42.022  26.032  27.200  1.00  0.00     0.029 A 
ATOM     53  C   UNL A   1      42.799  27.230  27.498  1.00  0.00     0.049 A 
ATOM     54  H   UNL A   1      44.821  27.557  27.116  1.00  0.00     0.167 HD
ATOM     55  C   UNL A   1      49.089  28.084  26.362  1.00  0.00     0.031 A 
ATOM     56  C   UNL A   1      42.318  28.343  28.083  1.00  0.00     0.031 A 
ATOM     57  C   UNL A   1      48.646  29.343  26.900  1.00  0.00     0.049 A 
ATOM     58  C   UNL A   1      43.243  29.504  28.326  1.00  0.00     0.074 A 
ATOM     59  C   UNL A   1      49.377  30.502  27.092  1.00  0.00     0.029 A 
ATOM     60  N   UNL A   1      47.357  29.606  27.336  1.00  0.00    -0.354 N 
ATOM     61  N   UNL A   1      44.517  29.622  28.036  1.00  0.00    -0.248 NA
ATOM     62  C   UNL A   1      42.659  30.690  28.967  1.00  0.00     0.031 C 
ATOM     63  C   UNL A   1      48.546  31.446  27.705  1.00  0.00     0.029 A 
ATOM     64  C   UNL A   1      47.280  30.899  27.826  1.00  0.00     0.049 A 
ATOM     65  H   UNL A   1      46.607  28.968  27.302  1.00  0.00     0.167 HD
ATOM     66  C   UNL A   1      44.877  30.905  28.430  1.00  0.00     0.074 A 
ATOM     67  C   UNL A   1      43.685  31.531  28.963  1.00  0.00     0.031 C 
ATOM     68  C   UNL A   1      46.088  31.510  28.356  1.00  0.00     0.031 A 
BRANCH  55  69
ATOM     69  C   UNL A   1      50.544  27.931  26.008  1.00  0.00    -0.014 A 
ATOM     70  C   UNL A   1      51.028  28.287  24.739  1.00  0.00     0.009 A 
ATOM     71  C   UNL A   1      51.451  27.462  26.971  1.00  0.00     0.009 A 
ATOM     72  C   UNL A   1      52.383  28.138  24.430  1.00  0.00     0.001 A 
ATOM     73  C   UNL A   1      52.809  27.345  26.670  1.00  0.00     0.001 A 
ATOM     74  C   UNL A   1      53.272  27.673  25.397  1.00  0.00     0.000 A 
ENDBRANCH  55  69
BRANCH  56  75
ATOM     75  C   UNL A   1      40.886  28.421  28.476  1.00  0.00    -0.014 A 
ATOM     76  C   UNL A   1      40.449  27.872  29.691  1.00  0.00     0.009 A 
ATOM     77  C   UNL A   1      39.945  29.030  27.631  1.00  0.00     0.009 A 
ATOM     78  C   UNL A   1      39.096  27.904  30.037  1.00  0.00     0.001 A 
ATOM     79  C   UNL A   1      38.598  29.090  27.995  1.00  0.00     0.001 A 
ATOM     80  C   UNL A   1      38.172  28.516  29.191  1.00  0.00     0.000 A 
ENDBRANCH  56  75
BRANCH  68  81
ATOM     81  C   UNL A   1      46.176  32.937  28.824  1.00  0.00    -0.014 A 
ATOM     82  C   UNL A   1      46.548  33.257  30.138  1.00  0.00     0.009 A 
ATOM     83  C   UNL A   1      45.918  33.980  27.919  1.00  0.00     0.009 A 
ATOM     84  C   UNL A   1      46.625  34.590  30.546  1.00  0.00     0.001 A 
ATOM     85  C   UNL A   1      46.030  35.312  28.320  1.00  0.00     0.001 A 
ATOM     86  C   UNL A   1      46.373  35.616  29.635  1.00  0.00     0.000 A 
ENDBRANCH  68  81
ENDBRANCH  42  43
ENDBRANCH  34  37
ENDBRANCH  32  33
ENDBRANCH  31  32
ENDBRANCH  30  31
ENDBRANCH  29  30
ENDBRANCH   1  29
TORSDOF 17
ENDMDL
MODEL 3
REMARK VINA RESULT:     -10.9      5.370     10.291
REMARK SMILES O=C(CSc1ccc(NC(=O)c2cccc3ccccc23)cc1)NCCCCCCNC(=O)c1ccc(-c2c3nc(c(-c4ccccc4)c4ccc([nH]4)c(-c4ccccc4)c4nc(c(-c5ccccc5)c5ccc2[nH]5)C=C4)C=C3)cc1
REMARK SMILES IDX 26 1 25 2 24 3 1 4 2 5 3 7 4 8 5 9 6 10 23 11 7 12 22 13
REMARK SMILES IDX 8 14 9 15 10 16 11 18 12 19 13 20 21 21 14 22 16 23 20 24
REMARK SMILES IDX 15 25 17 26 19 27 18 28 27 29 28 30 29 31 30 32 31 33 32 34
REMARK SMILES IDX 33 36 34 37 35 38 81 39 36 40 80 41 37 42 38 43 39 44 74 45
REMARK SMILES IDX 40 46 79 47 73 48 75 49 41 50 78 51 72 52 71 53 42 55 64 56
REMARK SMILES IDX 49 57 63 58 50 59 53 60 62 61 76 62 51 63 52 64 61 66 77 67
REMARK SMILES IDX 54 68 43 69 44 70 48 71 45 72 47 73 46 74 65 75 66 76 70 77
REMARK SMILES IDX 67 78 69 79 68 80 55 81 56 82 60 83 57 84 59 85 58 86
REMARK H PARENT 24 6 9 17 31 35 75 54 53 65
REMARK Flexibility Score: inf
ROOT
ATOM      1  C   UNL A   1      39.731  23.672  27.060  1.00  0.00     0.021 C 
ENDROOT
BRANCH   1   2
ATOM      2  C   UNL A   1      38.348  24.174  26.648  1.00  0.00     0.116 C 
BRANCH   2   3
ATOM      3  N   UNL A   1      37.471  23.074  26.313  1.00  0.00    -0.355 N 
ATOM      4  O   UNL A   1      35.684  24.323  25.599  1.00  0.00    -0.274 OA
ATOM      5  C   UNL A   1      36.202  23.228  25.802  1.00  0.00     0.230 C 
ATOM      6  H   UNL A   1      37.801  22.159  26.459  1.00  0.00     0.163 HD
BRANCH   5   7
ATOM      7  C   UNL A   1      35.435  21.927  25.609  1.00  0.00     0.174 C 
BRANCH   7   8
ATOM      8  S   UNL A   1      34.268  21.580  26.981  1.00  0.00    -0.116 SA
BRANCH   8   9
ATOM      9  C   UNL A   1      32.833  22.413  26.339  1.00  0.00     0.008 A 
ATOM     10  C   UNL A   1      32.060  23.216  27.178  1.00  0.00     0.017 A 
ATOM     11  C   UNL A   1      32.486  22.297  24.993  1.00  0.00     0.017 A 
ATOM     12  C   UNL A   1      31.008  23.974  26.657  1.00  0.00     0.027 A 
ATOM     13  C   UNL A   1      31.451  23.074  24.471  1.00  0.00     0.027 A 
ATOM     14  C   UNL A   1      30.761  23.977  25.286  1.00  0.00     0.041 A 
BRANCH  14  15
ATOM     15  N   UNL A   1      29.917  24.882  24.631  1.00  0.00    -0.322 N 
ATOM     16  C   UNL A   1      30.100  26.145  24.122  1.00  0.00     0.256 C 
ATOM     17  H   UNL A   1      29.000  24.543  24.509  1.00  0.00     0.170 HD
ATOM     18  O   UNL A   1      29.117  26.720  23.644  1.00  0.00    -0.269 OA
BRANCH  16  19
ATOM     19  C   UNL A   1      31.393  26.870  24.097  1.00  0.00     0.048 A 
ATOM     20  C   UNL A   1      32.038  26.834  22.848  1.00  0.00     0.014 A 
ATOM     21  C   UNL A   1      32.017  27.487  25.223  1.00  0.00    -0.006 A 
ATOM     22  C   UNL A   1      33.299  27.394  22.687  1.00  0.00     0.001 A 
ATOM     23  C   UNL A   1      33.303  28.057  25.029  1.00  0.00    -0.018 A 
ATOM     24  C   UNL A   1      31.452  27.606  26.519  1.00  0.00     0.009 A 
ATOM     25  C   UNL A   1      33.930  27.985  23.775  1.00  0.00     0.009 A 
ATOM     26  C   UNL A   1      33.954  28.715  26.084  1.00  0.00     0.009 A 
ATOM     27  C   UNL A   1      32.073  28.344  27.531  1.00  0.00     0.001 A 
ATOM     28  C   UNL A   1      33.329  28.891  27.316  1.00  0.00     0.001 A 
ENDBRANCH  16  19
ENDBRANCH  14  15
ENDBRANCH   8   9
ENDBRANCH   7   8
ENDBRANCH   5   7
ENDBRANCH   2   3
ENDBRANCH   1   2
BRANCH   1  29
ATOM     29  C   UNL A   1      39.918  22.151  26.951  1.00  0.00     0.002 C 
BRANCH  29  30
ATOM     30  C   UNL A   1      40.930  21.542  27.927  1.00  0.00     0.002 C 
BRANCH  30  31
ATOM     31  C   UNL A   1      41.741  20.371  27.373  1.00  0.00     0.021 C 
BRANCH  31  32
ATOM     32  C   UNL A   1      41.837  20.321  25.852  1.00  0.00     0.116 C 
BRANCH  32  33
ATOM     33  N   UNL A   1      43.198  20.099  25.386  1.00  0.00    -0.352 N 
ATOM     34  C   UNL A   1      44.237  20.991  25.270  1.00  0.00     0.251 C 
ATOM     35  H   UNL A   1      43.403  19.176  25.113  1.00  0.00     0.163 HD
ATOM     36  O   UNL A   1      45.268  20.665  24.695  1.00  0.00    -0.269 OA
BRANCH  34  37
ATOM     37  C   UNL A   1      44.098  22.358  25.819  1.00  0.00     0.039 A 
ATOM     38  C   UNL A   1      44.409  22.579  27.164  1.00  0.00     0.014 A 
ATOM     39  C   UNL A   1      43.664  23.416  25.017  1.00  0.00     0.014 A 
ATOM     40  C   UNL A   1      44.346  23.873  27.685  1.00  0.00     0.010 A 
ATOM     41  C   UNL A   1      43.680  24.716  25.516  1.00  0.00     0.010 A 
ATOM     42  C   UNL A   1      44.018  24.958  26.856  1.00  0.00    -0.014 A 
BRANCH  42  43
ATOM     43  C   UNL A   1      44.030  26.352  27.371  1.00  0.00     0.031 A 
ATOM     44  C   UNL A   1      45.330  27.093  27.527  1.00  0.00     0.074 A 
ATOM     45  C   UNL A   1      42.874  26.933  27.752  1.00  0.00     0.049 A 
ATOM     46  N   UNL A   1      45.542  28.293  28.006  1.00  0.00    -0.248 NA
ATOM     47  C   UNL A   1      46.552  26.386  27.116  1.00  0.00     0.031 C 
ATOM     48  C   UNL A   1      41.549  26.312  27.684  1.00  0.00     0.029 A 
ATOM     49  N   UNL A   1      42.631  28.177  28.279  1.00  0.00    -0.354 N 
ATOM     50  C   UNL A   1      46.920  28.477  27.965  1.00  0.00     0.074 A 
ATOM     51  C   UNL A   1      47.495  27.247  27.466  1.00  0.00     0.031 C 
ATOM     52  C   UNL A   1      40.631  27.187  28.122  1.00  0.00     0.029 A 
ATOM     53  C   UNL A   1      41.302  28.412  28.545  1.00  0.00     0.049 A 
ATOM     54  H   UNL A   1      43.339  28.839  28.449  1.00  0.00     0.167 HD
ATOM     55  C   UNL A   1      47.640  29.576  28.293  1.00  0.00     0.031 A 
ATOM     56  C   UNL A   1      40.694  29.487  29.080  1.00  0.00     0.031 A 
ATOM     57  C   UNL A   1      47.068  30.800  28.789  1.00  0.00     0.049 A 
ATOM     58  C   UNL A   1      41.521  30.682  29.469  1.00  0.00     0.074 A 
ATOM     59  C   UNL A   1      47.710  31.986  29.101  1.00  0.00     0.029 A 
ATOM     60  N   UNL A   1      45.721  30.994  29.050  1.00  0.00    -0.354 N 
ATOM     61  N   UNL A   1      42.815  30.865  29.357  1.00  0.00    -0.248 NA
ATOM     62  C   UNL A   1      40.799  31.824  30.047  1.00  0.00     0.031 C 
ATOM     63  C   UNL A   1      46.760  32.876  29.612  1.00  0.00     0.029 A 
ATOM     64  C   UNL A   1      45.516  32.269  29.550  1.00  0.00     0.049 A 
ATOM     65  H   UNL A   1      45.014  30.324  28.903  1.00  0.00     0.167 HD
ATOM     66  C   UNL A   1      43.056  32.152  29.820  1.00  0.00     0.074 A 
ATOM     67  C   UNL A   1      41.774  32.710  30.198  1.00  0.00     0.031 C 
ATOM     68  C   UNL A   1      44.236  32.813  29.924  1.00  0.00     0.031 A 
BRANCH  55  69
ATOM     69  C   UNL A   1      49.135  29.498  28.138  1.00  0.00    -0.014 A 
ATOM     70  C   UNL A   1      49.762  29.841  26.929  1.00  0.00     0.009 A 
ATOM     71  C   UNL A   1      49.931  29.114  29.228  1.00  0.00     0.009 A 
ATOM     72  C   UNL A   1      51.152  29.762  26.805  1.00  0.00     0.001 A 
ATOM     73  C   UNL A   1      51.321  29.068  29.111  1.00  0.00     0.001 A 
ATOM     74  C   UNL A   1      51.930  29.381  27.897  1.00  0.00     0.000 A 
ENDBRANCH  55  69
BRANCH  56  75
ATOM     75  C   UNL A   1      39.220  29.490  29.276  1.00  0.00    -0.014 A 
ATOM     76  C   UNL A   1      38.663  29.124  30.511  1.00  0.00     0.009 A 
ATOM     77  C   UNL A   1      38.359  29.845  28.224  1.00  0.00     0.009 A 
ATOM     78  C   UNL A   1      37.277  29.081  30.679  1.00  0.00     0.001 A 
ATOM     79  C   UNL A   1      36.975  29.834  28.405  1.00  0.00     0.001 A 
ATOM     80  C   UNL A   1      36.434  29.440  29.628  1.00  0.00     0.000 A 
ENDBRANCH  56  75
BRANCH  68  81
ATOM     81  C   UNL A   1      44.191  34.229  30.426  1.00  0.00    -0.014 A 
ATOM     82  C   UNL A   1      43.989  35.312  29.556  1.00  0.00     0.009 A 
ATOM     83  C   UNL A   1      44.315  34.480  31.803  1.00  0.00     0.009 A 
ATOM     84  C   UNL A   1      43.948  36.617  30.050  1.00  0.00     0.001 A 
ATOM     85  C   UNL A   1      44.239  35.783  32.297  1.00  0.00     0.001 A 
ATOM     86  C   UNL A   1      44.067  36.851  31.420  1.00  0.00     0.000 A 
ENDBRANCH  68  81
ENDBRANCH  42  43
ENDBRANCH  34  37
ENDBRANCH  32  33
ENDBRANCH  31  32
ENDBRANCH  30  31
ENDBRANCH  29  30
ENDBRANCH   1  29
TORSDOF 17
ENDMDL
