MODEL 1
REMARK VINA RESULT:      -9.9      0.000      0.000
REMARK SMILES Cc1cc(N(C)[C@H](C)C(=O)NCCCCCCNC(=O)c2ccc(-c3c4nc(c(-c5ccccc5)c5ccc([nH]5)c(-c5ccccc5)c5nc(c(-c6ccccc6)c6ccc3[nH]6)C=C5)C=C4)cc2)ncc1[N+](=O)[O-]
REMARK SMILES IDX 14 1 13 2 12 3 11 4 9 5 10 6 7 8 8 9 5 10 6 11 4 12 1 13
REMARK SMILES IDX 2 14 3 15 71 16 70 17 69 18 72 19 73 20 74 21 15 22 16 23
REMARK SMILES IDX 17 24 18 25 19 26 20 28 21 29 22 30 68 31 23 32 67 33 24 34
REMARK SMILES IDX 25 35 26 36 61 37 27 38 66 39 60 40 62 41 28 42 65 43 59 44
REMARK SMILES IDX 58 45 29 47 51 48 36 49 50 50 37 51 40 52 49 53 63 54 38 55
REMARK SMILES IDX 39 56 48 58 64 59 41 60 30 61 31 62 35 63 32 64 34 65 33 66
REMARK SMILES IDX 52 67 53 68 57 69 54 70 56 71 55 72 42 73 43 74 47 75 44 76
REMARK SMILES IDX 46 77 45 78
REMARK H PARENT 11 7 18 27 62 46 40 57
REMARK Flexibility Score: inf
ROOT
ATOM      1  C   UNL A   1      38.406  22.431  25.784  1.00  0.00     0.002 C 
ENDROOT
BRANCH   1   2
ATOM      2  C   UNL A   1      37.585  23.705  26.030  1.00  0.00     0.021 C 
BRANCH   2   3
ATOM      3  C   UNL A   1      36.101  23.571  25.712  1.00  0.00     0.116 C 
BRANCH   3   4
ATOM      4  N   UNL A   1      35.362  22.925  26.775  1.00  0.00    -0.354 N 
ATOM      5  C   UNL A   1      34.162  22.276  26.773  1.00  0.00     0.242 C 
ATOM      6  O   UNL A   1      33.904  21.636  27.800  1.00  0.00    -0.273 OA
ATOM      7  H   UNL A   1      35.803  22.960  27.654  1.00  0.00     0.163 HD
BRANCH   5   8
ATOM      8  C   UNL A   1      33.155  22.310  25.595  1.00  0.00     0.169 C 
ATOM      9  C   UNL A   1      32.719  20.919  25.133  1.00  0.00     0.042 C 
BRANCH   8  10
ATOM     10  N   UNL A   1      32.002  23.245  25.759  1.00  0.00    -0.348 N 
ATOM     11  C   UNL A   1      30.725  22.797  26.282  1.00  0.00     0.146 C 
BRANCH  10  12
ATOM     12  C   UNL A   1      32.243  24.603  25.575  1.00  0.00     0.129 A 
ATOM     13  C   UNL A   1      31.508  27.840  27.401  1.00  0.00     0.052 C 
ATOM     14  C   UNL A   1      32.080  26.939  26.344  1.00  0.00     0.032 A 
ATOM     15  C   UNL A   1      31.709  25.579  26.425  1.00  0.00     0.057 A 
ATOM     16  C   UNL A   1      32.946  27.297  25.310  1.00  0.00     0.290 A 
ATOM     17  C   UNL A   1      33.393  26.299  24.455  1.00  0.00     0.199 A 
ATOM     18  N   UNL A   1      33.053  24.990  24.571  1.00  0.00    -0.232 NA
BRANCH  16  19
ATOM     19  N   UNL A   1      33.415  28.654  25.051  1.00  0.00     0.064 N 
ATOM     20  O   UNL A   1      32.824  29.305  24.177  1.00  0.00    -0.258 OA
ATOM     21  O   UNL A   1      34.349  29.095  25.731  1.00  0.00    -0.258 OA
ENDBRANCH  16  19
ENDBRANCH  10  12
ENDBRANCH   8  10
ENDBRANCH   5   8
ENDBRANCH   3   4
ENDBRANCH   2   3
ENDBRANCH   1   2
BRANCH   1  22
ATOM     22  C   UNL A   1      37.735  21.350  24.928  1.00  0.00     0.002 C 
BRANCH  22  23
ATOM     23  C   UNL A   1      38.408  19.975  24.938  1.00  0.00     0.021 C 
BRANCH  23  24
ATOM     24  C   UNL A   1      39.240  19.665  26.175  1.00  0.00     0.116 C 
BRANCH  24  25
ATOM     25  N   UNL A   1      40.506  19.034  25.853  1.00  0.00    -0.352 N 
ATOM     26  C   UNL A   1      41.773  19.561  25.873  1.00  0.00     0.251 C 
ATOM     27  H   UNL A   1      40.448  18.091  25.579  1.00  0.00     0.163 HD
ATOM     28  O   UNL A   1      42.713  18.914  25.425  1.00  0.00    -0.269 OA
BRANCH  26  29
ATOM     29  C   UNL A   1      42.006  20.919  26.413  1.00  0.00     0.039 A 
ATOM     30  C   UNL A   1      41.898  21.116  27.792  1.00  0.00     0.014 A 
ATOM     31  C   UNL A   1      42.301  21.997  25.572  1.00  0.00     0.014 A 
ATOM     32  C   UNL A   1      42.126  22.383  28.332  1.00  0.00     0.010 A 
ATOM     33  C   UNL A   1      42.602  23.242  26.120  1.00  0.00     0.010 A 
ATOM     34  C   UNL A   1      42.503  23.451  27.502  1.00  0.00    -0.014 A 
BRANCH  34  35
ATOM     35  C   UNL A   1      42.771  24.798  28.067  1.00  0.00     0.031 A 
ATOM     36  C   UNL A   1      44.165  25.178  28.487  1.00  0.00     0.074 A 
ATOM     37  C   UNL A   1      41.754  25.665  28.240  1.00  0.00     0.049 A 
ATOM     38  N   UNL A   1      44.590  26.294  29.022  1.00  0.00    -0.248 NA
ATOM     39  C   UNL A   1      45.215  24.164  28.302  1.00  0.00     0.031 C 
ATOM     40  C   UNL A   1      40.351  25.404  27.907  1.00  0.00     0.029 A 
ATOM     41  N   UNL A   1      41.746  26.943  28.739  1.00  0.00    -0.354 N 
ATOM     42  C   UNL A   1      45.948  26.110  29.252  1.00  0.00     0.074 A 
ATOM     43  C   UNL A   1      46.265  24.758  28.847  1.00  0.00     0.031 C 
ATOM     44  C   UNL A   1      39.626  26.500  28.182  1.00  0.00     0.029 A 
ATOM     45  C   UNL A   1      40.501  27.524  28.744  1.00  0.00     0.049 A 
ATOM     46  H   UNL A   1      42.556  27.399  29.064  1.00  0.00     0.167 HD
ATOM     47  C   UNL A   1      46.855  26.992  29.735  1.00  0.00     0.031 A 
ATOM     48  C   UNL A   1      40.109  28.745  29.153  1.00  0.00     0.031 A 
ATOM     49  C   UNL A   1      46.544  28.340  30.126  1.00  0.00     0.049 A 
ATOM     50  C   UNL A   1      41.135  29.703  29.692  1.00  0.00     0.074 A 
ATOM     51  C   UNL A   1      47.402  29.326  30.583  1.00  0.00     0.029 A 
ATOM     52  N   UNL A   1      45.272  28.891  30.108  1.00  0.00    -0.354 N 
ATOM     53  N   UNL A   1      42.426  29.533  29.843  1.00  0.00    -0.248 NA
ATOM     54  C   UNL A   1      40.650  31.028  30.102  1.00  0.00     0.031 C 
ATOM     55  C   UNL A   1      46.641  30.459  30.887  1.00  0.00     0.029 A 
ATOM     56  C   UNL A   1      45.319  30.199  30.564  1.00  0.00     0.049 A 
ATOM     57  H   UNL A   1      44.457  28.423  29.816  1.00  0.00     0.167 HD
ATOM     58  C   UNL A   1      42.912  30.740  30.332  1.00  0.00     0.074 A 
ATOM     59  C   UNL A   1      41.779  31.635  30.438  1.00  0.00     0.031 C 
ATOM     60  C   UNL A   1      44.183  31.077  30.661  1.00  0.00     0.031 A 
BRANCH  47  61
ATOM     61  C   UNL A   1      48.277  26.517  29.870  1.00  0.00    -0.014 A 
ATOM     62  C   UNL A   1      48.721  25.870  31.034  1.00  0.00     0.009 A 
ATOM     63  C   UNL A   1      49.176  26.693  28.807  1.00  0.00     0.009 A 
ATOM     64  C   UNL A   1      50.047  25.443  31.145  1.00  0.00     0.001 A 
ATOM     65  C   UNL A   1      50.492  26.237  28.908  1.00  0.00     0.001 A 
ATOM     66  C   UNL A   1      50.929  25.622  30.080  1.00  0.00     0.000 A 
ENDBRANCH  47  61
BRANCH  48  67
ATOM     67  C   UNL A   1      38.681  29.145  29.048  1.00  0.00    -0.014 A 
ATOM     68  C   UNL A   1      38.186  29.712  27.863  1.00  0.00     0.009 A 
ATOM     69  C   UNL A   1      37.810  28.974  30.134  1.00  0.00     0.009 A 
ATOM     70  C   UNL A   1      36.856  30.129  27.780  1.00  0.00     0.001 A 
ATOM     71  C   UNL A   1      36.473  29.364  30.037  1.00  0.00     0.001 A 
ATOM     72  C   UNL A   1      36.000  29.951  28.865  1.00  0.00     0.000 A 
ENDBRANCH  48  67
BRANCH  60  73
ATOM     73  C   UNL A   1      44.421  32.489  31.121  1.00  0.00    -0.014 A 
ATOM     74  C   UNL A   1      44.374  32.836  32.479  1.00  0.00     0.009 A 
ATOM     75  C   UNL A   1      44.725  33.481  30.175  1.00  0.00     0.009 A 
ATOM     76  C   UNL A   1      44.588  34.157  32.878  1.00  0.00     0.001 A 
ATOM     77  C   UNL A   1      44.970  34.793  30.579  1.00  0.00     0.001 A 
ATOM     78  C   UNL A   1      44.891  35.133  31.929  1.00  0.00     0.000 A 
ENDBRANCH  60  73
ENDBRANCH  34  35
ENDBRANCH  26  29
ENDBRANCH  24  25
ENDBRANCH  23  24
ENDBRANCH  22  23
ENDBRANCH   1  22
TORSDOF 16
ENDMDL
MODEL 2
REMARK VINA RESULT:      -9.7      4.350      9.168
REMARK SMILES Cc1cc(N(C)[C@H](C)C(=O)NCCCCCCNC(=O)c2ccc(-c3c4nc(c(-c5ccccc5)c5ccc([nH]5)c(-c5ccccc5)c5nc(c(-c6ccccc6)c6ccc3[nH]6)C=C5)C=C4)cc2)ncc1[N+](=O)[O-]
REMARK SMILES IDX 14 1 13 2 12 3 11 4 9 5 10 6 7 8 8 9 5 10 6 11 4 12 1 13
REMARK SMILES IDX 2 14 3 15 71 16 70 17 69 18 72 19 73 20 74 21 15 22 16 23
REMARK SMILES IDX 17 24 18 25 19 26 20 28 21 29 22 30 68 31 23 32 67 33 24 34
REMARK SMILES IDX 25 35 26 36 61 37 27 38 66 39 60 40 62 41 28 42 65 43 59 44
REMARK SMILES IDX 58 45 29 47 51 48 36 49 50 50 37 51 40 52 49 53 63 54 38 55
REMARK SMILES IDX 39 56 48 58 64 59 41 60 30 61 31 62 35 63 32 64 34 65 33 66
REMARK SMILES IDX 52 67 53 68 57 69 54 70 56 71 55 72 42 73 43 74 47 75 44 76
REMARK SMILES IDX 46 77 45 78
REMARK H PARENT 11 7 18 27 62 46 40 57
REMARK Flexibility Score: inf
ROOT
ATOM      1  C   UNL A   1      33.731  30.410  27.407  1.00  0.00     0.002 C 
ENDROOT
BRANCH   1   2
ATOM      2  C   UNL A   1      34.272  28.973  27.405  1.00  0.00     0.021 C 
BRANCH   2   3
ATOM      3  C   UNL A   1      33.774  28.112  26.253  1.00  0.00     0.116 C 
BRANCH   3   4
ATOM      4  N   UNL A   1      32.641  27.291  26.622  1.00  0.00    -0.354 N 
ATOM      5  C   UNL A   1      32.021  26.264  25.972  1.00  0.00     0.242 C 
ATOM      6  O   UNL A   1      31.216  25.616  26.652  1.00  0.00    -0.273 OA
ATOM      7  H   UNL A   1      32.249  27.513  27.498  1.00  0.00     0.163 HD
BRANCH   5   8
ATOM      8  C   UNL A   1      32.270  25.898  24.486  1.00  0.00     0.169 C 
ATOM      9  C   UNL A   1      33.252  24.740  24.306  1.00  0.00     0.042 C 
BRANCH   8  10
ATOM     10  N   UNL A   1      31.044  25.743  23.647  1.00  0.00    -0.348 N 
ATOM     11  C   UNL A   1      30.409  24.454  23.455  1.00  0.00     0.146 C 
BRANCH  10  12
ATOM     12  C   UNL A   1      30.415  26.903  23.207  1.00  0.00     0.129 A 
ATOM     13  C   UNL A   1      26.974  28.472  23.441  1.00  0.00     0.052 C 
ATOM     14  C   UNL A   1      28.430  28.360  23.088  1.00  0.00     0.032 A 
ATOM     15  C   UNL A   1      29.043  27.122  23.382  1.00  0.00     0.057 A 
ATOM     16  C   UNL A   1      29.238  29.346  22.521  1.00  0.00     0.290 A 
ATOM     17  C   UNL A   1      30.577  29.052  22.308  1.00  0.00     0.199 A 
ATOM     18  N   UNL A   1      31.157  27.868  22.631  1.00  0.00    -0.232 NA
BRANCH  16  19
ATOM     19  N   UNL A   1      28.776  30.672  22.125  1.00  0.00     0.064 N 
ATOM     20  O   UNL A   1      28.183  30.769  21.040  1.00  0.00    -0.258 OA
ATOM     21  O   UNL A   1      28.970  31.619  22.896  1.00  0.00    -0.258 OA
ENDBRANCH  16  19
ENDBRANCH  10  12
ENDBRANCH   8  10
ENDBRANCH   5   8
ENDBRANCH   3   4
ENDBRANCH   2   3
ENDBRANCH   1   2
BRANCH   1  22
ATOM     22  C   UNL A   1      32.234  30.567  27.113  1.00  0.00     0.002 C 
BRANCH  22  23
ATOM     23  C   UNL A   1      31.732  32.004  26.941  1.00  0.00     0.021 C 
BRANCH  23  24
ATOM     24  C   UNL A   1      32.818  33.065  26.829  1.00  0.00     0.116 C 
BRANCH  24  25
ATOM     25  N   UNL A   1      32.518  34.256  27.601  1.00  0.00    -0.352 N 
ATOM     26  C   UNL A   1      33.094  34.711  28.761  1.00  0.00     0.251 C 
ATOM     27  H   UNL A   1      31.796  34.819  27.242  1.00  0.00     0.163 HD
ATOM     28  O   UNL A   1      32.607  35.668  29.352  1.00  0.00    -0.269 OA
BRANCH  26  29
ATOM     29  C   UNL A   1      34.289  34.035  29.314  1.00  0.00     0.039 A 
ATOM     30  C   UNL A   1      34.102  32.966  30.195  1.00  0.00     0.014 A 
ATOM     31  C   UNL A   1      35.581  34.462  28.994  1.00  0.00     0.014 A 
ATOM     32  C   UNL A   1      35.210  32.300  30.721  1.00  0.00     0.010 A 
ATOM     33  C   UNL A   1      36.683  33.749  29.460  1.00  0.00     0.010 A 
ATOM     34  C   UNL A   1      36.510  32.671  30.339  1.00  0.00    -0.014 A 
BRANCH  34  35
ATOM     35  C   UNL A   1      37.695  31.956  30.875  1.00  0.00     0.031 A 
ATOM     36  C   UNL A   1      38.232  32.297  32.239  1.00  0.00     0.074 A 
ATOM     37  C   UNL A   1      38.314  31.027  30.120  1.00  0.00     0.049 A 
ATOM     38  N   UNL A   1      39.269  31.802  32.865  1.00  0.00    -0.248 NA
ATOM     39  C   UNL A   1      37.525  33.348  32.987  1.00  0.00     0.031 C 
ATOM     40  C   UNL A   1      37.914  30.631  28.767  1.00  0.00     0.029 A 
ATOM     41  N   UNL A   1      39.412  30.248  30.384  1.00  0.00    -0.354 N 
ATOM     42  C   UNL A   1      39.348  32.491  34.070  1.00  0.00     0.074 A 
ATOM     43  C   UNL A   1      38.286  33.474  34.064  1.00  0.00     0.031 C 
ATOM     44  C   UNL A   1      38.735  29.660  28.335  1.00  0.00     0.029 A 
ATOM     45  C   UNL A   1      39.740  29.394  29.360  1.00  0.00     0.049 A 
ATOM     46  H   UNL A   1      39.917  30.298  31.228  1.00  0.00     0.167 HD
ATOM     47  C   UNL A   1      40.209  32.308  35.098  1.00  0.00     0.031 A 
ATOM     48  C   UNL A   1      40.737  28.495  29.258  1.00  0.00     0.031 A 
ATOM     49  C   UNL A   1      41.257  31.323  35.110  1.00  0.00     0.049 A 
ATOM     50  C   UNL A   1      41.685  28.316  30.411  1.00  0.00     0.074 A 
ATOM     51  C   UNL A   1      42.152  31.028  36.124  1.00  0.00     0.029 A 
ATOM     52  N   UNL A   1      41.551  30.473  34.056  1.00  0.00    -0.354 N 
ATOM     53  N   UNL A   1      41.705  28.933  31.568  1.00  0.00    -0.248 NA
ATOM     54  C   UNL A   1      42.738  27.305  30.249  1.00  0.00     0.031 C 
ATOM     55  C   UNL A   1      43.019  30.031  35.665  1.00  0.00     0.029 A 
ATOM     56  C   UNL A   1      42.626  29.664  34.387  1.00  0.00     0.049 A 
ATOM     57  H   UNL A   1      41.068  30.447  33.198  1.00  0.00     0.167 HD
ATOM     58  C   UNL A   1      42.749  28.360  32.284  1.00  0.00     0.074 A 
ATOM     59  C   UNL A   1      43.327  27.338  31.436  1.00  0.00     0.031 C 
ATOM     60  C   UNL A   1      43.188  28.651  33.533  1.00  0.00     0.031 A 
BRANCH  47  61
ATOM     61  C   UNL A   1      40.053  33.202  36.298  1.00  0.00    -0.014 A 
ATOM     62  C   UNL A   1      40.797  34.387  36.425  1.00  0.00     0.009 A 
ATOM     63  C   UNL A   1      39.129  32.871  37.301  1.00  0.00     0.009 A 
ATOM     64  C   UNL A   1      40.645  35.201  37.550  1.00  0.00     0.001 A 
ATOM     65  C   UNL A   1      38.956  33.704  38.409  1.00  0.00     0.001 A 
ATOM     66  C   UNL A   1      39.721  34.861  38.538  1.00  0.00     0.000 A 
ENDBRANCH  47  61
BRANCH  48  67
ATOM     67  C   UNL A   1      40.879  27.673  28.027  1.00  0.00    -0.014 A 
ATOM     68  C   UNL A   1      41.648  28.135  26.948  1.00  0.00     0.009 A 
ATOM     69  C   UNL A   1      40.236  26.431  27.920  1.00  0.00     0.009 A 
ATOM     70  C   UNL A   1      41.745  27.383  25.775  1.00  0.00     0.001 A 
ATOM     71  C   UNL A   1      40.359  25.668  26.757  1.00  0.00     0.001 A 
ATOM     72  C   UNL A   1      41.104  26.149  25.682  1.00  0.00     0.000 A 
ENDBRANCH  48  67
BRANCH  60  73
ATOM     73  C   UNL A   1      44.319  27.821  34.074  1.00  0.00    -0.014 A 
ATOM     74  C   UNL A   1      44.087  26.615  34.750  1.00  0.00     0.009 A 
ATOM     75  C   UNL A   1      45.643  28.246  33.874  1.00  0.00     0.009 A 
ATOM     76  C   UNL A   1      45.156  25.869  35.251  1.00  0.00     0.001 A 
ATOM     77  C   UNL A   1      46.710  27.483  34.348  1.00  0.00     0.001 A 
ATOM     78  C   UNL A   1      46.466  26.301  35.045  1.00  0.00     0.000 A 
ENDBRANCH  60  73
ENDBRANCH  34  35
ENDBRANCH  26  29
ENDBRANCH  24  25
ENDBRANCH  23  24
ENDBRANCH  22  23
ENDBRANCH   1  22
TORSDOF 16
ENDMDL
MODEL 3
REMARK VINA RESULT:      -9.5      3.139      8.848
REMARK SMILES Cc1cc(N(C)[C@H](C)C(=O)NCCCCCCNC(=O)c2ccc(-c3c4nc(c(-c5ccccc5)c5ccc([nH]5)c(-c5ccccc5)c5nc(c(-c6ccccc6)c6ccc3[nH]6)C=C5)C=C4)cc2)ncc1[N+](=O)[O-]
REMARK SMILES IDX 14 1 13 2 12 3 11 4 9 5 10 6 7 8 8 9 5 10 6 11 4 12 1 13
REMARK SMILES IDX 2 14 3 15 71 16 70 17 69 18 72 19 73 20 74 21 15 22 16 23
REMARK SMILES IDX 17 24 18 25 19 26 20 28 21 29 22 30 68 31 23 32 67 33 24 34
REMARK SMILES IDX 25 35 26 36 61 37 27 38 66 39 60 40 62 41 28 42 65 43 59 44
REMARK SMILES IDX 58 45 29 47 51 48 36 49 50 50 37 51 40 52 49 53 63 54 38 55
REMARK SMILES IDX 39 56 48 58 64 59 41 60 30 61 31 62 35 63 32 64 34 65 33 66
REMARK SMILES IDX 52 67 53 68 57 69 54 70 56 71 55 72 42 73 43 74 47 75 44 76
REMARK SMILES IDX 46 77 45 78
REMARK H PARENT 11 7 18 27 62 46 40 57
REMARK Flexibility Score: inf
ROOT
ATOM      1  C   UNL A   1      33.956  30.141  27.579  1.00  0.00     0.002 C 
ENDROOT
BRANCH   1   2
ATOM      2  C   UNL A   1      34.768  29.008  26.936  1.00  0.00     0.021 C 
BRANCH   2   3
ATOM      3  C   UNL A   1      33.973  28.123  25.986  1.00  0.00     0.116 C 
BRANCH   3   4
ATOM      4  N   UNL A   1      34.054  28.569  24.611  1.00  0.00    -0.354 N 
ATOM      5  C   UNL A   1      33.329  28.226  23.508  1.00  0.00     0.242 C 
ATOM      6  O   UNL A   1      33.495  28.952  22.519  1.00  0.00    -0.273 OA
ATOM      7  H   UNL A   1      34.757  29.238  24.444  1.00  0.00     0.163 HD
BRANCH   5   8
ATOM      8  C   UNL A   1      32.357  27.021  23.444  1.00  0.00     0.169 C 
ATOM      9  C   UNL A   1      30.927  27.417  23.074  1.00  0.00     0.042 C 
BRANCH   8  10
ATOM     10  N   UNL A   1      32.841  25.842  22.666  1.00  0.00    -0.348 N 
ATOM     11  C   UNL A   1      32.792  25.811  21.217  1.00  0.00     0.146 C 
BRANCH  10  12
ATOM     12  C   UNL A   1      33.521  24.847  23.362  1.00  0.00     0.129 A 
ATOM     13  C   UNL A   1      33.376  23.244  26.792  1.00  0.00     0.052 C 
ATOM     14  C   UNL A   1      33.835  23.465  25.379  1.00  0.00     0.032 A 
ATOM     15  C   UNL A   1      33.271  24.574  24.713  1.00  0.00     0.057 A 
ATOM     16  C   UNL A   1      34.738  22.685  24.654  1.00  0.00     0.290 A 
ATOM     17  C   UNL A   1      35.000  23.039  23.339  1.00  0.00     0.199 A 
ATOM     18  N   UNL A   1      34.420  24.089  22.704  1.00  0.00    -0.232 NA
BRANCH  16  19
ATOM     19  N   UNL A   1      35.440  21.520  25.183  1.00  0.00     0.064 N 
ATOM     20  O   UNL A   1      35.054  20.403  24.809  1.00  0.00    -0.258 OA
ATOM     21  O   UNL A   1      36.394  21.704  25.948  1.00  0.00    -0.258 OA
ENDBRANCH  16  19
ENDBRANCH  10  12
ENDBRANCH   8  10
ENDBRANCH   5   8
ENDBRANCH   3   4
ENDBRANCH   2   3
ENDBRANCH   1   2
BRANCH   1  22
ATOM     22  C   UNL A   1      32.464  30.187  27.228  1.00  0.00     0.002 C 
BRANCH  22  23
ATOM     23  C   UNL A   1      31.859  31.583  27.055  1.00  0.00     0.021 C 
BRANCH  23  24
ATOM     24  C   UNL A   1      32.865  32.713  26.882  1.00  0.00     0.116 C 
BRANCH  24  25
ATOM     25  N   UNL A   1      32.518  33.893  27.651  1.00  0.00    -0.352 N 
ATOM     26  C   UNL A   1      33.147  34.439  28.741  1.00  0.00     0.251 C 
ATOM     27  H   UNL A   1      31.713  34.371  27.347  1.00  0.00     0.163 HD
ATOM     28  O   UNL A   1      32.621  35.363  29.353  1.00  0.00    -0.269 OA
BRANCH  26  29
ATOM     29  C   UNL A   1      34.448  33.901  29.197  1.00  0.00     0.039 A 
ATOM     30  C   UNL A   1      34.463  33.018  30.280  1.00  0.00     0.014 A 
ATOM     31  C   UNL A   1      35.647  34.280  28.585  1.00  0.00     0.014 A 
ATOM     32  C   UNL A   1      35.674  32.484  30.722  1.00  0.00     0.010 A 
ATOM     33  C   UNL A   1      36.845  33.688  28.979  1.00  0.00     0.010 A 
ATOM     34  C   UNL A   1      36.872  32.796  30.061  1.00  0.00    -0.014 A 
BRANCH  34  35
ATOM     35  C   UNL A   1      38.164  32.216  30.508  1.00  0.00     0.031 A 
ATOM     36  C   UNL A   1      38.648  30.913  29.930  1.00  0.00     0.074 A 
ATOM     37  C   UNL A   1      38.882  32.840  31.461  1.00  0.00     0.049 A 
ATOM     38  N   UNL A   1      39.733  30.239  30.212  1.00  0.00    -0.248 NA
ATOM     39  C   UNL A   1      37.789  30.274  28.921  1.00  0.00     0.031 C 
ATOM     40  C   UNL A   1      38.505  34.089  32.127  1.00  0.00     0.029 A 
ATOM     41  N   UNL A   1      40.083  32.505  32.036  1.00  0.00    -0.354 N 
ATOM     42  C   UNL A   1      39.678  29.091  29.429  1.00  0.00     0.074 A 
ATOM     43  C   UNL A   1      38.430  29.136  28.701  1.00  0.00     0.031 C 
ATOM     44  C   UNL A   1      39.471  34.432  32.995  1.00  0.00     0.029 A 
ATOM     45  C   UNL A   1      40.513  33.410  32.976  1.00  0.00     0.049 A 
ATOM     46  H   UNL A   1      40.587  31.694  31.798  1.00  0.00     0.167 HD
ATOM     47  C   UNL A   1      40.594  28.101  29.308  1.00  0.00     0.031 A 
ATOM     48  C   UNL A   1      41.624  33.417  33.736  1.00  0.00     0.031 A 
ATOM     49  C   UNL A   1      41.842  28.062  30.022  1.00  0.00     0.049 A 
ATOM     50  C   UNL A   1      42.622  32.302  33.589  1.00  0.00     0.074 A 
ATOM     51  C   UNL A   1      42.858  27.126  29.934  1.00  0.00     0.029 A 
ATOM     52  N   UNL A   1      42.243  29.001  30.959  1.00  0.00    -0.354 N 
ATOM     53  N   UNL A   1      42.584  31.257  32.797  1.00  0.00    -0.248 NA
ATOM     54  C   UNL A   1      43.825  32.377  34.429  1.00  0.00     0.031 C 
ATOM     55  C   UNL A   1      43.853  27.473  30.853  1.00  0.00     0.029 A 
ATOM     56  C   UNL A   1      43.484  28.657  31.471  1.00  0.00     0.049 A 
ATOM     57  H   UNL A   1      41.724  29.795  31.223  1.00  0.00     0.167 HD
ATOM     58  C   UNL A   1      43.771  30.571  33.019  1.00  0.00     0.074 A 
ATOM     59  C   UNL A   1      44.512  31.325  34.008  1.00  0.00     0.031 C 
ATOM     60  C   UNL A   1      44.209  29.420  32.452  1.00  0.00     0.031 A 
BRANCH  47  61
ATOM     61  C   UNL A   1      40.272  26.973  28.367  1.00  0.00    -0.014 A 
ATOM     62  C   UNL A   1      39.480  25.887  28.775  1.00  0.00     0.009 A 
ATOM     63  C   UNL A   1      40.742  27.009  27.045  1.00  0.00     0.009 A 
ATOM     64  C   UNL A   1      39.197  24.844  27.890  1.00  0.00     0.001 A 
ATOM     65  C   UNL A   1      40.432  25.981  26.153  1.00  0.00     0.001 A 
ATOM     66  C   UNL A   1      39.669  24.895  26.579  1.00  0.00     0.000 A 
ENDBRANCH  47  61
BRANCH  48  67
ATOM     67  C   UNL A   1      41.869  34.530  34.691  1.00  0.00    -0.014 A 
ATOM     68  C   UNL A   1      42.561  35.680  34.281  1.00  0.00     0.009 A 
ATOM     69  C   UNL A   1      41.424  34.443  36.019  1.00  0.00     0.009 A 
ATOM     70  C   UNL A   1      42.829  36.706  35.191  1.00  0.00     0.001 A 
ATOM     71  C   UNL A   1      41.668  35.483  36.917  1.00  0.00     0.001 A 
ATOM     72  C   UNL A   1      42.379  36.608  36.506  1.00  0.00     0.000 A 
ENDBRANCH  48  67
BRANCH  60  73
ATOM     73  C   UNL A   1      45.574  28.933  32.855  1.00  0.00    -0.014 A 
ATOM     74  C   UNL A   1      45.750  28.046  33.927  1.00  0.00     0.009 A 
ATOM     75  C   UNL A   1      46.699  29.352  32.127  1.00  0.00     0.009 A 
ATOM     76  C   UNL A   1      47.030  27.618  34.286  1.00  0.00     0.001 A 
ATOM     77  C   UNL A   1      47.973  28.898  32.467  1.00  0.00     0.001 A 
ATOM     78  C   UNL A   1      48.139  28.041  33.554  1.00  0.00     0.000 A 
ENDBRANCH  60  73
ENDBRANCH  34  35
ENDBRANCH  26  29
ENDBRANCH  24  25
ENDBRANCH  23  24
ENDBRANCH  22  23
ENDBRANCH   1  22
TORSDOF 16
ENDMDL
