MODEL 1
REMARK VINA RESULT:     -11.0      0.000      0.000
REMARK SMILES C[N@@H+]1CC2(CCN(C(=O)c3cc(-c4ccncc4)n[nH]3)CC2)C[C@H]1C(=O)NCCCCCCNC(=O)c1ccc(-c2c3nc(c(-c4ccccc4)c4ccc([nH]4)c(-c4ccccc4)c4nc(c(-c5ccccc5)c5ccc2[nH]5)C=C4)C=C3)cc1
REMARK SMILES IDX 30 1 29 2 28 3 27 4 25 5 26 6 24 8 1 9 2 10 3 11 4 13 23 14
REMARK SMILES IDX 5 15 22 16 6 17 21 18 7 19 8 20 9 21 10 22 11 23 20 24 12 25
REMARK SMILES IDX 19 26 13 28 14 29 18 30 15 31 17 32 16 33 31 34 32 35 33 36
REMARK SMILES IDX 34 37 35 38 36 40 37 41 38 42 84 43 39 44 83 45 40 46 41 47
REMARK SMILES IDX 42 48 77 49 43 50 82 51 76 52 78 53 44 54 81 55 75 56 74 57
REMARK SMILES IDX 45 59 67 60 52 61 66 62 53 63 56 64 65 65 79 66 54 67 55 68
REMARK SMILES IDX 64 70 80 71 57 72 46 73 47 74 51 75 48 76 50 77 49 78 68 79
REMARK SMILES IDX 69 80 73 81 70 82 72 83 71 84 58 85 59 86 63 87 60 88 62 89
REMARK SMILES IDX 61 90
REMARK H PARENT 27 7 2 12 20 27 34 39 78 58 56 69
REMARK Flexibility Score: inf
ROOT
ATOM      1  C   UNL A   1      39.399  23.375  25.982  1.00  0.00     0.002 C 
ENDROOT
BRANCH   1   2
ATOM      2  C   UNL A   1      38.083  24.091  26.305  1.00  0.00     0.021 C 
BRANCH   2   3
ATOM      3  C   UNL A   1      36.822  23.356  25.862  1.00  0.00     0.116 C 
BRANCH   3   4
ATOM      4  N   UNL A   1      35.883  23.055  26.913  1.00  0.00    -0.351 N 
ATOM      5  C   UNL A   1      34.521  23.149  26.930  1.00  0.00     0.278 C 
ATOM      6  O   UNL A   1      33.958  22.662  27.920  1.00  0.00    -0.268 OA
ATOM      7  H   UNL A   1      36.288  22.732  27.750  1.00  0.00     0.163 HD
BRANCH   5   8
ATOM      8  C   UNL A   1      33.659  23.791  25.803  1.00  0.00     0.274 C 
ATOM      9  C   UNL A   1      31.417  23.054  25.292  1.00  0.00     0.333 C 
ATOM     10  N   UNL A   1      32.235  23.884  26.182  1.00  0.00    -0.327 N 
ATOM     11  C   UNL A   1      31.817  25.290  26.141  1.00  0.00     0.269 C 
ATOM     12  H   UNL A   1      32.104  23.532  27.131  1.00  0.00     0.348 HD
ATOM     13  C   UNL A   1      32.949  26.146  25.529  1.00  0.00     0.029 C 
ATOM     14  C   UNL A   1      34.100  25.154  25.278  1.00  0.00     0.088 C 
ATOM     15  C   UNL A   1      33.474  27.293  26.424  1.00  0.00     0.034 C 
ATOM     16  C   UNL A   1      32.428  26.834  24.236  1.00  0.00     0.034 C 
ATOM     17  C   UNL A   1      32.378  28.276  26.773  1.00  0.00     0.120 C 
ATOM     18  C   UNL A   1      31.387  27.938  24.531  1.00  0.00     0.120 C 
ATOM     19  N   UNL A   1      31.843  28.875  25.558  1.00  0.00    -0.337 N 
ATOM     20  C   UNL A   1      31.439  30.210  25.504  1.00  0.00     0.271 C 
ATOM     21  O   UNL A   1      30.532  30.588  24.765  1.00  0.00    -0.267 OA
BRANCH  20  22
ATOM     22  C   UNL A   1      32.129  31.131  26.370  1.00  0.00     0.123 A 
ATOM     23  C   UNL A   1      33.402  31.098  26.907  1.00  0.00     0.064 A 
ATOM     24  N   UNL A   1      31.601  32.314  26.800  1.00  0.00    -0.272 N 
ATOM     25  C   UNL A   1      33.499  32.235  27.748  1.00  0.00     0.093 A 
ATOM     26  N   UNL A   1      32.364  32.949  27.710  1.00  0.00    -0.175 NA
ATOM     27  H   UNL A   1      30.741  32.668  26.477  1.00  0.00     0.190 HD
BRANCH  25  28
ATOM     28  C   UNL A   1      34.629  32.611  28.589  1.00  0.00     0.005 A 
ATOM     29  C   UNL A   1      34.485  32.691  29.976  1.00  0.00     0.030 A 
ATOM     30  C   UNL A   1      35.865  32.922  28.018  1.00  0.00     0.030 A 
ATOM     31  C   UNL A   1      35.579  33.081  30.729  1.00  0.00     0.111 A 
ATOM     32  C   UNL A   1      36.895  33.311  28.857  1.00  0.00     0.111 A 
ATOM     33  N   UNL A   1      36.778  33.402  30.199  1.00  0.00    -0.265 NA
ENDBRANCH  25  28
ENDBRANCH  20  22
ENDBRANCH   5   8
ENDBRANCH   3   4
ENDBRANCH   2   3
ENDBRANCH   1   2
BRANCH   1  34
ATOM     34  C   UNL A   1      39.731  22.131  26.818  1.00  0.00     0.002 C 
BRANCH  34  35
ATOM     35  C   UNL A   1      40.031  20.837  26.051  1.00  0.00     0.021 C 
BRANCH  35  36
ATOM     36  C   UNL A   1      41.100  19.927  26.656  1.00  0.00     0.116 C 
BRANCH  36  37
ATOM     37  N   UNL A   1      42.261  19.772  25.797  1.00  0.00    -0.352 N 
ATOM     38  C   UNL A   1      43.212  20.677  25.398  1.00  0.00     0.251 C 
ATOM     39  H   UNL A   1      42.386  18.864  25.439  1.00  0.00     0.163 HD
ATOM     40  O   UNL A   1      44.036  20.346  24.549  1.00  0.00    -0.269 OA
BRANCH  38  41
ATOM     41  C   UNL A   1      43.263  22.049  25.955  1.00  0.00     0.039 A 
ATOM     42  C   UNL A   1      43.115  23.127  25.074  1.00  0.00     0.014 A 
ATOM     43  C   UNL A   1      43.533  22.293  27.305  1.00  0.00     0.014 A 
ATOM     44  C   UNL A   1      43.188  24.441  25.547  1.00  0.00     0.010 A 
ATOM     45  C   UNL A   1      43.563  23.605  27.786  1.00  0.00     0.010 A 
ATOM     46  C   UNL A   1      43.393  24.690  26.912  1.00  0.00    -0.014 A 
BRANCH  46  47
ATOM     47  C   UNL A   1      43.449  26.078  27.435  1.00  0.00     0.031 A 
ATOM     48  C   UNL A   1      44.770  26.780  27.590  1.00  0.00     0.074 A 
ATOM     49  C   UNL A   1      42.315  26.699  27.808  1.00  0.00     0.049 A 
ATOM     50  N   UNL A   1      45.025  27.959  28.100  1.00  0.00    -0.248 NA
ATOM     51  C   UNL A   1      45.963  26.056  27.123  1.00  0.00     0.031 C 
ATOM     52  C   UNL A   1      40.968  26.132  27.719  1.00  0.00     0.029 A 
ATOM     53  N   UNL A   1      42.115  27.948  28.341  1.00  0.00    -0.354 N 
ATOM     54  C   UNL A   1      46.403  28.110  28.033  1.00  0.00     0.074 A 
ATOM     55  C   UNL A   1      46.935  26.893  27.456  1.00  0.00     0.031 C 
ATOM     56  C   UNL A   1      40.080  27.038  28.161  1.00  0.00     0.029 A 
ATOM     57  C   UNL A   1      40.797  28.235  28.593  1.00  0.00     0.049 A 
ATOM     58  H   UNL A   1      42.848  28.579  28.525  1.00  0.00     0.167 HD
ATOM     59  C   UNL A   1      47.161  29.169  28.409  1.00  0.00     0.031 A 
ATOM     60  C   UNL A   1      40.227  29.337  29.117  1.00  0.00     0.031 A 
ATOM     61  C   UNL A   1      46.643  30.387  28.970  1.00  0.00     0.049 A 
ATOM     62  C   UNL A   1      41.091  30.495  29.527  1.00  0.00     0.074 A 
ATOM     63  C   UNL A   1      47.336  31.517  29.371  1.00  0.00     0.029 A 
ATOM     64  N   UNL A   1      45.300  30.640  29.195  1.00  0.00    -0.354 N 
ATOM     65  N   UNL A   1      42.393  30.623  29.452  1.00  0.00    -0.248 NA
ATOM     66  C   UNL A   1      40.402  31.666  30.092  1.00  0.00     0.031 C 
ATOM     67  C   UNL A   1      46.411  32.448  29.859  1.00  0.00     0.029 A 
ATOM     68  C   UNL A   1      45.144  31.907  29.732  1.00  0.00     0.049 A 
ATOM     69  H   UNL A   1      44.566  30.012  29.004  1.00  0.00     0.167 HD
ATOM     70  C   UNL A   1      42.677  31.892  29.936  1.00  0.00     0.074 A 
ATOM     71  C   UNL A   1      41.412  32.500  30.294  1.00  0.00     0.031 C 
ATOM     72  C   UNL A   1      43.878  32.500  30.072  1.00  0.00     0.031 A 
BRANCH  59  73
ATOM     73  C   UNL A   1      48.646  29.048  28.228  1.00  0.00    -0.014 A 
ATOM     74  C   UNL A   1      49.455  28.517  29.243  1.00  0.00     0.009 A 
ATOM     75  C   UNL A   1      49.238  29.436  27.016  1.00  0.00     0.009 A 
ATOM     76  C   UNL A   1      50.834  28.403  29.060  1.00  0.00     0.001 A 
ATOM     77  C   UNL A   1      50.615  29.303  26.828  1.00  0.00     0.001 A 
ATOM     78  C   UNL A   1      51.413  28.794  27.852  1.00  0.00     0.000 A 
ENDBRANCH  59  73
BRANCH  60  79
ATOM     79  C   UNL A   1      38.753  29.410  29.272  1.00  0.00    -0.014 A 
ATOM     80  C   UNL A   1      38.173  29.329  30.547  1.00  0.00     0.009 A 
ATOM     81  C   UNL A   1      37.922  29.545  28.151  1.00  0.00     0.009 A 
ATOM     82  C   UNL A   1      36.785  29.361  30.693  1.00  0.00     0.001 A 
ATOM     83  C   UNL A   1      36.535  29.597  28.303  1.00  0.00     0.001 A 
ATOM     84  C   UNL A   1      35.968  29.497  29.572  1.00  0.00     0.000 A 
ENDBRANCH  60  79
BRANCH  72  85
ATOM     85  C   UNL A   1      43.877  33.906  30.594  1.00  0.00    -0.014 A 
ATOM     86  C   UNL A   1      43.756  35.001  29.726  1.00  0.00     0.009 A 
ATOM     87  C   UNL A   1      43.966  34.134  31.975  1.00  0.00     0.009 A 
ATOM     88  C   UNL A   1      43.753  36.302  30.231  1.00  0.00     0.001 A 
ATOM     89  C   UNL A   1      43.945  35.434  32.479  1.00  0.00     0.001 A 
ATOM     90  C   UNL A   1      43.845  36.518  31.607  1.00  0.00     0.000 A 
ENDBRANCH  72  85
ENDBRANCH  46  47
ENDBRANCH  38  41
ENDBRANCH  36  37
ENDBRANCH  35  36
ENDBRANCH  34  35
ENDBRANCH   1  34
TORSDOF 15
ENDMDL
MODEL 2
REMARK VINA RESULT:     -10.7      3.375     10.219
REMARK SMILES C[N@@H+]1CC2(CCN(C(=O)c3cc(-c4ccncc4)n[nH]3)CC2)C[C@H]1C(=O)NCCCCCCNC(=O)c1ccc(-c2c3nc(c(-c4ccccc4)c4ccc([nH]4)c(-c4ccccc4)c4nc(c(-c5ccccc5)c5ccc2[nH]5)C=C4)C=C3)cc1
REMARK SMILES IDX 30 1 29 2 28 3 27 4 25 5 26 6 24 8 1 9 2 10 3 11 4 13 23 14
REMARK SMILES IDX 5 15 22 16 6 17 21 18 7 19 8 20 9 21 10 22 11 23 20 24 12 25
REMARK SMILES IDX 19 26 13 28 14 29 18 30 15 31 17 32 16 33 31 34 32 35 33 36
REMARK SMILES IDX 34 37 35 38 36 40 37 41 38 42 84 43 39 44 83 45 40 46 41 47
REMARK SMILES IDX 42 48 77 49 43 50 82 51 76 52 78 53 44 54 81 55 75 56 74 57
REMARK SMILES IDX 45 59 67 60 52 61 66 62 53 63 56 64 65 65 79 66 54 67 55 68
REMARK SMILES IDX 64 70 80 71 57 72 46 73 47 74 51 75 48 76 50 77 49 78 68 79
REMARK SMILES IDX 69 80 73 81 70 82 72 83 71 84 58 85 59 86 63 87 60 88 62 89
REMARK SMILES IDX 61 90
REMARK H PARENT 27 7 2 12 20 27 34 39 78 58 56 69
REMARK Flexibility Score: inf
ROOT
ATOM      1  C   UNL A   1      29.279  31.184  24.432  1.00  0.00     0.002 C 
ENDROOT
BRANCH   1   2
ATOM      2  C   UNL A   1      28.847  31.424  22.982  1.00  0.00     0.021 C 
BRANCH   2   3
ATOM      3  C   UNL A   1      29.014  30.226  22.053  1.00  0.00     0.116 C 
BRANCH   3   4
ATOM      4  N   UNL A   1      28.635  28.954  22.614  1.00  0.00    -0.351 N 
ATOM      5  C   UNL A   1      29.410  27.926  23.069  1.00  0.00     0.278 C 
ATOM      6  O   UNL A   1      28.810  27.015  23.656  1.00  0.00    -0.268 OA
ATOM      7  H   UNL A   1      27.664  28.803  22.680  1.00  0.00     0.163 HD
BRANCH   5   8
ATOM      8  C   UNL A   1      30.958  27.845  22.917  1.00  0.00     0.274 C 
ATOM      9  C   UNL A   1      32.469  29.232  24.191  1.00  0.00     0.333 C 
ATOM     10  N   UNL A   1      31.649  28.017  24.211  1.00  0.00    -0.327 N 
ATOM     11  C   UNL A   1      32.458  26.825  24.486  1.00  0.00     0.269 C 
ATOM     12  H   UNL A   1      30.963  28.125  24.959  1.00  0.00     0.348 HD
ATOM     13  C   UNL A   1      32.460  25.905  23.243  1.00  0.00     0.029 C 
ATOM     14  C   UNL A   1      31.528  26.605  22.235  1.00  0.00     0.088 C 
ATOM     15  C   UNL A   1      31.939  24.468  23.479  1.00  0.00     0.034 C 
ATOM     16  C   UNL A   1      33.918  25.740  22.731  1.00  0.00     0.034 C 
ATOM     17  C   UNL A   1      32.766  23.736  24.513  1.00  0.00     0.120 C 
ATOM     18  C   UNL A   1      34.791  24.897  23.689  1.00  0.00     0.120 C 
ATOM     19  N   UNL A   1      34.148  23.637  24.066  1.00  0.00    -0.337 N 
ATOM     20  C   UNL A   1      34.933  22.510  24.321  1.00  0.00     0.271 C 
ATOM     21  O   UNL A   1      36.151  22.584  24.469  1.00  0.00    -0.267 OA
BRANCH  20  22
ATOM     22  C   UNL A   1      34.243  21.250  24.416  1.00  0.00     0.123 A 
ATOM     23  C   UNL A   1      34.665  20.010  24.859  1.00  0.00     0.064 A 
ATOM     24  N   UNL A   1      32.928  21.075  24.094  1.00  0.00    -0.272 N 
ATOM     25  C   UNL A   1      33.576  19.129  24.643  1.00  0.00     0.093 A 
ATOM     26  N   UNL A   1      32.528  19.789  24.127  1.00  0.00    -0.175 NA
ATOM     27  H   UNL A   1      32.329  21.819  23.859  1.00  0.00     0.190 HD
BRANCH  25  28
ATOM     28  C   UNL A   1      33.546  17.692  24.892  1.00  0.00     0.005 A 
ATOM     29  C   UNL A   1      32.392  17.083  25.388  1.00  0.00     0.030 A 
ATOM     30  C   UNL A   1      34.679  16.910  24.662  1.00  0.00     0.030 A 
ATOM     31  C   UNL A   1      32.422  15.722  25.635  1.00  0.00     0.111 A 
ATOM     32  C   UNL A   1      34.611  15.558  24.951  1.00  0.00     0.111 A 
ATOM     33  N   UNL A   1      33.508  14.947  25.436  1.00  0.00    -0.265 NA
ENDBRANCH  25  28
ENDBRANCH  20  22
ENDBRANCH   5   8
ENDBRANCH   3   4
ENDBRANCH   2   3
ENDBRANCH   1   2
BRANCH   1  34
ATOM     34  C   UNL A   1      30.288  32.178  25.026  1.00  0.00     0.002 C 
BRANCH  34  35
ATOM     35  C   UNL A   1      30.896  31.822  26.388  1.00  0.00     0.021 C 
BRANCH  35  36
ATOM     36  C   UNL A   1      32.267  32.426  26.693  1.00  0.00     0.116 C 
BRANCH  36  37
ATOM     37  N   UNL A   1      32.179  33.721  27.346  1.00  0.00    -0.352 N 
ATOM     38  C   UNL A   1      32.990  34.313  28.281  1.00  0.00     0.251 C 
ATOM     39  H   UNL A   1      31.406  34.265  27.072  1.00  0.00     0.163 HD
ATOM     40  O   UNL A   1      32.638  35.373  28.794  1.00  0.00    -0.269 OA
BRANCH  38  41
ATOM     41  C   UNL A   1      34.273  33.702  28.698  1.00  0.00     0.039 A 
ATOM     42  C   UNL A   1      34.288  32.923  29.862  1.00  0.00     0.014 A 
ATOM     43  C   UNL A   1      35.468  33.945  28.015  1.00  0.00     0.014 A 
ATOM     44  C   UNL A   1      35.482  32.352  30.313  1.00  0.00     0.010 A 
ATOM     45  C   UNL A   1      36.654  33.340  28.441  1.00  0.00     0.010 A 
ATOM     46  C   UNL A   1      36.672  32.540  29.594  1.00  0.00    -0.014 A 
BRANCH  46  47
ATOM     47  C   UNL A   1      37.943  31.920  30.046  1.00  0.00     0.031 A 
ATOM     48  C   UNL A   1      38.812  32.618  31.056  1.00  0.00     0.074 A 
ATOM     49  C   UNL A   1      38.338  30.746  29.522  1.00  0.00     0.049 A 
ATOM     50  N   UNL A   1      39.990  32.272  31.511  1.00  0.00    -0.248 NA
ATOM     51  C   UNL A   1      38.296  33.877  31.616  1.00  0.00     0.031 C 
ATOM     52  C   UNL A   1      37.596  29.966  28.529  1.00  0.00     0.029 A 
ATOM     53  N   UNL A   1      39.469  30.002  29.751  1.00  0.00    -0.354 N 
ATOM     54  C   UNL A   1      40.363  33.276  32.395  1.00  0.00     0.074 A 
ATOM     55  C   UNL A   1      39.299  34.258  32.393  1.00  0.00     0.031 C 
ATOM     56  C   UNL A   1      38.280  28.844  28.251  1.00  0.00     0.029 A 
ATOM     57  C   UNL A   1      39.522  28.841  29.021  1.00  0.00     0.049 A 
ATOM     58  H   UNL A   1      40.175  30.275  30.380  1.00  0.00     0.167 HD
ATOM     59  C   UNL A   1      41.486  33.371  33.147  1.00  0.00     0.031 A 
ATOM     60  C   UNL A   1      40.465  27.881  28.973  1.00  0.00     0.031 A 
ATOM     61  C   UNL A   1      42.542  32.396  33.168  1.00  0.00     0.049 A 
ATOM     62  C   UNL A   1      41.701  28.013  29.816  1.00  0.00     0.074 A 
ATOM     63  C   UNL A   1      43.713  32.405  33.907  1.00  0.00     0.029 A 
ATOM     64  N   UNL A   1      42.549  31.228  32.423  1.00  0.00    -0.354 N 
ATOM     65  N   UNL A   1      42.035  28.967  30.650  1.00  0.00    -0.248 NA
ATOM     66  C   UNL A   1      42.690  26.928  29.714  1.00  0.00     0.031 C 
ATOM     67  C   UNL A   1      44.438  31.249  33.594  1.00  0.00     0.029 A 
ATOM     68  C   UNL A   1      43.703  30.510  32.683  1.00  0.00     0.049 A 
ATOM     69  H   UNL A   1      41.838  30.951  31.799  1.00  0.00     0.167 HD
ATOM     70  C   UNL A   1      43.258  28.588  31.187  1.00  0.00     0.074 A 
ATOM     71  C   UNL A   1      43.603  27.313  30.594  1.00  0.00     0.031 C 
ATOM     72  C   UNL A   1      44.025  29.239  32.092  1.00  0.00     0.031 A 
BRANCH  59  73
ATOM     73  C   UNL A   1      41.629  34.588  34.014  1.00  0.00    -0.014 A 
ATOM     74  C   UNL A   1      41.080  34.622  35.304  1.00  0.00     0.009 A 
ATOM     75  C   UNL A   1      42.351  35.699  33.549  1.00  0.00     0.009 A 
ATOM     76  C   UNL A   1      41.226  35.757  36.103  1.00  0.00     0.001 A 
ATOM     77  C   UNL A   1      42.511  36.826  34.358  1.00  0.00     0.001 A 
ATOM     78  C   UNL A   1      41.943  36.857  35.631  1.00  0.00     0.000 A 
ENDBRANCH  59  73
BRANCH  60  79
ATOM     79  C   UNL A   1      40.275  26.694  28.103  1.00  0.00    -0.014 A 
ATOM     80  C   UNL A   1      40.766  26.697  26.789  1.00  0.00     0.009 A 
ATOM     81  C   UNL A   1      39.592  25.564  28.575  1.00  0.00     0.009 A 
ATOM     82  C   UNL A   1      40.556  25.596  25.955  1.00  0.00     0.001 A 
ATOM     83  C   UNL A   1      39.403  24.457  27.745  1.00  0.00     0.001 A 
ATOM     84  C   UNL A   1      39.878  24.478  26.435  1.00  0.00     0.000 A 
ENDBRANCH  60  79
BRANCH  72  85
ATOM     85  C   UNL A   1      45.293  28.563  32.522  1.00  0.00    -0.014 A 
ATOM     86  C   UNL A   1      46.499  28.783  31.838  1.00  0.00     0.009 A 
ATOM     87  C   UNL A   1      45.286  27.722  33.644  1.00  0.00     0.009 A 
ATOM     88  C   UNL A   1      47.670  28.147  32.256  1.00  0.00     0.001 A 
ATOM     89  C   UNL A   1      46.461  27.102  34.069  1.00  0.00     0.001 A 
ATOM     90  C   UNL A   1      47.651  27.310  33.372  1.00  0.00     0.000 A 
ENDBRANCH  72  85
ENDBRANCH  46  47
ENDBRANCH  38  41
ENDBRANCH  36  37
ENDBRANCH  35  36
ENDBRANCH  34  35
ENDBRANCH   1  34
TORSDOF 15
ENDMDL
MODEL 3
REMARK VINA RESULT:     -10.7      3.590      9.834
REMARK SMILES C[N@@H+]1CC2(CCN(C(=O)c3cc(-c4ccncc4)n[nH]3)CC2)C[C@H]1C(=O)NCCCCCCNC(=O)c1ccc(-c2c3nc(c(-c4ccccc4)c4ccc([nH]4)c(-c4ccccc4)c4nc(c(-c5ccccc5)c5ccc2[nH]5)C=C4)C=C3)cc1
REMARK SMILES IDX 30 1 29 2 28 3 27 4 25 5 26 6 24 8 1 9 2 10 3 11 4 13 23 14
REMARK SMILES IDX 5 15 22 16 6 17 21 18 7 19 8 20 9 21 10 22 11 23 20 24 12 25
REMARK SMILES IDX 19 26 13 28 14 29 18 30 15 31 17 32 16 33 31 34 32 35 33 36
REMARK SMILES IDX 34 37 35 38 36 40 37 41 38 42 84 43 39 44 83 45 40 46 41 47
REMARK SMILES IDX 42 48 77 49 43 50 82 51 76 52 78 53 44 54 81 55 75 56 74 57
REMARK SMILES IDX 45 59 67 60 52 61 66 62 53 63 56 64 65 65 79 66 54 67 55 68
REMARK SMILES IDX 64 70 80 71 57 72 46 73 47 74 51 75 48 76 50 77 49 78 68 79
REMARK SMILES IDX 69 80 73 81 70 82 72 83 71 84 58 85 59 86 63 87 60 88 62 89
REMARK SMILES IDX 61 90
REMARK H PARENT 27 7 2 12 20 27 34 39 78 58 56 69
REMARK Flexibility Score: inf
ROOT
ATOM      1  C   UNL A   1      29.070  31.924  24.094  1.00  0.00     0.002 C 
ENDROOT
BRANCH   1   2
ATOM      2  C   UNL A   1      28.989  32.292  22.608  1.00  0.00     0.021 C 
BRANCH   2   3
ATOM      3  C   UNL A   1      29.115  31.116  21.645  1.00  0.00     0.116 C 
BRANCH   3   4
ATOM      4  N   UNL A   1      30.399  30.462  21.636  1.00  0.00    -0.351 N 
ATOM      5  C   UNL A   1      30.849  29.396  22.361  1.00  0.00     0.278 C 
ATOM      6  O   UNL A   1      31.951  28.940  22.025  1.00  0.00    -0.268 OA
ATOM      7  H   UNL A   1      31.054  30.845  21.009  1.00  0.00     0.163 HD
BRANCH   5   8
ATOM      8  C   UNL A   1      30.073  28.727  23.534  1.00  0.00     0.274 C 
ATOM      9  C   UNL A   1      27.698  28.299  23.453  1.00  0.00     0.333 C 
ATOM     10  N   UNL A   1      29.021  27.812  23.049  1.00  0.00    -0.327 N 
ATOM     11  C   UNL A   1      29.280  26.464  23.567  1.00  0.00     0.269 C 
ATOM     12  H   UNL A   1      29.034  27.778  22.029  1.00  0.00     0.348 HD
ATOM     13  C   UNL A   1      30.437  26.518  24.590  1.00  0.00     0.029 C 
ATOM     14  C   UNL A   1      30.897  27.989  24.585  1.00  0.00     0.088 C 
ATOM     15  C   UNL A   1      31.655  25.622  24.265  1.00  0.00     0.034 C 
ATOM     16  C   UNL A   1      29.921  26.033  25.973  1.00  0.00     0.034 C 
ATOM     17  C   UNL A   1      31.267  24.161  24.184  1.00  0.00     0.120 C 
ATOM     18  C   UNL A   1      29.617  24.518  25.993  1.00  0.00     0.120 C 
ATOM     19  N   UNL A   1      30.722  23.719  25.460  1.00  0.00    -0.337 N 
ATOM     20  C   UNL A   1      30.957  22.439  25.965  1.00  0.00     0.271 C 
ATOM     21  O   UNL A   1      30.140  21.859  26.676  1.00  0.00    -0.267 OA
BRANCH  20  22
ATOM     22  C   UNL A   1      32.205  21.820  25.602  1.00  0.00     0.123 A 
ATOM     23  C   UNL A   1      33.504  22.089  25.990  1.00  0.00     0.064 A 
ATOM     24  N   UNL A   1      32.307  20.739  24.774  1.00  0.00    -0.272 N 
ATOM     25  C   UNL A   1      34.324  21.205  25.245  1.00  0.00     0.093 A 
ATOM     26  N   UNL A   1      33.576  20.412  24.463  1.00  0.00    -0.175 NA
ATOM     27  H   UNL A   1      31.525  20.247  24.434  1.00  0.00     0.190 HD
BRANCH  25  28
ATOM     28  C   UNL A   1      35.781  21.141  25.253  1.00  0.00     0.005 A 
ATOM     29  C   UNL A   1      36.441  19.976  24.857  1.00  0.00     0.030 A 
ATOM     30  C   UNL A   1      36.536  22.235  25.679  1.00  0.00     0.030 A 
ATOM     31  C   UNL A   1      37.824  19.954  24.909  1.00  0.00     0.111 A 
ATOM     32  C   UNL A   1      37.914  22.110  25.705  1.00  0.00     0.111 A 
ATOM     33  N   UNL A   1      38.575  20.992  25.333  1.00  0.00    -0.265 NA
ENDBRANCH  25  28
ENDBRANCH  20  22
ENDBRANCH   5   8
ENDBRANCH   3   4
ENDBRANCH   2   3
ENDBRANCH   1   2
BRANCH   1  34
ATOM     34  C   UNL A   1      30.278  32.462  24.874  1.00  0.00     0.002 C 
BRANCH  34  35
ATOM     35  C   UNL A   1      30.788  31.608  26.041  1.00  0.00     0.021 C 
BRANCH  35  36
ATOM     36  C   UNL A   1      32.099  32.061  26.685  1.00  0.00     0.116 C 
BRANCH  36  37
ATOM     37  N   UNL A   1      32.048  33.433  27.160  1.00  0.00    -0.352 N 
ATOM     38  C   UNL A   1      32.868  34.117  28.021  1.00  0.00     0.251 C 
ATOM     39  H   UNL A   1      31.297  33.960  26.806  1.00  0.00     0.163 HD
ATOM     40  O   UNL A   1      32.547  35.246  28.385  1.00  0.00    -0.269 OA
BRANCH  38  41
ATOM     41  C   UNL A   1      34.126  33.526  28.534  1.00  0.00     0.039 A 
ATOM     42  C   UNL A   1      34.060  32.715  29.674  1.00  0.00     0.014 A 
ATOM     43  C   UNL A   1      35.370  33.818  27.967  1.00  0.00     0.014 A 
ATOM     44  C   UNL A   1      35.224  32.160  30.214  1.00  0.00     0.010 A 
ATOM     45  C   UNL A   1      36.529  33.229  28.480  1.00  0.00     0.010 A 
ATOM     46  C   UNL A   1      36.467  32.397  29.609  1.00  0.00    -0.014 A 
BRANCH  46  47
ATOM     47  C   UNL A   1      37.709  31.796  30.155  1.00  0.00     0.031 A 
ATOM     48  C   UNL A   1      38.424  32.443  31.310  1.00  0.00     0.074 A 
ATOM     49  C   UNL A   1      38.220  30.687  29.590  1.00  0.00     0.049 A 
ATOM     50  N   UNL A   1      39.558  32.110  31.870  1.00  0.00    -0.248 NA
ATOM     51  C   UNL A   1      37.784  33.628  31.903  1.00  0.00     0.031 C 
ATOM     52  C   UNL A   1      37.635  29.962  28.460  1.00  0.00     0.029 A 
ATOM     53  N   UNL A   1      39.355  29.974  29.890  1.00  0.00    -0.354 N 
ATOM     54  C   UNL A   1      39.779  33.052  32.867  1.00  0.00     0.074 A 
ATOM     55  C   UNL A   1      38.673  33.985  32.819  1.00  0.00     0.031 C 
ATOM     56  C   UNL A   1      38.403  28.896  28.177  1.00  0.00     0.029 A 
ATOM     57  C   UNL A   1      39.549  28.881  29.083  1.00  0.00     0.049 A 
ATOM     58  H   UNL A   1      39.971  30.224  30.616  1.00  0.00     0.167 HD
ATOM     59  C   UNL A   1      40.804  33.131  33.749  1.00  0.00     0.031 A 
ATOM     60  C   UNL A   1      40.539  27.969  29.069  1.00  0.00     0.031 A 
ATOM     61  C   UNL A   1      41.900  32.202  33.816  1.00  0.00     0.049 A 
ATOM     62  C   UNL A   1      41.665  28.082  30.058  1.00  0.00     0.074 A 
ATOM     63  C   UNL A   1      42.978  32.199  34.684  1.00  0.00     0.029 A 
ATOM     64  N   UNL A   1      42.049  31.102  32.988  1.00  0.00    -0.354 N 
ATOM     65  N   UNL A   1      41.854  28.976  30.996  1.00  0.00    -0.248 NA
ATOM     66  C   UNL A   1      42.713  27.052  29.986  1.00  0.00     0.031 C 
ATOM     67  C   UNL A   1      43.792  31.104  34.368  1.00  0.00     0.029 A 
ATOM     68  C   UNL A   1      43.203  30.413  33.323  1.00  0.00     0.049 A 
ATOM     69  H   UNL A   1      41.428  30.848  32.266  1.00  0.00     0.167 HD
ATOM     70  C   UNL A   1      43.026  28.606  31.640  1.00  0.00     0.074 A 
ATOM     71  C   UNL A   1      43.501  27.400  30.993  1.00  0.00     0.031 C 
ATOM     72  C   UNL A   1      43.653  29.211  32.676  1.00  0.00     0.031 A 
BRANCH  59  73
ATOM     73  C   UNL A   1      40.787  34.276  34.719  1.00  0.00    -0.014 A 
ATOM     74  C   UNL A   1      41.421  35.489  34.413  1.00  0.00     0.009 A 
ATOM     75  C   UNL A   1      40.100  34.153  35.936  1.00  0.00     0.009 A 
ATOM     76  C   UNL A   1      41.393  36.549  35.320  1.00  0.00     0.001 A 
ATOM     77  C   UNL A   1      40.057  35.222  36.834  1.00  0.00     0.001 A 
ATOM     78  C   UNL A   1      40.709  36.416  36.528  1.00  0.00     0.000 A 
ENDBRANCH  59  73
BRANCH  60  79
ATOM     79  C   UNL A   1      40.508  26.853  28.093  1.00  0.00    -0.014 A 
ATOM     80  C   UNL A   1      39.889  25.639  28.429  1.00  0.00     0.009 A 
ATOM     81  C   UNL A   1      41.107  26.988  26.833  1.00  0.00     0.009 A 
ATOM     82  C   UNL A   1      39.891  24.573  27.527  1.00  0.00     0.001 A 
ATOM     83  C   UNL A   1      41.088  25.927  25.925  1.00  0.00     0.001 A 
ATOM     84  C   UNL A   1      40.487  24.719  26.276  1.00  0.00     0.000 A 
ENDBRANCH  60  79
BRANCH  72  85
ATOM     85  C   UNL A   1      44.898  28.555  33.196  1.00  0.00    -0.014 A 
ATOM     86  C   UNL A   1      46.155  28.848  32.645  1.00  0.00     0.009 A 
ATOM     87  C   UNL A   1      44.814  27.658  34.271  1.00  0.00     0.009 A 
ATOM     88  C   UNL A   1      47.303  28.231  33.145  1.00  0.00     0.001 A 
ATOM     89  C   UNL A   1      45.965  27.055  34.779  1.00  0.00     0.001 A 
ATOM     90  C   UNL A   1      47.207  27.337  34.213  1.00  0.00     0.000 A 
ENDBRANCH  72  85
ENDBRANCH  46  47
ENDBRANCH  38  41
ENDBRANCH  36  37
ENDBRANCH  35  36
ENDBRANCH  34  35
ENDBRANCH   1  34
TORSDOF 15
ENDMDL
