MODEL 1
REMARK VINA RESULT:      -9.9      0.000      0.000
REMARK SMILES CSC[C@H](C(=O)NCCCCCCNC(=O)c1ccc(-c2c3nc(c(-c4ccccc4)c4ccc([nH]4)c(-c4ccccc4)c4nc(c(-c5ccccc5)c5ccc2[nH]5)C=C4)C=C3)cc1)c1ccccc1
REMARK SMILES IDX 10 1 9 2 8 3 7 4 5 5 6 6 4 8 3 9 2 10 1 11 65 12 66 13 70 14
REMARK SMILES IDX 67 15 69 16 68 17 11 18 12 19 13 20 14 21 15 22 16 24 17 25
REMARK SMILES IDX 18 26 64 27 19 28 63 29 20 30 21 31 22 32 57 33 23 34 62 35
REMARK SMILES IDX 56 36 58 37 24 38 61 39 55 40 54 41 25 43 47 44 32 45 46 46
REMARK SMILES IDX 33 47 36 48 45 49 59 50 34 51 35 52 44 54 60 55 37 56 26 57
REMARK SMILES IDX 27 58 31 59 28 60 30 61 29 62 48 63 49 64 53 65 50 66 52 67
REMARK SMILES IDX 51 68 38 69 39 70 43 71 40 72 42 73 41 74
REMARK H PARENT 7 7 14 23 58 42 36 53
REMARK Flexibility Score: inf
ROOT
ATOM      1  C   UNL A   1      36.589  21.863  25.513  1.00  0.00     0.002 C 
ENDROOT
BRANCH   1   2
ATOM      2  C   UNL A   1      35.719  23.017  24.989  1.00  0.00     0.021 C 
BRANCH   2   3
ATOM      3  C   UNL A   1      35.430  22.939  23.490  1.00  0.00     0.116 C 
BRANCH   3   4
ATOM      4  N   UNL A   1      34.020  23.185  23.259  1.00  0.00    -0.356 N 
ATOM      5  C   UNL A   1      32.952  22.371  23.489  1.00  0.00     0.228 C 
ATOM      6  O   UNL A   1      31.948  22.582  22.806  1.00  0.00    -0.274 OA
ATOM      7  H   UNL A   1      33.804  24.069  22.882  1.00  0.00     0.163 HD
BRANCH   5   8
ATOM      8  C   UNL A   1      33.030  21.320  24.607  1.00  0.00     0.118 C 
BRANCH   8   9
ATOM      9  C   UNL A   1      31.863  21.604  25.588  1.00  0.00     0.087 C 
BRANCH   9  10
ATOM     10  S   UNL A   1      31.881  23.029  26.765  1.00  0.00    -0.164 SA
ATOM     11  C   UNL A   1      30.622  24.138  26.083  1.00  0.00     0.085 C 
ENDBRANCH   9  10
ENDBRANCH   8   9
BRANCH   8  12
ATOM     12  C   UNL A   1      33.211  19.878  24.129  1.00  0.00    -0.035 A 
ATOM     13  C   UNL A   1      34.249  19.085  24.651  1.00  0.00     0.004 A 
ATOM     14  C   UNL A   1      32.337  19.278  23.208  1.00  0.00     0.004 A 
ATOM     15  C   UNL A   1      34.466  17.785  24.191  1.00  0.00     0.000 A 
ATOM     16  C   UNL A   1      32.558  17.980  22.741  1.00  0.00     0.000 A 
ATOM     17  C   UNL A   1      33.632  17.239  23.221  1.00  0.00     0.000 A 
ENDBRANCH   8  12
ENDBRANCH   5   8
ENDBRANCH   3   4
ENDBRANCH   2   3
ENDBRANCH   1   2
BRANCH   1  18
ATOM     18  C   UNL A   1      37.356  21.095  24.432  1.00  0.00     0.002 C 
BRANCH  18  19
ATOM     19  C   UNL A   1      38.033  19.815  24.924  1.00  0.00     0.021 C 
BRANCH  19  20
ATOM     20  C   UNL A   1      39.051  20.036  26.035  1.00  0.00     0.116 C 
BRANCH  20  21
ATOM     21  N   UNL A   1      40.243  19.224  25.856  1.00  0.00    -0.352 N 
ATOM     22  C   UNL A   1      41.560  19.591  25.969  1.00  0.00     0.251 C 
ATOM     23  H   UNL A   1      40.083  18.283  25.620  1.00  0.00     0.163 HD
ATOM     24  O   UNL A   1      42.449  18.834  25.598  1.00  0.00    -0.269 OA
BRANCH  22  25
ATOM     25  C   UNL A   1      41.901  20.917  26.526  1.00  0.00     0.039 A 
ATOM     26  C   UNL A   1      42.195  21.960  25.646  1.00  0.00     0.014 A 
ATOM     27  C   UNL A   1      41.933  21.128  27.907  1.00  0.00     0.014 A 
ATOM     28  C   UNL A   1      42.484  23.228  26.154  1.00  0.00     0.010 A 
ATOM     29  C   UNL A   1      42.138  22.410  28.407  1.00  0.00     0.010 A 
ATOM     30  C   UNL A   1      42.433  23.469  27.536  1.00  0.00    -0.014 A 
BRANCH  30  31
ATOM     31  C   UNL A   1      42.712  24.820  28.086  1.00  0.00     0.031 A 
ATOM     32  C   UNL A   1      44.112  25.196  28.489  1.00  0.00     0.074 A 
ATOM     33  C   UNL A   1      41.701  25.692  28.261  1.00  0.00     0.049 A 
ATOM     34  N   UNL A   1      44.550  26.320  29.001  1.00  0.00    -0.248 NA
ATOM     35  C   UNL A   1      45.154  24.171  28.316  1.00  0.00     0.031 C 
ATOM     36  C   UNL A   1      40.294  25.434  27.949  1.00  0.00     0.029 A 
ATOM     37  N   UNL A   1      41.704  26.977  28.742  1.00  0.00    -0.354 N 
ATOM     38  C   UNL A   1      45.908  26.128  29.223  1.00  0.00     0.074 A 
ATOM     39  C   UNL A   1      46.211  24.766  28.847  1.00  0.00     0.031 C 
ATOM     40  C   UNL A   1      39.576  26.539  28.212  1.00  0.00     0.029 A 
ATOM     41  C   UNL A   1      40.463  27.565  28.748  1.00  0.00     0.049 A 
ATOM     42  H   UNL A   1      42.519  27.433  29.054  1.00  0.00     0.167 HD
ATOM     43  C   UNL A   1      46.827  27.013  29.677  1.00  0.00     0.031 A 
ATOM     44  C   UNL A   1      40.082  28.796  29.141  1.00  0.00     0.031 A 
ATOM     45  C   UNL A   1      46.527  28.371  30.043  1.00  0.00     0.049 A 
ATOM     46  C   UNL A   1      41.119  29.755  29.655  1.00  0.00     0.074 A 
ATOM     47  C   UNL A   1      47.396  29.362  30.466  1.00  0.00     0.029 A 
ATOM     48  N   UNL A   1      45.258  28.928  30.035  1.00  0.00    -0.354 N 
ATOM     49  N   UNL A   1      42.412  29.581  29.791  1.00  0.00    -0.248 NA
ATOM     50  C   UNL A   1      40.644  31.087  30.055  1.00  0.00     0.031 C 
ATOM     51  C   UNL A   1      46.644  30.502  30.767  1.00  0.00     0.029 A 
ATOM     52  C   UNL A   1      45.316  30.242  30.469  1.00  0.00     0.049 A 
ATOM     53  H   UNL A   1      44.437  28.459  29.762  1.00  0.00     0.167 HD
ATOM     54  C   UNL A   1      42.908  30.792  30.261  1.00  0.00     0.074 A 
ATOM     55  C   UNL A   1      41.780  31.694  30.369  1.00  0.00     0.031 C 
ATOM     56  C   UNL A   1      44.184  31.127  30.573  1.00  0.00     0.031 A 
BRANCH  43  57
ATOM     57  C   UNL A   1      48.247  26.531  29.807  1.00  0.00    -0.014 A 
ATOM     58  C   UNL A   1      49.176  26.707  28.768  1.00  0.00     0.009 A 
ATOM     59  C   UNL A   1      48.670  25.919  30.997  1.00  0.00     0.009 A 
ATOM     60  C   UNL A   1      50.486  26.244  28.903  1.00  0.00     0.001 A 
ATOM     61  C   UNL A   1      49.990  25.487  31.141  1.00  0.00     0.001 A 
ATOM     62  C   UNL A   1      50.893  25.639  30.091  1.00  0.00     0.000 A 
ENDBRANCH  43  57
BRANCH  44  63
ATOM     63  C   UNL A   1      38.655  29.202  29.044  1.00  0.00    -0.014 A 
ATOM     64  C   UNL A   1      38.142  29.731  27.849  1.00  0.00     0.009 A 
ATOM     65  C   UNL A   1      37.799  29.073  30.150  1.00  0.00     0.009 A 
ATOM     66  C   UNL A   1      36.813  30.154  27.774  1.00  0.00     0.001 A 
ATOM     67  C   UNL A   1      36.463  29.467  30.061  1.00  0.00     0.001 A 
ATOM     68  C   UNL A   1      35.974  30.017  28.879  1.00  0.00     0.000 A 
ENDBRANCH  44  63
BRANCH  56  69
ATOM     69  C   UNL A   1      44.434  32.541  31.018  1.00  0.00    -0.014 A 
ATOM     70  C   UNL A   1      44.397  32.901  32.374  1.00  0.00     0.009 A 
ATOM     71  C   UNL A   1      44.745  33.523  30.062  1.00  0.00     0.009 A 
ATOM     72  C   UNL A   1      44.623  34.225  32.759  1.00  0.00     0.001 A 
ATOM     73  C   UNL A   1      45.004  34.836  30.453  1.00  0.00     0.001 A 
ATOM     74  C   UNL A   1      44.932  35.189  31.799  1.00  0.00     0.000 A 
ENDBRANCH  56  69
ENDBRANCH  30  31
ENDBRANCH  22  25
ENDBRANCH  20  21
ENDBRANCH  19  20
ENDBRANCH  18  19
ENDBRANCH   1  18
TORSDOF 16
ENDMDL
MODEL 2
REMARK VINA RESULT:      -9.8      1.150      6.253
REMARK SMILES CSC[C@H](C(=O)NCCCCCCNC(=O)c1ccc(-c2c3nc(c(-c4ccccc4)c4ccc([nH]4)c(-c4ccccc4)c4nc(c(-c5ccccc5)c5ccc2[nH]5)C=C4)C=C3)cc1)c1ccccc1
REMARK SMILES IDX 10 1 9 2 8 3 7 4 5 5 6 6 4 8 3 9 2 10 1 11 65 12 66 13 70 14
REMARK SMILES IDX 67 15 69 16 68 17 11 18 12 19 13 20 14 21 15 22 16 24 17 25
REMARK SMILES IDX 18 26 64 27 19 28 63 29 20 30 21 31 22 32 57 33 23 34 62 35
REMARK SMILES IDX 56 36 58 37 24 38 61 39 55 40 54 41 25 43 47 44 32 45 46 46
REMARK SMILES IDX 33 47 36 48 45 49 59 50 34 51 35 52 44 54 60 55 37 56 26 57
REMARK SMILES IDX 27 58 31 59 28 60 30 61 29 62 48 63 49 64 53 65 50 66 52 67
REMARK SMILES IDX 51 68 38 69 39 70 43 71 40 72 42 73 41 74
REMARK H PARENT 7 7 14 23 58 42 36 53
REMARK Flexibility Score: inf
ROOT
ATOM      1  C   UNL A   1      36.800  21.954  24.213  1.00  0.00     0.002 C 
ENDROOT
BRANCH   1   2
ATOM      2  C   UNL A   1      36.717  23.212  25.093  1.00  0.00     0.021 C 
BRANCH   2   3
ATOM      3  C   UNL A   1      35.336  23.868  25.102  1.00  0.00     0.116 C 
BRANCH   3   4
ATOM      4  N   UNL A   1      34.881  24.047  23.737  1.00  0.00    -0.356 N 
ATOM      5  C   UNL A   1      33.872  23.415  23.073  1.00  0.00     0.228 C 
ATOM      6  O   UNL A   1      33.969  23.375  21.845  1.00  0.00    -0.274 OA
ATOM      7  H   UNL A   1      35.371  24.723  23.215  1.00  0.00     0.163 HD
BRANCH   5   8
ATOM      8  C   UNL A   1      32.671  22.874  23.863  1.00  0.00     0.118 C 
BRANCH   8   9
ATOM      9  C   UNL A   1      31.400  23.559  23.295  1.00  0.00     0.087 C 
BRANCH   9  10
ATOM     10  S   UNL A   1      31.284  25.388  23.051  1.00  0.00    -0.164 SA
ATOM     11  C   UNL A   1      29.864  25.846  24.078  1.00  0.00     0.085 C 
ENDBRANCH   9  10
ENDBRANCH   8   9
BRANCH   8  12
ATOM     12  C   UNL A   1      32.635  21.354  24.028  1.00  0.00    -0.035 A 
ATOM     13  C   UNL A   1      32.914  20.772  25.278  1.00  0.00     0.004 A 
ATOM     14  C   UNL A   1      32.279  20.493  22.978  1.00  0.00     0.004 A 
ATOM     15  C   UNL A   1      32.940  19.385  25.440  1.00  0.00     0.000 A 
ATOM     16  C   UNL A   1      32.313  19.106  23.136  1.00  0.00     0.000 A 
ATOM     17  C   UNL A   1      32.659  18.551  24.363  1.00  0.00     0.000 A 
ENDBRANCH   8  12
ENDBRANCH   5   8
ENDBRANCH   3   4
ENDBRANCH   2   3
ENDBRANCH   1   2
BRANCH   1  18
ATOM     18  C   UNL A   1      36.664  20.630  24.972  1.00  0.00     0.002 C 
BRANCH  18  19
ATOM     19  C   UNL A   1      37.901  19.734  24.910  1.00  0.00     0.021 C 
BRANCH  19  20
ATOM     20  C   UNL A   1      39.073  20.231  25.746  1.00  0.00     0.116 C 
BRANCH  20  21
ATOM     21  N   UNL A   1      40.134  19.244  25.845  1.00  0.00    -0.352 N 
ATOM     22  C   UNL A   1      41.465  19.434  26.120  1.00  0.00     0.251 C 
ATOM     23  H   UNL A   1      39.860  18.311  25.695  1.00  0.00     0.163 HD
ATOM     24  O   UNL A   1      42.264  18.516  25.977  1.00  0.00    -0.269 OA
BRANCH  22  25
ATOM     25  C   UNL A   1      41.933  20.761  26.570  1.00  0.00     0.039 A 
ATOM     26  C   UNL A   1      42.359  21.684  25.613  1.00  0.00     0.014 A 
ATOM     27  C   UNL A   1      41.954  21.091  27.927  1.00  0.00     0.014 A 
ATOM     28  C   UNL A   1      42.770  22.955  26.017  1.00  0.00     0.010 A 
ATOM     29  C   UNL A   1      42.284  22.385  28.321  1.00  0.00     0.010 A 
ATOM     30  C   UNL A   1      42.712  23.324  27.371  1.00  0.00    -0.014 A 
BRANCH  30  31
ATOM     31  C   UNL A   1      43.121  24.682  27.811  1.00  0.00     0.031 A 
ATOM     32  C   UNL A   1      42.080  25.729  28.094  1.00  0.00     0.074 A 
ATOM     33  C   UNL A   1      44.430  24.983  27.916  1.00  0.00     0.049 A 
ATOM     34  N   UNL A   1      42.242  26.973  28.472  1.00  0.00    -0.248 NA
ATOM     35  C   UNL A   1      40.673  25.339  27.907  1.00  0.00     0.031 C 
ATOM     36  C   UNL A   1      45.537  24.069  27.631  1.00  0.00     0.029 A 
ATOM     37  N   UNL A   1      45.049  26.147  28.296  1.00  0.00    -0.354 N 
ATOM     38  C   UNL A   1      40.964  27.512  28.552  1.00  0.00     0.074 A 
ATOM     39  C   UNL A   1      40.042  26.482  28.128  1.00  0.00     0.031 C 
ATOM     40  C   UNL A   1      46.699  24.695  27.881  1.00  0.00     0.029 A 
ATOM     41  C   UNL A   1      46.420  26.063  28.304  1.00  0.00     0.049 A 
ATOM     42  H   UNL A   1      44.558  26.964  28.539  1.00  0.00     0.167 HD
ATOM     43  C   UNL A   1      40.586  28.746  28.965  1.00  0.00     0.031 A 
ATOM     44  C   UNL A   1      47.350  26.986  28.618  1.00  0.00     0.031 A 
ATOM     45  C   UNL A   1      41.503  29.768  29.395  1.00  0.00     0.049 A 
ATOM     46  C   UNL A   1      46.906  28.353  29.058  1.00  0.00     0.074 A 
ATOM     47  C   UNL A   1      41.218  31.032  29.879  1.00  0.00     0.029 A 
ATOM     48  N   UNL A   1      42.883  29.643  29.387  1.00  0.00    -0.354 N 
ATOM     49  N   UNL A   1      45.690  28.823  29.197  1.00  0.00    -0.248 NA
ATOM     50  C   UNL A   1      47.966  29.311  29.401  1.00  0.00     0.031 C 
ATOM     51  C   UNL A   1      42.428  31.693  30.112  1.00  0.00     0.029 A 
ATOM     52  C   UNL A   1      43.465  30.817  29.835  1.00  0.00     0.049 A 
ATOM     53  H   UNL A   1      43.376  28.840  29.105  1.00  0.00     0.167 HD
ATOM     54  C   UNL A   1      45.838  30.120  29.674  1.00  0.00     0.074 A 
ATOM     55  C   UNL A   1      47.261  30.353  29.817  1.00  0.00     0.031 C 
ATOM     56  C   UNL A   1      44.882  31.035  29.970  1.00  0.00     0.031 A 
BRANCH  43  57
ATOM     57  C   UNL A   1      39.114  29.057  28.962  1.00  0.00    -0.014 A 
ATOM     58  C   UNL A   1      38.317  28.827  30.096  1.00  0.00     0.009 A 
ATOM     59  C   UNL A   1      38.520  29.614  27.819  1.00  0.00     0.009 A 
ATOM     60  C   UNL A   1      36.950  29.111  30.071  1.00  0.00     0.001 A 
ATOM     61  C   UNL A   1      37.160  29.929  27.809  1.00  0.00     0.001 A 
ATOM     62  C   UNL A   1      36.374  29.667  28.930  1.00  0.00     0.000 A 
ENDBRANCH  43  57
BRANCH  44  63
ATOM     63  C   UNL A   1      48.795  26.643  28.548  1.00  0.00    -0.014 A 
ATOM     64  C   UNL A   1      49.507  26.794  27.348  1.00  0.00     0.009 A 
ATOM     65  C   UNL A   1      49.468  26.151  29.678  1.00  0.00     0.009 A 
ATOM     66  C   UNL A   1      50.853  26.429  27.272  1.00  0.00     0.001 A 
ATOM     67  C   UNL A   1      50.822  25.817  29.607  1.00  0.00     0.001 A 
ATOM     68  C   UNL A   1      51.510  25.945  28.402  1.00  0.00     0.000 A 
ENDBRANCH  44  63
BRANCH  56  69
ATOM     69  C   UNL A   1      45.343  32.357  30.519  1.00  0.00    -0.014 A 
ATOM     70  C   UNL A   1      45.607  33.449  29.678  1.00  0.00     0.009 A 
ATOM     71  C   UNL A   1      45.483  32.518  31.907  1.00  0.00     0.009 A 
ATOM     72  C   UNL A   1      46.043  34.663  30.214  1.00  0.00     0.001 A 
ATOM     73  C   UNL A   1      45.886  33.742  32.442  1.00  0.00     0.001 A 
ATOM     74  C   UNL A   1      46.176  34.810  31.595  1.00  0.00     0.000 A 
ENDBRANCH  56  69
ENDBRANCH  30  31
ENDBRANCH  22  25
ENDBRANCH  20  21
ENDBRANCH  19  20
ENDBRANCH  18  19
ENDBRANCH   1  18
TORSDOF 16
ENDMDL
MODEL 3
REMARK VINA RESULT:      -9.8      5.110      9.846
REMARK SMILES CSC[C@H](C(=O)NCCCCCCNC(=O)c1ccc(-c2c3nc(c(-c4ccccc4)c4ccc([nH]4)c(-c4ccccc4)c4nc(c(-c5ccccc5)c5ccc2[nH]5)C=C4)C=C3)cc1)c1ccccc1
REMARK SMILES IDX 10 1 9 2 8 3 7 4 5 5 6 6 4 8 3 9 2 10 1 11 65 12 66 13 70 14
REMARK SMILES IDX 67 15 69 16 68 17 11 18 12 19 13 20 14 21 15 22 16 24 17 25
REMARK SMILES IDX 18 26 64 27 19 28 63 29 20 30 21 31 22 32 57 33 23 34 62 35
REMARK SMILES IDX 56 36 58 37 24 38 61 39 55 40 54 41 25 43 47 44 32 45 46 46
REMARK SMILES IDX 33 47 36 48 45 49 59 50 34 51 35 52 44 54 60 55 37 56 26 57
REMARK SMILES IDX 27 58 31 59 28 60 30 61 29 62 48 63 49 64 53 65 50 66 52 67
REMARK SMILES IDX 51 68 38 69 39 70 43 71 40 72 42 73 41 74
REMARK H PARENT 7 7 14 23 58 42 36 53
REMARK Flexibility Score: inf
ROOT
ATOM      1  C   UNL A   1      32.240  29.854  27.245  1.00  0.00     0.002 C 
ENDROOT
BRANCH   1   2
ATOM      2  C   UNL A   1      31.781  28.386  27.269  1.00  0.00     0.021 C 
BRANCH   2   3
ATOM      3  C   UNL A   1      32.401  27.529  26.165  1.00  0.00     0.116 C 
BRANCH   3   4
ATOM      4  N   UNL A   1      31.443  26.528  25.740  1.00  0.00    -0.356 N 
ATOM      5  C   UNL A   1      30.477  26.608  24.782  1.00  0.00     0.228 C 
ATOM      6  O   UNL A   1      29.514  25.852  24.914  1.00  0.00    -0.274 OA
ATOM      7  H   UNL A   1      31.500  25.665  26.210  1.00  0.00     0.163 HD
BRANCH   5   8
ATOM      8  C   UNL A   1      30.676  27.554  23.587  1.00  0.00     0.118 C 
BRANCH   8   9
ATOM      9  C   UNL A   1      31.021  26.673  22.357  1.00  0.00     0.087 C 
BRANCH   9  10
ATOM     10  S   UNL A   1      32.015  25.121  22.495  1.00  0.00    -0.164 SA
ATOM     11  C   UNL A   1      33.665  25.730  22.927  1.00  0.00     0.085 C 
ENDBRANCH   9  10
ENDBRANCH   8   9
BRANCH   8  12
ATOM     12  C   UNL A   1      29.586  28.612  23.409  1.00  0.00    -0.035 A 
ATOM     13  C   UNL A   1      29.908  29.979  23.496  1.00  0.00     0.004 A 
ATOM     14  C   UNL A   1      28.257  28.277  23.107  1.00  0.00     0.004 A 
ATOM     15  C   UNL A   1      28.921  30.962  23.391  1.00  0.00     0.000 A 
ATOM     16  C   UNL A   1      27.268  29.259  23.010  1.00  0.00     0.000 A 
ATOM     17  C   UNL A   1      27.597  30.600  23.168  1.00  0.00     0.000 A 
ENDBRANCH   8  12
ENDBRANCH   5   8
ENDBRANCH   3   4
ENDBRANCH   2   3
ENDBRANCH   1   2
BRANCH   1  18
ATOM     18  C   UNL A   1      31.541  30.728  26.199  1.00  0.00     0.002 C 
BRANCH  18  19
ATOM     19  C   UNL A   1      31.363  32.190  26.611  1.00  0.00     0.021 C 
BRANCH  19  20
ATOM     20  C   UNL A   1      32.609  32.821  27.220  1.00  0.00     0.116 C 
BRANCH  20  21
ATOM     21  N   UNL A   1      32.384  34.199  27.620  1.00  0.00    -0.352 N 
ATOM     22  C   UNL A   1      33.007  34.922  28.606  1.00  0.00     0.251 C 
ATOM     23  H   UNL A   1      31.690  34.680  27.115  1.00  0.00     0.163 HD
ATOM     24  O   UNL A   1      32.568  36.015  28.945  1.00  0.00    -0.269 OA
BRANCH  22  25
ATOM     25  C   UNL A   1      34.203  34.365  29.272  1.00  0.00     0.039 A 
ATOM     26  C   UNL A   1      34.038  33.649  30.460  1.00  0.00     0.014 A 
ATOM     27  C   UNL A   1      35.477  34.552  28.732  1.00  0.00     0.014 A 
ATOM     28  C   UNL A   1      35.153  33.084  31.083  1.00  0.00     0.010 A 
ATOM     29  C   UNL A   1      36.574  33.919  29.308  1.00  0.00     0.010 A 
ATOM     30  C   UNL A   1      36.425  33.193  30.499  1.00  0.00    -0.014 A 
BRANCH  30  31
ATOM     31  C   UNL A   1      37.614  32.575  31.139  1.00  0.00     0.031 A 
ATOM     32  C   UNL A   1      38.268  31.373  30.514  1.00  0.00     0.074 A 
ATOM     33  C   UNL A   1      38.080  33.070  32.301  1.00  0.00     0.049 A 
ATOM     34  N   UNL A   1      39.302  30.686  30.931  1.00  0.00    -0.248 NA
ATOM     35  C   UNL A   1      37.669  30.859  29.271  1.00  0.00     0.031 C 
ATOM     36  C   UNL A   1      37.510  34.206  33.029  1.00  0.00     0.029 A 
ATOM     37  N   UNL A   1      39.145  32.681  33.074  1.00  0.00    -0.354 N 
ATOM     38  C   UNL A   1      39.466  29.656  30.013  1.00  0.00     0.074 A 
ATOM     39  C   UNL A   1      38.393  29.772  29.051  1.00  0.00     0.031 C 
ATOM     40  C   UNL A   1      38.254  34.444  34.123  1.00  0.00     0.029 A 
ATOM     41  C   UNL A   1      39.324  33.455  34.194  1.00  0.00     0.049 A 
ATOM     42  H   UNL A   1      39.724  31.918  32.847  1.00  0.00     0.167 HD
ATOM     43  C   UNL A   1      40.436  28.713  29.958  1.00  0.00     0.031 A 
ATOM     44  C   UNL A   1      40.249  33.378  35.170  1.00  0.00     0.031 A 
ATOM     45  C   UNL A   1      41.509  28.603  30.910  1.00  0.00     0.049 A 
ATOM     46  C   UNL A   1      41.306  32.312  35.095  1.00  0.00     0.074 A 
ATOM     47  C   UNL A   1      42.569  27.715  30.915  1.00  0.00     0.029 A 
ATOM     48  N   UNL A   1      41.654  29.407  32.030  1.00  0.00    -0.354 N 
ATOM     49  N   UNL A   1      41.489  31.390  34.181  1.00  0.00    -0.248 NA
ATOM     50  C   UNL A   1      42.296  32.288  36.182  1.00  0.00     0.031 C 
ATOM     51  C   UNL A   1      43.326  27.944  32.069  1.00  0.00     0.029 A 
ATOM     52  C   UNL A   1      42.774  29.019  32.747  1.00  0.00     0.049 A 
ATOM     53  H   UNL A   1      41.051  30.144  32.279  1.00  0.00     0.167 HD
ATOM     54  C   UNL A   1      42.631  30.698  34.564  1.00  0.00     0.074 A 
ATOM     55  C   UNL A   1      43.108  31.319  35.783  1.00  0.00     0.031 C 
ATOM     56  C   UNL A   1      43.234  29.645  33.959  1.00  0.00     0.031 A 
BRANCH  43  57
ATOM     57  C   UNL A   1      40.373  27.719  28.830  1.00  0.00    -0.014 A 
ATOM     58  C   UNL A   1      41.037  27.951  27.614  1.00  0.00     0.009 A 
ATOM     59  C   UNL A   1      39.663  26.519  28.996  1.00  0.00     0.009 A 
ATOM     60  C   UNL A   1      40.958  27.021  26.575  1.00  0.00     0.001 A 
ATOM     61  C   UNL A   1      39.613  25.577  27.967  1.00  0.00     0.001 A 
ATOM     62  C   UNL A   1      40.251  25.834  26.754  1.00  0.00     0.000 A 
ENDBRANCH  43  57
BRANCH  44  63
ATOM     63  C   UNL A   1      40.231  34.352  36.294  1.00  0.00    -0.014 A 
ATOM     64  C   UNL A   1      39.524  34.068  37.473  1.00  0.00     0.009 A 
ATOM     65  C   UNL A   1      40.911  35.576  36.189  1.00  0.00     0.009 A 
ATOM     66  C   UNL A   1      39.471  35.003  38.509  1.00  0.00     0.001 A 
ATOM     67  C   UNL A   1      40.882  36.494  37.240  1.00  0.00     0.001 A 
ATOM     68  C   UNL A   1      40.153  36.213  38.394  1.00  0.00     0.000 A 
ENDBRANCH  44  63
BRANCH  56  69
ATOM     69  C   UNL A   1      44.500  29.126  34.584  1.00  0.00    -0.014 A 
ATOM     70  C   UNL A   1      45.756  29.649  34.241  1.00  0.00     0.009 A 
ATOM     71  C   UNL A   1      44.426  28.117  35.559  1.00  0.00     0.009 A 
ATOM     72  C   UNL A   1      46.916  29.141  34.829  1.00  0.00     0.001 A 
ATOM     73  C   UNL A   1      45.584  27.637  36.170  1.00  0.00     0.001 A 
ATOM     74  C   UNL A   1      46.829  28.140  35.797  1.00  0.00     0.000 A 
ENDBRANCH  56  69
ENDBRANCH  30  31
ENDBRANCH  22  25
ENDBRANCH  20  21
ENDBRANCH  19  20
ENDBRANCH  18  19
ENDBRANCH   1  18
TORSDOF 16
ENDMDL
