MODEL 1
REMARK VINA RESULT:     -10.6      0.000      0.000
REMARK SMILES CCC(CC)([NH2+]Cc1cc(C(N)=O)ccc1F)C(=O)NCCCCCCNC(=O)c1ccc(-c2c3nc(c(-c4ccccc4)c4ccc([nH]4)c(-c4ccccc4)c4nc(c(-c5ccccc5)c5ccc2[nH]5)C=C4)C=C3)cc1
REMARK SMILES IDX 22 1 21 2 20 3 18 4 19 5 3 7 2 8 1 9 4 10 5 11 6 12 7 15
REMARK SMILES IDX 8 16 9 17 16 18 10 19 15 20 17 21 14 22 11 23 12 24 13 25
REMARK SMILES IDX 23 28 24 29 25 30 26 31 27 32 28 33 29 35 30 36 31 37 77 38
REMARK SMILES IDX 32 39 76 40 33 41 34 42 35 43 70 44 36 45 75 46 69 47 71 48
REMARK SMILES IDX 37 49 74 50 68 51 67 52 38 54 60 55 45 56 59 57 46 58 49 59
REMARK SMILES IDX 58 60 72 61 47 62 48 63 57 65 73 66 50 67 39 68 40 69 44 70
REMARK SMILES IDX 41 71 43 72 42 73 61 74 62 75 66 76 63 77 65 78 64 79 51 80
REMARK SMILES IDX 52 81 56 82 53 83 55 84 54 85
REMARK H PARENT 20 6 6 13 6 14 12 26 12 27 27 34 71 53 49 64
REMARK Flexibility Score: inf
ROOT
ATOM      1  C   UNL A   1      31.272  27.853  26.448  1.00  0.00     0.021 C 
ENDROOT
BRANCH   1   2
ATOM      2  C   UNL A   1      32.129  26.584  26.532  1.00  0.00     0.116 C 
BRANCH   2   3
ATOM      3  N   UNL A   1      31.357  25.410  26.849  1.00  0.00    -0.351 N 
ATOM      4  C   UNL A   1      31.405  24.086  26.581  1.00  0.00     0.281 C 
ATOM      5  O   UNL A   1      30.459  23.495  27.132  1.00  0.00    -0.268 OA
ATOM      6  H   UNL A   1      30.582  25.633  27.413  1.00  0.00     0.163 HD
BRANCH   4   7
ATOM      7  C   UNL A   1      32.503  23.257  25.773  1.00  0.00     0.175 C 
BRANCH   7   8
ATOM      8  C   UNL A   1      31.982  21.746  25.859  1.00  0.00     0.076 C 
ATOM      9  C   UNL A   1      32.240  20.859  24.626  1.00  0.00     0.011 C 
ENDBRANCH   7   8
BRANCH   7  10
ATOM     10  C   UNL A   1      33.900  23.250  26.438  1.00  0.00     0.076 C 
ATOM     11  C   UNL A   1      34.048  22.264  27.607  1.00  0.00     0.011 C 
ENDBRANCH   7  10
BRANCH   7  12
ATOM     12  N   UNL A   1      32.521  23.533  24.311  1.00  0.00    -0.330 N 
ATOM     13  H   UNL A   1      32.418  22.613  23.885  1.00  0.00     0.347 HD
ATOM     14  H   UNL A   1      33.351  24.126  24.302  1.00  0.00     0.347 HD
BRANCH  12  15
ATOM     15  C   UNL A   1      31.668  24.397  23.497  1.00  0.00     0.301 C 
BRANCH  15  16
ATOM     16  C   UNL A   1      31.984  25.867  23.236  1.00  0.00     0.043 A 
ATOM     17  C   UNL A   1      31.034  26.841  22.885  1.00  0.00     0.026 A 
ATOM     18  C   UNL A   1      33.317  26.293  23.187  1.00  0.00     0.132 A 
ATOM     19  C   UNL A   1      31.337  28.199  22.704  1.00  0.00     0.040 A 
ATOM     20  C   UNL A   1      33.666  27.618  22.902  1.00  0.00     0.040 A 
ATOM     21  F   UNL A   1      34.308  25.409  23.369  1.00  0.00    -0.206 F 
ATOM     22  C   UNL A   1      32.676  28.579  22.697  1.00  0.00     0.017 A 
BRANCH  19  23
ATOM     23  C   UNL A   1      30.284  29.249  22.539  1.00  0.00     0.248 C 
ATOM     24  N   UNL A   1      30.437  30.201  21.566  1.00  0.00    -0.366 N 
ATOM     25  O   UNL A   1      29.272  29.247  23.230  1.00  0.00    -0.270 OA
ATOM     26  H   UNL A   1      31.248  30.207  21.007  1.00  0.00     0.159 HD
ATOM     27  H   UNL A   1      29.735  30.876  21.425  1.00  0.00     0.159 HD
ENDBRANCH  19  23
ENDBRANCH  15  16
ENDBRANCH  12  15
ENDBRANCH   7  12
ENDBRANCH   4   7
ENDBRANCH   2   3
ENDBRANCH   1   2
BRANCH   1  28
ATOM     28  C   UNL A   1      32.033  29.138  26.775  1.00  0.00     0.002 C 
BRANCH  28  29
ATOM     29  C   UNL A   1      31.728  30.324  25.850  1.00  0.00     0.002 C 
BRANCH  29  30
ATOM     30  C   UNL A   1      31.478  31.666  26.545  1.00  0.00     0.021 C 
BRANCH  30  31
ATOM     31  C   UNL A   1      32.729  32.362  27.078  1.00  0.00     0.116 C 
BRANCH  31  32
ATOM     32  N   UNL A   1      32.466  33.736  27.477  1.00  0.00    -0.352 N 
ATOM     33  C   UNL A   1      33.054  34.508  28.445  1.00  0.00     0.251 C 
ATOM     34  H   UNL A   1      31.750  34.184  26.970  1.00  0.00     0.163 HD
ATOM     35  O   UNL A   1      32.544  35.574  28.775  1.00  0.00    -0.269 OA
BRANCH  33  36
ATOM     36  C   UNL A   1      34.296  34.057  29.104  1.00  0.00     0.039 A 
ATOM     37  C   UNL A   1      34.203  33.317  30.287  1.00  0.00     0.014 A 
ATOM     38  C   UNL A   1      35.548  34.386  28.577  1.00  0.00     0.014 A 
ATOM     39  C   UNL A   1      35.363  32.846  30.902  1.00  0.00     0.010 A 
ATOM     40  C   UNL A   1      36.701  33.861  29.155  1.00  0.00     0.010 A 
ATOM     41  C   UNL A   1      36.620  33.082  30.320  1.00  0.00    -0.014 A 
BRANCH  41  42
ATOM     42  C   UNL A   1      37.855  32.496  30.893  1.00  0.00     0.031 A 
ATOM     43  C   UNL A   1      38.473  31.270  30.284  1.00  0.00     0.074 A 
ATOM     44  C   UNL A   1      38.375  33.025  32.017  1.00  0.00     0.049 A 
ATOM     45  N   UNL A   1      39.505  30.575  30.693  1.00  0.00    -0.248 NA
ATOM     46  C   UNL A   1      37.831  30.739  29.071  1.00  0.00     0.031 C 
ATOM     47  C   UNL A   1      37.841  34.187  32.730  1.00  0.00     0.029 A 
ATOM     48  N   UNL A   1      39.459  32.643  32.767  1.00  0.00    -0.354 N 
ATOM     49  C   UNL A   1      39.629  29.522  29.796  1.00  0.00     0.074 A 
ATOM     50  C   UNL A   1      38.537  29.640  28.853  1.00  0.00     0.031 C 
ATOM     51  C   UNL A   1      38.606  34.431  33.806  1.00  0.00     0.029 A 
ATOM     52  C   UNL A   1      39.656  33.420  33.883  1.00  0.00     0.049 A 
ATOM     53  H   UNL A   1      40.039  31.885  32.528  1.00  0.00     0.167 HD
ATOM     54  C   UNL A   1      40.575  28.553  29.752  1.00  0.00     0.031 A 
ATOM     55  C   UNL A   1      40.567  33.322  34.868  1.00  0.00     0.031 A 
ATOM     56  C   UNL A   1      41.654  28.433  30.696  1.00  0.00     0.049 A 
ATOM     57  C   UNL A   1      41.593  32.225  34.813  1.00  0.00     0.074 A 
ATOM     58  C   UNL A   1      42.695  27.520  30.707  1.00  0.00     0.029 A 
ATOM     59  N   UNL A   1      41.825  29.246  31.808  1.00  0.00    -0.354 N 
ATOM     60  N   UNL A   1      41.743  31.281  33.917  1.00  0.00    -0.248 NA
ATOM     61  C   UNL A   1      42.579  32.188  35.901  1.00  0.00     0.031 C 
ATOM     62  C   UNL A   1      43.462  27.745  31.855  1.00  0.00     0.029 A 
ATOM     63  C   UNL A   1      42.935  28.836  32.528  1.00  0.00     0.049 A 
ATOM     64  H   UNL A   1      41.244  30.004  32.048  1.00  0.00     0.167 HD
ATOM     65  C   UNL A   1      42.849  30.547  34.322  1.00  0.00     0.074 A 
ATOM     66  C   UNL A   1      43.343  31.169  35.533  1.00  0.00     0.031 C 
ATOM     67  C   UNL A   1      43.405  29.455  33.741  1.00  0.00     0.031 A 
BRANCH  54  68
ATOM     68  C   UNL A   1      40.468  27.537  28.648  1.00  0.00    -0.014 A 
ATOM     69  C   UNL A   1      41.112  27.730  27.415  1.00  0.00     0.009 A 
ATOM     70  C   UNL A   1      39.722  26.364  28.846  1.00  0.00     0.009 A 
ATOM     71  C   UNL A   1      40.974  26.792  26.388  1.00  0.00     0.001 A 
ATOM     72  C   UNL A   1      39.611  25.414  27.829  1.00  0.00     0.001 A 
ATOM     73  C   UNL A   1      40.226  25.635  26.598  1.00  0.00     0.000 A 
ENDBRANCH  54  68
BRANCH  55  74
ATOM     74  C   UNL A   1      40.543  34.294  35.991  1.00  0.00    -0.014 A 
ATOM     75  C   UNL A   1      41.284  35.484  35.923  1.00  0.00     0.009 A 
ATOM     76  C   UNL A   1      39.756  34.048  37.127  1.00  0.00     0.009 A 
ATOM     77  C   UNL A   1      41.251  36.397  36.977  1.00  0.00     0.001 A 
ATOM     78  C   UNL A   1      39.702  34.977  38.168  1.00  0.00     0.001 A 
ATOM     79  C   UNL A   1      40.456  36.148  38.096  1.00  0.00     0.000 A 
ENDBRANCH  55  74
BRANCH  67  80
ATOM     80  C   UNL A   1      44.621  28.871  34.403  1.00  0.00    -0.014 A 
ATOM     81  C   UNL A   1      44.509  27.844  35.353  1.00  0.00     0.009 A 
ATOM     82  C   UNL A   1      45.899  29.325  34.039  1.00  0.00     0.009 A 
ATOM     83  C   UNL A   1      45.652  27.304  35.947  1.00  0.00     0.001 A 
ATOM     84  C   UNL A   1      47.040  28.763  34.614  1.00  0.00     0.001 A 
ATOM     85  C   UNL A   1      46.915  27.760  35.573  1.00  0.00     0.000 A 
ENDBRANCH  67  80
ENDBRANCH  41  42
ENDBRANCH  33  36
ENDBRANCH  31  32
ENDBRANCH  30  31
ENDBRANCH  29  30
ENDBRANCH  28  29
ENDBRANCH   1  28
TORSDOF 19
ENDMDL
MODEL 2
REMARK VINA RESULT:     -10.2      1.494      3.351
REMARK SMILES CCC(CC)([NH2+]Cc1cc(C(N)=O)ccc1F)C(=O)NCCCCCCNC(=O)c1ccc(-c2c3nc(c(-c4ccccc4)c4ccc([nH]4)c(-c4ccccc4)c4nc(c(-c5ccccc5)c5ccc2[nH]5)C=C4)C=C3)cc1
REMARK SMILES IDX 22 1 21 2 20 3 18 4 19 5 3 7 2 8 1 9 4 10 5 11 6 12 7 15
REMARK SMILES IDX 8 16 9 17 16 18 10 19 15 20 17 21 14 22 11 23 12 24 13 25
REMARK SMILES IDX 23 28 24 29 25 30 26 31 27 32 28 33 29 35 30 36 31 37 77 38
REMARK SMILES IDX 32 39 76 40 33 41 34 42 35 43 70 44 36 45 75 46 69 47 71 48
REMARK SMILES IDX 37 49 74 50 68 51 67 52 38 54 60 55 45 56 59 57 46 58 49 59
REMARK SMILES IDX 58 60 72 61 47 62 48 63 57 65 73 66 50 67 39 68 40 69 44 70
REMARK SMILES IDX 41 71 43 72 42 73 61 74 62 75 66 76 63 77 65 78 64 79 51 80
REMARK SMILES IDX 52 81 56 82 53 83 55 84 54 85
REMARK H PARENT 20 6 6 13 6 14 12 26 12 27 27 34 71 53 49 64
REMARK Flexibility Score: inf
ROOT
ATOM      1  C   UNL A   1      32.125  28.357  27.335  1.00  0.00     0.021 C 
ENDROOT
BRANCH   1   2
ATOM      2  C   UNL A   1      32.940  27.342  26.525  1.00  0.00     0.116 C 
BRANCH   2   3
ATOM      3  N   UNL A   1      32.203  26.138  26.235  1.00  0.00    -0.351 N 
ATOM      4  C   UNL A   1      31.715  25.510  25.143  1.00  0.00     0.281 C 
ATOM      5  O   UNL A   1      31.143  24.453  25.467  1.00  0.00    -0.268 OA
ATOM      6  H   UNL A   1      31.998  25.638  27.057  1.00  0.00     0.163 HD
BRANCH   4   7
ATOM      7  C   UNL A   1      31.858  25.900  23.603  1.00  0.00     0.175 C 
BRANCH   7   8
ATOM      8  C   UNL A   1      33.404  26.280  23.446  1.00  0.00     0.076 C 
ATOM      9  C   UNL A   1      33.714  27.697  22.926  1.00  0.00     0.011 C 
ENDBRANCH   7   8
BRANCH   7  10
ATOM     10  C   UNL A   1      31.077  27.174  23.202  1.00  0.00     0.076 C 
ATOM     11  C   UNL A   1      29.628  27.224  23.709  1.00  0.00     0.011 C 
ENDBRANCH   7  10
BRANCH   7  12
ATOM     12  N   UNL A   1      31.686  24.757  22.666  1.00  0.00    -0.330 N 
ATOM     13  H   UNL A   1      31.416  25.197  21.787  1.00  0.00     0.347 HD
ATOM     14  H   UNL A   1      31.102  24.180  23.271  1.00  0.00     0.347 HD
BRANCH  12  15
ATOM     15  C   UNL A   1      32.625  23.710  22.263  1.00  0.00     0.301 C 
BRANCH  15  16
ATOM     16  C   UNL A   1      32.975  22.522  23.155  1.00  0.00     0.043 A 
ATOM     17  C   UNL A   1      34.017  22.507  24.097  1.00  0.00     0.026 A 
ATOM     18  C   UNL A   1      32.337  21.291  22.954  1.00  0.00     0.132 A 
ATOM     19  C   UNL A   1      34.287  21.423  24.946  1.00  0.00     0.040 A 
ATOM     20  C   UNL A   1      32.655  20.156  23.709  1.00  0.00     0.040 A 
ATOM     21  F   UNL A   1      31.424  21.162  21.982  1.00  0.00    -0.206 F 
ATOM     22  C   UNL A   1      33.603  20.231  24.729  1.00  0.00     0.017 A 
BRANCH  19  23
ATOM     23  C   UNL A   1      35.260  21.505  26.080  1.00  0.00     0.248 C 
ATOM     24  N   UNL A   1      34.821  21.921  27.309  1.00  0.00    -0.366 N 
ATOM     25  O   UNL A   1      36.430  21.168  25.937  1.00  0.00    -0.270 OA
ATOM     26  H   UNL A   1      33.882  22.192  27.430  1.00  0.00     0.159 HD
ATOM     27  H   UNL A   1      35.444  21.946  28.070  1.00  0.00     0.159 HD
ENDBRANCH  19  23
ENDBRANCH  15  16
ENDBRANCH  12  15
ENDBRANCH   7  12
ENDBRANCH   4   7
ENDBRANCH   2   3
ENDBRANCH   1   2
BRANCH   1  28
ATOM     28  C   UNL A   1      32.506  29.813  27.067  1.00  0.00     0.002 C 
BRANCH  28  29
ATOM     29  C   UNL A   1      31.516  30.590  26.190  1.00  0.00     0.002 C 
BRANCH  29  30
ATOM     30  C   UNL A   1      31.413  32.093  26.469  1.00  0.00     0.021 C 
BRANCH  30  31
ATOM     31  C   UNL A   1      32.584  32.689  27.248  1.00  0.00     0.116 C 
BRANCH  31  32
ATOM     32  N   UNL A   1      32.365  34.086  27.587  1.00  0.00    -0.352 N 
ATOM     33  C   UNL A   1      32.955  34.872  28.543  1.00  0.00     0.251 C 
ATOM     34  H   UNL A   1      31.683  34.542  27.041  1.00  0.00     0.163 HD
ATOM     35  O   UNL A   1      32.478  35.969  28.817  1.00  0.00    -0.269 OA
BRANCH  33  36
ATOM     36  C   UNL A   1      34.157  34.398  29.257  1.00  0.00     0.039 A 
ATOM     37  C   UNL A   1      34.011  33.841  30.532  1.00  0.00     0.014 A 
ATOM     38  C   UNL A   1      35.427  34.527  28.688  1.00  0.00     0.014 A 
ATOM     39  C   UNL A   1      35.130  33.350  31.205  1.00  0.00     0.010 A 
ATOM     40  C   UNL A   1      36.533  33.978  29.332  1.00  0.00     0.010 A 
ATOM     41  C   UNL A   1      36.394  33.380  30.594  1.00  0.00    -0.014 A 
BRANCH  41  42
ATOM     42  C   UNL A   1      37.576  32.762  31.242  1.00  0.00     0.031 A 
ATOM     43  C   UNL A   1      38.231  31.551  30.641  1.00  0.00     0.074 A 
ATOM     44  C   UNL A   1      38.009  33.246  32.422  1.00  0.00     0.049 A 
ATOM     45  N   UNL A   1      39.222  30.833  31.105  1.00  0.00    -0.248 NA
ATOM     46  C   UNL A   1      37.684  31.070  29.363  1.00  0.00     0.031 C 
ATOM     47  C   UNL A   1      37.429  34.388  33.132  1.00  0.00     0.029 A 
ATOM     48  N   UNL A   1      39.027  32.827  33.241  1.00  0.00    -0.354 N 
ATOM     49  C   UNL A   1      39.409  29.810  30.184  1.00  0.00     0.074 A 
ATOM     50  C   UNL A   1      38.397  29.972  29.162  1.00  0.00     0.031 C 
ATOM     51  C   UNL A   1      38.107  34.586  34.273  1.00  0.00     0.029 A 
ATOM     52  C   UNL A   1      39.140  33.563  34.396  1.00  0.00     0.049 A 
ATOM     53  H   UNL A   1      39.619  32.072  33.022  1.00  0.00     0.167 HD
ATOM     54  C   UNL A   1      40.349  28.834  30.181  1.00  0.00     0.031 A 
ATOM     55  C   UNL A   1      39.970  33.421  35.446  1.00  0.00     0.031 A 
ATOM     56  C   UNL A   1      41.349  28.670  31.202  1.00  0.00     0.049 A 
ATOM     57  C   UNL A   1      40.988  32.317  35.433  1.00  0.00     0.074 A 
ATOM     58  C   UNL A   1      42.379  27.747  31.262  1.00  0.00     0.029 A 
ATOM     59  N   UNL A   1      41.437  29.442  32.352  1.00  0.00    -0.354 N 
ATOM     60  N   UNL A   1      41.202  31.403  34.519  1.00  0.00    -0.248 NA
ATOM     61  C   UNL A   1      41.885  32.232  36.594  1.00  0.00     0.031 C 
ATOM     62  C   UNL A   1      43.054  27.924  32.475  1.00  0.00     0.029 A 
ATOM     63  C   UNL A   1      42.483  28.995  33.142  1.00  0.00     0.049 A 
ATOM     64  H   UNL A   1      40.844  30.197  32.572  1.00  0.00     0.167 HD
ATOM     65  C   UNL A   1      42.267  30.644  34.983  1.00  0.00     0.074 A 
ATOM     66  C   UNL A   1      42.668  31.218  36.252  1.00  0.00     0.031 C 
ATOM     67  C   UNL A   1      42.860  29.568  34.410  1.00  0.00     0.031 A 
BRANCH  54  68
ATOM     68  C   UNL A   1      40.322  27.858  29.035  1.00  0.00    -0.014 A 
ATOM     69  C   UNL A   1      41.013  28.118  27.840  1.00  0.00     0.009 A 
ATOM     70  C   UNL A   1      39.607  26.656  29.157  1.00  0.00     0.009 A 
ATOM     71  C   UNL A   1      40.950  27.217  26.775  1.00  0.00     0.001 A 
ATOM     72  C   UNL A   1      39.570  25.742  28.102  1.00  0.00     0.001 A 
ATOM     73  C   UNL A   1      40.231  26.030  26.908  1.00  0.00     0.000 A 
ENDBRANCH  54  68
BRANCH  55  74
ATOM     74  C   UNL A   1      39.863  34.354  36.597  1.00  0.00    -0.014 A 
ATOM     75  C   UNL A   1      40.536  35.585  36.585  1.00  0.00     0.009 A 
ATOM     76  C   UNL A   1      39.065  34.027  37.706  1.00  0.00     0.009 A 
ATOM     77  C   UNL A   1      40.426  36.461  37.666  1.00  0.00     0.001 A 
ATOM     78  C   UNL A   1      38.934  34.918  38.772  1.00  0.00     0.001 A 
ATOM     79  C   UNL A   1      39.621  36.131  38.756  1.00  0.00     0.000 A 
ENDBRANCH  55  74
BRANCH  67  80
ATOM     80  C   UNL A   1      44.015  28.948  35.145  1.00  0.00    -0.014 A 
ATOM     81  C   UNL A   1      43.816  27.917  36.076  1.00  0.00     0.009 A 
ATOM     82  C   UNL A   1      45.325  29.373  34.870  1.00  0.00     0.009 A 
ATOM     83  C   UNL A   1      44.904  27.345  36.739  1.00  0.00     0.001 A 
ATOM     84  C   UNL A   1      46.412  28.779  35.513  1.00  0.00     0.001 A 
ATOM     85  C   UNL A   1      46.200  27.772  36.452  1.00  0.00     0.000 A 
ENDBRANCH  67  80
ENDBRANCH  41  42
ENDBRANCH  33  36
ENDBRANCH  31  32
ENDBRANCH  30  31
ENDBRANCH  29  30
ENDBRANCH  28  29
ENDBRANCH   1  28
TORSDOF 19
ENDMDL
MODEL 3
REMARK VINA RESULT:     -10.1      4.106      9.107
REMARK SMILES CCC(CC)([NH2+]Cc1cc(C(N)=O)ccc1F)C(=O)NCCCCCCNC(=O)c1ccc(-c2c3nc(c(-c4ccccc4)c4ccc([nH]4)c(-c4ccccc4)c4nc(c(-c5ccccc5)c5ccc2[nH]5)C=C4)C=C3)cc1
REMARK SMILES IDX 22 1 21 2 20 3 18 4 19 5 3 7 2 8 1 9 4 10 5 11 6 12 7 15
REMARK SMILES IDX 8 16 9 17 16 18 10 19 15 20 17 21 14 22 11 23 12 24 13 25
REMARK SMILES IDX 23 28 24 29 25 30 26 31 27 32 28 33 29 35 30 36 31 37 77 38
REMARK SMILES IDX 32 39 76 40 33 41 34 42 35 43 70 44 36 45 75 46 69 47 71 48
REMARK SMILES IDX 37 49 74 50 68 51 67 52 38 54 60 55 45 56 59 57 46 58 49 59
REMARK SMILES IDX 58 60 72 61 47 62 48 63 57 65 73 66 50 67 39 68 40 69 44 70
REMARK SMILES IDX 41 71 43 72 42 73 61 74 62 75 66 76 63 77 65 78 64 79 51 80
REMARK SMILES IDX 52 81 56 82 53 83 55 84 54 85
REMARK H PARENT 20 6 6 13 6 14 12 26 12 27 27 34 71 53 49 64
REMARK Flexibility Score: inf
ROOT
ATOM      1  C   UNL A   1      36.269  23.299  23.835  1.00  0.00     0.021 C 
ENDROOT
BRANCH   1   2
ATOM      2  C   UNL A   1      34.917  22.681  23.460  1.00  0.00     0.116 C 
BRANCH   2   3
ATOM      3  N   UNL A   1      34.190  23.470  22.499  1.00  0.00    -0.351 N 
ATOM      4  C   UNL A   1      33.330  24.513  22.516  1.00  0.00     0.281 C 
ATOM      5  O   UNL A   1      32.998  24.822  21.357  1.00  0.00    -0.268 OA
ATOM      6  H   UNL A   1      34.367  23.166  21.580  1.00  0.00     0.163 HD
BRANCH   4   7
ATOM      7  C   UNL A   1      32.809  25.374  23.753  1.00  0.00     0.175 C 
BRANCH   7   8
ATOM      8  C   UNL A   1      32.250  26.714  23.079  1.00  0.00     0.076 C 
ATOM      9  C   UNL A   1      30.733  26.957  23.187  1.00  0.00     0.011 C 
ENDBRANCH   7   8
BRANCH   7  10
ATOM     10  C   UNL A   1      33.929  25.833  24.717  1.00  0.00     0.076 C 
ATOM     11  C   UNL A   1      33.466  26.789  25.827  1.00  0.00     0.011 C 
ENDBRANCH   7  10
BRANCH   7  12
ATOM     12  N   UNL A   1      31.612  24.805  24.431  1.00  0.00    -0.330 N 
ATOM     13  H   UNL A   1      30.827  25.271  23.977  1.00  0.00     0.347 HD
ATOM     14  H   UNL A   1      31.934  24.932  25.390  1.00  0.00     0.347 HD
BRANCH  12  15
ATOM     15  C   UNL A   1      31.169  23.418  24.568  1.00  0.00     0.301 C 
BRANCH  15  16
ATOM     16  C   UNL A   1      32.034  22.328  25.195  1.00  0.00     0.043 A 
ATOM     17  C   UNL A   1      32.119  21.005  24.730  1.00  0.00     0.026 A 
ATOM     18  C   UNL A   1      32.694  22.576  26.405  1.00  0.00     0.132 A 
ATOM     19  C   UNL A   1      32.964  20.034  25.287  1.00  0.00     0.040 A 
ATOM     20  C   UNL A   1      33.460  21.598  27.049  1.00  0.00     0.040 A 
ATOM     21  F   UNL A   1      32.563  23.767  27.007  1.00  0.00    -0.206 F 
ATOM     22  C   UNL A   1      33.625  20.339  26.473  1.00  0.00     0.017 A 
BRANCH  19  23
ATOM     23  C   UNL A   1      33.194  18.699  24.651  1.00  0.00     0.248 C 
ATOM     24  N   UNL A   1      32.121  17.890  24.388  1.00  0.00    -0.366 N 
ATOM     25  O   UNL A   1      34.319  18.338  24.324  1.00  0.00    -0.270 OA
ATOM     26  H   UNL A   1      31.215  18.176  24.647  1.00  0.00     0.159 HD
ATOM     27  H   UNL A   1      32.256  17.025  23.938  1.00  0.00     0.159 HD
ENDBRANCH  19  23
ENDBRANCH  15  16
ENDBRANCH  12  15
ENDBRANCH   7  12
ENDBRANCH   4   7
ENDBRANCH   2   3
ENDBRANCH   1   2
BRANCH   1  28
ATOM     28  C   UNL A   1      37.203  22.345  24.580  1.00  0.00     0.002 C 
BRANCH  28  29
ATOM     29  C   UNL A   1      36.738  20.883  24.616  1.00  0.00     0.002 C 
BRANCH  29  30
ATOM     30  C   UNL A   1      37.823  19.845  24.921  1.00  0.00     0.021 C 
BRANCH  30  31
ATOM     31  C   UNL A   1      38.941  20.328  25.842  1.00  0.00     0.116 C 
BRANCH  31  32
ATOM     32  N   UNL A   1      40.080  19.422  25.847  1.00  0.00    -0.352 N 
ATOM     33  C   UNL A   1      41.412  19.671  26.056  1.00  0.00     0.251 C 
ATOM     34  H   UNL A   1      39.858  18.479  25.672  1.00  0.00     0.163 HD
ATOM     35  O   UNL A   1      42.245  18.806  25.803  1.00  0.00    -0.269 OA
BRANCH  33  36
ATOM     36  C   UNL A   1      41.852  20.982  26.572  1.00  0.00     0.039 A 
ATOM     37  C   UNL A   1      42.338  21.935  25.671  1.00  0.00     0.014 A 
ATOM     38  C   UNL A   1      41.815  21.264  27.940  1.00  0.00     0.014 A 
ATOM     39  C   UNL A   1      42.721  23.194  26.134  1.00  0.00     0.010 A 
ATOM     40  C   UNL A   1      42.134  22.541  28.392  1.00  0.00     0.010 A 
ATOM     41  C   UNL A   1      42.585  23.520  27.494  1.00  0.00    -0.014 A 
BRANCH  41  42
ATOM     42  C   UNL A   1      42.877  24.887  27.989  1.00  0.00     0.031 A 
ATOM     43  C   UNL A   1      44.264  25.260  28.426  1.00  0.00     0.074 A 
ATOM     44  C   UNL A   1      41.867  25.768  28.124  1.00  0.00     0.049 A 
ATOM     45  N   UNL A   1      44.689  26.380  28.956  1.00  0.00    -0.248 NA
ATOM     46  C   UNL A   1      45.306  24.234  28.269  1.00  0.00     0.031 C 
ATOM     47  C   UNL A   1      40.468  25.511  27.778  1.00  0.00     0.029 A 
ATOM     48  N   UNL A   1      41.861  27.054  28.603  1.00  0.00    -0.354 N 
ATOM     49  C   UNL A   1      46.042  26.188  29.207  1.00  0.00     0.074 A 
ATOM     50  C   UNL A   1      46.354  24.829  28.818  1.00  0.00     0.031 C 
ATOM     51  C   UNL A   1      39.742  26.607  28.046  1.00  0.00     0.029 A 
ATOM     52  C   UNL A   1      40.613  27.628  28.619  1.00  0.00     0.049 A 
ATOM     53  H   UNL A   1      42.673  27.520  28.907  1.00  0.00     0.167 HD
ATOM     54  C   UNL A   1      46.946  27.068  29.701  1.00  0.00     0.031 A 
ATOM     55  C   UNL A   1      40.209  28.833  29.061  1.00  0.00     0.031 A 
ATOM     56  C   UNL A   1      46.631  28.415  30.095  1.00  0.00     0.049 A 
ATOM     57  C   UNL A   1      41.224  29.785  29.627  1.00  0.00     0.074 A 
ATOM     58  C   UNL A   1      47.485  29.402  30.555  1.00  0.00     0.029 A 
ATOM     59  N   UNL A   1      45.356  28.963  30.086  1.00  0.00    -0.354 N 
ATOM     60  N   UNL A   1      42.514  29.616  29.788  1.00  0.00    -0.248 NA
ATOM     61  C   UNL A   1      40.728  31.097  30.065  1.00  0.00     0.031 C 
ATOM     62  C   UNL A   1      46.719  30.527  30.879  1.00  0.00     0.029 A 
ATOM     63  C   UNL A   1      45.397  30.262  30.564  1.00  0.00     0.049 A 
ATOM     64  H   UNL A   1      44.543  28.496  29.784  1.00  0.00     0.167 HD
ATOM     65  C   UNL A   1      42.987  30.803  30.329  1.00  0.00     0.074 A 
ATOM     66  C   UNL A   1      41.849  31.691  30.450  1.00  0.00     0.031 C 
ATOM     67  C   UNL A   1      44.252  31.128  30.693  1.00  0.00     0.031 A 
BRANCH  54  68
ATOM     68  C   UNL A   1      48.363  26.584  29.855  1.00  0.00    -0.014 A 
ATOM     69  C   UNL A   1      48.786  25.929  31.023  1.00  0.00     0.009 A 
ATOM     70  C   UNL A   1      49.284  26.776  28.813  1.00  0.00     0.009 A 
ATOM     71  C   UNL A   1      50.114  25.517  31.162  1.00  0.00     0.001 A 
ATOM     72  C   UNL A   1      50.603  26.335  28.943  1.00  0.00     0.001 A 
ATOM     73  C   UNL A   1      51.019  25.718  30.122  1.00  0.00     0.000 A 
ENDBRANCH  54  68
BRANCH  55  74
ATOM     74  C   UNL A   1      38.772  29.200  28.982  1.00  0.00    -0.014 A 
ATOM     75  C   UNL A   1      38.225  29.699  27.790  1.00  0.00     0.009 A 
ATOM     76  C   UNL A   1      37.933  29.030  30.096  1.00  0.00     0.009 A 
ATOM     77  C   UNL A   1      36.872  30.035  27.720  1.00  0.00     0.001 A 
ATOM     78  C   UNL A   1      36.574  29.339  30.013  1.00  0.00     0.001 A 
ATOM     79  C   UNL A   1      36.046  29.849  28.829  1.00  0.00     0.000 A 
ENDBRANCH  55  74
BRANCH  67  80
ATOM     80  C   UNL A   1      44.473  32.509  31.245  1.00  0.00    -0.014 A 
ATOM     81  C   UNL A   1      44.412  32.758  32.625  1.00  0.00     0.009 A 
ATOM     82  C   UNL A   1      44.790  33.565  30.375  1.00  0.00     0.009 A 
ATOM     83  C   UNL A   1      44.634  34.046  33.119  1.00  0.00     0.001 A 
ATOM     84  C   UNL A   1      45.041  34.843  30.876  1.00  0.00     0.001 A 
ATOM     85  C   UNL A   1      44.954  35.084  32.246  1.00  0.00     0.000 A 
ENDBRANCH  67  80
ENDBRANCH  41  42
ENDBRANCH  33  36
ENDBRANCH  31  32
ENDBRANCH  30  31
ENDBRANCH  29  30
ENDBRANCH  28  29
ENDBRANCH   1  28
TORSDOF 19
ENDMDL
