MODEL 1
REMARK VINA RESULT:     -12.1      0.000      0.000
REMARK SMILES Cc1ccc(S(=O)(=O)n2cc(C(=O)C(=O)NCC(=O)NCC(=O)NCCCCCCNC(=O)c3ccc(-c4c5nc(c(-c6ccccc6)c6ccc([nH]6)c(-c6ccccc6)c6nc(c(-c7ccccc7)c7ccc4[nH]7)C=C6)C=C5)cc3)c3ccccc32)cc1
REMARK SMILES IDX 25 1 24 2 22 3 23 4 21 6 20 7 18 8 19 9 17 11 16 12 14 13
REMARK SMILES IDX 15 14 12 16 13 17 11 18 9 19 10 20 87 21 82 22 86 23 83 24
REMARK SMILES IDX 85 25 84 26 6 27 7 28 8 29 5 30 1 31 2 32 3 33 89 34 4 35
REMARK SMILES IDX 88 36 26 37 27 38 28 39 29 40 30 41 31 42 32 43 33 45 34 46
REMARK SMILES IDX 35 47 81 48 36 49 80 50 37 51 38 52 39 53 74 54 40 55 79 56
REMARK SMILES IDX 73 57 75 58 41 59 78 60 72 61 71 62 42 64 64 65 49 66 63 67
REMARK SMILES IDX 50 68 53 69 62 70 76 71 51 72 52 73 61 75 77 76 54 77 43 78
REMARK SMILES IDX 44 79 48 80 45 81 47 82 46 83 65 84 66 85 70 86 67 87 69 88
REMARK SMILES IDX 68 89 55 90 56 91 60 92 57 93 59 94 58 95
REMARK H PARENT 24 5 20 10 16 15 31 44 75 63 53 74
REMARK Flexibility Score: inf
ROOT
ATOM      1  C   UNL A   1      31.075  26.592  25.394  1.00  0.00     0.116 C 
ENDROOT
BRANCH   1   2
ATOM      2  N   UNL A   1      32.013  26.011  24.467  1.00  0.00    -0.355 N 
ATOM      3  C   UNL A   1      32.648  24.803  24.526  1.00  0.00     0.239 C 
ATOM      4  O   UNL A   1      33.212  24.405  23.504  1.00  0.00    -0.273 OA
ATOM      5  H   UNL A   1      32.226  26.561  23.679  1.00  0.00     0.163 HD
BRANCH   3   6
ATOM      6  C   UNL A   1      32.519  23.884  25.756  1.00  0.00     0.216 C 
BRANCH   6   7
ATOM      7  N   UNL A   1      31.993  22.556  25.481  1.00  0.00    -0.346 N 
ATOM      8  C   UNL A   1      32.631  21.380  25.226  1.00  0.00     0.239 C 
ATOM      9  O   UNL A   1      31.935  20.399  24.951  1.00  0.00    -0.273 OA
ATOM     10  H   UNL A   1      31.010  22.498  25.479  1.00  0.00     0.164 HD
BRANCH   8  11
ATOM     11  C   UNL A   1      34.163  21.253  25.300  1.00  0.00     0.216 C 
BRANCH  11  12
ATOM     12  N   UNL A   1      34.886  21.671  24.096  1.00  0.00    -0.340 N 
ATOM     13  C   UNL A   1      35.940  22.548  23.914  1.00  0.00     0.292 C 
ATOM     14  O   UNL A   1      36.321  22.778  22.770  1.00  0.00    -0.265 OA
ATOM     15  H   UNL A   1      34.564  21.252  23.266  1.00  0.00     0.164 HD
BRANCH  13  16
ATOM     16  C   UNL A   1      36.623  23.219  25.124  1.00  0.00     0.252 C 
ATOM     17  O   UNL A   1      36.059  24.191  25.617  1.00  0.00    -0.283 OA
BRANCH  16  18
ATOM     18  C   UNL A   1      37.891  22.752  25.700  1.00  0.00     0.054 A 
ATOM     19  N   UNL A   1      39.672  21.541  26.298  1.00  0.00    -0.240 N 
ATOM     20  C   UNL A   1      38.521  21.529  25.544  1.00  0.00     0.117 A 
ATOM     21  C   UNL A   1      39.834  22.747  26.946  1.00  0.00     0.065 A 
ATOM     22  C   UNL A   1      38.725  23.523  26.587  1.00  0.00     0.012 A 
ATOM     23  C   UNL A   1      40.816  23.227  27.833  1.00  0.00     0.028 A 
ATOM     24  C   UNL A   1      38.610  24.823  27.132  1.00  0.00     0.011 A 
ATOM     25  C   UNL A   1      40.655  24.507  28.374  1.00  0.00     0.002 A 
ATOM     26  C   UNL A   1      39.570  25.298  28.026  1.00  0.00     0.001 A 
BRANCH  19  27
ATOM     27  S   UNL A   1      40.700  20.194  26.490  1.00  0.00     0.268 S 
ATOM     28  O   UNL A   1      40.191  19.193  25.576  1.00  0.00    -0.201 OA
ATOM     29  O   UNL A   1      40.778  19.961  27.924  1.00  0.00    -0.201 OA
BRANCH  27  30
ATOM     30  C   UNL A   1      42.323  20.656  25.941  1.00  0.00     0.088 A 
ATOM     31  C   UNL A   1      46.229  21.522  24.353  1.00  0.00     0.044 C 
ATOM     32  C   UNL A   1      44.873  21.227  24.925  1.00  0.00    -0.051 A 
ATOM     33  C   UNL A   1      44.489  19.902  25.167  1.00  0.00     0.005 A 
ATOM     34  C   UNL A   1      43.978  22.262  25.223  1.00  0.00     0.005 A 
ATOM     35  C   UNL A   1      43.218  19.616  25.667  1.00  0.00     0.022 A 
ATOM     36  C   UNL A   1      42.710  21.983  25.742  1.00  0.00     0.022 A 
ENDBRANCH  27  30
ENDBRANCH  19  27
ENDBRANCH  16  18
ENDBRANCH  13  16
ENDBRANCH  11  12
ENDBRANCH   8  11
ENDBRANCH   6   7
ENDBRANCH   3   6
ENDBRANCH   1   2
BRANCH   1  37
ATOM     37  C   UNL A   1      31.734  27.395  26.507  1.00  0.00     0.021 C 
BRANCH  37  38
ATOM     38  C   UNL A   1      33.261  27.348  26.498  1.00  0.00     0.002 C 
BRANCH  38  39
ATOM     39  C   UNL A   1      33.972  28.706  26.395  1.00  0.00     0.002 C 
BRANCH  39  40
ATOM     40  C   UNL A   1      34.954  29.037  27.518  1.00  0.00     0.021 C 
BRANCH  40  41
ATOM     41  C   UNL A   1      35.679  30.358  27.340  1.00  0.00     0.116 C 
BRANCH  41  42
ATOM     42  N   UNL A   1      34.784  31.504  27.294  1.00  0.00    -0.352 N 
ATOM     43  C   UNL A   1      34.586  32.531  28.197  1.00  0.00     0.251 C 
ATOM     44  H   UNL A   1      34.226  31.558  26.485  1.00  0.00     0.163 HD
ATOM     45  O   UNL A   1      33.669  33.327  28.009  1.00  0.00    -0.269 OA
BRANCH  43  46
ATOM     46  C   UNL A   1      35.593  32.811  29.255  1.00  0.00     0.039 A 
ATOM     47  C   UNL A   1      36.645  33.656  28.871  1.00  0.00     0.014 A 
ATOM     48  C   UNL A   1      35.754  31.943  30.326  1.00  0.00     0.014 A 
ATOM     49  C   UNL A   1      37.931  33.354  29.285  1.00  0.00     0.010 A 
ATOM     50  C   UNL A   1      37.027  31.532  30.614  1.00  0.00     0.010 A 
ATOM     51  C   UNL A   1      38.104  32.195  30.028  1.00  0.00    -0.014 A 
BRANCH  51  52
ATOM     52  C   UNL A   1      39.382  31.586  30.298  1.00  0.00     0.031 A 
ATOM     53  C   UNL A   1      39.698  30.372  29.543  1.00  0.00     0.074 A 
ATOM     54  C   UNL A   1      40.241  32.224  31.120  1.00  0.00     0.049 A 
ATOM     55  N   UNL A   1      40.458  29.432  29.970  1.00  0.00    -0.248 NA
ATOM     56  C   UNL A   1      39.085  30.076  28.246  1.00  0.00     0.031 C 
ATOM     57  C   UNL A   1      41.665  31.989  31.318  1.00  0.00     0.029 A 
ATOM     58  N   UNL A   1      39.920  33.151  32.102  1.00  0.00    -0.354 N 
ATOM     59  C   UNL A   1      40.716  28.619  28.890  1.00  0.00     0.074 A 
ATOM     60  C   UNL A   1      39.726  28.957  27.900  1.00  0.00     0.031 C 
ATOM     61  C   UNL A   1      42.042  32.547  32.485  1.00  0.00     0.029 A 
ATOM     62  C   UNL A   1      40.838  33.026  33.151  1.00  0.00     0.049 A 
ATOM     63  H   UNL A   1      39.171  33.788  32.066  1.00  0.00     0.167 HD
ATOM     64  C   UNL A   1      41.872  27.906  28.877  1.00  0.00     0.031 A 
ATOM     65  C   UNL A   1      40.409  32.594  34.378  1.00  0.00     0.031 A 
ATOM     66  C   UNL A   1      42.622  28.143  30.108  1.00  0.00     0.049 A 
ATOM     67  C   UNL A   1      40.944  31.217  34.709  1.00  0.00     0.074 A 
ATOM     68  C   UNL A   1      43.647  29.029  30.398  1.00  0.00     0.029 A 
ATOM     69  N   UNL A   1      42.080  27.746  31.322  1.00  0.00    -0.354 N 
ATOM     70  N   UNL A   1      41.298  30.337  33.811  1.00  0.00    -0.248 NA
ATOM     71  C   UNL A   1      41.145  30.735  36.073  1.00  0.00     0.031 C 
ATOM     72  C   UNL A   1      43.672  29.215  31.804  1.00  0.00     0.029 A 
ATOM     73  C   UNL A   1      42.686  28.421  32.364  1.00  0.00     0.049 A 
ATOM     74  H   UNL A   1      41.365  27.078  31.427  1.00  0.00     0.167 HD
ATOM     75  C   UNL A   1      41.797  29.224  34.435  1.00  0.00     0.074 A 
ATOM     76  C   UNL A   1      41.666  29.515  35.851  1.00  0.00     0.031 C 
ATOM     77  C   UNL A   1      42.292  28.157  33.740  1.00  0.00     0.031 A 
BRANCH  64  78
ATOM     78  C   UNL A   1      42.483  27.290  27.646  1.00  0.00    -0.014 A 
ATOM     79  C   UNL A   1      43.566  26.405  27.802  1.00  0.00     0.009 A 
ATOM     80  C   UNL A   1      42.085  27.551  26.324  1.00  0.00     0.009 A 
ATOM     81  C   UNL A   1      44.253  25.864  26.710  1.00  0.00     0.001 A 
ATOM     82  C   UNL A   1      42.782  27.032  25.223  1.00  0.00     0.001 A 
ATOM     83  C   UNL A   1      43.870  26.191  25.417  1.00  0.00     0.000 A 
ENDBRANCH  64  78
BRANCH  65  84
ATOM     84  C   UNL A   1      39.026  33.074  34.698  1.00  0.00    -0.014 A 
ATOM     85  C   UNL A   1      38.782  34.462  34.614  1.00  0.00     0.009 A 
ATOM     86  C   UNL A   1      37.934  32.197  34.615  1.00  0.00     0.009 A 
ATOM     87  C   UNL A   1      37.515  34.944  34.269  1.00  0.00     0.001 A 
ATOM     88  C   UNL A   1      36.662  32.692  34.295  1.00  0.00     0.001 A 
ATOM     89  C   UNL A   1      36.465  34.054  34.067  1.00  0.00     0.000 A 
ENDBRANCH  65  84
BRANCH  77  90
ATOM     90  C   UNL A   1      42.544  26.775  34.294  1.00  0.00    -0.014 A 
ATOM     91  C   UNL A   1      41.633  26.065  35.084  1.00  0.00     0.009 A 
ATOM     92  C   UNL A   1      43.704  26.072  33.889  1.00  0.00     0.009 A 
ATOM     93  C   UNL A   1      41.892  24.750  35.492  1.00  0.00     0.001 A 
ATOM     94  C   UNL A   1      43.934  24.741  34.237  1.00  0.00     0.001 A 
ATOM     95  C   UNL A   1      43.034  24.085  35.059  1.00  0.00     0.000 A 
ENDBRANCH  77  90
ENDBRANCH  51  52
ENDBRANCH  43  46
ENDBRANCH  41  42
ENDBRANCH  40  41
ENDBRANCH  39  40
ENDBRANCH  38  39
ENDBRANCH  37  38
ENDBRANCH   1  37
TORSDOF 20
ENDMDL
MODEL 2
REMARK VINA RESULT:     -11.6      2.088      3.691
REMARK SMILES Cc1ccc(S(=O)(=O)n2cc(C(=O)C(=O)NCC(=O)NCC(=O)NCCCCCCNC(=O)c3ccc(-c4c5nc(c(-c6ccccc6)c6ccc([nH]6)c(-c6ccccc6)c6nc(c(-c7ccccc7)c7ccc4[nH]7)C=C6)C=C5)cc3)c3ccccc32)cc1
REMARK SMILES IDX 25 1 24 2 22 3 23 4 21 6 20 7 18 8 19 9 17 11 16 12 14 13
REMARK SMILES IDX 15 14 12 16 13 17 11 18 9 19 10 20 87 21 82 22 86 23 83 24
REMARK SMILES IDX 85 25 84 26 6 27 7 28 8 29 5 30 1 31 2 32 3 33 89 34 4 35
REMARK SMILES IDX 88 36 26 37 27 38 28 39 29 40 30 41 31 42 32 43 33 45 34 46
REMARK SMILES IDX 35 47 81 48 36 49 80 50 37 51 38 52 39 53 74 54 40 55 79 56
REMARK SMILES IDX 73 57 75 58 41 59 78 60 72 61 71 62 42 64 64 65 49 66 63 67
REMARK SMILES IDX 50 68 53 69 62 70 76 71 51 72 52 73 61 75 77 76 54 77 43 78
REMARK SMILES IDX 44 79 48 80 45 81 47 82 46 83 65 84 66 85 70 86 67 87 69 88
REMARK SMILES IDX 68 89 55 90 56 91 60 92 57 93 59 94 58 95
REMARK H PARENT 24 5 20 10 16 15 31 44 75 63 53 74
REMARK Flexibility Score: inf
ROOT
ATOM      1  C   UNL A   1      32.237  27.139  26.830  1.00  0.00     0.116 C 
ENDROOT
BRANCH   1   2
ATOM      2  N   UNL A   1      30.895  26.648  27.018  1.00  0.00    -0.355 N 
ATOM      3  C   UNL A   1      30.039  26.106  26.102  1.00  0.00     0.239 C 
ATOM      4  O   UNL A   1      29.039  25.525  26.531  1.00  0.00    -0.273 OA
ATOM      5  H   UNL A   1      30.546  26.711  27.937  1.00  0.00     0.163 HD
BRANCH   3   6
ATOM      6  C   UNL A   1      30.389  26.057  24.603  1.00  0.00     0.216 C 
BRANCH   6   7
ATOM      7  N   UNL A   1      30.497  27.354  23.953  1.00  0.00    -0.346 N 
ATOM      8  C   UNL A   1      31.560  27.970  23.364  1.00  0.00     0.239 C 
ATOM      9  O   UNL A   1      31.396  29.119  22.944  1.00  0.00    -0.273 OA
ATOM     10  H   UNL A   1      29.662  27.875  23.936  1.00  0.00     0.164 HD
BRANCH   8  11
ATOM     11  C   UNL A   1      32.918  27.264  23.194  1.00  0.00     0.216 C 
BRANCH  11  12
ATOM     12  N   UNL A   1      33.084  26.515  21.946  1.00  0.00    -0.340 N 
ATOM     13  C   UNL A   1      33.005  25.164  21.667  1.00  0.00     0.292 C 
ATOM     14  O   UNL A   1      33.260  24.783  20.528  1.00  0.00    -0.265 OA
ATOM     15  H   UNL A   1      33.289  27.076  21.163  1.00  0.00     0.164 HD
BRANCH  13  16
ATOM     16  C   UNL A   1      32.601  24.156  22.763  1.00  0.00     0.252 C 
ATOM     17  O   UNL A   1      31.406  23.900  22.876  1.00  0.00    -0.283 OA
BRANCH  16  18
ATOM     18  C   UNL A   1      33.566  23.503  23.658  1.00  0.00     0.054 A 
ATOM     19  N   UNL A   1      35.351  22.473  24.521  1.00  0.00    -0.240 N 
ATOM     20  C   UNL A   1      34.837  23.033  23.375  1.00  0.00     0.117 A 
ATOM     21  C   UNL A   1      34.460  22.568  25.569  1.00  0.00     0.065 A 
ATOM     22  C   UNL A   1      33.330  23.210  25.050  1.00  0.00     0.012 A 
ATOM     23  C   UNL A   1      34.512  22.131  26.906  1.00  0.00     0.028 A 
ATOM     24  C   UNL A   1      32.225  23.424  25.906  1.00  0.00     0.011 A 
ATOM     25  C   UNL A   1      33.391  22.335  27.717  1.00  0.00     0.002 A 
ATOM     26  C   UNL A   1      32.262  22.977  27.227  1.00  0.00     0.001 A 
BRANCH  19  27
ATOM     27  S   UNL A   1      36.852  21.667  24.598  1.00  0.00     0.268 S 
ATOM     28  O   UNL A   1      37.408  21.769  23.266  1.00  0.00    -0.201 OA
ATOM     29  O   UNL A   1      36.577  20.383  25.223  1.00  0.00    -0.201 OA
BRANCH  27  30
ATOM     30  C   UNL A   1      37.909  22.574  25.699  1.00  0.00     0.088 A 
ATOM     31  C   UNL A   1      40.755  24.652  28.170  1.00  0.00     0.044 C 
ATOM     32  C   UNL A   1      39.750  23.927  27.324  1.00  0.00    -0.051 A 
ATOM     33  C   UNL A   1      39.964  22.587  26.979  1.00  0.00     0.005 A 
ATOM     34  C   UNL A   1      38.593  24.572  26.870  1.00  0.00     0.005 A 
ATOM     35  C   UNL A   1      39.052  21.913  26.165  1.00  0.00     0.022 A 
ATOM     36  C   UNL A   1      37.665  23.898  26.070  1.00  0.00     0.022 A 
ENDBRANCH  27  30
ENDBRANCH  19  27
ENDBRANCH  16  18
ENDBRANCH  13  16
ENDBRANCH  11  12
ENDBRANCH   8  11
ENDBRANCH   6   7
ENDBRANCH   3   6
ENDBRANCH   1   2
BRANCH   1  37
ATOM     37  C   UNL A   1      32.464  28.531  27.402  1.00  0.00     0.021 C 
BRANCH  37  38
ATOM     38  C   UNL A   1      31.759  29.650  26.636  1.00  0.00     0.002 C 
BRANCH  38  39
ATOM     39  C   UNL A   1      32.460  31.017  26.653  1.00  0.00     0.002 C 
BRANCH  39  40
ATOM     40  C   UNL A   1      31.676  32.166  27.286  1.00  0.00     0.021 C 
BRANCH  40  41
ATOM     41  C   UNL A   1      32.268  33.538  27.027  1.00  0.00     0.116 C 
BRANCH  41  42
ATOM     42  N   UNL A   1      32.836  34.155  28.217  1.00  0.00    -0.352 N 
ATOM     43  C   UNL A   1      33.853  33.736  29.052  1.00  0.00     0.251 C 
ATOM     44  H   UNL A   1      32.427  35.014  28.469  1.00  0.00     0.163 HD
ATOM     45  O   UNL A   1      34.075  34.360  30.088  1.00  0.00    -0.269 OA
BRANCH  43  46
ATOM     46  C   UNL A   1      34.813  32.691  28.608  1.00  0.00     0.039 A 
ATOM     47  C   UNL A   1      34.824  31.521  29.381  1.00  0.00     0.014 A 
ATOM     48  C   UNL A   1      35.918  33.026  27.839  1.00  0.00     0.014 A 
ATOM     49  C   UNL A   1      36.039  30.930  29.684  1.00  0.00     0.010 A 
ATOM     50  C   UNL A   1      37.136  32.560  28.254  1.00  0.00     0.010 A 
ATOM     51  C   UNL A   1      37.186  31.567  29.231  1.00  0.00    -0.014 A 
BRANCH  51  52
ATOM     52  C   UNL A   1      38.520  31.258  29.682  1.00  0.00     0.031 A 
ATOM     53  C   UNL A   1      39.172  30.111  29.047  1.00  0.00     0.074 A 
ATOM     54  C   UNL A   1      39.118  32.096  30.554  1.00  0.00     0.049 A 
ATOM     55  N   UNL A   1      40.052  29.373  29.617  1.00  0.00    -0.248 NA
ATOM     56  C   UNL A   1      38.801  29.641  27.711  1.00  0.00     0.031 C 
ATOM     57  C   UNL A   1      40.523  32.179  30.927  1.00  0.00     0.029 A 
ATOM     58  N   UNL A   1      38.490  32.969  31.432  1.00  0.00    -0.354 N 
ATOM     59  C   UNL A   1      40.606  28.593  28.628  1.00  0.00     0.074 A 
ATOM     60  C   UNL A   1      39.698  28.673  27.512  1.00  0.00     0.031 C 
ATOM     61  C   UNL A   1      40.627  32.850  32.091  1.00  0.00     0.029 A 
ATOM     62  C   UNL A   1      39.276  33.085  32.584  1.00  0.00     0.049 A 
ATOM     63  H   UNL A   1      37.636  33.430  31.271  1.00  0.00     0.167 HD
ATOM     64  C   UNL A   1      41.878  28.145  28.792  1.00  0.00     0.031 A 
ATOM     65  C   UNL A   1      38.797  32.619  33.780  1.00  0.00     0.031 A 
ATOM     66  C   UNL A   1      42.403  28.585  30.082  1.00  0.00     0.049 A 
ATOM     67  C   UNL A   1      39.562  31.402  34.256  1.00  0.00     0.074 A 
ATOM     68  C   UNL A   1      43.177  29.680  30.429  1.00  0.00     0.029 A 
ATOM     69  N   UNL A   1      41.809  28.128  31.250  1.00  0.00    -0.354 N 
ATOM     70  N   UNL A   1      40.200  30.585  33.463  1.00  0.00    -0.248 NA
ATOM     71  C   UNL A   1      39.687  31.027  35.663  1.00  0.00     0.031 C 
ATOM     72  C   UNL A   1      42.987  29.921  31.814  1.00  0.00     0.029 A 
ATOM     73  C   UNL A   1      42.126  28.956  32.308  1.00  0.00     0.049 A 
ATOM     74  H   UNL A   1      41.241  27.326  31.315  1.00  0.00     0.167 HD
ATOM     75  C   UNL A   1      40.838  29.629  34.209  1.00  0.00     0.074 A 
ATOM     76  C   UNL A   1      40.474  29.940  35.579  1.00  0.00     0.031 C 
ATOM     77  C   UNL A   1      41.627  28.668  33.645  1.00  0.00     0.031 A 
BRANCH  64  78
ATOM     78  C   UNL A   1      42.752  27.627  27.680  1.00  0.00    -0.014 A 
ATOM     79  C   UNL A   1      42.469  28.023  26.360  1.00  0.00     0.009 A 
ATOM     80  C   UNL A   1      43.827  26.736  27.840  1.00  0.00     0.009 A 
ATOM     81  C   UNL A   1      43.168  27.515  25.261  1.00  0.00     0.001 A 
ATOM     82  C   UNL A   1      44.519  26.204  26.742  1.00  0.00     0.001 A 
ATOM     83  C   UNL A   1      44.186  26.590  25.451  1.00  0.00     0.000 A 
ENDBRANCH  64  78
BRANCH  65  84
ATOM     84  C   UNL A   1      37.316  32.803  33.909  1.00  0.00    -0.014 A 
ATOM     85  C   UNL A   1      36.855  34.031  34.429  1.00  0.00     0.009 A 
ATOM     86  C   UNL A   1      36.435  32.032  33.136  1.00  0.00     0.009 A 
ATOM     87  C   UNL A   1      35.620  34.557  34.032  1.00  0.00     0.001 A 
ATOM     88  C   UNL A   1      35.189  32.554  32.764  1.00  0.00     0.001 A 
ATOM     89  C   UNL A   1      34.807  33.835  33.163  1.00  0.00     0.000 A 
ENDBRANCH  65  84
BRANCH  77  90
ATOM     90  C   UNL A   1      42.091  27.394  34.312  1.00  0.00    -0.014 A 
ATOM     91  C   UNL A   1      41.239  26.481  34.942  1.00  0.00     0.009 A 
ATOM     92  C   UNL A   1      43.445  27.003  34.182  1.00  0.00     0.009 A 
ATOM     93  C   UNL A   1      41.722  25.273  35.464  1.00  0.00     0.001 A 
ATOM     94  C   UNL A   1      43.917  25.773  34.639  1.00  0.00     0.001 A 
ATOM     95  C   UNL A   1      43.056  24.914  35.301  1.00  0.00     0.000 A 
ENDBRANCH  77  90
ENDBRANCH  51  52
ENDBRANCH  43  46
ENDBRANCH  41  42
ENDBRANCH  40  41
ENDBRANCH  39  40
ENDBRANCH  38  39
ENDBRANCH  37  38
ENDBRANCH   1  37
TORSDOF 20
ENDMDL
MODEL 3
REMARK VINA RESULT:     -11.5      2.659      6.024
REMARK SMILES Cc1ccc(S(=O)(=O)n2cc(C(=O)C(=O)NCC(=O)NCC(=O)NCCCCCCNC(=O)c3ccc(-c4c5nc(c(-c6ccccc6)c6ccc([nH]6)c(-c6ccccc6)c6nc(c(-c7ccccc7)c7ccc4[nH]7)C=C6)C=C5)cc3)c3ccccc32)cc1
REMARK SMILES IDX 25 1 24 2 22 3 23 4 21 6 20 7 18 8 19 9 17 11 16 12 14 13
REMARK SMILES IDX 15 14 12 16 13 17 11 18 9 19 10 20 87 21 82 22 86 23 83 24
REMARK SMILES IDX 85 25 84 26 6 27 7 28 8 29 5 30 1 31 2 32 3 33 89 34 4 35
REMARK SMILES IDX 88 36 26 37 27 38 28 39 29 40 30 41 31 42 32 43 33 45 34 46
REMARK SMILES IDX 35 47 81 48 36 49 80 50 37 51 38 52 39 53 74 54 40 55 79 56
REMARK SMILES IDX 73 57 75 58 41 59 78 60 72 61 71 62 42 64 64 65 49 66 63 67
REMARK SMILES IDX 50 68 53 69 62 70 76 71 51 72 52 73 61 75 77 76 54 77 43 78
REMARK SMILES IDX 44 79 48 80 45 81 47 82 46 83 65 84 66 85 70 86 67 87 69 88
REMARK SMILES IDX 68 89 55 90 56 91 60 92 57 93 59 94 58 95
REMARK H PARENT 24 5 20 10 16 15 31 44 75 63 53 74
REMARK Flexibility Score: inf
ROOT
ATOM      1  C   UNL A   1      33.936  26.713  25.807  1.00  0.00     0.116 C 
ENDROOT
BRANCH   1   2
ATOM      2  N   UNL A   1      33.756  25.390  26.351  1.00  0.00    -0.355 N 
ATOM      3  C   UNL A   1      34.479  24.256  26.114  1.00  0.00     0.239 C 
ATOM      4  O   UNL A   1      34.305  23.301  26.876  1.00  0.00    -0.273 OA
ATOM      5  H   UNL A   1      33.008  25.291  26.983  1.00  0.00     0.163 HD
BRANCH   3   6
ATOM      6  C   UNL A   1      35.598  24.219  25.056  1.00  0.00     0.216 C 
BRANCH   6   7
ATOM      7  N   UNL A   1      36.735  23.376  25.391  1.00  0.00    -0.346 N 
ATOM      8  C   UNL A   1      36.931  22.037  25.228  1.00  0.00     0.239 C 
ATOM      9  O   UNL A   1      37.976  21.553  25.670  1.00  0.00    -0.273 OA
ATOM     10  H   UNL A   1      37.490  23.852  25.806  1.00  0.00     0.164 HD
BRANCH   8  11
ATOM     11  C   UNL A   1      35.909  21.149  24.496  1.00  0.00     0.216 C 
BRANCH  11  12
ATOM     12  N   UNL A   1      34.901  20.517  25.351  1.00  0.00    -0.340 N 
ATOM     13  C   UNL A   1      33.531  20.385  25.215  1.00  0.00     0.292 C 
ATOM     14  O   UNL A   1      32.898  19.861  26.127  1.00  0.00    -0.265 OA
ATOM     15  H   UNL A   1      35.264  20.112  26.172  1.00  0.00     0.164 HD
BRANCH  13  16
ATOM     16  C   UNL A   1      32.815  20.883  23.943  1.00  0.00     0.252 C 
ATOM     17  O   UNL A   1      32.527  20.042  23.096  1.00  0.00    -0.283 OA
BRANCH  16  18
ATOM     18  C   UNL A   1      32.470  22.291  23.706  1.00  0.00     0.054 A 
ATOM     19  N   UNL A   1      32.314  24.365  22.890  1.00  0.00    -0.240 N 
ATOM     20  C   UNL A   1      32.868  23.125  22.675  1.00  0.00     0.117 A 
ATOM     21  C   UNL A   1      31.544  24.380  24.034  1.00  0.00     0.065 A 
ATOM     22  C   UNL A   1      31.629  23.087  24.565  1.00  0.00     0.012 A 
ATOM     23  C   UNL A   1      30.810  25.395  24.676  1.00  0.00     0.028 A 
ATOM     24  C   UNL A   1      30.948  22.811  25.773  1.00  0.00     0.011 A 
ATOM     25  C   UNL A   1      30.172  25.093  25.882  1.00  0.00     0.002 A 
ATOM     26  C   UNL A   1      30.234  23.817  26.424  1.00  0.00     0.001 A 
BRANCH  19  27
ATOM     27  S   UNL A   1      32.634  25.733  21.923  1.00  0.00     0.268 S 
ATOM     28  O   UNL A   1      32.143  25.392  20.605  1.00  0.00    -0.201 OA
ATOM     29  O   UNL A   1      34.031  26.065  22.163  1.00  0.00    -0.201 OA
BRANCH  27  30
ATOM     30  C   UNL A   1      31.658  27.083  22.535  1.00  0.00     0.088 A 
ATOM     31  C   UNL A   1      29.540  30.582  23.876  1.00  0.00     0.044 C 
ATOM     32  C   UNL A   1      30.270  29.351  23.423  1.00  0.00    -0.051 A 
ATOM     33  C   UNL A   1      31.650  29.240  23.633  1.00  0.00     0.005 A 
ATOM     34  C   UNL A   1      29.590  28.303  22.790  1.00  0.00     0.005 A 
ATOM     35  C   UNL A   1      32.344  28.115  23.187  1.00  0.00     0.022 A 
ATOM     36  C   UNL A   1      30.276  27.164  22.357  1.00  0.00     0.022 A 
ENDBRANCH  27  30
ENDBRANCH  19  27
ENDBRANCH  16  18
ENDBRANCH  13  16
ENDBRANCH  11  12
ENDBRANCH   8  11
ENDBRANCH   6   7
ENDBRANCH   3   6
ENDBRANCH   1   2
BRANCH   1  37
ATOM     37  C   UNL A   1      33.535  27.827  26.764  1.00  0.00     0.021 C 
BRANCH  37  38
ATOM     38  C   UNL A   1      34.129  29.194  26.424  1.00  0.00     0.002 C 
BRANCH  38  39
ATOM     39  C   UNL A   1      34.765  29.957  27.597  1.00  0.00     0.002 C 
BRANCH  39  40
ATOM     40  C   UNL A   1      34.295  31.397  27.794  1.00  0.00     0.021 C 
BRANCH  40  41
ATOM     41  C   UNL A   1      34.854  32.068  29.035  1.00  0.00     0.116 C 
BRANCH  41  42
ATOM     42  N   UNL A   1      34.029  33.163  29.520  1.00  0.00    -0.352 N 
ATOM     43  C   UNL A   1      34.084  33.881  30.700  1.00  0.00     0.251 C 
ATOM     44  H   UNL A   1      33.312  33.441  28.905  1.00  0.00     0.163 HD
ATOM     45  O   UNL A   1      33.188  34.682  30.957  1.00  0.00    -0.269 OA
BRANCH  43  46
ATOM     46  C   UNL A   1      35.310  33.857  31.541  1.00  0.00     0.039 A 
ATOM     47  C   UNL A   1      36.384  34.616  31.053  1.00  0.00     0.014 A 
ATOM     48  C   UNL A   1      35.540  32.814  32.427  1.00  0.00     0.014 A 
ATOM     49  C   UNL A   1      37.664  34.093  31.135  1.00  0.00     0.010 A 
ATOM     50  C   UNL A   1      36.764  32.206  32.375  1.00  0.00     0.010 A 
ATOM     51  C   UNL A   1      37.796  32.816  31.663  1.00  0.00    -0.014 A 
BRANCH  51  52
ATOM     52  C   UNL A   1      38.992  32.016  31.565  1.00  0.00     0.031 A 
ATOM     53  C   UNL A   1      38.896  30.797  30.760  1.00  0.00     0.074 A 
ATOM     54  C   UNL A   1      40.132  32.492  32.108  1.00  0.00     0.049 A 
ATOM     55  N   UNL A   1      39.595  29.741  30.962  1.00  0.00    -0.248 NA
ATOM     56  C   UNL A   1      37.909  30.642  29.690  1.00  0.00     0.031 C 
ATOM     57  C   UNL A   1      41.502  32.043  31.899  1.00  0.00     0.029 A 
ATOM     58  N   UNL A   1      40.241  33.419  33.135  1.00  0.00    -0.354 N 
ATOM     59  C   UNL A   1      39.415  28.939  29.859  1.00  0.00     0.074 A 
ATOM     60  C   UNL A   1      38.251  29.454  29.185  1.00  0.00     0.031 C 
ATOM     61  C   UNL A   1      42.270  32.497  32.909  1.00  0.00     0.029 A 
ATOM     62  C   UNL A   1      41.386  33.123  33.884  1.00  0.00     0.049 A 
ATOM     63  H   UNL A   1      39.618  34.161  33.307  1.00  0.00     0.167 HD
ATOM     64  C   UNL A   1      40.400  28.065  29.526  1.00  0.00     0.031 A 
ATOM     65  C   UNL A   1      41.257  32.715  35.185  1.00  0.00     0.031 A 
ATOM     66  C   UNL A   1      41.491  28.145  30.493  1.00  0.00     0.049 A 
ATOM     67  C   UNL A   1      41.648  31.263  35.360  1.00  0.00     0.074 A 
ATOM     68  C   UNL A   1      42.678  28.860  30.477  1.00  0.00     0.029 A 
ATOM     69  N   UNL A   1      41.257  27.788  31.814  1.00  0.00    -0.354 N 
ATOM     70  N   UNL A   1      41.601  30.374  34.405  1.00  0.00    -0.248 NA
ATOM     71  C   UNL A   1      42.148  30.707  36.616  1.00  0.00     0.031 C 
ATOM     72  C   UNL A   1      43.122  28.989  31.818  1.00  0.00     0.029 A 
ATOM     73  C   UNL A   1      42.224  28.329  32.638  1.00  0.00     0.049 A 
ATOM     74  H   UNL A   1      40.507  27.228  32.120  1.00  0.00     0.167 HD
ATOM     75  C   UNL A   1      42.080  29.178  34.870  1.00  0.00     0.074 A 
ATOM     76  C   UNL A   1      42.395  29.433  36.264  1.00  0.00     0.031 C 
ATOM     77  C   UNL A   1      42.195  28.076  34.071  1.00  0.00     0.031 A 
BRANCH  64  78
ATOM     78  C   UNL A   1      40.543  27.411  28.176  1.00  0.00    -0.014 A 
ATOM     79  C   UNL A   1      39.921  26.167  27.961  1.00  0.00     0.009 A 
ATOM     80  C   UNL A   1      41.286  27.924  27.100  1.00  0.00     0.009 A 
ATOM     81  C   UNL A   1      40.082  25.447  26.773  1.00  0.00     0.001 A 
ATOM     82  C   UNL A   1      41.472  27.198  25.914  1.00  0.00     0.001 A 
ATOM     83  C   UNL A   1      40.873  25.956  25.752  1.00  0.00     0.000 A 
ENDBRANCH  64  78
BRANCH  65  84
ATOM     84  C   UNL A   1      40.107  33.380  35.877  1.00  0.00    -0.014 A 
ATOM     85  C   UNL A   1      38.872  32.698  35.892  1.00  0.00     0.009 A 
ATOM     86  C   UNL A   1      40.337  34.365  36.850  1.00  0.00     0.009 A 
ATOM     87  C   UNL A   1      37.978  32.861  36.956  1.00  0.00     0.001 A 
ATOM     88  C   UNL A   1      39.424  34.541  37.898  1.00  0.00     0.001 A 
ATOM     89  C   UNL A   1      38.277  33.752  37.982  1.00  0.00     0.000 A 
ENDBRANCH  65  84
BRANCH  77  90
ATOM     90  C   UNL A   1      42.380  26.653  34.542  1.00  0.00    -0.014 A 
ATOM     91  C   UNL A   1      43.558  25.916  34.373  1.00  0.00     0.009 A 
ATOM     92  C   UNL A   1      41.371  26.051  35.331  1.00  0.00     0.009 A 
ATOM     93  C   UNL A   1      43.697  24.630  34.912  1.00  0.00     0.001 A 
ATOM     94  C   UNL A   1      41.531  24.800  35.926  1.00  0.00     0.001 A 
ATOM     95  C   UNL A   1      42.690  24.078  35.698  1.00  0.00     0.000 A 
ENDBRANCH  77  90
ENDBRANCH  51  52
ENDBRANCH  43  46
ENDBRANCH  41  42
ENDBRANCH  40  41
ENDBRANCH  39  40
ENDBRANCH  38  39
ENDBRANCH  37  38
ENDBRANCH   1  37
TORSDOF 20
ENDMDL
