MODEL 1
REMARK VINA RESULT:     -10.4      0.000      0.000
REMARK SMILES CC(C)C[C@H](NC(=O)[C@@H](NC(=O)[C@H](C)NC(=O)CNC(=O)OCc1ccccc1)C(C)C)C(=O)NCCCCCCNC(=O)c1ccc(-c2c3nc(c(-c4ccccc4)c4ccc([nH]4)c(-c4ccccc4)c4nc(c(-c5ccccc5)c5ccc2[nH]5)C=C4)C=C3)cc1
REMARK SMILES IDX 33 1 34 2 35 3 5 5 4 6 2 7 1 8 3 9 6 10 7 11 8 13 9 14 10 15
REMARK SMILES IDX 11 16 12 18 13 19 14 20 15 21 16 22 17 24 18 25 19 26 20 27
REMARK SMILES IDX 21 29 22 30 23 31 24 32 25 33 29 34 26 35 28 36 27 37 30 38
REMARK SMILES IDX 31 39 32 40 36 41 37 42 38 43 39 44 40 45 41 46 42 47 43 48
REMARK SMILES IDX 44 50 45 51 46 52 92 53 47 54 91 55 48 56 49 57 50 58 85 59
REMARK SMILES IDX 51 60 90 61 84 62 86 63 52 64 89 65 83 66 82 67 53 69 75 70
REMARK SMILES IDX 60 71 74 72 61 73 64 74 73 75 87 76 62 77 63 78 72 80 88 81
REMARK SMILES IDX 65 82 54 83 55 84 59 85 56 86 58 87 57 88 76 89 77 90 81 91
REMARK SMILES IDX 78 92 80 93 79 94 66 95 67 96 71 97 68 98 70 99 69 100
REMARK H PARENT 35 4 6 12 10 17 15 23 19 28 42 49 86 68 64 79
REMARK Flexibility Score: inf
ROOT
ATOM      1  C   UNL A   1      31.468  29.679  24.829  1.00  0.00     0.242 C 
ATOM      2  O   UNL A   1      30.397  29.792  24.220  1.00  0.00    -0.273 OA
ATOM      3  N   UNL A   1      31.814  30.700  25.717  1.00  0.00    -0.354 N 
ATOM      4  H   UNL A   1      31.094  31.334  25.940  1.00  0.00     0.163 HD
ENDROOT
BRANCH   1   5
ATOM      5  C   UNL A   1      32.431  28.457  24.488  1.00  0.00     0.171 C 
BRANCH   5   6
ATOM      6  C   UNL A   1      32.963  27.551  25.636  1.00  0.00     0.038 C 
BRANCH   6   7
ATOM      7  C   UNL A   1      31.974  26.911  26.678  1.00  0.00    -0.015 C 
ATOM      8  C   UNL A   1      31.705  27.890  27.776  1.00  0.00     0.007 C 
ATOM      9  C   UNL A   1      30.579  26.592  26.153  1.00  0.00     0.007 C 
ENDBRANCH   6   7
ENDBRANCH   5   6
BRANCH   5  10
ATOM     10  N   UNL A   1      33.460  28.704  23.538  1.00  0.00    -0.343 N 
ATOM     11  C   UNL A   1      33.912  27.879  22.568  1.00  0.00     0.243 C 
ATOM     12  H   UNL A   1      33.898  29.584  23.594  1.00  0.00     0.164 HD
ATOM     13  O   UNL A   1      34.861  28.343  21.924  1.00  0.00    -0.273 OA
BRANCH  11  14
ATOM     14  C   UNL A   1      33.365  26.397  22.317  1.00  0.00     0.174 C 
BRANCH  14  15
ATOM     15  N   UNL A   1      33.979  25.097  22.931  1.00  0.00    -0.342 N 
ATOM     16  C   UNL A   1      34.398  24.276  23.935  1.00  0.00     0.242 C 
ATOM     17  H   UNL A   1      34.176  24.561  22.129  1.00  0.00     0.164 HD
ATOM     18  O   UNL A   1      34.760  23.185  23.441  1.00  0.00    -0.273 OA
BRANCH  16  19
ATOM     19  C   UNL A   1      34.667  24.454  25.519  1.00  0.00     0.168 C 
ATOM     20  C   UNL A   1      36.156  24.136  25.811  1.00  0.00     0.041 C 
BRANCH  19  21
ATOM     21  N   UNL A   1      33.879  23.671  26.490  1.00  0.00    -0.343 N 
ATOM     22  C   UNL A   1      32.568  23.280  26.569  1.00  0.00     0.240 C 
ATOM     23  H   UNL A   1      34.417  23.358  27.253  1.00  0.00     0.164 HD
ATOM     24  O   UNL A   1      32.280  22.650  27.599  1.00  0.00    -0.273 OA
BRANCH  22  25
ATOM     25  C   UNL A   1      31.479  23.390  25.449  1.00  0.00     0.219 C 
BRANCH  25  26
ATOM     26  N   UNL A   1      31.639  22.584  24.255  1.00  0.00    -0.312 N 
ATOM     27  C   UNL A   1      32.158  21.350  24.029  1.00  0.00     0.407 C 
ATOM     28  H   UNL A   1      31.303  23.022  23.440  1.00  0.00     0.167 HD
ATOM     29  O   UNL A   1      32.161  20.917  22.874  1.00  0.00    -0.225 OA
BRANCH  27  30
ATOM     30  O   UNL A   1      32.630  20.668  25.100  1.00  0.00    -0.445 OA
BRANCH  30  31
ATOM     31  C   UNL A   1      33.860  19.943  24.846  1.00  0.00     0.270 C 
BRANCH  31  32
ATOM     32  C   UNL A   1      33.730  18.436  24.880  1.00  0.00    -0.011 A 
ATOM     33  C   UNL A   1      34.738  17.605  24.378  1.00  0.00     0.007 A 
ATOM     34  C   UNL A   1      32.634  17.840  25.530  1.00  0.00     0.007 A 
ATOM     35  C   UNL A   1      34.654  16.218  24.514  1.00  0.00     0.000 A 
ATOM     36  C   UNL A   1      32.551  16.450  25.665  1.00  0.00     0.000 A 
ATOM     37  C   UNL A   1      33.564  15.641  25.158  1.00  0.00     0.000 A 
ENDBRANCH  31  32
ENDBRANCH  30  31
ENDBRANCH  27  30
ENDBRANCH  25  26
ENDBRANCH  22  25
ENDBRANCH  19  21
ENDBRANCH  16  19
ENDBRANCH  14  15
BRANCH  14  38
ATOM     38  C   UNL A   1      31.889  26.380  21.763  1.00  0.00     0.015 C 
ATOM     39  C   UNL A   1      31.715  25.769  20.355  1.00  0.00     0.010 C 
ATOM     40  C   UNL A   1      30.905  25.695  22.713  1.00  0.00     0.010 C 
ENDBRANCH  14  38
ENDBRANCH  11  14
ENDBRANCH   5  10
ENDBRANCH   1   5
BRANCH   3  41
ATOM     41  C   UNL A   1      33.094  30.951  26.355  1.00  0.00     0.116 C 
BRANCH  41  42
ATOM     42  C   UNL A   1      33.265  31.520  27.767  1.00  0.00     0.021 C 
BRANCH  42  43
ATOM     43  C   UNL A   1      34.372  32.491  28.163  1.00  0.00     0.002 C 
BRANCH  43  44
ATOM     44  C   UNL A   1      34.127  33.706  29.062  1.00  0.00     0.002 C 
BRANCH  44  45
ATOM     45  C   UNL A   1      34.523  33.705  30.538  1.00  0.00     0.021 C 
BRANCH  45  46
ATOM     46  C   UNL A   1      34.783  32.401  31.251  1.00  0.00     0.116 C 
BRANCH  46  47
ATOM     47  N   UNL A   1      35.170  32.581  32.628  1.00  0.00    -0.352 N 
ATOM     48  C   UNL A   1      36.365  32.285  33.234  1.00  0.00     0.251 C 
ATOM     49  H   UNL A   1      34.481  32.969  33.215  1.00  0.00     0.163 HD
ATOM     50  O   UNL A   1      36.464  32.360  34.455  1.00  0.00    -0.269 OA
BRANCH  48  51
ATOM     51  C   UNL A   1      37.529  31.840  32.428  1.00  0.00     0.039 A 
ATOM     52  C   UNL A   1      38.610  31.246  33.085  1.00  0.00     0.014 A 
ATOM     53  C   UNL A   1      37.571  32.011  31.041  1.00  0.00     0.014 A 
ATOM     54  C   UNL A   1      39.706  30.786  32.352  1.00  0.00     0.010 A 
ATOM     55  C   UNL A   1      38.621  31.470  30.302  1.00  0.00     0.010 A 
ATOM     56  C   UNL A   1      39.710  30.867  30.951  1.00  0.00    -0.014 A 
BRANCH  56  57
ATOM     57  C   UNL A   1      40.852  30.363  30.144  1.00  0.00     0.031 A 
ATOM     58  C   UNL A   1      41.993  31.287  29.806  1.00  0.00     0.074 A 
ATOM     59  C   UNL A   1      40.837  29.103  29.666  1.00  0.00     0.049 A 
ATOM     60  N   UNL A   1      43.036  31.069  29.044  1.00  0.00    -0.248 NA
ATOM     61  C   UNL A   1      41.947  32.644  30.378  1.00  0.00     0.031 C 
ATOM     62  C   UNL A   1      39.782  28.115  29.901  1.00  0.00     0.029 A 
ATOM     63  N   UNL A   1      41.739  28.438  28.871  1.00  0.00    -0.354 N 
ATOM     64  C   UNL A   1      43.745  32.264  29.022  1.00  0.00     0.074 A 
ATOM     65  C   UNL A   1      42.999  33.217  29.812  1.00  0.00     0.031 C 
ATOM     66  C   UNL A   1      40.106  26.966  29.285  1.00  0.00     0.029 A 
ATOM     67  C   UNL A   1      41.365  27.149  28.569  1.00  0.00     0.049 A 
ATOM     68  H   UNL A   1      42.574  28.846  28.547  1.00  0.00     0.167 HD
ATOM     69  C   UNL A   1      44.920  32.540  28.411  1.00  0.00     0.031 A 
ATOM     70  C   UNL A   1      41.961  26.225  27.790  1.00  0.00     0.031 A 
ATOM     71  C   UNL A   1      45.677  31.583  27.651  1.00  0.00     0.049 A 
ATOM     72  C   UNL A   1      43.256  26.573  27.103  1.00  0.00     0.074 A 
ATOM     73  C   UNL A   1      46.916  31.746  27.055  1.00  0.00     0.029 A 
ATOM     74  N   UNL A   1      45.266  30.289  27.377  1.00  0.00    -0.354 N 
ATOM     75  N   UNL A   1      43.952  27.682  27.160  1.00  0.00    -0.248 NA
ATOM     76  C   UNL A   1      43.852  25.534  26.250  1.00  0.00     0.031 C 
ATOM     77  C   UNL A   1      47.224  30.573  26.364  1.00  0.00     0.029 A 
ATOM     78  C   UNL A   1      46.212  29.653  26.593  1.00  0.00     0.049 A 
ATOM     79  H   UNL A   1      44.427  29.881  27.696  1.00  0.00     0.167 HD
ATOM     80  C   UNL A   1      45.085  27.458  26.388  1.00  0.00     0.074 A 
ATOM     81  C   UNL A   1      44.991  26.105  25.885  1.00  0.00     0.031 C 
ATOM     82  C   UNL A   1      46.113  28.298  26.119  1.00  0.00     0.031 A 
BRANCH  69  83
ATOM     83  C   UNL A   1      45.467  33.936  28.523  1.00  0.00    -0.014 A 
ATOM     84  C   UNL A   1      46.308  34.312  29.580  1.00  0.00     0.009 A 
ATOM     85  C   UNL A   1      45.199  34.866  27.505  1.00  0.00     0.009 A 
ATOM     86  C   UNL A   1      46.854  35.597  29.627  1.00  0.00     0.001 A 
ATOM     87  C   UNL A   1      45.770  36.140  27.538  1.00  0.00     0.001 A 
ATOM     88  C   UNL A   1      46.592  36.506  28.602  1.00  0.00     0.000 A 
ENDBRANCH  69  83
BRANCH  70  89
ATOM     89  C   UNL A   1      41.349  24.882  27.595  1.00  0.00    -0.014 A 
ATOM     90  C   UNL A   1      40.258  24.713  26.727  1.00  0.00     0.009 A 
ATOM     91  C   UNL A   1      41.811  23.772  28.320  1.00  0.00     0.009 A 
ATOM     92  C   UNL A   1      39.612  23.479  26.629  1.00  0.00     0.001 A 
ATOM     93  C   UNL A   1      41.187  22.529  28.191  1.00  0.00     0.001 A 
ATOM     94  C   UNL A   1      40.078  22.387  27.360  1.00  0.00     0.000 A 
ENDBRANCH  70  89
BRANCH  82  95
ATOM     95  C   UNL A   1      47.253  27.763  25.299  1.00  0.00    -0.014 A 
ATOM     96  C   UNL A   1      48.327  27.079  25.889  1.00  0.00     0.009 A 
ATOM     97  C   UNL A   1      47.215  27.893  23.901  1.00  0.00     0.009 A 
ATOM     98  C   UNL A   1      49.355  26.566  25.096  1.00  0.00     0.001 A 
ATOM     99  C   UNL A   1      48.225  27.347  23.109  1.00  0.00     0.001 A 
ATOM    100  C   UNL A   1      49.300  26.693  23.708  1.00  0.00     0.000 A 
ENDBRANCH  82  95
ENDBRANCH  56  57
ENDBRANCH  48  51
ENDBRANCH  46  47
ENDBRANCH  45  46
ENDBRANCH  44  45
ENDBRANCH  43  44
ENDBRANCH  42  43
ENDBRANCH  41  42
ENDBRANCH   3  41
TORSDOF 26
ENDMDL
MODEL 2
REMARK VINA RESULT:      -9.0      6.850     10.838
REMARK SMILES CC(C)C[C@H](NC(=O)[C@@H](NC(=O)[C@H](C)NC(=O)CNC(=O)OCc1ccccc1)C(C)C)C(=O)NCCCCCCNC(=O)c1ccc(-c2c3nc(c(-c4ccccc4)c4ccc([nH]4)c(-c4ccccc4)c4nc(c(-c5ccccc5)c5ccc2[nH]5)C=C4)C=C3)cc1
REMARK SMILES IDX 33 1 34 2 35 3 5 5 4 6 2 7 1 8 3 9 6 10 7 11 8 13 9 14 10 15
REMARK SMILES IDX 11 16 12 18 13 19 14 20 15 21 16 22 17 24 18 25 19 26 20 27
REMARK SMILES IDX 21 29 22 30 23 31 24 32 25 33 29 34 26 35 28 36 27 37 30 38
REMARK SMILES IDX 31 39 32 40 36 41 37 42 38 43 39 44 40 45 41 46 42 47 43 48
REMARK SMILES IDX 44 50 45 51 46 52 92 53 47 54 91 55 48 56 49 57 50 58 85 59
REMARK SMILES IDX 51 60 90 61 84 62 86 63 52 64 89 65 83 66 82 67 53 69 75 70
REMARK SMILES IDX 60 71 74 72 61 73 64 74 73 75 87 76 62 77 63 78 72 80 88 81
REMARK SMILES IDX 65 82 54 83 55 84 59 85 56 86 58 87 57 88 76 89 77 90 81 91
REMARK SMILES IDX 78 92 80 93 79 94 66 95 67 96 71 97 68 98 70 99 69 100
REMARK H PARENT 35 4 6 12 10 17 15 23 19 28 42 49 86 68 64 79
REMARK Flexibility Score: inf
ROOT
ATOM      1  C   UNL A   1      42.422  33.337  32.984  1.00  0.00     0.242 C 
ATOM      2  O   UNL A   1      42.298  33.609  34.183  1.00  0.00    -0.273 OA
ATOM      3  N   UNL A   1      43.531  33.862  32.316  1.00  0.00    -0.354 N 
ATOM      4  H   UNL A   1      44.233  34.245  32.890  1.00  0.00     0.163 HD
ENDROOT
BRANCH   1   5
ATOM      5  C   UNL A   1      41.273  32.515  32.250  1.00  0.00     0.171 C 
BRANCH   5   6
ATOM      6  C   UNL A   1      41.624  31.197  31.500  1.00  0.00     0.038 C 
BRANCH   6   7
ATOM      7  C   UNL A   1      41.380  31.065  29.952  1.00  0.00    -0.015 C 
ATOM      8  C   UNL A   1      42.676  30.767  29.267  1.00  0.00     0.007 C 
ATOM      9  C   UNL A   1      40.489  29.907  29.520  1.00  0.00     0.007 C 
ENDBRANCH   6   7
ENDBRANCH   5   6
BRANCH   5  10
ATOM     10  N   UNL A   1      40.329  33.271  31.499  1.00  0.00    -0.343 N 
ATOM     11  C   UNL A   1      38.981  33.253  31.598  1.00  0.00     0.243 C 
ATOM     12  H   UNL A   1      40.705  33.883  30.825  1.00  0.00     0.164 HD
ATOM     13  O   UNL A   1      38.414  33.979  30.773  1.00  0.00    -0.273 OA
BRANCH  11  14
ATOM     14  C   UNL A   1      38.164  32.317  32.604  1.00  0.00     0.174 C 
BRANCH  14  15
ATOM     15  N   UNL A   1      37.269  32.826  33.780  1.00  0.00    -0.342 N 
ATOM     16  C   UNL A   1      36.134  33.315  34.355  1.00  0.00     0.242 C 
ATOM     17  H   UNL A   1      37.875  32.750  34.552  1.00  0.00     0.164 HD
ATOM     18  O   UNL A   1      36.300  33.373  35.593  1.00  0.00    -0.273 OA
BRANCH  16  19
ATOM     19  C   UNL A   1      34.756  33.953  33.800  1.00  0.00     0.168 C 
ATOM     20  C   UNL A   1      34.546  33.491  32.335  1.00  0.00     0.041 C 
BRANCH  19  21
ATOM     21  N   UNL A   1      34.572  35.417  33.802  1.00  0.00    -0.343 N 
ATOM     22  C   UNL A   1      33.793  36.288  33.088  1.00  0.00     0.240 C 
ATOM     23  H   UNL A   1      35.138  35.870  34.469  1.00  0.00     0.164 HD
ATOM     24  O   UNL A   1      33.969  37.485  33.367  1.00  0.00    -0.273 OA
BRANCH  22  25
ATOM     25  C   UNL A   1      32.620  35.927  32.115  1.00  0.00     0.219 C 
BRANCH  25  26
ATOM     26  N   UNL A   1      32.561  36.601  30.833  1.00  0.00    -0.312 N 
ATOM     27  C   UNL A   1      33.146  36.366  29.631  1.00  0.00     0.407 C 
ATOM     28  H   UNL A   1      31.977  37.393  30.834  1.00  0.00     0.167 HD
ATOM     29  O   UNL A   1      32.903  37.136  28.698  1.00  0.00    -0.225 OA
BRANCH  27  30
ATOM     30  O   UNL A   1      33.957  35.284  29.535  1.00  0.00    -0.445 OA
BRANCH  30  31
ATOM     31  C   UNL A   1      33.623  34.387  28.444  1.00  0.00     0.270 C 
BRANCH  31  32
ATOM     32  C   UNL A   1      34.485  33.148  28.352  1.00  0.00    -0.011 A 
ATOM     33  C   UNL A   1      33.949  31.913  27.970  1.00  0.00     0.007 A 
ATOM     34  C   UNL A   1      35.877  33.245  28.536  1.00  0.00     0.007 A 
ATOM     35  C   UNL A   1      34.775  30.803  27.784  1.00  0.00     0.000 A 
ATOM     36  C   UNL A   1      36.703  32.132  28.350  1.00  0.00     0.000 A 
ATOM     37  C   UNL A   1      36.150  30.912  27.971  1.00  0.00     0.000 A 
ENDBRANCH  31  32
ENDBRANCH  30  31
ENDBRANCH  27  30
ENDBRANCH  25  26
ENDBRANCH  22  25
ENDBRANCH  19  21
ENDBRANCH  16  19
ENDBRANCH  14  15
BRANCH  14  38
ATOM     38  C   UNL A   1      37.968  30.853  32.049  1.00  0.00     0.015 C 
ATOM     39  C   UNL A   1      38.571  29.727  32.919  1.00  0.00     0.010 C 
ATOM     40  C   UNL A   1      36.504  30.516  31.765  1.00  0.00     0.010 C 
ENDBRANCH  14  38
ENDBRANCH  11  14
ENDBRANCH   5  10
ENDBRANCH   1   5
BRANCH   3  41
ATOM     41  C   UNL A   1      43.786  33.920  30.888  1.00  0.00     0.116 C 
BRANCH  41  42
ATOM     42  C   UNL A   1      43.359  35.072  29.974  1.00  0.00     0.021 C 
BRANCH  42  43
ATOM     43  C   UNL A   1      42.579  34.884  28.677  1.00  0.00     0.002 C 
BRANCH  43  44
ATOM     44  C   UNL A   1      42.791  35.768  27.445  1.00  0.00     0.002 C 
BRANCH  44  45
ATOM     45  C   UNL A   1      42.394  37.243  27.437  1.00  0.00     0.021 C 
BRANCH  45  46
ATOM     46  C   UNL A   1      42.884  38.165  28.526  1.00  0.00     0.116 C 
BRANCH  46  47
ATOM     47  N   UNL A   1      43.700  39.243  28.025  1.00  0.00    -0.352 N 
ATOM     48  C   UNL A   1      44.998  39.207  27.580  1.00  0.00     0.251 C 
ATOM     49  H   UNL A   1      43.267  40.127  28.000  1.00  0.00     0.163 HD
ATOM     50  O   UNL A   1      45.587  40.255  27.336  1.00  0.00    -0.269 OA
BRANCH  48  51
ATOM     51  C   UNL A   1      45.706  37.912  27.426  1.00  0.00     0.039 A 
ATOM     52  C   UNL A   1      45.864  37.386  26.140  1.00  0.00     0.014 A 
ATOM     53  C   UNL A   1      46.202  37.209  28.528  1.00  0.00     0.014 A 
ATOM     54  C   UNL A   1      46.556  36.186  25.957  1.00  0.00     0.010 A 
ATOM     55  C   UNL A   1      46.970  36.062  28.336  1.00  0.00     0.010 A 
ATOM     56  C   UNL A   1      47.141  35.528  27.050  1.00  0.00    -0.014 A 
BRANCH  56  57
ATOM     57  C   UNL A   1      47.902  34.262  26.881  1.00  0.00     0.031 A 
ATOM     58  C   UNL A   1      49.290  34.297  26.296  1.00  0.00     0.074 A 
ATOM     59  C   UNL A   1      47.327  33.083  27.191  1.00  0.00     0.049 A 
ATOM     60  N   UNL A   1      50.082  33.301  25.987  1.00  0.00    -0.248 NA
ATOM     61  C   UNL A   1      49.857  35.624  25.997  1.00  0.00     0.031 C 
ATOM     62  C   UNL A   1      45.982  32.909  27.742  1.00  0.00     0.029 A 
ATOM     63  N   UNL A   1      47.805  31.799  27.077  1.00  0.00    -0.354 N 
ATOM     64  C   UNL A   1      51.217  33.879  25.431  1.00  0.00     0.074 A 
ATOM     65  C   UNL A   1      51.000  35.308  25.407  1.00  0.00     0.031 C 
ATOM     66  C   UNL A   1      45.750  31.601  27.939  1.00  0.00     0.029 A 
ATOM     67  C   UNL A   1      46.908  30.838  27.483  1.00  0.00     0.049 A 
ATOM     68  H   UNL A   1      48.703  31.587  26.737  1.00  0.00     0.167 HD
ATOM     69  C   UNL A   1      52.346  33.276  24.991  1.00  0.00     0.031 A 
ATOM     70  C   UNL A   1      47.002  29.494  27.472  1.00  0.00     0.031 A 
ATOM     71  C   UNL A   1      52.573  31.858  25.042  1.00  0.00     0.049 A 
ATOM     72  C   UNL A   1      48.262  28.853  26.952  1.00  0.00     0.074 A 
ATOM     73  C   UNL A   1      53.715  31.158  24.691  1.00  0.00     0.029 A 
ATOM     74  N   UNL A   1      51.643  30.924  25.467  1.00  0.00    -0.354 N 
ATOM     75  N   UNL A   1      49.356  29.420  26.506  1.00  0.00    -0.248 NA
ATOM     76  C   UNL A   1      48.303  27.383  26.945  1.00  0.00     0.031 C 
ATOM     77  C   UNL A   1      53.451  29.795  24.837  1.00  0.00     0.029 A 
ATOM     78  C   UNL A   1      52.173  29.650  25.354  1.00  0.00     0.049 A 
ATOM     79  H   UNL A   1      50.740  31.134  25.802  1.00  0.00     0.167 HD
ATOM     80  C   UNL A   1      50.227  28.380  26.207  1.00  0.00     0.074 A 
ATOM     81  C   UNL A   1      49.541  27.149  26.535  1.00  0.00     0.031 C 
ATOM     82  C   UNL A   1      51.485  28.437  25.705  1.00  0.00     0.031 A 
BRANCH  69  83
ATOM     83  C   UNL A   1      53.428  34.139  24.403  1.00  0.00    -0.014 A 
ATOM     84  C   UNL A   1      54.473  34.643  25.191  1.00  0.00     0.009 A 
ATOM     85  C   UNL A   1      53.443  34.381  23.020  1.00  0.00     0.009 A 
ATOM     86  C   UNL A   1      55.500  35.390  24.608  1.00  0.00     0.001 A 
ATOM     87  C   UNL A   1      54.487  35.100  22.436  1.00  0.00     0.001 A 
ATOM     88  C   UNL A   1      55.511  35.609  23.231  1.00  0.00     0.000 A 
ENDBRANCH  69  83
BRANCH  70  89
ATOM     89  C   UNL A   1      45.875  28.647  27.951  1.00  0.00    -0.014 A 
ATOM     90  C   UNL A   1      44.847  28.262  27.075  1.00  0.00     0.009 A 
ATOM     91  C   UNL A   1      45.788  28.267  29.299  1.00  0.00     0.009 A 
ATOM     92  C   UNL A   1      43.734  27.563  27.548  1.00  0.00     0.001 A 
ATOM     93  C   UNL A   1      44.692  27.535  29.762  1.00  0.00     0.001 A 
ATOM     94  C   UNL A   1      43.658  27.199  28.891  1.00  0.00     0.000 A 
ENDBRANCH  70  89
BRANCH  82  95
ATOM     95  C   UNL A   1      52.228  27.142  25.542  1.00  0.00    -0.014 A 
ATOM     96  C   UNL A   1      52.863  26.516  26.625  1.00  0.00     0.009 A 
ATOM     97  C   UNL A   1      52.238  26.507  24.289  1.00  0.00     0.009 A 
ATOM     98  C   UNL A   1      53.519  25.296  26.448  1.00  0.00     0.001 A 
ATOM     99  C   UNL A   1      52.862  25.272  24.123  1.00  0.00     0.001 A 
ATOM    100  C   UNL A   1      53.512  24.672  25.200  1.00  0.00     0.000 A 
ENDBRANCH  82  95
ENDBRANCH  56  57
ENDBRANCH  48  51
ENDBRANCH  46  47
ENDBRANCH  45  46
ENDBRANCH  44  45
ENDBRANCH  43  44
ENDBRANCH  42  43
ENDBRANCH  41  42
ENDBRANCH   3  41
TORSDOF 26
ENDMDL
MODEL 3
REMARK VINA RESULT:      -9.0      3.758      9.616
REMARK SMILES CC(C)C[C@H](NC(=O)[C@@H](NC(=O)[C@H](C)NC(=O)CNC(=O)OCc1ccccc1)C(C)C)C(=O)NCCCCCCNC(=O)c1ccc(-c2c3nc(c(-c4ccccc4)c4ccc([nH]4)c(-c4ccccc4)c4nc(c(-c5ccccc5)c5ccc2[nH]5)C=C4)C=C3)cc1
REMARK SMILES IDX 33 1 34 2 35 3 5 5 4 6 2 7 1 8 3 9 6 10 7 11 8 13 9 14 10 15
REMARK SMILES IDX 11 16 12 18 13 19 14 20 15 21 16 22 17 24 18 25 19 26 20 27
REMARK SMILES IDX 21 29 22 30 23 31 24 32 25 33 29 34 26 35 28 36 27 37 30 38
REMARK SMILES IDX 31 39 32 40 36 41 37 42 38 43 39 44 40 45 41 46 42 47 43 48
REMARK SMILES IDX 44 50 45 51 46 52 92 53 47 54 91 55 48 56 49 57 50 58 85 59
REMARK SMILES IDX 51 60 90 61 84 62 86 63 52 64 89 65 83 66 82 67 53 69 75 70
REMARK SMILES IDX 60 71 74 72 61 73 64 74 73 75 87 76 62 77 63 78 72 80 88 81
REMARK SMILES IDX 65 82 54 83 55 84 59 85 56 86 58 87 57 88 76 89 77 90 81 91
REMARK SMILES IDX 78 92 80 93 79 94 66 95 67 96 71 97 68 98 70 99 69 100
REMARK H PARENT 35 4 6 12 10 17 15 23 19 28 42 49 86 68 64 79
REMARK Flexibility Score: inf
ROOT
ATOM      1  C   UNL A   1      37.348  33.840  31.904  1.00  0.00     0.242 C 
ATOM      2  O   UNL A   1      37.522  34.227  30.743  1.00  0.00    -0.273 OA
ATOM      3  N   UNL A   1      37.845  34.646  32.932  1.00  0.00    -0.354 N 
ATOM      4  H   UNL A   1      38.121  35.553  32.667  1.00  0.00     0.163 HD
ENDROOT
BRANCH   1   5
ATOM      5  C   UNL A   1      36.684  32.415  32.158  1.00  0.00     0.171 C 
BRANCH   5   6
ATOM      6  C   UNL A   1      36.759  31.320  31.056  1.00  0.00     0.038 C 
BRANCH   6   7
ATOM      7  C   UNL A   1      38.084  30.505  30.824  1.00  0.00    -0.015 C 
ATOM      8  C   UNL A   1      37.745  29.127  30.352  1.00  0.00     0.007 C 
ATOM      9  C   UNL A   1      38.998  31.030  29.722  1.00  0.00     0.007 C 
ENDBRANCH   6   7
ENDBRANCH   5   6
BRANCH   5  10
ATOM     10  N   UNL A   1      35.398  32.412  32.768  1.00  0.00    -0.343 N 
ATOM     11  C   UNL A   1      34.309  33.133  32.418  1.00  0.00     0.243 C 
ATOM     12  H   UNL A   1      35.287  31.811  33.539  1.00  0.00     0.164 HD
ATOM     13  O   UNL A   1      33.341  32.966  33.169  1.00  0.00    -0.273 OA
BRANCH  11  14
ATOM     14  C   UNL A   1      34.275  34.189  31.217  1.00  0.00     0.174 C 
BRANCH  14  15
ATOM     15  N   UNL A   1      34.555  33.852  29.716  1.00  0.00    -0.342 N 
ATOM     16  C   UNL A   1      34.525  33.085  28.590  1.00  0.00     0.242 C 
ATOM     17  H   UNL A   1      35.019  34.661  29.404  1.00  0.00     0.164 HD
ATOM     18  O   UNL A   1      35.002  33.743  27.640  1.00  0.00    -0.273 OA
BRANCH  16  19
ATOM     19  C   UNL A   1      34.179  31.539  28.270  1.00  0.00     0.168 C 
ATOM     20  C   UNL A   1      35.464  30.833  27.767  1.00  0.00     0.041 C 
BRANCH  19  21
ATOM     21  N   UNL A   1      33.119  31.211  27.296  1.00  0.00    -0.343 N 
ATOM     22  C   UNL A   1      32.489  30.056  26.916  1.00  0.00     0.240 C 
ATOM     23  H   UNL A   1      32.792  32.002  26.810  1.00  0.00     0.164 HD
ATOM     24  O   UNL A   1      31.660  30.198  26.003  1.00  0.00    -0.273 OA
BRANCH  22  25
ATOM     25  C   UNL A   1      32.578  28.656  27.613  1.00  0.00     0.219 C 
BRANCH  25  26
ATOM     26  N   UNL A   1      31.542  27.683  27.330  1.00  0.00    -0.312 N 
ATOM     27  C   UNL A   1      31.361  26.780  26.333  1.00  0.00     0.407 C 
ATOM     28  H   UNL A   1      30.820  27.675  27.999  1.00  0.00     0.167 HD
ATOM     29  O   UNL A   1      30.352  26.071  26.357  1.00  0.00    -0.225 OA
BRANCH  27  30
ATOM     30  O   UNL A   1      32.318  26.711  25.375  1.00  0.00    -0.445 OA
BRANCH  30  31
ATOM     31  C   UNL A   1      32.286  25.491  24.591  1.00  0.00     0.270 C 
BRANCH  31  32
ATOM     32  C   UNL A   1      33.616  24.782  24.463  1.00  0.00    -0.011 A 
ATOM     33  C   UNL A   1      34.592  24.873  25.462  1.00  0.00     0.007 A 
ATOM     34  C   UNL A   1      33.849  23.915  23.379  1.00  0.00     0.007 A 
ATOM     35  C   UNL A   1      35.769  24.128  25.382  1.00  0.00     0.000 A 
ATOM     36  C   UNL A   1      35.029  23.170  23.299  1.00  0.00     0.000 A 
ATOM     37  C   UNL A   1      35.987  23.275  24.304  1.00  0.00     0.000 A 
ENDBRANCH  31  32
ENDBRANCH  30  31
ENDBRANCH  27  30
ENDBRANCH  25  26
ENDBRANCH  22  25
ENDBRANCH  19  21
ENDBRANCH  16  19
ENDBRANCH  14  15
BRANCH  14  38
ATOM     38  C   UNL A   1      33.502  35.511  31.592  1.00  0.00     0.015 C 
ATOM     39  C   UNL A   1      34.213  36.431  32.610  1.00  0.00     0.010 C 
ATOM     40  C   UNL A   1      33.123  36.345  30.368  1.00  0.00     0.010 C 
ENDBRANCH  14  38
ENDBRANCH  11  14
ENDBRANCH   5  10
ENDBRANCH   1   5
BRANCH   3  41
ATOM     41  C   UNL A   1      38.009  34.323  34.338  1.00  0.00     0.116 C 
BRANCH  41  42
ATOM     42  C   UNL A   1      38.786  33.113  34.868  1.00  0.00     0.021 C 
BRANCH  42  43
ATOM     43  C   UNL A   1      39.917  32.431  34.107  1.00  0.00     0.002 C 
BRANCH  43  44
ATOM     44  C   UNL A   1      40.989  33.209  33.339  1.00  0.00     0.002 C 
BRANCH  44  45
ATOM     45  C   UNL A   1      41.010  33.254  31.812  1.00  0.00     0.021 C 
BRANCH  45  46
ATOM     46  C   UNL A   1      42.108  33.997  31.092  1.00  0.00     0.116 C 
BRANCH  46  47
ATOM     47  N   UNL A   1      41.610  34.879  30.065  1.00  0.00    -0.352 N 
ATOM     48  C   UNL A   1      42.160  35.176  28.843  1.00  0.00     0.251 C 
ATOM     49  H   UNL A   1      40.759  35.330  30.269  1.00  0.00     0.163 HD
ATOM     50  O   UNL A   1      41.675  36.073  28.160  1.00  0.00    -0.269 OA
BRANCH  48  51
ATOM     51  C   UNL A   1      43.357  34.446  28.358  1.00  0.00     0.039 A 
ATOM     52  C   UNL A   1      43.529  34.288  26.980  1.00  0.00     0.014 A 
ATOM     53  C   UNL A   1      44.300  33.910  29.240  1.00  0.00     0.014 A 
ATOM     54  C   UNL A   1      44.663  33.636  26.488  1.00  0.00     0.010 A 
ATOM     55  C   UNL A   1      45.472  33.341  28.748  1.00  0.00     0.010 A 
ATOM     56  C   UNL A   1      45.660  33.182  27.366  1.00  0.00    -0.014 A 
BRANCH  56  57
ATOM     57  C   UNL A   1      46.887  32.506  26.869  1.00  0.00     0.031 A 
ATOM     58  C   UNL A   1      46.945  31.001  26.823  1.00  0.00     0.074 A 
ATOM     59  C   UNL A   1      47.964  33.236  26.519  1.00  0.00     0.049 A 
ATOM     60  N   UNL A   1      47.949  30.222  26.507  1.00  0.00    -0.248 NA
ATOM     61  C   UNL A   1      45.722  30.273  27.206  1.00  0.00     0.031 C 
ATOM     62  C   UNL A   1      48.047  34.698  26.539  1.00  0.00     0.029 A 
ATOM     63  N   UNL A   1      49.207  32.843  26.084  1.00  0.00    -0.354 N 
ATOM     64  C   UNL A   1      47.489  28.922  26.685  1.00  0.00     0.074 A 
ATOM     65  C   UNL A   1      46.132  29.013  27.172  1.00  0.00     0.031 C 
ATOM     66  C   UNL A   1      49.263  35.078  26.114  1.00  0.00     0.029 A 
ATOM     67  C   UNL A   1      50.065  33.890  25.839  1.00  0.00     0.049 A 
ATOM     68  H   UNL A   1      49.460  31.900  25.959  1.00  0.00     0.167 HD
ATOM     69  C   UNL A   1      48.134  27.756  26.449  1.00  0.00     0.031 A 
ATOM     70  C   UNL A   1      51.356  33.892  25.455  1.00  0.00     0.031 A 
ATOM     71  C   UNL A   1      49.474  27.667  25.936  1.00  0.00     0.049 A 
ATOM     72  C   UNL A   1      52.053  32.576  25.226  1.00  0.00     0.074 A 
ATOM     73  C   UNL A   1      50.187  26.531  25.593  1.00  0.00     0.029 A 
ATOM     74  N   UNL A   1      50.302  28.751  25.696  1.00  0.00    -0.354 N 
ATOM     75  N   UNL A   1      51.576  31.359  25.321  1.00  0.00    -0.248 NA
ATOM     76  C   UNL A   1      53.467  32.637  24.826  1.00  0.00     0.031 C 
ATOM     77  C   UNL A   1      51.471  26.924  25.210  1.00  0.00     0.029 A 
ATOM     78  C   UNL A   1      51.532  28.308  25.242  1.00  0.00     0.049 A 
ATOM     79  H   UNL A   1      50.052  29.695  25.826  1.00  0.00     0.167 HD
ATOM     80  C   UNL A   1      52.616  30.515  24.951  1.00  0.00     0.074 A 
ATOM     81  C   UNL A   1      53.744  31.358  24.618  1.00  0.00     0.031 C 
ATOM     82  C   UNL A   1      52.636  29.162  24.893  1.00  0.00     0.031 A 
BRANCH  69  83
ATOM     83  C   UNL A   1      47.412  26.473  26.751  1.00  0.00    -0.014 A 
ATOM     84  C   UNL A   1      47.442  25.898  28.030  1.00  0.00     0.009 A 
ATOM     85  C   UNL A   1      46.620  25.875  25.757  1.00  0.00     0.009 A 
ATOM     86  C   UNL A   1      46.711  24.738  28.302  1.00  0.00     0.001 A 
ATOM     87  C   UNL A   1      45.866  24.735  26.039  1.00  0.00     0.001 A 
ATOM     88  C   UNL A   1      45.917  24.164  27.309  1.00  0.00     0.000 A 
ENDBRANCH  69  83
BRANCH  70  89
ATOM     89  C   UNL A   1      52.095  35.171  25.270  1.00  0.00    -0.014 A 
ATOM     90  C   UNL A   1      52.146  35.793  24.012  1.00  0.00     0.009 A 
ATOM     91  C   UNL A   1      52.803  35.749  26.336  1.00  0.00     0.009 A 
ATOM     92  C   UNL A   1      52.930  36.931  23.813  1.00  0.00     0.001 A 
ATOM     93  C   UNL A   1      53.557  36.909  26.142  1.00  0.00     0.001 A 
ATOM     94  C   UNL A   1      53.634  37.490  24.878  1.00  0.00     0.000 A 
ENDBRANCH  70  89
BRANCH  82  95
ATOM     95  C   UNL A   1      53.891  28.505  24.390  1.00  0.00    -0.014 A 
ATOM     96  C   UNL A   1      54.101  28.271  23.022  1.00  0.00     0.009 A 
ATOM     97  C   UNL A   1      54.907  28.175  25.300  1.00  0.00     0.009 A 
ATOM     98  C   UNL A   1      55.292  27.689  22.583  1.00  0.00     0.001 A 
ATOM     99  C   UNL A   1      56.110  27.627  24.855  1.00  0.00     0.001 A 
ATOM    100  C   UNL A   1      56.297  27.374  23.497  1.00  0.00     0.000 A 
ENDBRANCH  82  95
ENDBRANCH  56  57
ENDBRANCH  48  51
ENDBRANCH  46  47
ENDBRANCH  45  46
ENDBRANCH  44  45
ENDBRANCH  43  44
ENDBRANCH  42  43
ENDBRANCH  41  42
ENDBRANCH   3  41
TORSDOF 26
ENDMDL
