MODEL 1
REMARK VINA RESULT:     -10.9      0.000      0.000
REMARK SMILES O=C(NCCCCCCNC(=O)[C@H]1C[NH2+]C[C@H]1c1ccc(C2CC2)cc1)c1ccc(-c2c3nc(c(-c4ccccc4)c4ccc([nH]4)c(-c4ccccc4)c4nc(c(-c5ccccc5)c5ccc2[nH]5)C=C4)C=C3)cc1
REMARK SMILES IDX 6 1 5 2 4 3 3 4 1 5 2 6 27 8 28 9 74 10 29 11 73 12 30 13
REMARK SMILES IDX 31 14 32 15 67 16 33 17 72 18 66 19 68 20 34 21 71 22 65 23
REMARK SMILES IDX 64 24 35 26 57 27 42 28 56 29 43 30 46 31 55 32 69 33 44 34
REMARK SMILES IDX 45 35 54 37 70 38 47 39 36 40 37 41 41 42 38 43 40 44 39 45
REMARK SMILES IDX 58 46 59 47 63 48 60 49 62 50 61 51 48 52 49 53 53 54 50 55
REMARK SMILES IDX 52 56 51 57 7 58 8 59 9 60 10 61 11 62 12 64 13 65 14 66
REMARK SMILES IDX 17 67 15 68 16 69 18 72 19 73 26 74 20 75 25 76 21 77 22 78
REMARK SMILES IDX 23 79 24 80
REMARK H PARENT 3 7 68 25 46 36 10 63 15 70 15 71
REMARK Flexibility Score: inf
ROOT
ATOM      1  C   UNL A   1      36.362  20.375  25.015  1.00  0.00     0.002 C 
ENDROOT
BRANCH   1   2
ATOM      2  C   UNL A   1      37.798  19.997  24.656  1.00  0.00     0.021 C 
BRANCH   2   3
ATOM      3  C   UNL A   1      38.822  20.262  25.750  1.00  0.00     0.116 C 
BRANCH   3   4
ATOM      4  N   UNL A   1      39.932  19.322  25.730  1.00  0.00    -0.352 N 
ATOM      5  O   UNL A   1      42.095  18.674  25.845  1.00  0.00    -0.269 OA
ATOM      6  C   UNL A   1      41.251  19.543  26.046  1.00  0.00     0.251 C 
ATOM      7  H   UNL A   1      39.708  18.404  25.451  1.00  0.00     0.163 HD
BRANCH   6   8
ATOM      8  C   UNL A   1      41.658  20.850  26.608  1.00  0.00     0.039 A 
ATOM      9  C   UNL A   1      41.671  21.051  27.989  1.00  0.00     0.014 A 
ATOM     10  C   UNL A   1      42.017  21.890  25.745  1.00  0.00     0.014 A 
ATOM     11  C   UNL A   1      41.894  22.324  28.497  1.00  0.00     0.010 A 
ATOM     12  C   UNL A   1      42.335  23.150  26.264  1.00  0.00     0.010 A 
ATOM     13  C   UNL A   1      42.248  23.385  27.644  1.00  0.00    -0.014 A 
BRANCH  13  14
ATOM     14  C   UNL A   1      42.591  24.696  28.251  1.00  0.00     0.031 A 
ATOM     15  C   UNL A   1      44.007  25.067  28.588  1.00  0.00     0.074 A 
ATOM     16  C   UNL A   1      41.598  25.591  28.429  1.00  0.00     0.049 A 
ATOM     17  N   UNL A   1      44.473  26.213  29.023  1.00  0.00    -0.248 NA
ATOM     18  C   UNL A   1      45.035  24.028  28.423  1.00  0.00     0.031 C 
ATOM     19  C   UNL A   1      40.180  25.338  28.157  1.00  0.00     0.029 A 
ATOM     20  N   UNL A   1      41.629  26.899  28.835  1.00  0.00    -0.354 N 
ATOM     21  C   UNL A   1      45.839  26.030  29.195  1.00  0.00     0.074 A 
ATOM     22  C   UNL A   1      46.127  24.656  28.841  1.00  0.00     0.031 C 
ATOM     23  C   UNL A   1      39.489  26.473  28.333  1.00  0.00     0.029 A 
ATOM     24  C   UNL A   1      40.401  27.514  28.789  1.00  0.00     0.049 A 
ATOM     25  H   UNL A   1      42.450  27.354  29.130  1.00  0.00     0.167 HD
ATOM     26  C   UNL A   1      46.768  26.928  29.604  1.00  0.00     0.031 A 
ATOM     27  C   UNL A   1      40.042  28.775  29.083  1.00  0.00     0.031 A 
ATOM     28  C   UNL A   1      46.480  28.294  29.962  1.00  0.00     0.049 A 
ATOM     29  C   UNL A   1      41.093  29.745  29.535  1.00  0.00     0.074 A 
ATOM     30  C   UNL A   1      47.357  29.279  30.384  1.00  0.00     0.029 A 
ATOM     31  N   UNL A   1      45.218  28.867  29.940  1.00  0.00    -0.354 N 
ATOM     32  N   UNL A   1      42.384  29.558  29.668  1.00  0.00    -0.248 NA
ATOM     33  C   UNL A   1      40.637  31.098  29.874  1.00  0.00     0.031 C 
ATOM     34  C   UNL A   1      46.619  30.437  30.655  1.00  0.00     0.029 A 
ATOM     35  C   UNL A   1      45.290  30.187  30.354  1.00  0.00     0.049 A 
ATOM     36  H   UNL A   1      44.392  28.404  29.670  1.00  0.00     0.167 HD
ATOM     37  C   UNL A   1      42.894  30.769  30.108  1.00  0.00     0.074 A 
ATOM     38  C   UNL A   1      41.781  31.694  30.180  1.00  0.00     0.031 C 
ATOM     39  C   UNL A   1      44.169  31.087  30.436  1.00  0.00     0.031 A 
BRANCH  26  40
ATOM     40  C   UNL A   1      48.194  26.459  29.702  1.00  0.00    -0.014 A 
ATOM     41  C   UNL A   1      49.080  26.601  28.624  1.00  0.00     0.009 A 
ATOM     42  C   UNL A   1      48.674  25.928  30.911  1.00  0.00     0.009 A 
ATOM     43  C   UNL A   1      50.413  26.199  28.744  1.00  0.00     0.001 A 
ATOM     44  C   UNL A   1      50.012  25.549  31.036  1.00  0.00     0.001 A 
ATOM     45  C   UNL A   1      50.879  25.678  29.952  1.00  0.00     0.000 A 
ENDBRANCH  26  40
BRANCH  27  46
ATOM     46  C   UNL A   1      38.618  29.182  28.976  1.00  0.00    -0.014 A 
ATOM     47  C   UNL A   1      38.086  29.627  27.757  1.00  0.00     0.009 A 
ATOM     48  C   UNL A   1      37.778  29.112  30.100  1.00  0.00     0.009 A 
ATOM     49  C   UNL A   1      36.748  30.016  27.672  1.00  0.00     0.001 A 
ATOM     50  C   UNL A   1      36.434  29.472  30.003  1.00  0.00     0.001 A 
ATOM     51  C   UNL A   1      35.922  29.933  28.793  1.00  0.00     0.000 A 
ENDBRANCH  27  46
BRANCH  39  52
ATOM     52  C   UNL A   1      44.415  32.494  30.896  1.00  0.00    -0.014 A 
ATOM     53  C   UNL A   1      44.781  33.497  29.984  1.00  0.00     0.009 A 
ATOM     54  C   UNL A   1      44.283  32.820  32.254  1.00  0.00     0.009 A 
ATOM     55  C   UNL A   1      45.052  34.791  30.432  1.00  0.00     0.001 A 
ATOM     56  C   UNL A   1      44.529  34.121  32.694  1.00  0.00     0.001 A 
ATOM     57  C   UNL A   1      44.924  35.102  31.786  1.00  0.00     0.000 A 
ENDBRANCH  39  52
ENDBRANCH  13  14
ENDBRANCH   6   8
ENDBRANCH   3   4
ENDBRANCH   2   3
ENDBRANCH   1   2
BRANCH   1  58
ATOM     58  C   UNL A   1      35.937  21.797  24.632  1.00  0.00     0.002 C 
BRANCH  58  59
ATOM     59  C   UNL A   1      35.648  22.749  25.802  1.00  0.00     0.021 C 
BRANCH  59  60
ATOM     60  C   UNL A   1      35.478  24.215  25.409  1.00  0.00     0.116 C 
BRANCH  60  61
ATOM     61  N   UNL A   1      35.032  24.353  24.037  1.00  0.00    -0.356 N 
ATOM     62  C   UNL A   1      33.779  24.566  23.541  1.00  0.00     0.229 C 
ATOM     63  H   UNL A   1      35.743  24.283  23.359  1.00  0.00     0.163 HD
ATOM     64  O   UNL A   1      33.660  24.692  22.324  1.00  0.00    -0.275 OA
BRANCH  62  65
ATOM     65  C   UNL A   1      32.620  24.711  24.521  1.00  0.00     0.146 C 
ATOM     66  C   UNL A   1      31.879  26.005  24.208  1.00  0.00     0.274 C 
ATOM     67  C   UNL A   1      31.508  23.667  24.382  1.00  0.00     0.092 C 
ATOM     68  N   UNL A   1      30.855  25.682  23.203  1.00  0.00    -0.345 N 
ATOM     69  C   UNL A   1      30.696  24.213  23.201  1.00  0.00     0.269 C 
ATOM     70  H   UNL A   1      31.155  26.002  22.281  1.00  0.00     0.346 HD
ATOM     71  H   UNL A   1      29.972  26.143  23.423  1.00  0.00     0.346 HD
BRANCH  67  72
ATOM     72  C   UNL A   1      31.956  22.221  24.360  1.00  0.00    -0.038 A 
ATOM     73  C   UNL A   1      32.272  21.514  25.522  1.00  0.00     0.004 A 
ATOM     74  C   UNL A   1      32.091  21.550  23.137  1.00  0.00     0.004 A 
ATOM     75  C   UNL A   1      32.648  20.165  25.462  1.00  0.00     0.004 A 
ATOM     76  C   UNL A   1      32.464  20.200  23.085  1.00  0.00     0.004 A 
ATOM     77  C   UNL A   1      32.735  19.465  24.247  1.00  0.00    -0.045 A 
BRANCH  77  78
ATOM     78  C   UNL A   1      33.096  17.994  24.258  1.00  0.00     0.019 C 
ATOM     79  C   UNL A   1      33.555  17.235  23.037  1.00  0.00     0.009 C 
ATOM     80  C   UNL A   1      34.543  17.588  24.110  1.00  0.00     0.009 C 
ENDBRANCH  77  78
ENDBRANCH  67  72
ENDBRANCH  62  65
ENDBRANCH  60  61
ENDBRANCH  59  60
ENDBRANCH  58  59
ENDBRANCH   1  58
TORSDOF 15
ENDMDL
MODEL 2
REMARK VINA RESULT:     -10.7      4.242      9.534
REMARK SMILES O=C(NCCCCCCNC(=O)[C@H]1C[NH2+]C[C@H]1c1ccc(C2CC2)cc1)c1ccc(-c2c3nc(c(-c4ccccc4)c4ccc([nH]4)c(-c4ccccc4)c4nc(c(-c5ccccc5)c5ccc2[nH]5)C=C4)C=C3)cc1
REMARK SMILES IDX 6 1 5 2 4 3 3 4 1 5 2 6 27 8 28 9 74 10 29 11 73 12 30 13
REMARK SMILES IDX 31 14 32 15 67 16 33 17 72 18 66 19 68 20 34 21 71 22 65 23
REMARK SMILES IDX 64 24 35 26 57 27 42 28 56 29 43 30 46 31 55 32 69 33 44 34
REMARK SMILES IDX 45 35 54 37 70 38 47 39 36 40 37 41 41 42 38 43 40 44 39 45
REMARK SMILES IDX 58 46 59 47 63 48 60 49 62 50 61 51 48 52 49 53 53 54 50 55
REMARK SMILES IDX 52 56 51 57 7 58 8 59 9 60 10 61 11 62 12 64 13 65 14 66
REMARK SMILES IDX 17 67 15 68 16 69 18 72 19 73 26 74 20 75 25 76 21 77 22 78
REMARK SMILES IDX 23 79 24 80
REMARK H PARENT 3 7 68 25 46 36 10 63 15 70 15 71
REMARK Flexibility Score: inf
ROOT
ATOM      1  C   UNL A   1      31.241  30.720  25.561  1.00  0.00     0.002 C 
ENDROOT
BRANCH   1   2
ATOM      2  C   UNL A   1      31.078  31.894  26.524  1.00  0.00     0.021 C 
BRANCH   2   3
ATOM      3  C   UNL A   1      32.382  32.535  26.978  1.00  0.00     0.116 C 
BRANCH   3   4
ATOM      4  N   UNL A   1      32.204  33.887  27.483  1.00  0.00    -0.352 N 
ATOM      5  O   UNL A   1      32.614  35.667  28.816  1.00  0.00    -0.269 OA
ATOM      6  C   UNL A   1      32.978  34.575  28.387  1.00  0.00     0.251 C 
ATOM      7  H   UNL A   1      31.425  34.375  27.130  1.00  0.00     0.163 HD
BRANCH   6   8
ATOM      8  C   UNL A   1      34.245  33.979  28.866  1.00  0.00     0.039 A 
ATOM      9  C   UNL A   1      34.233  32.998  29.859  1.00  0.00     0.014 A 
ATOM     10  C   UNL A   1      35.459  34.414  28.325  1.00  0.00     0.014 A 
ATOM     11  C   UNL A   1      35.430  32.567  30.414  1.00  0.00     0.010 A 
ATOM     12  C   UNL A   1      36.665  33.906  28.820  1.00  0.00     0.010 A 
ATOM     13  C   UNL A   1      36.661  32.999  29.890  1.00  0.00    -0.014 A 
BRANCH  13  14
ATOM     14  C   UNL A   1      37.910  32.415  30.443  1.00  0.00     0.031 A 
ATOM     15  C   UNL A   1      38.527  32.923  31.715  1.00  0.00     0.074 A 
ATOM     16  C   UNL A   1      38.447  31.353  29.808  1.00  0.00     0.049 A 
ATOM     17  N   UNL A   1      39.555  32.445  32.374  1.00  0.00    -0.248 NA
ATOM     18  C   UNL A   1      37.926  34.117  32.327  1.00  0.00     0.031 C 
ATOM     19  C   UNL A   1      37.947  30.783  28.553  1.00  0.00     0.029 A 
ATOM     20  N   UNL A   1      39.496  30.540  30.146  1.00  0.00    -0.354 N 
ATOM     21  C   UNL A   1      39.730  33.283  33.468  1.00  0.00     0.074 A 
ATOM     22  C   UNL A   1      38.719  34.315  33.373  1.00  0.00     0.031 C 
ATOM     23  C   UNL A   1      38.642  29.673  28.267  1.00  0.00     0.029 A 
ATOM     24  C   UNL A   1      39.673  29.489  29.280  1.00  0.00     0.049 A 
ATOM     25  H   UNL A   1      40.068  30.695  30.933  1.00  0.00     0.167 HD
ATOM     26  C   UNL A   1      40.646  33.195  34.463  1.00  0.00     0.031 A 
ATOM     27  C   UNL A   1      40.566  28.484  29.293  1.00  0.00     0.031 A 
ATOM     28  C   UNL A   1      41.656  32.171  34.554  1.00  0.00     0.049 A 
ATOM     29  C   UNL A   1      41.568  28.415  30.407  1.00  0.00     0.074 A 
ATOM     30  C   UNL A   1      42.624  31.998  35.529  1.00  0.00     0.029 A 
ATOM     31  N   UNL A   1      41.826  31.146  33.636  1.00  0.00    -0.354 N 
ATOM     32  N   UNL A   1      41.702  29.205  31.445  1.00  0.00    -0.248 NA
ATOM     33  C   UNL A   1      42.540  27.316  30.351  1.00  0.00     0.031 C 
ATOM     34  C   UNL A   1      43.407  30.891  35.178  1.00  0.00     0.029 A 
ATOM     35  C   UNL A   1      42.893  30.346  34.013  1.00  0.00     0.049 A 
ATOM     36  H   UNL A   1      41.272  31.007  32.835  1.00  0.00     0.167 HD
ATOM     37  C   UNL A   1      42.773  28.699  32.165  1.00  0.00     0.074 A 
ATOM     38  C   UNL A   1      43.226  27.513  31.468  1.00  0.00     0.031 C 
ATOM     39  C   UNL A   1      43.341  29.180  33.297  1.00  0.00     0.031 A 
BRANCH  26  40
ATOM     40  C   UNL A   1      40.611  34.247  35.537  1.00  0.00    -0.014 A 
ATOM     41  C   UNL A   1      41.310  35.455  35.394  1.00  0.00     0.009 A 
ATOM     42  C   UNL A   1      39.815  34.054  36.679  1.00  0.00     0.009 A 
ATOM     43  C   UNL A   1      41.234  36.440  36.382  1.00  0.00     0.001 A 
ATOM     44  C   UNL A   1      39.723  35.050  37.654  1.00  0.00     0.001 A 
ATOM     45  C   UNL A   1      40.436  36.239  37.508  1.00  0.00     0.000 A 
ENDBRANCH  26  40
BRANCH  27  46
ATOM     46  C   UNL A   1      40.561  27.476  28.203  1.00  0.00    -0.014 A 
ATOM     47  C   UNL A   1      41.282  27.691  27.020  1.00  0.00     0.009 A 
ATOM     48  C   UNL A   1      39.839  26.281  28.352  1.00  0.00     0.009 A 
ATOM     49  C   UNL A   1      41.261  26.740  25.998  1.00  0.00     0.001 A 
ATOM     50  C   UNL A   1      39.845  25.319  27.341  1.00  0.00     0.001 A 
ATOM     51  C   UNL A   1      40.548  25.553  26.162  1.00  0.00     0.000 A 
ENDBRANCH  27  46
BRANCH  39  52
ATOM     52  C   UNL A   1      44.509  28.412  33.842  1.00  0.00    -0.014 A 
ATOM     53  C   UNL A   1      44.319  27.360  34.753  1.00  0.00     0.009 A 
ATOM     54  C   UNL A   1      45.812  28.744  33.445  1.00  0.00     0.009 A 
ATOM     55  C   UNL A   1      45.417  26.684  35.288  1.00  0.00     0.001 A 
ATOM     56  C   UNL A   1      46.906  28.049  33.961  1.00  0.00     0.001 A 
ATOM     57  C   UNL A   1      46.709  27.029  34.891  1.00  0.00     0.000 A 
ENDBRANCH  39  52
ENDBRANCH  13  14
ENDBRANCH   6   8
ENDBRANCH   3   4
ENDBRANCH   2   3
ENDBRANCH   1   2
BRANCH   1  58
ATOM     58  C   UNL A   1      31.835  29.444  26.168  1.00  0.00     0.002 C 
BRANCH  58  59
ATOM     59  C   UNL A   1      33.219  29.034  25.645  1.00  0.00     0.021 C 
BRANCH  59  60
ATOM     60  C   UNL A   1      33.660  27.624  26.035  1.00  0.00     0.116 C 
BRANCH  60  61
ATOM     61  N   UNL A   1      32.538  26.809  26.457  1.00  0.00    -0.356 N 
ATOM     62  C   UNL A   1      31.923  25.771  25.821  1.00  0.00     0.229 C 
ATOM     63  H   UNL A   1      32.163  27.041  27.337  1.00  0.00     0.163 HD
ATOM     64  O   UNL A   1      31.006  25.203  26.411  1.00  0.00    -0.275 OA
BRANCH  62  65
ATOM     65  C   UNL A   1      32.453  25.328  24.463  1.00  0.00     0.146 C 
ATOM     66  C   UNL A   1      32.732  23.831  24.515  1.00  0.00     0.274 C 
ATOM     67  C   UNL A   1      31.455  25.425  23.305  1.00  0.00     0.092 C 
ATOM     68  N   UNL A   1      31.485  23.147  24.137  1.00  0.00    -0.345 N 
ATOM     69  C   UNL A   1      30.617  24.154  23.492  1.00  0.00     0.269 C 
ATOM     70  H   UNL A   1      31.027  22.770  24.967  1.00  0.00     0.346 HD
ATOM     71  H   UNL A   1      31.675  22.371  23.503  1.00  0.00     0.346 HD
BRANCH  67  72
ATOM     72  C   UNL A   1      30.748  26.754  23.148  1.00  0.00    -0.038 A 
ATOM     73  C   UNL A   1      31.368  27.873  22.587  1.00  0.00     0.004 A 
ATOM     74  C   UNL A   1      29.430  26.903  23.598  1.00  0.00     0.004 A 
ATOM     75  C   UNL A   1      30.668  29.076  22.426  1.00  0.00     0.004 A 
ATOM     76  C   UNL A   1      28.735  28.107  23.431  1.00  0.00     0.004 A 
ATOM     77  C   UNL A   1      29.329  29.222  22.823  1.00  0.00    -0.045 A 
BRANCH  77  78
ATOM     78  C   UNL A   1      28.614  30.535  22.573  1.00  0.00     0.019 C 
ATOM     79  C   UNL A   1      27.520  31.076  23.459  1.00  0.00     0.009 C 
ATOM     80  C   UNL A   1      28.881  31.706  23.487  1.00  0.00     0.009 C 
ENDBRANCH  77  78
ENDBRANCH  67  72
ENDBRANCH  62  65
ENDBRANCH  60  61
ENDBRANCH  59  60
ENDBRANCH  58  59
ENDBRANCH   1  58
TORSDOF 15
ENDMDL
MODEL 3
REMARK VINA RESULT:     -10.7      0.420      5.982
REMARK SMILES O=C(NCCCCCCNC(=O)[C@H]1C[NH2+]C[C@H]1c1ccc(C2CC2)cc1)c1ccc(-c2c3nc(c(-c4ccccc4)c4ccc([nH]4)c(-c4ccccc4)c4nc(c(-c5ccccc5)c5ccc2[nH]5)C=C4)C=C3)cc1
REMARK SMILES IDX 6 1 5 2 4 3 3 4 1 5 2 6 27 8 28 9 74 10 29 11 73 12 30 13
REMARK SMILES IDX 31 14 32 15 67 16 33 17 72 18 66 19 68 20 34 21 71 22 65 23
REMARK SMILES IDX 64 24 35 26 57 27 42 28 56 29 43 30 46 31 55 32 69 33 44 34
REMARK SMILES IDX 45 35 54 37 70 38 47 39 36 40 37 41 41 42 38 43 40 44 39 45
REMARK SMILES IDX 58 46 59 47 63 48 60 49 62 50 61 51 48 52 49 53 53 54 50 55
REMARK SMILES IDX 52 56 51 57 7 58 8 59 9 60 10 61 11 62 12 64 13 65 14 66
REMARK SMILES IDX 17 67 15 68 16 69 18 72 19 73 26 74 20 75 25 76 21 77 22 78
REMARK SMILES IDX 23 79 24 80
REMARK H PARENT 3 7 68 25 46 36 10 63 15 70 15 71
REMARK Flexibility Score: inf
ROOT
ATOM      1  C   UNL A   1      36.568  20.264  24.863  1.00  0.00     0.002 C 
ENDROOT
BRANCH   1   2
ATOM      2  C   UNL A   1      37.835  19.416  24.962  1.00  0.00     0.021 C 
BRANCH   2   3
ATOM      3  C   UNL A   1      38.976  20.058  25.737  1.00  0.00     0.116 C 
BRANCH   3   4
ATOM      4  N   UNL A   1      40.159  19.215  25.808  1.00  0.00    -0.352 N 
ATOM      5  O   UNL A   1      42.364  18.759  26.018  1.00  0.00    -0.269 OA
ATOM      6  C   UNL A   1      41.447  19.567  26.138  1.00  0.00     0.251 C 
ATOM      7  H   UNL A   1      40.019  18.265  25.589  1.00  0.00     0.163 HD
BRANCH   6   8
ATOM      8  C   UNL A   1      41.728  20.938  26.616  1.00  0.00     0.039 A 
ATOM      9  C   UNL A   1      42.062  21.947  25.711  1.00  0.00     0.014 A 
ATOM     10  C   UNL A   1      41.670  21.217  27.985  1.00  0.00     0.014 A 
ATOM     11  C   UNL A   1      42.483  23.183  26.182  1.00  0.00     0.010 A 
ATOM     12  C   UNL A   1      42.002  22.494  28.452  1.00  0.00     0.010 A 
ATOM     13  C   UNL A   1      42.440  23.480  27.556  1.00  0.00    -0.014 A 
BRANCH  13  14
ATOM     14  C   UNL A   1      42.788  24.855  27.994  1.00  0.00     0.031 A 
ATOM     15  C   UNL A   1      41.736  25.904  28.222  1.00  0.00     0.074 A 
ATOM     16  C   UNL A   1      44.082  25.127  28.258  1.00  0.00     0.049 A 
ATOM     17  N   UNL A   1      41.878  27.114  28.705  1.00  0.00    -0.248 NA
ATOM     18  C   UNL A   1      40.352  25.562  27.863  1.00  0.00     0.031 C 
ATOM     19  C   UNL A   1      45.195  24.195  28.055  1.00  0.00     0.029 A 
ATOM     20  N   UNL A   1      44.675  26.241  28.790  1.00  0.00    -0.354 N 
ATOM     21  C   UNL A   1      40.610  27.680  28.697  1.00  0.00     0.074 A 
ATOM     22  C   UNL A   1      39.712  26.691  28.138  1.00  0.00     0.031 C 
ATOM     23  C   UNL A   1      46.322  24.748  28.525  1.00  0.00     0.029 A 
ATOM     24  C   UNL A   1      46.024  26.092  29.003  1.00  0.00     0.049 A 
ATOM     25  H   UNL A   1      44.183  27.068  29.000  1.00  0.00     0.167 HD
ATOM     26  C   UNL A   1      40.228  28.910  29.122  1.00  0.00     0.031 A 
ATOM     27  C   UNL A   1      46.928  26.940  29.522  1.00  0.00     0.031 A 
ATOM     28  C   UNL A   1      41.124  29.896  29.672  1.00  0.00     0.049 A 
ATOM     29  C   UNL A   1      46.476  28.294  29.982  1.00  0.00     0.074 A 
ATOM     30  C   UNL A   1      40.828  31.167  30.135  1.00  0.00     0.029 A 
ATOM     31  N   UNL A   1      42.489  29.720  29.835  1.00  0.00    -0.354 N 
ATOM     32  N   UNL A   1      45.267  28.801  29.988  1.00  0.00    -0.248 NA
ATOM     33  C   UNL A   1      47.512  29.190  30.510  1.00  0.00     0.031 C 
ATOM     34  C   UNL A   1      42.021  31.776  30.540  1.00  0.00     0.029 A 
ATOM     35  C   UNL A   1      43.052  30.865  30.377  1.00  0.00     0.049 A 
ATOM     36  H   UNL A   1      42.986  28.903  29.600  1.00  0.00     0.167 HD
ATOM     37  C   UNL A   1      45.397  30.075  30.516  1.00  0.00     0.074 A 
ATOM     38  C   UNL A   1      46.794  30.248  30.858  1.00  0.00     0.031 C 
ATOM     39  C   UNL A   1      44.447  31.025  30.693  1.00  0.00     0.031 A 
BRANCH  26  40
ATOM     40  C   UNL A   1      38.773  29.269  28.998  1.00  0.00    -0.014 A 
ATOM     41  C   UNL A   1      38.239  29.725  27.783  1.00  0.00     0.009 A 
ATOM     42  C   UNL A   1      37.913  29.089  30.093  1.00  0.00     0.009 A 
ATOM     43  C   UNL A   1      36.877  30.016  27.673  1.00  0.00     0.001 A 
ATOM     44  C   UNL A   1      36.547  29.358  29.973  1.00  0.00     0.001 A 
ATOM     45  C   UNL A   1      36.032  29.826  28.766  1.00  0.00     0.000 A 
ENDBRANCH  26  40
BRANCH  27  46
ATOM     46  C   UNL A   1      48.354  26.536  29.615  1.00  0.00    -0.014 A 
ATOM     47  C   UNL A   1      48.828  25.819  30.723  1.00  0.00     0.009 A 
ATOM     48  C   UNL A   1      49.246  26.857  28.579  1.00  0.00     0.009 A 
ATOM     49  C   UNL A   1      50.173  25.453  30.802  1.00  0.00     0.001 A 
ATOM     50  C   UNL A   1      50.583  26.462  28.648  1.00  0.00     0.001 A 
ATOM     51  C   UNL A   1      51.048  25.769  29.763  1.00  0.00     0.000 A 
ENDBRANCH  27  46
BRANCH  39  52
ATOM     52  C   UNL A   1      44.900  32.327  31.286  1.00  0.00    -0.014 A 
ATOM     53  C   UNL A   1      45.339  33.380  30.467  1.00  0.00     0.009 A 
ATOM     54  C   UNL A   1      44.892  32.502  32.678  1.00  0.00     0.009 A 
ATOM     55  C   UNL A   1      45.801  34.568  31.034  1.00  0.00     0.001 A 
ATOM     56  C   UNL A   1      45.329  33.702  33.241  1.00  0.00     0.001 A 
ATOM     57  C   UNL A   1      45.795  34.728  32.420  1.00  0.00     0.000 A 
ENDBRANCH  39  52
ENDBRANCH  13  14
ENDBRANCH   6   8
ENDBRANCH   3   4
ENDBRANCH   2   3
ENDBRANCH   1   2
BRANCH   1  58
ATOM     58  C   UNL A   1      36.783  21.781  24.891  1.00  0.00     0.002 C 
BRANCH  58  59
ATOM     59  C   UNL A   1      36.045  22.544  26.000  1.00  0.00     0.021 C 
BRANCH  59  60
ATOM     60  C   UNL A   1      35.629  23.966  25.633  1.00  0.00     0.116 C 
BRANCH  60  61
ATOM     61  N   UNL A   1      35.241  24.068  24.240  1.00  0.00    -0.356 N 
ATOM     62  C   UNL A   1      34.008  24.244  23.685  1.00  0.00     0.229 C 
ATOM     63  H   UNL A   1      35.983  23.999  23.596  1.00  0.00     0.163 HD
ATOM     64  O   UNL A   1      33.940  24.344  22.461  1.00  0.00    -0.275 OA
BRANCH  62  65
ATOM     65  C   UNL A   1      32.804  24.384  24.609  1.00  0.00     0.146 C 
ATOM     66  C   UNL A   1      32.079  25.681  24.269  1.00  0.00     0.274 C 
ATOM     67  C   UNL A   1      31.699  23.342  24.411  1.00  0.00     0.092 C 
ATOM     68  N   UNL A   1      31.103  25.365  23.214  1.00  0.00    -0.345 N 
ATOM     69  C   UNL A   1      30.944  23.896  23.196  1.00  0.00     0.269 C 
ATOM     70  H   UNL A   1      31.447  25.691  22.310  1.00  0.00     0.346 HD
ATOM     71  H   UNL A   1      30.212  25.825  23.395  1.00  0.00     0.346 HD
BRANCH  67  72
ATOM     72  C   UNL A   1      32.146  21.896  24.401  1.00  0.00    -0.038 A 
ATOM     73  C   UNL A   1      32.622  21.248  25.543  1.00  0.00     0.004 A 
ATOM     74  C   UNL A   1      32.116  21.163  23.207  1.00  0.00     0.004 A 
ATOM     75  C   UNL A   1      32.992  19.898  25.501  1.00  0.00     0.004 A 
ATOM     76  C   UNL A   1      32.485  19.812  23.173  1.00  0.00     0.004 A 
ATOM     77  C   UNL A   1      32.916  19.136  24.322  1.00  0.00    -0.045 A 
BRANCH  77  78
ATOM     78  C   UNL A   1      33.282  17.667  24.358  1.00  0.00     0.019 C 
ATOM     79  C   UNL A   1      33.886  16.926  23.191  1.00  0.00     0.009 C 
ATOM     80  C   UNL A   1      34.739  17.270  24.377  1.00  0.00     0.009 C 
ENDBRANCH  77  78
ENDBRANCH  67  72
ENDBRANCH  62  65
ENDBRANCH  60  61
ENDBRANCH  59  60
ENDBRANCH  58  59
ENDBRANCH   1  58
TORSDOF 15
ENDMDL
