MODEL 1
REMARK VINA RESULT:     -11.9      0.000      0.000
REMARK SMILES CCCCN(c1ccccc1C(=O)NCCCCCCNC(=O)c1ccc(-c2c3nc(c(-c4ccccc4)c4ccc([nH]4)c(-c4ccccc4)c4nc(c(-c5ccccc5)c5ccc2[nH]5)C=C4)C=C3)cc1)S(=O)(=O)c1ccc2c(c1)oc(=O)n2C
REMARK SMILES IDX 16 1 15 2 14 3 12 4 13 5 11 7 6 8 7 9 8 10 10 11 9 12 5 13
REMARK SMILES IDX 4 14 3 15 2 16 1 17 72 18 73 19 74 20 75 21 76 22 80 23
REMARK SMILES IDX 77 24 79 25 78 26 81 27 84 28 82 29 85 30 83 31 17 32 18 33
REMARK SMILES IDX 19 34 20 35 21 36 22 37 23 39 24 40 25 41 71 42 26 43 70 44
REMARK SMILES IDX 27 45 28 46 29 47 64 48 30 49 69 50 63 51 65 52 31 53 68 54
REMARK SMILES IDX 62 55 61 56 32 58 54 59 39 60 53 61 40 62 43 63 52 64 66 65
REMARK SMILES IDX 41 66 42 67 51 69 67 70 44 71 33 72 34 73 38 74 35 75 37 76
REMARK SMILES IDX 36 77 55 78 56 79 60 80 57 81 59 82 58 83 45 84 46 85 50 86
REMARK SMILES IDX 47 87 49 88 48 89
REMARK H PARENT 14 6 21 38 65 57 43 68
REMARK Flexibility Score: inf
ROOT
ATOM      1  C   UNL A   1      31.728  28.118  25.986  1.00  0.00     0.021 C 
ENDROOT
BRANCH   1   2
ATOM      2  C   UNL A   1      31.994  26.888  26.838  1.00  0.00     0.116 C 
BRANCH   2   3
ATOM      3  N   UNL A   1      31.144  25.754  26.771  1.00  0.00    -0.352 N 
ATOM      4  C   UNL A   1      31.513  24.428  26.724  1.00  0.00     0.253 C 
ATOM      5  O   UNL A   1      30.635  23.681  27.185  1.00  0.00    -0.269 OA
ATOM      6  H   UNL A   1      30.177  25.937  26.758  1.00  0.00     0.163 HD
BRANCH   4   7
ATOM      7  C   UNL A   1      32.788  23.762  26.169  1.00  0.00     0.064 A 
ATOM      8  C   UNL A   1      33.458  23.645  24.908  1.00  0.00     0.065 A 
ATOM      9  C   UNL A   1      34.764  23.078  24.876  1.00  0.00     0.028 A 
ATOM     10  C   UNL A   1      35.389  22.526  25.990  1.00  0.00     0.002 A 
ATOM     11  C   UNL A   1      33.477  23.159  27.276  1.00  0.00     0.016 A 
ATOM     12  C   UNL A   1      34.728  22.544  27.196  1.00  0.00     0.001 A 
BRANCH   8  13
ATOM     13  N   UNL A   1      33.025  23.904  23.529  1.00  0.00    -0.266 N 
BRANCH  13  14
ATOM     14  C   UNL A   1      33.185  22.801  22.525  1.00  0.00     0.136 C 
BRANCH  14  15
ATOM     15  C   UNL A   1      32.153  21.676  22.502  1.00  0.00     0.022 C 
BRANCH  15  16
ATOM     16  C   UNL A   1      32.417  20.347  23.245  1.00  0.00    -0.002 C 
ATOM     17  C   UNL A   1      32.299  20.273  24.765  1.00  0.00     0.004 C 
ENDBRANCH  15  16
ENDBRANCH  14  15
ENDBRANCH  13  14
BRANCH  13  18
ATOM     18  S   UNL A   1      33.269  25.538  23.000  1.00  0.00     0.264 S 
ATOM     19  O   UNL A   1      33.958  26.292  24.022  1.00  0.00    -0.201 OA
ATOM     20  O   UNL A   1      33.824  25.475  21.666  1.00  0.00    -0.201 OA
BRANCH  18  21
ATOM     21  C   UNL A   1      31.692  26.356  22.786  1.00  0.00     0.091 A 
ATOM     22  C   UNL A   1      30.552  25.924  23.499  1.00  0.00     0.025 A 
ATOM     23  C   UNL A   1      31.694  27.605  22.143  1.00  0.00     0.071 A 
ATOM     24  C   UNL A   1      29.384  26.705  23.523  1.00  0.00     0.032 A 
ATOM     25  C   UNL A   1      30.551  28.367  22.224  1.00  0.00     0.157 A 
ATOM     26  C   UNL A   1      29.423  27.928  22.885  1.00  0.00     0.090 A 
ATOM     27  O   UNL A   1      30.419  29.646  21.708  1.00  0.00    -0.408 OA
ATOM     28  N   UNL A   1      28.509  28.947  22.763  1.00  0.00    -0.277 N 
ATOM     29  C   UNL A   1      29.112  29.984  22.077  1.00  0.00     0.419 A 
ATOM     30  C   UNL A   1      27.175  28.990  23.282  1.00  0.00     0.157 C 
ATOM     31  O   UNL A   1      28.604  31.066  21.813  1.00  0.00    -0.223 OA
ENDBRANCH  18  21
ENDBRANCH  13  18
ENDBRANCH   8  13
ENDBRANCH   4   7
ENDBRANCH   2   3
ENDBRANCH   1   2
BRANCH   1  32
ATOM     32  C   UNL A   1      31.891  29.487  26.659  1.00  0.00     0.002 C 
BRANCH  32  33
ATOM     33  C   UNL A   1      31.447  30.761  25.921  1.00  0.00     0.002 C 
BRANCH  33  34
ATOM     34  C   UNL A   1      31.381  32.123  26.631  1.00  0.00     0.021 C 
BRANCH  34  35
ATOM     35  C   UNL A   1      32.617  32.663  27.349  1.00  0.00     0.116 C 
BRANCH  35  36
ATOM     36  N   UNL A   1      32.473  34.057  27.715  1.00  0.00    -0.352 N 
ATOM     37  C   UNL A   1      33.130  34.764  28.696  1.00  0.00     0.251 C 
ATOM     38  H   UNL A   1      31.814  34.569  27.192  1.00  0.00     0.163 HD
ATOM     39  O   UNL A   1      32.675  35.844  29.065  1.00  0.00    -0.269 OA
BRANCH  37  40
ATOM     40  C   UNL A   1      34.389  34.262  29.314  1.00  0.00     0.039 A 
ATOM     41  C   UNL A   1      35.584  34.381  28.593  1.00  0.00     0.014 A 
ATOM     42  C   UNL A   1      34.392  33.569  30.529  1.00  0.00     0.014 A 
ATOM     43  C   UNL A   1      36.765  33.804  29.077  1.00  0.00     0.010 A 
ATOM     44  C   UNL A   1      35.585  33.038  31.038  1.00  0.00     0.010 A 
ATOM     45  C   UNL A   1      36.780  33.118  30.302  1.00  0.00    -0.014 A 
BRANCH  45  46
ATOM     46  C   UNL A   1      38.014  32.423  30.773  1.00  0.00     0.031 A 
ATOM     47  C   UNL A   1      38.776  32.950  31.966  1.00  0.00     0.074 A 
ATOM     48  C   UNL A   1      38.461  31.318  30.142  1.00  0.00     0.049 A 
ATOM     49  N   UNL A   1      39.863  32.482  32.529  1.00  0.00    -0.248 NA
ATOM     50  C   UNL A   1      38.254  34.171  32.602  1.00  0.00     0.031 C 
ATOM     51  C   UNL A   1      37.837  30.701  28.971  1.00  0.00     0.029 A 
ATOM     52  N   UNL A   1      39.546  30.514  30.402  1.00  0.00    -0.354 N 
ATOM     53  C   UNL A   1      40.161  33.355  33.570  1.00  0.00     0.074 A 
ATOM     54  C   UNL A   1      39.169  34.408  33.530  1.00  0.00     0.031 C 
ATOM     55  C   UNL A   1      38.533  29.603  28.630  1.00  0.00     0.029 A 
ATOM     56  C   UNL A   1      39.672  29.457  29.533  1.00  0.00     0.049 A 
ATOM     57  H   UNL A   1      40.173  30.679  31.143  1.00  0.00     0.167 HD
ATOM     58  C   UNL A   1      41.154  33.284  34.489  1.00  0.00     0.031 A 
ATOM     59  C   UNL A   1      40.601  28.482  29.463  1.00  0.00     0.031 A 
ATOM     60  C   UNL A   1      42.141  32.238  34.542  1.00  0.00     0.049 A 
ATOM     61  C   UNL A   1      41.713  28.443  30.477  1.00  0.00     0.074 A 
ATOM     62  C   UNL A   1      43.160  32.060  35.464  1.00  0.00     0.029 A 
ATOM     63  N   UNL A   1      42.237  31.196  33.633  1.00  0.00    -0.354 N 
ATOM     64  N   UNL A   1      41.939  29.244  31.490  1.00  0.00    -0.248 NA
ATOM     65  C   UNL A   1      42.691  27.352  30.346  1.00  0.00     0.031 C 
ATOM     66  C   UNL A   1      43.908  30.943  35.079  1.00  0.00     0.029 A 
ATOM     67  C   UNL A   1      43.312  30.385  33.960  1.00  0.00     0.049 A 
ATOM     68  H   UNL A   1      41.632  31.053  32.871  1.00  0.00     0.167 HD
ATOM     69  C   UNL A   1      43.057  28.729  32.139  1.00  0.00     0.074 A 
ATOM     70  C   UNL A   1      43.453  27.541  31.413  1.00  0.00     0.031 C 
ATOM     71  C   UNL A   1      43.694  29.198  33.239  1.00  0.00     0.031 A 
BRANCH  58  72
ATOM     72  C   UNL A   1      41.235  34.382  35.518  1.00  0.00    -0.014 A 
ATOM     73  C   UNL A   1      40.573  34.276  36.752  1.00  0.00     0.009 A 
ATOM     74  C   UNL A   1      42.028  35.514  35.270  1.00  0.00     0.009 A 
ATOM     75  C   UNL A   1      40.674  35.297  37.700  1.00  0.00     0.001 A 
ATOM     76  C   UNL A   1      42.153  36.518  36.233  1.00  0.00     0.001 A 
ATOM     77  C   UNL A   1      41.469  36.413  37.442  1.00  0.00     0.000 A 
ENDBRANCH  58  72
BRANCH  59  78
ATOM     78  C   UNL A   1      40.526  27.448  28.395  1.00  0.00    -0.014 A 
ATOM     79  C   UNL A   1      41.169  27.640  27.161  1.00  0.00     0.009 A 
ATOM     80  C   UNL A   1      39.778  26.275  28.589  1.00  0.00     0.009 A 
ATOM     81  C   UNL A   1      41.032  26.702  26.135  1.00  0.00     0.001 A 
ATOM     82  C   UNL A   1      39.672  25.323  27.574  1.00  0.00     0.001 A 
ATOM     83  C   UNL A   1      40.288  25.542  26.343  1.00  0.00     0.000 A 
ENDBRANCH  59  78
BRANCH  71  84
ATOM     84  C   UNL A   1      44.853  28.395  33.766  1.00  0.00    -0.014 A 
ATOM     85  C   UNL A   1      44.667  27.308  34.633  1.00  0.00     0.009 A 
ATOM     86  C   UNL A   1      46.156  28.715  33.351  1.00  0.00     0.009 A 
ATOM     87  C   UNL A   1      45.763  26.584  35.106  1.00  0.00     0.001 A 
ATOM     88  C   UNL A   1      47.248  27.969  33.797  1.00  0.00     0.001 A 
ATOM     89  C   UNL A   1      47.052  26.911  34.683  1.00  0.00     0.000 A 
ENDBRANCH  71  84
ENDBRANCH  45  46
ENDBRANCH  37  40
ENDBRANCH  35  36
ENDBRANCH  34  35
ENDBRANCH  33  34
ENDBRANCH  32  33
ENDBRANCH   1  32
TORSDOF 19
ENDMDL
MODEL 2
REMARK VINA RESULT:     -11.4      3.717      7.159
REMARK SMILES CCCCN(c1ccccc1C(=O)NCCCCCCNC(=O)c1ccc(-c2c3nc(c(-c4ccccc4)c4ccc([nH]4)c(-c4ccccc4)c4nc(c(-c5ccccc5)c5ccc2[nH]5)C=C4)C=C3)cc1)S(=O)(=O)c1ccc2c(c1)oc(=O)n2C
REMARK SMILES IDX 16 1 15 2 14 3 12 4 13 5 11 7 6 8 7 9 8 10 10 11 9 12 5 13
REMARK SMILES IDX 4 14 3 15 2 16 1 17 72 18 73 19 74 20 75 21 76 22 80 23
REMARK SMILES IDX 77 24 79 25 78 26 81 27 84 28 82 29 85 30 83 31 17 32 18 33
REMARK SMILES IDX 19 34 20 35 21 36 22 37 23 39 24 40 25 41 71 42 26 43 70 44
REMARK SMILES IDX 27 45 28 46 29 47 64 48 30 49 69 50 63 51 65 52 31 53 68 54
REMARK SMILES IDX 62 55 61 56 32 58 54 59 39 60 53 61 40 62 43 63 52 64 66 65
REMARK SMILES IDX 41 66 42 67 51 69 67 70 44 71 33 72 34 73 38 74 35 75 37 76
REMARK SMILES IDX 36 77 55 78 56 79 60 80 57 81 59 82 58 83 45 84 46 85 50 86
REMARK SMILES IDX 47 87 49 88 48 89
REMARK H PARENT 14 6 21 38 65 57 43 68
REMARK Flexibility Score: inf
ROOT
ATOM      1  C   UNL A   1      31.304  27.891  26.533  1.00  0.00     0.021 C 
ENDROOT
BRANCH   1   2
ATOM      2  C   UNL A   1      32.081  26.598  26.717  1.00  0.00     0.116 C 
BRANCH   2   3
ATOM      3  N   UNL A   1      31.411  25.360  26.893  1.00  0.00    -0.352 N 
ATOM      4  C   UNL A   1      31.959  24.097  26.867  1.00  0.00     0.253 C 
ATOM      5  O   UNL A   1      31.299  23.287  27.538  1.00  0.00    -0.269 OA
ATOM      6  H   UNL A   1      30.441  25.411  27.052  1.00  0.00     0.163 HD
BRANCH   4   7
ATOM      7  C   UNL A   1      33.199  23.557  26.127  1.00  0.00     0.064 A 
ATOM      8  C   UNL A   1      33.715  23.554  24.790  1.00  0.00     0.065 A 
ATOM      9  C   UNL A   1      35.042  23.089  24.569  1.00  0.00     0.028 A 
ATOM     10  C   UNL A   1      35.836  22.530  25.566  1.00  0.00     0.002 A 
ATOM     11  C   UNL A   1      34.058  22.953  27.106  1.00  0.00     0.016 A 
ATOM     12  C   UNL A   1      35.329  22.438  26.841  1.00  0.00     0.001 A 
BRANCH   8  13
ATOM     13  N   UNL A   1      33.099  23.849  23.490  1.00  0.00    -0.266 N 
BRANCH  13  14
ATOM     14  C   UNL A   1      33.135  22.779  22.439  1.00  0.00     0.136 C 
BRANCH  14  15
ATOM     15  C   UNL A   1      32.200  21.581  22.580  1.00  0.00     0.022 C 
BRANCH  15  16
ATOM     16  C   UNL A   1      32.151  20.767  23.892  1.00  0.00    -0.002 C 
ATOM     17  C   UNL A   1      33.340  19.910  24.316  1.00  0.00     0.004 C 
ENDBRANCH  15  16
ENDBRANCH  14  15
ENDBRANCH  13  14
BRANCH  13  18
ATOM     18  S   UNL A   1      33.253  25.501  22.987  1.00  0.00     0.264 S 
ATOM     19  O   UNL A   1      33.933  26.269  24.004  1.00  0.00    -0.201 OA
ATOM     20  O   UNL A   1      33.775  25.488  21.637  1.00  0.00    -0.201 OA
BRANCH  18  21
ATOM     21  C   UNL A   1      31.635  26.249  22.828  1.00  0.00     0.091 A 
ATOM     22  C   UNL A   1      30.534  25.746  23.556  1.00  0.00     0.025 A 
ATOM     23  C   UNL A   1      31.563  27.512  22.217  1.00  0.00     0.071 A 
ATOM     24  C   UNL A   1      29.331  26.470  23.626  1.00  0.00     0.032 A 
ATOM     25  C   UNL A   1      30.388  28.217  22.343  1.00  0.00     0.157 A 
ATOM     26  C   UNL A   1      29.298  27.708  23.018  1.00  0.00     0.090 A 
ATOM     27  O   UNL A   1      30.184  29.499  21.863  1.00  0.00    -0.408 OA
ATOM     28  N   UNL A   1      28.334  28.686  22.943  1.00  0.00    -0.277 N 
ATOM     29  C   UNL A   1      28.871  29.766  22.269  1.00  0.00     0.419 A 
ATOM     30  C   UNL A   1      27.013  28.653  23.492  1.00  0.00     0.157 C 
ATOM     31  O   UNL A   1      28.307  30.829  22.043  1.00  0.00    -0.223 OA
ENDBRANCH  18  21
ENDBRANCH  13  18
ENDBRANCH   8  13
ENDBRANCH   4   7
ENDBRANCH   2   3
ENDBRANCH   1   2
BRANCH   1  32
ATOM     32  C   UNL A   1      31.786  29.118  27.316  1.00  0.00     0.002 C 
BRANCH  32  33
ATOM     33  C   UNL A   1      32.329  30.344  26.562  1.00  0.00     0.002 C 
BRANCH  33  34
ATOM     34  C   UNL A   1      33.370  31.283  27.193  1.00  0.00     0.021 C 
BRANCH  34  35
ATOM     35  C   UNL A   1      34.540  30.696  27.981  1.00  0.00     0.116 C 
BRANCH  35  36
ATOM     36  N   UNL A   1      34.731  31.359  29.255  1.00  0.00    -0.352 N 
ATOM     37  C   UNL A   1      35.733  31.179  30.181  1.00  0.00     0.251 C 
ATOM     38  H   UNL A   1      34.050  32.029  29.492  1.00  0.00     0.163 HD
ATOM     39  O   UNL A   1      35.578  31.599  31.324  1.00  0.00    -0.269 OA
BRANCH  37  40
ATOM     40  C   UNL A   1      37.011  30.499  29.829  1.00  0.00     0.039 A 
ATOM     41  C   UNL A   1      37.782  29.943  30.859  1.00  0.00     0.014 A 
ATOM     42  C   UNL A   1      37.522  30.510  28.527  1.00  0.00     0.014 A 
ATOM     43  C   UNL A   1      39.051  29.415  30.591  1.00  0.00     0.010 A 
ATOM     44  C   UNL A   1      38.769  29.933  28.251  1.00  0.00     0.010 A 
ATOM     45  C   UNL A   1      39.564  29.409  29.284  1.00  0.00    -0.014 A 
BRANCH  45  46
ATOM     46  C   UNL A   1      40.953  28.933  29.012  1.00  0.00     0.031 A 
ATOM     47  C   UNL A   1      41.197  27.502  28.593  1.00  0.00     0.074 A 
ATOM     48  C   UNL A   1      42.001  29.772  29.135  1.00  0.00     0.049 A 
ATOM     49  N   UNL A   1      42.328  26.904  28.306  1.00  0.00    -0.248 NA
ATOM     50  C   UNL A   1      40.018  26.626  28.497  1.00  0.00     0.031 C 
ATOM     51  C   UNL A   1      41.920  31.175  29.542  1.00  0.00     0.029 A 
ATOM     52  N   UNL A   1      43.344  29.564  28.924  1.00  0.00    -0.354 N 
ATOM     53  C   UNL A   1      41.997  25.585  28.011  1.00  0.00     0.074 A 
ATOM     54  C   UNL A   1      40.569  25.458  28.201  1.00  0.00     0.031 C 
ATOM     55  C   UNL A   1      43.153  31.708  29.527  1.00  0.00     0.029 A 
ATOM     56  C   UNL A   1      44.117  30.679  29.145  1.00  0.00     0.049 A 
ATOM     57  H   UNL A   1      43.718  28.699  28.640  1.00  0.00     0.167 HD
ATOM     58  C   UNL A   1      42.800  24.573  27.601  1.00  0.00     0.031 A 
ATOM     59  C   UNL A   1      45.451  30.856  29.057  1.00  0.00     0.031 A 
ATOM     60  C   UNL A   1      44.221  24.690  27.401  1.00  0.00     0.049 A 
ATOM     61  C   UNL A   1      46.325  29.707  28.629  1.00  0.00     0.074 A 
ATOM     62  C   UNL A   1      45.110  23.730  26.946  1.00  0.00     0.029 A 
ATOM     63  N   UNL A   1      44.961  25.834  27.650  1.00  0.00    -0.354 N 
ATOM     64  N   UNL A   1      45.984  28.486  28.295  1.00  0.00    -0.248 NA
ATOM     65  C   UNL A   1      47.771  29.969  28.551  1.00  0.00     0.031 C 
ATOM     66  C   UNL A   1      46.396  24.276  26.975  1.00  0.00     0.029 A 
ATOM     67  C   UNL A   1      46.299  25.597  27.379  1.00  0.00     0.049 A 
ATOM     68  H   UNL A   1      44.592  26.689  27.970  1.00  0.00     0.167 HD
ATOM     69  C   UNL A   1      47.165  27.849  27.928  1.00  0.00     0.074 A 
ATOM     70  C   UNL A   1      48.227  28.822  28.068  1.00  0.00     0.031 C 
ATOM     71  C   UNL A   1      47.350  26.573  27.510  1.00  0.00     0.031 A 
BRANCH  58  72
ATOM     72  C   UNL A   1      42.161  23.232  27.347  1.00  0.00    -0.014 A 
ATOM     73  C   UNL A   1      41.834  22.813  26.047  1.00  0.00     0.009 A 
ATOM     74  C   UNL A   1      41.932  22.354  28.418  1.00  0.00     0.009 A 
ATOM     75  C   UNL A   1      41.258  21.559  25.830  1.00  0.00     0.001 A 
ATOM     76  C   UNL A   1      41.386  21.088  28.195  1.00  0.00     0.001 A 
ATOM     77  C   UNL A   1      41.041  20.696  26.903  1.00  0.00     0.000 A 
ENDBRANCH  58  72
BRANCH  59  78
ATOM     78  C   UNL A   1      46.056  32.179  29.375  1.00  0.00    -0.014 A 
ATOM     79  C   UNL A   1      46.456  32.490  30.685  1.00  0.00     0.009 A 
ATOM     80  C   UNL A   1      46.204  33.154  28.375  1.00  0.00     0.009 A 
ATOM     81  C   UNL A   1      46.952  33.759  30.994  1.00  0.00     0.001 A 
ATOM     82  C   UNL A   1      46.734  34.409  28.680  1.00  0.00     0.001 A 
ATOM     83  C   UNL A   1      47.095  34.716  29.990  1.00  0.00     0.000 A 
ENDBRANCH  59  78
BRANCH  71  84
ATOM     84  C   UNL A   1      48.744  26.168  27.114  1.00  0.00    -0.014 A 
ATOM     85  C   UNL A   1      49.235  26.377  25.817  1.00  0.00     0.009 A 
ATOM     86  C   UNL A   1      49.594  25.597  28.076  1.00  0.00     0.009 A 
ATOM     87  C   UNL A   1      50.533  25.987  25.480  1.00  0.00     0.001 A 
ATOM     88  C   UNL A   1      50.902  25.240  27.748  1.00  0.00     0.001 A 
ATOM     89  C   UNL A   1      51.367  25.424  26.447  1.00  0.00     0.000 A 
ENDBRANCH  71  84
ENDBRANCH  45  46
ENDBRANCH  37  40
ENDBRANCH  35  36
ENDBRANCH  34  35
ENDBRANCH  33  34
ENDBRANCH  32  33
ENDBRANCH   1  32
TORSDOF 19
ENDMDL
MODEL 3
REMARK VINA RESULT:     -11.0      3.756      8.599
REMARK SMILES CCCCN(c1ccccc1C(=O)NCCCCCCNC(=O)c1ccc(-c2c3nc(c(-c4ccccc4)c4ccc([nH]4)c(-c4ccccc4)c4nc(c(-c5ccccc5)c5ccc2[nH]5)C=C4)C=C3)cc1)S(=O)(=O)c1ccc2c(c1)oc(=O)n2C
REMARK SMILES IDX 16 1 15 2 14 3 12 4 13 5 11 7 6 8 7 9 8 10 10 11 9 12 5 13
REMARK SMILES IDX 4 14 3 15 2 16 1 17 72 18 73 19 74 20 75 21 76 22 80 23
REMARK SMILES IDX 77 24 79 25 78 26 81 27 84 28 82 29 85 30 83 31 17 32 18 33
REMARK SMILES IDX 19 34 20 35 21 36 22 37 23 39 24 40 25 41 71 42 26 43 70 44
REMARK SMILES IDX 27 45 28 46 29 47 64 48 30 49 69 50 63 51 65 52 31 53 68 54
REMARK SMILES IDX 62 55 61 56 32 58 54 59 39 60 53 61 40 62 43 63 52 64 66 65
REMARK SMILES IDX 41 66 42 67 51 69 67 70 44 71 33 72 34 73 38 74 35 75 37 76
REMARK SMILES IDX 36 77 55 78 56 79 60 80 57 81 59 82 58 83 45 84 46 85 50 86
REMARK SMILES IDX 47 87 49 88 48 89
REMARK H PARENT 14 6 21 38 65 57 43 68
REMARK Flexibility Score: inf
ROOT
ATOM      1  C   UNL A   1      39.167  23.458  26.899  1.00  0.00     0.021 C 
ENDROOT
BRANCH   1   2
ATOM      2  C   UNL A   1      38.034  23.991  26.037  1.00  0.00     0.116 C 
BRANCH   2   3
ATOM      3  N   UNL A   1      37.451  23.193  25.019  1.00  0.00    -0.352 N 
ATOM      4  C   UNL A   1      36.127  23.148  24.641  1.00  0.00     0.253 C 
ATOM      5  O   UNL A   1      35.991  22.800  23.457  1.00  0.00    -0.269 OA
ATOM      6  H   UNL A   1      38.065  22.604  24.526  1.00  0.00     0.163 HD
BRANCH   4   7
ATOM      7  C   UNL A   1      34.843  23.418  25.450  1.00  0.00     0.064 A 
ATOM      8  C   UNL A   1      33.755  24.350  25.427  1.00  0.00     0.065 A 
ATOM      9  C   UNL A   1      32.635  24.116  26.274  1.00  0.00     0.028 A 
ATOM     10  C   UNL A   1      32.581  23.087  27.210  1.00  0.00     0.002 A 
ATOM     11  C   UNL A   1      34.736  22.391  26.447  1.00  0.00     0.016 A 
ATOM     12  C   UNL A   1      33.654  22.232  27.314  1.00  0.00     0.001 A 
BRANCH   8  13
ATOM     13  N   UNL A   1      33.570  25.640  24.751  1.00  0.00    -0.266 N 
BRANCH  13  14
ATOM     14  C   UNL A   1      33.074  26.796  25.571  1.00  0.00     0.136 C 
BRANCH  14  15
ATOM     15  C   UNL A   1      33.641  28.186  25.294  1.00  0.00     0.022 C 
BRANCH  15  16
ATOM     16  C   UNL A   1      32.802  29.452  25.583  1.00  0.00    -0.002 C 
ATOM     17  C   UNL A   1      33.145  30.355  26.764  1.00  0.00     0.004 C 
ENDBRANCH  15  16
ENDBRANCH  14  15
ENDBRANCH  13  14
BRANCH  13  18
ATOM     18  S   UNL A   1      33.040  25.514  23.105  1.00  0.00     0.264 S 
ATOM     19  O   UNL A   1      33.921  26.264  22.240  1.00  0.00    -0.201 OA
ATOM     20  O   UNL A   1      32.806  24.111  22.840  1.00  0.00    -0.201 OA
BRANCH  18  21
ATOM     21  C   UNL A   1      31.430  26.273  22.917  1.00  0.00     0.091 A 
ATOM     22  C   UNL A   1      30.337  25.852  23.707  1.00  0.00     0.025 A 
ATOM     23  C   UNL A   1      31.364  27.481  22.204  1.00  0.00     0.071 A 
ATOM     24  C   UNL A   1      29.148  26.599  23.741  1.00  0.00     0.032 A 
ATOM     25  C   UNL A   1      30.202  28.214  22.294  1.00  0.00     0.157 A 
ATOM     26  C   UNL A   1      29.120  27.782  23.032  1.00  0.00     0.090 A 
ATOM     27  O   UNL A   1      30.008  29.455  21.712  1.00  0.00    -0.408 OA
ATOM     28  N   UNL A   1      28.169  28.767  22.894  1.00  0.00    -0.277 N 
ATOM     29  C   UNL A   1      28.708  29.777  22.121  1.00  0.00     0.419 A 
ATOM     30  C   UNL A   1      26.860  28.802  23.471  1.00  0.00     0.157 C 
ATOM     31  O   UNL A   1      28.156  30.827  21.819  1.00  0.00    -0.223 OA
ENDBRANCH  18  21
ENDBRANCH  13  18
ENDBRANCH   8  13
ENDBRANCH   4   7
ENDBRANCH   2   3
ENDBRANCH   1   2
BRANCH   1  32
ATOM     32  C   UNL A   1      40.107  22.428  26.263  1.00  0.00     0.002 C 
BRANCH  32  33
ATOM     33  C   UNL A   1      40.466  21.143  27.029  1.00  0.00     0.002 C 
BRANCH  33  34
ATOM     34  C   UNL A   1      41.115  19.940  26.326  1.00  0.00     0.021 C 
BRANCH  34  35
ATOM     35  C   UNL A   1      42.479  19.435  26.795  1.00  0.00     0.116 C 
BRANCH  35  36
ATOM     36  N   UNL A   1      43.507  19.616  25.790  1.00  0.00    -0.352 N 
ATOM     37  C   UNL A   1      43.990  20.786  25.250  1.00  0.00     0.251 C 
ATOM     38  H   UNL A   1      43.914  18.789  25.444  1.00  0.00     0.163 HD
ATOM     39  O   UNL A   1      44.638  20.744  24.207  1.00  0.00    -0.269 OA
BRANCH  37  40
ATOM     40  C   UNL A   1      43.762  22.104  25.906  1.00  0.00     0.039 A 
ATOM     41  C   UNL A   1      43.636  23.242  25.099  1.00  0.00     0.014 A 
ATOM     42  C   UNL A   1      43.794  22.255  27.296  1.00  0.00     0.014 A 
ATOM     43  C   UNL A   1      43.555  24.516  25.675  1.00  0.00     0.010 A 
ATOM     44  C   UNL A   1      43.659  23.525  27.873  1.00  0.00     0.010 A 
ATOM     45  C   UNL A   1      43.573  24.675  27.070  1.00  0.00    -0.014 A 
BRANCH  45  46
ATOM     46  C   UNL A   1      43.582  26.036  27.683  1.00  0.00     0.031 A 
ATOM     47  C   UNL A   1      44.891  26.705  28.032  1.00  0.00     0.074 A 
ATOM     48  C   UNL A   1      42.425  26.684  27.929  1.00  0.00     0.049 A 
ATOM     49  N   UNL A   1      45.104  27.885  28.562  1.00  0.00    -0.248 NA
ATOM     50  C   UNL A   1      46.120  25.942  27.761  1.00  0.00     0.031 C 
ATOM     51  C   UNL A   1      41.086  26.160  27.657  1.00  0.00     0.029 A 
ATOM     52  N   UNL A   1      42.192  27.930  28.462  1.00  0.00    -0.354 N 
ATOM     53  C   UNL A   1      46.484  27.997  28.701  1.00  0.00     0.074 A 
ATOM     54  C   UNL A   1      47.054  26.748  28.245  1.00  0.00     0.031 C 
ATOM     55  C   UNL A   1      40.175  27.085  27.999  1.00  0.00     0.029 A 
ATOM     56  C   UNL A   1      40.858  28.253  28.549  1.00  0.00     0.049 A 
ATOM     57  H   UNL A   1      42.912  28.535  28.753  1.00  0.00     0.167 HD
ATOM     58  C   UNL A   1      47.216  29.046  29.147  1.00  0.00     0.031 A 
ATOM     59  C   UNL A   1      40.251  29.360  29.023  1.00  0.00     0.031 A 
ATOM     60  C   UNL A   1      46.659  30.295  29.596  1.00  0.00     0.049 A 
ATOM     61  C   UNL A   1      41.086  30.499  29.543  1.00  0.00     0.074 A 
ATOM     62  C   UNL A   1      47.326  31.432  30.026  1.00  0.00     0.029 A 
ATOM     63  N   UNL A   1      45.305  30.572  29.679  1.00  0.00    -0.354 N 
ATOM     64  N   UNL A   1      42.391  30.609  29.607  1.00  0.00    -0.248 NA
ATOM     65  C   UNL A   1      40.361  31.678  30.042  1.00  0.00     0.031 C 
ATOM     66  C   UNL A   1      46.373  32.374  30.423  1.00  0.00     0.029 A 
ATOM     67  C   UNL A   1      45.115  31.852  30.174  1.00  0.00     0.049 A 
ATOM     68  H   UNL A   1      44.584  29.952  29.424  1.00  0.00     0.167 HD
ATOM     69  C   UNL A   1      42.641  31.880  30.112  1.00  0.00     0.074 A 
ATOM     70  C   UNL A   1      41.355  32.508  30.324  1.00  0.00     0.031 C 
ATOM     71  C   UNL A   1      43.831  32.474  30.373  1.00  0.00     0.031 A 
BRANCH  58  72
ATOM     72  C   UNL A   1      48.714  28.888  29.186  1.00  0.00    -0.014 A 
ATOM     73  C   UNL A   1      49.518  29.283  28.104  1.00  0.00     0.009 A 
ATOM     74  C   UNL A   1      49.334  28.386  30.341  1.00  0.00     0.009 A 
ATOM     75  C   UNL A   1      50.906  29.144  28.164  1.00  0.00     0.001 A 
ATOM     76  C   UNL A   1      50.725  28.279  30.412  1.00  0.00     0.001 A 
ATOM     77  C   UNL A   1      51.508  28.649  29.320  1.00  0.00     0.000 A 
ENDBRANCH  58  72
BRANCH  59  78
ATOM     78  C   UNL A   1      38.765  29.458  29.028  1.00  0.00    -0.014 A 
ATOM     79  C   UNL A   1      38.064  29.803  27.861  1.00  0.00     0.009 A 
ATOM     80  C   UNL A   1      38.040  29.243  30.211  1.00  0.00     0.009 A 
ATOM     81  C   UNL A   1      36.677  29.970  27.888  1.00  0.00     0.001 A 
ATOM     82  C   UNL A   1      36.650  29.375  30.227  1.00  0.00     0.001 A 
ATOM     83  C   UNL A   1      35.971  29.750  29.070  1.00  0.00     0.000 A 
ENDBRANCH  59  78
BRANCH  71  84
ATOM     84  C   UNL A   1      43.805  33.898  30.861  1.00  0.00    -0.014 A 
ATOM     85  C   UNL A   1      43.780  34.211  32.228  1.00  0.00     0.009 A 
ATOM     86  C   UNL A   1      43.843  34.946  29.927  1.00  0.00     0.009 A 
ATOM     87  C   UNL A   1      43.753  35.542  32.649  1.00  0.00     0.001 A 
ATOM     88  C   UNL A   1      43.851  36.276  30.350  1.00  0.00     0.001 A 
ATOM     89  C   UNL A   1      43.794  36.573  31.710  1.00  0.00     0.000 A 
ENDBRANCH  71  84
ENDBRANCH  45  46
ENDBRANCH  37  40
ENDBRANCH  35  36
ENDBRANCH  34  35
ENDBRANCH  33  34
ENDBRANCH  32  33
ENDBRANCH   1  32
TORSDOF 19
ENDMDL
