MODEL 1
REMARK VINA RESULT:     -11.0      0.000      0.000
REMARK SMILES O=C(NCCCCCCNC(=O)[C@@H](CO)NC(=O)[C@H]1CCCc2ccccc21)c1ccc(-c2c3nc(c(-c4ccccc4)c4ccc([nH]4)c(-c4ccccc4)c4nc(c(-c5ccccc5)c5ccc2[nH]5)C=C4)C=C3)cc1
REMARK SMILES IDX 6 1 5 2 4 3 3 4 1 5 2 6 29 8 30 9 76 10 31 11 75 12 32 13
REMARK SMILES IDX 33 14 34 15 69 16 35 17 74 18 68 19 70 20 36 21 73 22 67 23
REMARK SMILES IDX 66 24 37 26 59 27 44 28 58 29 45 30 48 31 57 32 71 33 46 34
REMARK SMILES IDX 47 35 56 37 72 38 49 39 38 40 39 41 43 42 40 43 42 44 41 45
REMARK SMILES IDX 60 46 61 47 65 48 62 49 64 50 63 51 50 52 51 53 55 54 52 55
REMARK SMILES IDX 54 56 53 57 7 58 8 59 9 60 10 61 11 62 12 64 13 65 14 66
REMARK SMILES IDX 15 67 16 69 17 70 18 72 19 73 20 74 28 75 21 76 23 77 27 78
REMARK SMILES IDX 22 79 24 80 26 81 25 82
REMARK H PARENT 3 7 70 25 48 36 10 63 15 68 16 71
REMARK Flexibility Score: inf
ROOT
ATOM      1  C   UNL A   1      36.501  20.845  24.961  1.00  0.00     0.002 C 
ENDROOT
BRANCH   1   2
ATOM      2  C   UNL A   1      37.716  19.921  24.884  1.00  0.00     0.021 C 
BRANCH   2   3
ATOM      3  C   UNL A   1      38.906  20.349  25.732  1.00  0.00     0.116 C 
BRANCH   3   4
ATOM      4  N   UNL A   1      39.985  19.374  25.727  1.00  0.00    -0.352 N 
ATOM      5  O   UNL A   1      42.123  18.653  25.870  1.00  0.00    -0.269 OA
ATOM      6  C   UNL A   1      41.307  19.550  26.059  1.00  0.00     0.251 C 
ATOM      7  H   UNL A   1      39.734  18.464  25.448  1.00  0.00     0.163 HD
BRANCH   6   8
ATOM      8  C   UNL A   1      41.747  20.845  26.619  1.00  0.00     0.039 A 
ATOM      9  C   UNL A   1      41.695  21.078  27.995  1.00  0.00     0.014 A 
ATOM     10  C   UNL A   1      42.198  21.844  25.752  1.00  0.00     0.014 A 
ATOM     11  C   UNL A   1      41.944  22.354  28.487  1.00  0.00     0.010 A 
ATOM     12  C   UNL A   1      42.531  23.103  26.260  1.00  0.00     0.010 A 
ATOM     13  C   UNL A   1      42.372  23.379  27.627  1.00  0.00    -0.014 A 
BRANCH  13  14
ATOM     14  C   UNL A   1      42.683  24.716  28.194  1.00  0.00     0.031 A 
ATOM     15  C   UNL A   1      44.096  25.119  28.517  1.00  0.00     0.074 A 
ATOM     16  C   UNL A   1      41.675  25.589  28.378  1.00  0.00     0.049 A 
ATOM     17  N   UNL A   1      44.540  26.270  28.959  1.00  0.00    -0.248 NA
ATOM     18  C   UNL A   1      45.144  24.104  28.330  1.00  0.00     0.031 C 
ATOM     19  C   UNL A   1      40.260  25.313  28.107  1.00  0.00     0.029 A 
ATOM     20  N   UNL A   1      41.683  26.892  28.802  1.00  0.00    -0.354 N 
ATOM     21  C   UNL A   1      45.911  26.110  29.128  1.00  0.00     0.074 A 
ATOM     22  C   UNL A   1      46.223  24.746  28.758  1.00  0.00     0.031 C 
ATOM     23  C   UNL A   1      39.550  26.432  28.307  1.00  0.00     0.029 A 
ATOM     24  C   UNL A   1      40.443  27.483  28.778  1.00  0.00     0.049 A 
ATOM     25  H   UNL A   1      42.499  27.360  29.096  1.00  0.00     0.167 HD
ATOM     26  C   UNL A   1      46.824  27.017  29.550  1.00  0.00     0.031 A 
ATOM     27  C   UNL A   1      40.064  28.732  29.100  1.00  0.00     0.031 A 
ATOM     28  C   UNL A   1      46.516  28.378  29.907  1.00  0.00     0.049 A 
ATOM     29  C   UNL A   1      41.094  29.711  29.575  1.00  0.00     0.074 A 
ATOM     30  C   UNL A   1      47.381  29.383  30.306  1.00  0.00     0.029 A 
ATOM     31  N   UNL A   1      45.242  28.923  29.911  1.00  0.00    -0.354 N 
ATOM     32  N   UNL A   1      42.390  29.553  29.692  1.00  0.00    -0.248 NA
ATOM     33  C   UNL A   1      40.608  31.042  29.962  1.00  0.00     0.031 C 
ATOM     34  C   UNL A   1      46.624  30.523  30.595  1.00  0.00     0.029 A 
ATOM     35  C   UNL A   1      45.294  30.244  30.328  1.00  0.00     0.049 A 
ATOM     36  H   UNL A   1      44.421  28.444  29.655  1.00  0.00     0.167 HD
ATOM     37  C   UNL A   1      42.878  30.767  30.151  1.00  0.00     0.074 A 
ATOM     38  C   UNL A   1      41.740  31.659  30.270  1.00  0.00     0.031 C 
ATOM     39  C   UNL A   1      44.153  31.114  30.448  1.00  0.00     0.031 A 
BRANCH  26  40
ATOM     40  C   UNL A   1      48.250  26.557  29.683  1.00  0.00    -0.014 A 
ATOM     41  C   UNL A   1      49.178  26.735  28.646  1.00  0.00     0.009 A 
ATOM     42  C   UNL A   1      48.680  25.973  30.886  1.00  0.00     0.009 A 
ATOM     43  C   UNL A   1      50.500  26.309  28.798  1.00  0.00     0.001 A 
ATOM     44  C   UNL A   1      50.008  25.569  31.044  1.00  0.00     0.001 A 
ATOM     45  C   UNL A   1      50.914  25.730  29.997  1.00  0.00     0.000 A 
ENDBRANCH  26  40
BRANCH  27  46
ATOM     46  C   UNL A   1      38.637  29.124  28.975  1.00  0.00    -0.014 A 
ATOM     47  C   UNL A   1      37.775  29.030  30.078  1.00  0.00     0.009 A 
ATOM     48  C   UNL A   1      38.135  29.611  27.758  1.00  0.00     0.009 A 
ATOM     49  C   UNL A   1      36.433  29.399  29.959  1.00  0.00     0.001 A 
ATOM     50  C   UNL A   1      36.801  30.005  27.651  1.00  0.00     0.001 A 
ATOM     51  C   UNL A   1      35.950  29.891  28.747  1.00  0.00     0.000 A 
ENDBRANCH  27  46
BRANCH  39  52
ATOM     52  C   UNL A   1      44.383  32.526  30.903  1.00  0.00    -0.014 A 
ATOM     53  C   UNL A   1      44.638  33.554  29.980  1.00  0.00     0.009 A 
ATOM     54  C   UNL A   1      44.331  32.835  32.271  1.00  0.00     0.009 A 
ATOM     55  C   UNL A   1      44.874  34.857  30.424  1.00  0.00     0.001 A 
ATOM     56  C   UNL A   1      44.542  34.142  32.709  1.00  0.00     0.001 A 
ATOM     57  C   UNL A   1      44.824  35.149  31.787  1.00  0.00     0.000 A 
ENDBRANCH  39  52
ENDBRANCH  13  14
ENDBRANCH   6   8
ENDBRANCH   3   4
ENDBRANCH   2   3
ENDBRANCH   1   2
BRANCH   1  58
ATOM     58  C   UNL A   1      36.736  22.278  24.472  1.00  0.00     0.002 C 
BRANCH  58  59
ATOM     59  C   UNL A   1      36.637  23.366  25.550  1.00  0.00     0.021 C 
BRANCH  59  60
ATOM     60  C   UNL A   1      35.248  23.992  25.684  1.00  0.00     0.116 C 
BRANCH  60  61
ATOM     61  N   UNL A   1      34.447  23.227  26.621  1.00  0.00    -0.354 N 
ATOM     62  C   UNL A   1      33.099  23.145  26.778  1.00  0.00     0.244 C 
ATOM     63  H   UNL A   1      34.967  22.674  27.248  1.00  0.00     0.163 HD
ATOM     64  O   UNL A   1      32.694  22.843  27.907  1.00  0.00    -0.273 OA
BRANCH  62  65
ATOM     65  C   UNL A   1      32.086  23.500  25.668  1.00  0.00     0.197 C 
BRANCH  65  66
ATOM     66  C   UNL A   1      31.998  22.372  24.634  1.00  0.00     0.191 C 
BRANCH  66  67
ATOM     67  O   UNL A   1      32.430  21.118  25.159  1.00  0.00    -0.394 OA
ATOM     68  H   UNL A   1      31.937  20.920  25.970  1.00  0.00     0.210 HD
ENDBRANCH  66  67
ENDBRANCH  65  66
BRANCH  65  69
ATOM     69  N   UNL A   1      30.772  23.929  26.162  1.00  0.00    -0.342 N 
ATOM     70  C   UNL A   1      30.148  25.142  26.073  1.00  0.00     0.228 C 
ATOM     71  H   UNL A   1      30.258  23.231  26.632  1.00  0.00     0.164 HD
ATOM     72  O   UNL A   1      29.151  25.321  26.774  1.00  0.00    -0.274 OA
BRANCH  70  73
ATOM     73  C   UNL A   1      30.653  26.194  25.079  1.00  0.00     0.109 C 
ATOM     74  C   UNL A   1      29.506  26.565  24.121  1.00  0.00     0.018 C 
ATOM     75  C   UNL A   1      31.292  27.440  25.683  1.00  0.00    -0.032 A 
ATOM     76  C   UNL A   1      30.007  27.544  23.066  1.00  0.00     0.006 C 
ATOM     77  C   UNL A   1      31.309  28.648  24.951  1.00  0.00    -0.044 A 
ATOM     78  C   UNL A   1      31.989  27.396  26.900  1.00  0.00     0.005 A 
ATOM     79  C   UNL A   1      30.462  28.845  23.716  1.00  0.00     0.036 C 
ATOM     80  C   UNL A   1      32.058  29.742  25.421  1.00  0.00     0.004 A 
ATOM     81  C   UNL A   1      32.744  28.482  27.347  1.00  0.00     0.000 A 
ATOM     82  C   UNL A   1      32.790  29.650  26.600  1.00  0.00     0.000 A 
ENDBRANCH  70  73
ENDBRANCH  65  69
ENDBRANCH  62  65
ENDBRANCH  60  61
ENDBRANCH  59  60
ENDBRANCH  58  59
ENDBRANCH   1  58
TORSDOF 17
ENDMDL
MODEL 2
REMARK VINA RESULT:     -10.9      0.328      5.868
REMARK SMILES O=C(NCCCCCCNC(=O)[C@@H](CO)NC(=O)[C@H]1CCCc2ccccc21)c1ccc(-c2c3nc(c(-c4ccccc4)c4ccc([nH]4)c(-c4ccccc4)c4nc(c(-c5ccccc5)c5ccc2[nH]5)C=C4)C=C3)cc1
REMARK SMILES IDX 6 1 5 2 4 3 3 4 1 5 2 6 29 8 30 9 76 10 31 11 75 12 32 13
REMARK SMILES IDX 33 14 34 15 69 16 35 17 74 18 68 19 70 20 36 21 73 22 67 23
REMARK SMILES IDX 66 24 37 26 59 27 44 28 58 29 45 30 48 31 57 32 71 33 46 34
REMARK SMILES IDX 47 35 56 37 72 38 49 39 38 40 39 41 43 42 40 43 42 44 41 45
REMARK SMILES IDX 60 46 61 47 65 48 62 49 64 50 63 51 50 52 51 53 55 54 52 55
REMARK SMILES IDX 54 56 53 57 7 58 8 59 9 60 10 61 11 62 12 64 13 65 14 66
REMARK SMILES IDX 15 67 16 69 17 70 18 72 19 73 20 74 28 75 21 76 23 77 27 78
REMARK SMILES IDX 22 79 24 80 26 81 25 82
REMARK H PARENT 3 7 70 25 48 36 10 63 15 68 16 71
REMARK Flexibility Score: inf
ROOT
ATOM      1  C   UNL A   1      36.590  20.889  24.926  1.00  0.00     0.002 C 
ENDROOT
BRANCH   1   2
ATOM      2  C   UNL A   1      37.783  19.934  24.916  1.00  0.00     0.021 C 
BRANCH   2   3
ATOM      3  C   UNL A   1      38.959  20.365  25.784  1.00  0.00     0.116 C 
BRANCH   3   4
ATOM      4  N   UNL A   1      40.024  19.376  25.825  1.00  0.00    -0.352 N 
ATOM      5  O   UNL A   1      42.154  18.634  25.990  1.00  0.00    -0.269 OA
ATOM      6  C   UNL A   1      41.351  19.551  26.136  1.00  0.00     0.251 C 
ATOM      7  H   UNL A   1      39.758  18.455  25.597  1.00  0.00     0.163 HD
BRANCH   6   8
ATOM      8  C   UNL A   1      41.814  20.868  26.621  1.00  0.00     0.039 A 
ATOM      9  C   UNL A   1      41.773  21.178  27.983  1.00  0.00     0.014 A 
ATOM     10  C   UNL A   1      42.273  21.812  25.698  1.00  0.00     0.014 A 
ATOM     11  C   UNL A   1      42.044  22.475  28.402  1.00  0.00     0.010 A 
ATOM     12  C   UNL A   1      42.628  23.092  26.134  1.00  0.00     0.010 A 
ATOM     13  C   UNL A   1      42.481  23.445  27.484  1.00  0.00    -0.014 A 
BRANCH  13  14
ATOM     14  C   UNL A   1      42.815  24.806  27.975  1.00  0.00     0.031 A 
ATOM     15  C   UNL A   1      41.742  25.827  28.239  1.00  0.00     0.074 A 
ATOM     16  C   UNL A   1      44.104  25.104  28.224  1.00  0.00     0.049 A 
ATOM     17  N   UNL A   1      41.863  27.037  28.727  1.00  0.00    -0.248 NA
ATOM     18  C   UNL A   1      40.359  25.450  27.909  1.00  0.00     0.031 C 
ATOM     19  C   UNL A   1      45.237  24.200  28.002  1.00  0.00     0.029 A 
ATOM     20  N   UNL A   1      44.679  26.233  28.747  1.00  0.00    -0.354 N 
ATOM     21  C   UNL A   1      40.581  27.574  28.737  1.00  0.00     0.074 A 
ATOM     22  C   UNL A   1      39.699  26.566  28.190  1.00  0.00     0.031 C 
ATOM     23  C   UNL A   1      46.358  24.784  28.448  1.00  0.00     0.029 A 
ATOM     24  C   UNL A   1      46.036  26.121  28.929  1.00  0.00     0.049 A 
ATOM     25  H   UNL A   1      44.169  27.045  28.971  1.00  0.00     0.167 HD
ATOM     26  C   UNL A   1      40.177  28.795  29.164  1.00  0.00     0.031 A 
ATOM     27  C   UNL A   1      46.926  26.998  29.425  1.00  0.00     0.031 A 
ATOM     28  C   UNL A   1      41.053  29.795  29.720  1.00  0.00     0.049 A 
ATOM     29  C   UNL A   1      46.452  28.345  29.880  1.00  0.00     0.074 A 
ATOM     30  C   UNL A   1      40.728  31.045  30.220  1.00  0.00     0.029 A 
ATOM     31  N   UNL A   1      42.426  29.659  29.846  1.00  0.00    -0.354 N 
ATOM     32  N   UNL A   1      45.231  28.821  29.916  1.00  0.00    -0.248 NA
ATOM     33  C   UNL A   1      47.480  29.276  30.363  1.00  0.00     0.031 C 
ATOM     34  C   UNL A   1      41.912  31.683  30.605  1.00  0.00     0.029 A 
ATOM     35  C   UNL A   1      42.967  30.811  30.393  1.00  0.00     0.049 A 
ATOM     36  H   UNL A   1      42.941  28.862  29.585  1.00  0.00     0.167 HD
ATOM     37  C   UNL A   1      45.341  30.100  30.440  1.00  0.00     0.074 A 
ATOM     38  C   UNL A   1      46.746  30.318  30.727  1.00  0.00     0.031 C 
ATOM     39  C   UNL A   1      44.367  31.014  30.664  1.00  0.00     0.031 A 
BRANCH  26  40
ATOM     40  C   UNL A   1      38.719  29.134  29.017  1.00  0.00    -0.014 A 
ATOM     41  C   UNL A   1      37.824  29.002  30.090  1.00  0.00     0.009 A 
ATOM     42  C   UNL A   1      38.244  29.636  27.795  1.00  0.00     0.009 A 
ATOM     43  C   UNL A   1      36.475  29.335  29.931  1.00  0.00     0.001 A 
ATOM     44  C   UNL A   1      36.901  29.990  27.646  1.00  0.00     0.001 A 
ATOM     45  C   UNL A   1      36.017  29.831  28.712  1.00  0.00     0.000 A 
ENDBRANCH  26  40
BRANCH  27  46
ATOM     46  C   UNL A   1      48.359  26.619  29.522  1.00  0.00    -0.014 A 
ATOM     47  C   UNL A   1      48.849  25.983  30.672  1.00  0.00     0.009 A 
ATOM     48  C   UNL A   1      49.237  26.875  28.459  1.00  0.00     0.009 A 
ATOM     49  C   UNL A   1      50.196  25.627  30.763  1.00  0.00     0.001 A 
ATOM     50  C   UNL A   1      50.577  26.493  28.541  1.00  0.00     0.001 A 
ATOM     51  C   UNL A   1      51.057  25.877  29.694  1.00  0.00     0.000 A 
ENDBRANCH  27  46
BRANCH  39  52
ATOM     52  C   UNL A   1      44.789  32.320  31.273  1.00  0.00    -0.014 A 
ATOM     53  C   UNL A   1      45.145  33.415  30.471  1.00  0.00     0.009 A 
ATOM     54  C   UNL A   1      44.819  32.458  32.669  1.00  0.00     0.009 A 
ATOM     55  C   UNL A   1      45.560  34.613  31.057  1.00  0.00     0.001 A 
ATOM     56  C   UNL A   1      45.208  33.664  33.252  1.00  0.00     0.001 A 
ATOM     57  C   UNL A   1      45.589  34.737  32.445  1.00  0.00     0.000 A 
ENDBRANCH  39  52
ENDBRANCH  13  14
ENDBRANCH   6   8
ENDBRANCH   3   4
ENDBRANCH   2   3
ENDBRANCH   1   2
BRANCH   1  58
ATOM     58  C   UNL A   1      36.884  22.311  24.439  1.00  0.00     0.002 C 
BRANCH  58  59
ATOM     59  C   UNL A   1      36.747  23.412  25.501  1.00  0.00     0.021 C 
BRANCH  59  60
ATOM     60  C   UNL A   1      35.331  23.974  25.643  1.00  0.00     0.116 C 
BRANCH  60  61
ATOM     61  N   UNL A   1      34.589  23.204  26.623  1.00  0.00    -0.354 N 
ATOM     62  C   UNL A   1      33.249  23.063  26.813  1.00  0.00     0.244 C 
ATOM     63  H   UNL A   1      35.148  22.698  27.256  1.00  0.00     0.163 HD
ATOM     64  O   UNL A   1      32.884  22.781  27.961  1.00  0.00    -0.273 OA
BRANCH  62  65
ATOM     65  C   UNL A   1      32.198  23.331  25.715  1.00  0.00     0.197 C 
BRANCH  65  66
ATOM     66  C   UNL A   1      32.104  22.142  24.753  1.00  0.00     0.191 C 
BRANCH  66  67
ATOM     67  O   UNL A   1      31.632  20.959  25.395  1.00  0.00    -0.394 OA
ATOM     68  H   UNL A   1      31.184  21.196  26.222  1.00  0.00     0.210 HD
ENDBRANCH  66  67
ENDBRANCH  65  66
BRANCH  65  69
ATOM     69  N   UNL A   1      30.890  23.763  26.222  1.00  0.00    -0.342 N 
ATOM     70  C   UNL A   1      30.260  24.973  26.122  1.00  0.00     0.228 C 
ATOM     71  H   UNL A   1      30.386  23.072  26.712  1.00  0.00     0.164 HD
ATOM     72  O   UNL A   1      29.273  25.159  26.836  1.00  0.00    -0.274 OA
BRANCH  70  73
ATOM     73  C   UNL A   1      30.745  26.009  25.104  1.00  0.00     0.109 C 
ATOM     74  C   UNL A   1      29.596  26.323  24.127  1.00  0.00     0.018 C 
ATOM     75  C   UNL A   1      31.347  27.288  25.676  1.00  0.00    -0.032 A 
ATOM     76  C   UNL A   1      30.080  27.285  23.049  1.00  0.00     0.006 C 
ATOM     77  C   UNL A   1      31.338  28.476  24.912  1.00  0.00    -0.044 A 
ATOM     78  C   UNL A   1      32.035  27.296  26.899  1.00  0.00     0.005 A 
ATOM     79  C   UNL A   1      30.495  28.615  23.665  1.00  0.00     0.036 C 
ATOM     80  C   UNL A   1      32.054  29.601  25.356  1.00  0.00     0.004 A 
ATOM     81  C   UNL A   1      32.757  28.413  27.322  1.00  0.00     0.000 A 
ATOM     82  C   UNL A   1      32.780  29.561  26.542  1.00  0.00     0.000 A 
ENDBRANCH  70  73
ENDBRANCH  65  69
ENDBRANCH  62  65
ENDBRANCH  60  61
ENDBRANCH  59  60
ENDBRANCH  58  59
ENDBRANCH   1  58
TORSDOF 17
ENDMDL
MODEL 3
REMARK VINA RESULT:     -10.8      3.382      8.860
REMARK SMILES O=C(NCCCCCCNC(=O)[C@@H](CO)NC(=O)[C@H]1CCCc2ccccc21)c1ccc(-c2c3nc(c(-c4ccccc4)c4ccc([nH]4)c(-c4ccccc4)c4nc(c(-c5ccccc5)c5ccc2[nH]5)C=C4)C=C3)cc1
REMARK SMILES IDX 6 1 5 2 4 3 3 4 1 5 2 6 29 8 30 9 76 10 31 11 75 12 32 13
REMARK SMILES IDX 33 14 34 15 69 16 35 17 74 18 68 19 70 20 36 21 73 22 67 23
REMARK SMILES IDX 66 24 37 26 59 27 44 28 58 29 45 30 48 31 57 32 71 33 46 34
REMARK SMILES IDX 47 35 56 37 72 38 49 39 38 40 39 41 43 42 40 43 42 44 41 45
REMARK SMILES IDX 60 46 61 47 65 48 62 49 64 50 63 51 50 52 51 53 55 54 52 55
REMARK SMILES IDX 54 56 53 57 7 58 8 59 9 60 10 61 11 62 12 64 13 65 14 66
REMARK SMILES IDX 15 67 16 69 17 70 18 72 19 73 20 74 28 75 21 76 23 77 27 78
REMARK SMILES IDX 22 79 24 80 26 81 25 82
REMARK H PARENT 3 7 70 25 48 36 10 63 15 68 16 71
REMARK Flexibility Score: inf
ROOT
ATOM      1  C   UNL A   1      31.972  30.142  26.848  1.00  0.00     0.002 C 
ENDROOT
BRANCH   1   2
ATOM      2  C   UNL A   1      31.663  31.639  26.855  1.00  0.00     0.021 C 
BRANCH   2   3
ATOM      3  C   UNL A   1      32.873  32.545  27.045  1.00  0.00     0.116 C 
BRANCH   3   4
ATOM      4  N   UNL A   1      32.535  33.815  27.669  1.00  0.00    -0.352 N 
ATOM      5  O   UNL A   1      32.711  35.491  29.176  1.00  0.00    -0.269 OA
ATOM      6  C   UNL A   1      33.203  34.492  28.660  1.00  0.00     0.251 C 
ATOM      7  H   UNL A   1      31.717  34.248  27.334  1.00  0.00     0.163 HD
BRANCH   6   8
ATOM      8  C   UNL A   1      34.512  33.987  29.128  1.00  0.00     0.039 A 
ATOM      9  C   UNL A   1      35.669  34.214  28.380  1.00  0.00     0.014 A 
ATOM     10  C   UNL A   1      34.575  33.259  30.319  1.00  0.00     0.014 A 
ATOM     11  C   UNL A   1      36.855  33.587  28.739  1.00  0.00     0.010 A 
ATOM     12  C   UNL A   1      35.791  32.700  30.725  1.00  0.00     0.010 A 
ATOM     13  C   UNL A   1      36.932  32.828  29.919  1.00  0.00    -0.014 A 
BRANCH  13  14
ATOM     14  C   UNL A   1      38.230  32.216  30.303  1.00  0.00     0.031 A 
ATOM     15  C   UNL A   1      39.112  32.844  31.347  1.00  0.00     0.074 A 
ATOM     16  C   UNL A   1      38.592  31.055  29.725  1.00  0.00     0.049 A 
ATOM     17  N   UNL A   1      40.244  32.402  31.838  1.00  0.00    -0.248 NA
ATOM     18  C   UNL A   1      38.677  34.131  31.910  1.00  0.00     0.031 C 
ATOM     19  C   UNL A   1      37.823  30.351  28.693  1.00  0.00     0.029 A 
ATOM     20  N   UNL A   1      39.675  30.245  29.943  1.00  0.00    -0.354 N 
ATOM     21  C   UNL A   1      40.669  33.368  32.744  1.00  0.00     0.074 A 
ATOM     22  C   UNL A   1      39.683  34.427  32.722  1.00  0.00     0.031 C 
ATOM     23  C   UNL A   1      38.425  29.185  28.418  1.00  0.00     0.029 A 
ATOM     24  C   UNL A   1      39.648  29.086  29.205  1.00  0.00     0.049 A 
ATOM     25  H   UNL A   1      40.403  30.470  30.567  1.00  0.00     0.167 HD
ATOM     26  C   UNL A   1      41.778  33.370  33.523  1.00  0.00     0.031 A 
ATOM     27  C   UNL A   1      40.512  28.057  29.161  1.00  0.00     0.031 A 
ATOM     28  C   UNL A   1      42.753  32.310  33.553  1.00  0.00     0.049 A 
ATOM     29  C   UNL A   1      41.736  28.092  30.025  1.00  0.00     0.074 A 
ATOM     30  C   UNL A   1      43.887  32.204  34.341  1.00  0.00     0.029 A 
ATOM     31  N   UNL A   1      42.712  31.176  32.758  1.00  0.00    -0.354 N 
ATOM     32  N   UNL A   1      42.101  28.995  30.902  1.00  0.00    -0.248 NA
ATOM     33  C   UNL A   1      42.667  26.963  29.893  1.00  0.00     0.031 C 
ATOM     34  C   UNL A   1      44.556  31.026  33.989  1.00  0.00     0.029 A 
ATOM     35  C   UNL A   1      43.812  30.375  33.019  1.00  0.00     0.049 A 
ATOM     36  H   UNL A   1      42.005  30.969  32.105  1.00  0.00     0.167 HD
ATOM     37  C   UNL A   1      43.296  28.537  31.439  1.00  0.00     0.074 A 
ATOM     38  C   UNL A   1      43.582  27.266  30.803  1.00  0.00     0.031 C 
ATOM     39  C   UNL A   1      44.086  29.118  32.373  1.00  0.00     0.031 A 
BRANCH  26  40
ATOM     40  C   UNL A   1      42.016  34.577  34.388  1.00  0.00    -0.014 A 
ATOM     41  C   UNL A   1      41.602  34.611  35.729  1.00  0.00     0.009 A 
ATOM     42  C   UNL A   1      42.706  35.681  33.862  1.00  0.00     0.009 A 
ATOM     43  C   UNL A   1      41.846  35.740  36.515  1.00  0.00     0.001 A 
ATOM     44  C   UNL A   1      42.969  36.798  34.658  1.00  0.00     0.001 A 
ATOM     45  C   UNL A   1      42.531  36.830  35.981  1.00  0.00     0.000 A 
ENDBRANCH  26  40
BRANCH  27  46
ATOM     46  C   UNL A   1      40.240  26.903  28.267  1.00  0.00    -0.014 A 
ATOM     47  C   UNL A   1      39.408  25.856  28.692  1.00  0.00     0.009 A 
ATOM     48  C   UNL A   1      40.795  26.851  26.980  1.00  0.00     0.009 A 
ATOM     49  C   UNL A   1      39.152  24.771  27.851  1.00  0.00     0.001 A 
ATOM     50  C   UNL A   1      40.516  25.779  26.131  1.00  0.00     0.001 A 
ATOM     51  C   UNL A   1      39.702  24.737  26.570  1.00  0.00     0.000 A 
ENDBRANCH  27  46
BRANCH  39  52
ATOM     52  C   UNL A   1      45.318  28.364  32.781  1.00  0.00    -0.014 A 
ATOM     53  C   UNL A   1      45.285  27.428  33.827  1.00  0.00     0.009 A 
ATOM     54  C   UNL A   1      46.526  28.585  32.102  1.00  0.00     0.009 A 
ATOM     55  C   UNL A   1      46.448  26.756  34.209  1.00  0.00     0.001 A 
ATOM     56  C   UNL A   1      47.680  27.893  32.468  1.00  0.00     0.001 A 
ATOM     57  C   UNL A   1      47.643  26.987  33.528  1.00  0.00     0.000 A 
ENDBRANCH  39  52
ENDBRANCH  13  14
ENDBRANCH   6   8
ENDBRANCH   3   4
ENDBRANCH   2   3
ENDBRANCH   1   2
BRANCH   1  58
ATOM     58  C   UNL A   1      31.796  29.442  25.497  1.00  0.00     0.002 C 
BRANCH  58  59
ATOM     59  C   UNL A   1      33.067  29.330  24.643  1.00  0.00     0.021 C 
BRANCH  59  60
ATOM     60  C   UNL A   1      33.698  27.937  24.636  1.00  0.00     0.116 C 
BRANCH  60  61
ATOM     61  N   UNL A   1      33.798  27.445  23.275  1.00  0.00    -0.354 N 
ATOM     62  C   UNL A   1      33.175  26.405  22.657  1.00  0.00     0.244 C 
ATOM     63  H   UNL A   1      34.420  27.948  22.702  1.00  0.00     0.163 HD
ATOM     64  O   UNL A   1      33.770  25.898  21.699  1.00  0.00    -0.273 OA
BRANCH  62  65
ATOM     65  C   UNL A   1      31.848  25.789  23.151  1.00  0.00     0.197 C 
BRANCH  65  66
ATOM     66  C   UNL A   1      30.667  26.705  22.812  1.00  0.00     0.191 C 
BRANCH  66  67
ATOM     67  O   UNL A   1      30.891  27.466  21.626  1.00  0.00    -0.394 OA
ATOM     68  H   UNL A   1      30.044  27.796  21.289  1.00  0.00     0.210 HD
ENDBRANCH  66  67
ENDBRANCH  65  66
BRANCH  65  69
ATOM     69  N   UNL A   1      31.634  24.398  22.734  1.00  0.00    -0.342 N 
ATOM     70  C   UNL A   1      32.210  23.243  23.185  1.00  0.00     0.228 C 
ATOM     71  H   UNL A   1      30.970  24.278  22.016  1.00  0.00     0.164 HD
ATOM     72  O   UNL A   1      32.040  22.225  22.512  1.00  0.00    -0.274 OA
BRANCH  70  73
ATOM     73  C   UNL A   1      32.971  23.233  24.514  1.00  0.00     0.109 C 
ATOM     74  C   UNL A   1      32.191  22.376  25.529  1.00  0.00     0.018 C 
ATOM     75  C   UNL A   1      34.436  22.812  24.449  1.00  0.00    -0.032 A 
ATOM     76  C   UNL A   1      32.882  22.422  26.887  1.00  0.00     0.006 C 
ATOM     77  C   UNL A   1      35.066  22.273  25.592  1.00  0.00    -0.044 A 
ATOM     78  C   UNL A   1      35.227  23.066  23.318  1.00  0.00     0.005 A 
ATOM     79  C   UNL A   1      34.278  21.818  26.798  1.00  0.00     0.036 C 
ATOM     80  C   UNL A   1      36.456  22.062  25.593  1.00  0.00     0.004 A 
ATOM     81  C   UNL A   1      36.608  22.869  23.335  1.00  0.00     0.000 A 
ATOM     82  C   UNL A   1      37.226  22.381  24.478  1.00  0.00     0.000 A 
ENDBRANCH  70  73
ENDBRANCH  65  69
ENDBRANCH  62  65
ENDBRANCH  60  61
ENDBRANCH  59  60
ENDBRANCH  58  59
ENDBRANCH   1  58
TORSDOF 17
ENDMDL
