MODEL 1
REMARK VINA RESULT:     -10.0      0.000      0.000
REMARK SMILES CC[N@@H+]1CCO[C@@H](Cn2cc(C(=O)NCCCCCCNC(=O)c3ccc(-c4c5nc(c(-c6ccccc6)c6ccc([nH]6)c(-c6ccccc6)c6nc(c(-c7ccccc7)c7ccc4[nH]7)C=C6)C=C5)cc3)nn2)C1
REMARK SMILES IDX 17 1 16 2 15 3 14 4 12 5 13 6 11 8 9 9 10 10 73 11 72 12
REMARK SMILES IDX 8 13 7 14 3 15 4 16 74 17 5 19 6 20 2 21 1 22 18 23 19 24
REMARK SMILES IDX 20 25 21 26 22 27 23 29 24 30 25 31 71 32 26 33 70 34 27 35
REMARK SMILES IDX 28 36 29 37 64 38 30 39 69 40 63 41 65 42 31 43 68 44 62 45
REMARK SMILES IDX 61 46 32 48 54 49 39 50 53 51 40 52 43 53 52 54 66 55 41 56
REMARK SMILES IDX 42 57 51 59 67 60 44 61 33 62 34 63 38 64 35 65 37 66 36 67
REMARK SMILES IDX 55 68 56 69 60 70 57 71 59 72 58 73 45 74 46 75 50 76 47 77
REMARK SMILES IDX 49 78 48 79
REMARK H PARENT 14 7 3 18 21 28 65 47 43 58
REMARK Flexibility Score: inf
ROOT
ATOM      1  C   UNL A   1      33.595  30.622  27.078  1.00  0.00     0.002 C 
ENDROOT
BRANCH   1   2
ATOM      2  C   UNL A   1      34.293  29.261  26.951  1.00  0.00     0.021 C 
BRANCH   2   3
ATOM      3  C   UNL A   1      33.719  28.385  25.837  1.00  0.00     0.116 C 
BRANCH   3   4
ATOM      4  N   UNL A   1      33.714  26.993  26.233  1.00  0.00    -0.351 N 
ATOM      5  C   UNL A   1      32.930  25.927  25.855  1.00  0.00     0.273 C 
ATOM      6  O   UNL A   1      33.223  24.833  26.336  1.00  0.00    -0.267 OA
ATOM      7  H   UNL A   1      34.402  26.764  26.898  1.00  0.00     0.163 HD
BRANCH   5   8
ATOM      8  C   UNL A   1      31.850  26.083  24.887  1.00  0.00     0.170 A 
ATOM      9  N   UNL A   1      30.042  26.562  23.795  1.00  0.00    -0.249 N 
ATOM     10  C   UNL A   1      30.491  26.279  25.052  1.00  0.00     0.145 A 
ATOM     11  N   UNL A   1      30.993  26.352  22.878  1.00  0.00    -0.067 NA
ATOM     12  N   UNL A   1      32.108  26.058  23.531  1.00  0.00    -0.125 NA
BRANCH   9  13
ATOM     13  C   UNL A   1      28.811  27.220  23.432  1.00  0.00     0.184 C 
BRANCH  13  14
ATOM     14  C   UNL A   1      29.035  28.675  22.995  1.00  0.00     0.194 C 
ATOM     15  N   UNL A   1      27.863  30.855  22.423  1.00  0.00    -0.331 N 
ATOM     16  C   UNL A   1      28.675  31.455  23.497  1.00  0.00     0.291 C 
ATOM     17  C   UNL A   1      27.701  29.411  22.702  1.00  0.00     0.296 C 
ATOM     18  H   UNL A   1      26.942  31.291  22.414  1.00  0.00     0.348 HD
ATOM     19  C   UNL A   1      29.997  30.712  23.742  1.00  0.00     0.222 C 
ATOM     20  O   UNL A   1      29.770  29.329  24.050  1.00  0.00    -0.365 OA
BRANCH  15  21
ATOM     21  C   UNL A   1      28.407  31.125  21.086  1.00  0.00     0.258 C 
ATOM     22  C   UNL A   1      27.766  32.390  20.533  1.00  0.00     0.071 C 
ENDBRANCH  15  21
ENDBRANCH  13  14
ENDBRANCH   9  13
ENDBRANCH   5   8
ENDBRANCH   3   4
ENDBRANCH   2   3
ENDBRANCH   1   2
BRANCH   1  23
ATOM     23  C   UNL A   1      32.067  30.608  26.904  1.00  0.00     0.002 C 
BRANCH  23  24
ATOM     24  C   UNL A   1      31.355  31.969  26.971  1.00  0.00     0.021 C 
BRANCH  24  25
ATOM     25  C   UNL A   1      32.270  33.147  26.684  1.00  0.00     0.116 C 
BRANCH  25  26
ATOM     26  N   UNL A   1      32.176  34.193  27.709  1.00  0.00    -0.352 N 
ATOM     27  C   UNL A   1      32.937  34.363  28.853  1.00  0.00     0.251 C 
ATOM     28  H   UNL A   1      31.474  34.867  27.562  1.00  0.00     0.163 HD
ATOM     29  O   UNL A   1      32.530  35.028  29.791  1.00  0.00    -0.269 OA
BRANCH  27  30
ATOM     30  C   UNL A   1      34.270  33.739  28.902  1.00  0.00     0.039 A 
ATOM     31  C   UNL A   1      35.261  33.986  27.946  1.00  0.00     0.014 A 
ATOM     32  C   UNL A   1      34.517  32.892  29.973  1.00  0.00     0.014 A 
ATOM     33  C   UNL A   1      36.514  33.399  28.120  1.00  0.00     0.010 A 
ATOM     34  C   UNL A   1      35.797  32.551  30.282  1.00  0.00     0.010 A 
ATOM     35  C   UNL A   1      36.764  32.685  29.300  1.00  0.00    -0.014 A 
BRANCH  35  36
ATOM     36  C   UNL A   1      38.053  32.101  29.620  1.00  0.00     0.031 A 
ATOM     37  C   UNL A   1      38.161  30.665  29.279  1.00  0.00     0.074 A 
ATOM     38  C   UNL A   1      39.121  32.874  29.919  1.00  0.00     0.049 A 
ATOM     39  N   UNL A   1      38.261  29.682  30.106  1.00  0.00    -0.248 NA
ATOM     40  C   UNL A   1      37.978  30.253  27.877  1.00  0.00     0.031 C 
ATOM     41  C   UNL A   1      39.208  34.342  29.965  1.00  0.00     0.029 A 
ATOM     42  N   UNL A   1      40.414  32.506  30.106  1.00  0.00    -0.354 N 
ATOM     43  C   UNL A   1      38.377  28.540  29.324  1.00  0.00     0.074 A 
ATOM     44  C   UNL A   1      37.980  28.923  27.994  1.00  0.00     0.031 C 
ATOM     45  C   UNL A   1      40.504  34.723  29.910  1.00  0.00     0.029 A 
ATOM     46  C   UNL A   1      41.338  33.538  29.982  1.00  0.00     0.049 A 
ATOM     47  H   UNL A   1      40.678  31.580  30.314  1.00  0.00     0.167 HD
ATOM     48  C   UNL A   1      39.057  27.452  29.778  1.00  0.00     0.031 A 
ATOM     49  C   UNL A   1      42.689  33.414  29.902  1.00  0.00     0.031 A 
ATOM     50  C   UNL A   1      39.353  27.570  31.186  1.00  0.00     0.049 A 
ATOM     51  C   UNL A   1      43.031  32.071  30.432  1.00  0.00     0.074 A 
ATOM     52  C   UNL A   1      38.589  27.730  32.325  1.00  0.00     0.029 A 
ATOM     53  N   UNL A   1      40.626  27.979  31.519  1.00  0.00    -0.354 N 
ATOM     54  N   UNL A   1      42.875  31.745  31.684  1.00  0.00    -0.248 NA
ATOM     55  C   UNL A   1      43.058  30.956  29.496  1.00  0.00     0.031 C 
ATOM     56  C   UNL A   1      39.306  28.678  33.113  1.00  0.00     0.029 A 
ATOM     57  C   UNL A   1      40.510  28.964  32.466  1.00  0.00     0.049 A 
ATOM     58  H   UNL A   1      41.466  27.628  31.145  1.00  0.00     0.167 HD
ATOM     59  C   UNL A   1      42.317  30.475  31.646  1.00  0.00     0.074 A 
ATOM     60  C   UNL A   1      42.549  29.998  30.281  1.00  0.00     0.031 C 
ATOM     61  C   UNL A   1      41.447  30.057  32.615  1.00  0.00     0.031 A 
BRANCH  48  62
ATOM     62  C   UNL A   1      39.832  26.512  28.891  1.00  0.00    -0.014 A 
ATOM     63  C   UNL A   1      41.026  26.980  28.312  1.00  0.00     0.009 A 
ATOM     64  C   UNL A   1      39.307  25.312  28.378  1.00  0.00     0.009 A 
ATOM     65  C   UNL A   1      41.608  26.329  27.219  1.00  0.00     0.001 A 
ATOM     66  C   UNL A   1      39.910  24.637  27.314  1.00  0.00     0.001 A 
ATOM     67  C   UNL A   1      41.043  25.163  26.714  1.00  0.00     0.000 A 
ENDBRANCH  48  62
BRANCH  49  68
ATOM     68  C   UNL A   1      43.669  34.257  29.176  1.00  0.00    -0.014 A 
ATOM     69  C   UNL A   1      43.543  34.491  27.795  1.00  0.00     0.009 A 
ATOM     70  C   UNL A   1      44.584  35.058  29.885  1.00  0.00     0.009 A 
ATOM     71  C   UNL A   1      44.270  35.512  27.162  1.00  0.00     0.001 A 
ATOM     72  C   UNL A   1      45.312  36.075  29.254  1.00  0.00     0.001 A 
ATOM     73  C   UNL A   1      45.142  36.313  27.895  1.00  0.00     0.000 A 
ENDBRANCH  49  68
BRANCH  61  74
ATOM     74  C   UNL A   1      41.259  30.934  33.831  1.00  0.00    -0.014 A 
ATOM     75  C   UNL A   1      40.348  32.006  33.879  1.00  0.00     0.009 A 
ATOM     76  C   UNL A   1      41.891  30.553  35.023  1.00  0.00     0.009 A 
ATOM     77  C   UNL A   1      40.103  32.689  35.077  1.00  0.00     0.001 A 
ATOM     78  C   UNL A   1      41.630  31.219  36.222  1.00  0.00     0.001 A 
ATOM     79  C   UNL A   1      40.741  32.290  36.248  1.00  0.00     0.000 A 
ENDBRANCH  61  74
ENDBRANCH  35  36
ENDBRANCH  27  30
ENDBRANCH  25  26
ENDBRANCH  24  25
ENDBRANCH  23  24
ENDBRANCH   1  23
TORSDOF 16
ENDMDL
MODEL 2
REMARK VINA RESULT:      -9.7      4.662      8.630
REMARK SMILES CC[N@@H+]1CCO[C@@H](Cn2cc(C(=O)NCCCCCCNC(=O)c3ccc(-c4c5nc(c(-c6ccccc6)c6ccc([nH]6)c(-c6ccccc6)c6nc(c(-c7ccccc7)c7ccc4[nH]7)C=C6)C=C5)cc3)nn2)C1
REMARK SMILES IDX 17 1 16 2 15 3 14 4 12 5 13 6 11 8 9 9 10 10 73 11 72 12
REMARK SMILES IDX 8 13 7 14 3 15 4 16 74 17 5 19 6 20 2 21 1 22 18 23 19 24
REMARK SMILES IDX 20 25 21 26 22 27 23 29 24 30 25 31 71 32 26 33 70 34 27 35
REMARK SMILES IDX 28 36 29 37 64 38 30 39 69 40 63 41 65 42 31 43 68 44 62 45
REMARK SMILES IDX 61 46 32 48 54 49 39 50 53 51 40 52 43 53 52 54 66 55 41 56
REMARK SMILES IDX 42 57 51 59 67 60 44 61 33 62 34 63 38 64 35 65 37 66 36 67
REMARK SMILES IDX 55 68 56 69 60 70 57 71 59 72 58 73 45 74 46 75 50 76 47 77
REMARK SMILES IDX 49 78 48 79
REMARK H PARENT 14 7 3 18 21 28 65 47 43 58
REMARK Flexibility Score: inf
ROOT
ATOM      1  C   UNL A   1      34.313  33.634  28.503  1.00  0.00     0.002 C 
ENDROOT
BRANCH   1   2
ATOM      2  C   UNL A   1      33.217  34.706  28.585  1.00  0.00     0.021 C 
BRANCH   2   3
ATOM      3  C   UNL A   1      33.662  35.979  29.303  1.00  0.00     0.116 C 
BRANCH   3   4
ATOM      4  N   UNL A   1      32.721  36.335  30.343  1.00  0.00    -0.351 N 
ATOM      5  C   UNL A   1      32.671  36.038  31.686  1.00  0.00     0.273 C 
ATOM      6  O   UNL A   1      31.758  36.554  32.328  1.00  0.00    -0.267 OA
ATOM      7  H   UNL A   1      31.976  36.897  30.032  1.00  0.00     0.163 HD
BRANCH   5   8
ATOM      8  C   UNL A   1      33.687  35.205  32.319  1.00  0.00     0.170 A 
ATOM      9  N   UNL A   1      35.219  34.322  33.569  1.00  0.00    -0.249 N 
ATOM     10  C   UNL A   1      34.780  35.526  33.104  1.00  0.00     0.145 A 
ATOM     11  N   UNL A   1      34.595  33.306  32.963  1.00  0.00    -0.067 NA
ATOM     12  N   UNL A   1      33.652  33.830  32.193  1.00  0.00    -0.125 NA
BRANCH   9  13
ATOM     13  C   UNL A   1      36.063  34.079  34.714  1.00  0.00     0.184 C 
BRANCH  13  14
ATOM     14  C   UNL A   1      36.974  32.859  34.518  1.00  0.00     0.194 C 
ATOM     15  N   UNL A   1      39.239  32.102  33.654  1.00  0.00    -0.331 N 
ATOM     16  C   UNL A   1      39.466  31.572  35.011  1.00  0.00     0.291 C 
ATOM     17  C   UNL A   1      38.266  33.213  33.736  1.00  0.00     0.296 C 
ATOM     18  H   UNL A   1      40.118  32.463  33.283  1.00  0.00     0.348 HD
ATOM     19  C   UNL A   1      38.165  31.213  35.745  1.00  0.00     0.222 C 
ATOM     20  O   UNL A   1      37.284  32.342  35.829  1.00  0.00    -0.365 OA
BRANCH  15  21
ATOM     21  C   UNL A   1      38.843  31.058  32.700  1.00  0.00     0.258 C 
ATOM     22  C   UNL A   1      40.078  30.281  32.267  1.00  0.00     0.071 C 
ENDBRANCH  15  21
ENDBRANCH  13  14
ENDBRANCH   9  13
ENDBRANCH   5   8
ENDBRANCH   3   4
ENDBRANCH   2   3
ENDBRANCH   1   2
BRANCH   1  23
ATOM     23  C   UNL A   1      35.625  33.964  29.236  1.00  0.00     0.002 C 
BRANCH  23  24
ATOM     24  C   UNL A   1      36.879  33.202  28.777  1.00  0.00     0.021 C 
BRANCH  24  25
ATOM     25  C   UNL A   1      37.150  31.942  29.580  1.00  0.00     0.116 C 
BRANCH  25  26
ATOM     26  N   UNL A   1      36.173  30.882  29.308  1.00  0.00    -0.352 N 
ATOM     27  C   UNL A   1      36.331  29.718  28.573  1.00  0.00     0.251 C 
ATOM     28  H   UNL A   1      35.282  31.017  29.703  1.00  0.00     0.163 HD
ATOM     29  O   UNL A   1      35.370  29.123  28.117  1.00  0.00    -0.269 OA
BRANCH  27  30
ATOM     30  C   UNL A   1      37.695  29.198  28.376  1.00  0.00     0.039 A 
ATOM     31  C   UNL A   1      38.522  29.612  27.327  1.00  0.00     0.014 A 
ATOM     32  C   UNL A   1      38.144  28.274  29.309  1.00  0.00     0.014 A 
ATOM     33  C   UNL A   1      39.822  29.111  27.268  1.00  0.00     0.010 A 
ATOM     34  C   UNL A   1      39.474  28.007  29.404  1.00  0.00     0.010 A 
ATOM     35  C   UNL A   1      40.282  28.308  28.321  1.00  0.00    -0.014 A 
BRANCH  35  36
ATOM     36  C   UNL A   1      41.638  27.799  28.401  1.00  0.00     0.031 A 
ATOM     37  C   UNL A   1      41.878  26.601  27.567  1.00  0.00     0.074 A 
ATOM     38  C   UNL A   1      42.634  28.531  28.951  1.00  0.00     0.049 A 
ATOM     39  N   UNL A   1      42.117  25.406  27.984  1.00  0.00    -0.248 NA
ATOM     40  C   UNL A   1      41.672  26.697  26.112  1.00  0.00     0.031 C 
ATOM     41  C   UNL A   1      42.570  29.885  29.520  1.00  0.00     0.029 A 
ATOM     42  N   UNL A   1      43.965  28.269  28.985  1.00  0.00    -0.354 N 
ATOM     43  C   UNL A   1      42.313  24.638  26.844  1.00  0.00     0.074 A 
ATOM     44  C   UNL A   1      41.817  25.422  25.743  1.00  0.00     0.031 C 
ATOM     45  C   UNL A   1      43.816  30.406  29.597  1.00  0.00     0.029 A 
ATOM     46  C   UNL A   1      44.771  29.375  29.233  1.00  0.00     0.049 A 
ATOM     47  H   UNL A   1      44.332  27.366  28.844  1.00  0.00     0.167 HD
ATOM     48  C   UNL A   1      43.123  23.544  26.872  1.00  0.00     0.031 A 
ATOM     49  C   UNL A   1      46.122  29.441  29.105  1.00  0.00     0.031 A 
ATOM     50  C   UNL A   1      43.471  23.185  28.227  1.00  0.00     0.049 A 
ATOM     51  C   UNL A   1      46.625  28.046  29.114  1.00  0.00     0.074 A 
ATOM     52  C   UNL A   1      42.748  22.842  29.352  1.00  0.00     0.029 A 
ATOM     53  N   UNL A   1      44.709  23.591  28.676  1.00  0.00    -0.354 N 
ATOM     54  N   UNL A   1      46.563  27.279  30.167  1.00  0.00    -0.248 NA
ATOM     55  C   UNL A   1      46.723  27.347  27.840  1.00  0.00     0.031 C 
ATOM     56  C   UNL A   1      43.401  23.522  30.423  1.00  0.00     0.029 A 
ATOM     57  C   UNL A   1      44.537  24.154  29.914  1.00  0.00     0.049 A 
ATOM     58  H   UNL A   1      45.562  23.493  28.195  1.00  0.00     0.167 HD
ATOM     59  C   UNL A   1      46.137  26.052  29.679  1.00  0.00     0.074 A 
ATOM     60  C   UNL A   1      46.353  26.122  28.232  1.00  0.00     0.031 C 
ATOM     61  C   UNL A   1      45.362  25.220  30.439  1.00  0.00     0.031 A 
BRANCH  48  62
ATOM     62  C   UNL A   1      43.948  23.076  25.702  1.00  0.00    -0.014 A 
ATOM     63  C   UNL A   1      43.923  21.708  25.377  1.00  0.00     0.009 A 
ATOM     64  C   UNL A   1      44.953  23.852  25.096  1.00  0.00     0.009 A 
ATOM     65  C   UNL A   1      44.906  21.135  24.563  1.00  0.00     0.001 A 
ATOM     66  C   UNL A   1      45.912  23.290  24.249  1.00  0.00     0.001 A 
ATOM     67  C   UNL A   1      45.906  21.925  24.008  1.00  0.00     0.000 A 
ENDBRANCH  48  62
BRANCH  49  68
ATOM     68  C   UNL A   1      46.974  30.593  28.723  1.00  0.00    -0.014 A 
ATOM     69  C   UNL A   1      47.902  31.142  29.625  1.00  0.00     0.009 A 
ATOM     70  C   UNL A   1      47.071  30.991  27.375  1.00  0.00     0.009 A 
ATOM     71  C   UNL A   1      48.910  32.016  29.188  1.00  0.00     0.001 A 
ATOM     72  C   UNL A   1      48.074  31.865  26.939  1.00  0.00     0.001 A 
ATOM     73  C   UNL A   1      49.004  32.365  27.843  1.00  0.00     0.000 A 
ENDBRANCH  49  68
BRANCH  61  74
ATOM     74  C   UNL A   1      45.141  25.580  31.890  1.00  0.00    -0.014 A 
ATOM     75  C   UNL A   1      44.134  26.460  32.326  1.00  0.00     0.009 A 
ATOM     76  C   UNL A   1      45.858  24.867  32.862  1.00  0.00     0.009 A 
ATOM     77  C   UNL A   1      43.875  26.641  33.690  1.00  0.00     0.001 A 
ATOM     78  C   UNL A   1      45.585  25.028  34.222  1.00  0.00     0.001 A 
ATOM     79  C   UNL A   1      44.598  25.919  34.636  1.00  0.00     0.000 A 
ENDBRANCH  61  74
ENDBRANCH  35  36
ENDBRANCH  27  30
ENDBRANCH  25  26
ENDBRANCH  24  25
ENDBRANCH  23  24
ENDBRANCH   1  23
TORSDOF 16
ENDMDL
MODEL 3
REMARK VINA RESULT:      -9.7      3.916      7.873
REMARK SMILES CC[N@@H+]1CCO[C@@H](Cn2cc(C(=O)NCCCCCCNC(=O)c3ccc(-c4c5nc(c(-c6ccccc6)c6ccc([nH]6)c(-c6ccccc6)c6nc(c(-c7ccccc7)c7ccc4[nH]7)C=C6)C=C5)cc3)nn2)C1
REMARK SMILES IDX 17 1 16 2 15 3 14 4 12 5 13 6 11 8 9 9 10 10 73 11 72 12
REMARK SMILES IDX 8 13 7 14 3 15 4 16 74 17 5 19 6 20 2 21 1 22 18 23 19 24
REMARK SMILES IDX 20 25 21 26 22 27 23 29 24 30 25 31 71 32 26 33 70 34 27 35
REMARK SMILES IDX 28 36 29 37 64 38 30 39 69 40 63 41 65 42 31 43 68 44 62 45
REMARK SMILES IDX 61 46 32 48 54 49 39 50 53 51 40 52 43 53 52 54 66 55 41 56
REMARK SMILES IDX 42 57 51 59 67 60 44 61 33 62 34 63 38 64 35 65 37 66 36 67
REMARK SMILES IDX 55 68 56 69 60 70 57 71 59 72 58 73 45 74 46 75 50 76 47 77
REMARK SMILES IDX 49 78 48 79
REMARK H PARENT 14 7 3 18 21 28 65 47 43 58
REMARK Flexibility Score: inf
ROOT
ATOM      1  C   UNL A   1      31.576  28.632  26.040  1.00  0.00     0.002 C 
ENDROOT
BRANCH   1   2
ATOM      2  C   UNL A   1      31.794  27.315  26.798  1.00  0.00     0.021 C 
BRANCH   2   3
ATOM      3  C   UNL A   1      31.504  26.072  25.957  1.00  0.00     0.116 C 
BRANCH   3   4
ATOM      4  N   UNL A   1      30.424  25.303  26.537  1.00  0.00    -0.351 N 
ATOM      5  C   UNL A   1      30.297  23.966  26.835  1.00  0.00     0.273 C 
ATOM      6  O   UNL A   1      29.255  23.625  27.392  1.00  0.00    -0.267 OA
ATOM      7  H   UNL A   1      29.630  25.838  26.763  1.00  0.00     0.163 HD
BRANCH   5   8
ATOM      8  C   UNL A   1      31.371  23.019  26.556  1.00  0.00     0.170 A 
ATOM      9  N   UNL A   1      32.830  21.670  25.696  1.00  0.00    -0.249 N 
ATOM     10  C   UNL A   1      31.548  22.105  25.533  1.00  0.00     0.145 A 
ATOM     11  N   UNL A   1      33.353  22.106  26.847  1.00  0.00    -0.067 NA
ATOM     12  N   UNL A   1      32.471  22.934  27.387  1.00  0.00    -0.125 NA
BRANCH   9  13
ATOM     13  C   UNL A   1      33.667  21.023  24.714  1.00  0.00     0.184 C 
BRANCH  13  14
ATOM     14  C   UNL A   1      33.718  19.501  24.906  1.00  0.00     0.194 C 
ATOM     15  N   UNL A   1      32.713  17.296  24.143  1.00  0.00    -0.331 N 
ATOM     16  C   UNL A   1      34.088  16.911  23.778  1.00  0.00     0.291 C 
ATOM     17  C   UNL A   1      32.607  18.771  24.105  1.00  0.00     0.296 C 
ATOM     18  H   UNL A   1      32.062  16.904  23.462  1.00  0.00     0.348 HD
ATOM     19  C   UNL A   1      35.159  17.637  24.607  1.00  0.00     0.222 C 
ATOM     20  O   UNL A   1      35.029  19.062  24.494  1.00  0.00    -0.365 OA
BRANCH  15  21
ATOM     21  C   UNL A   1      32.287  16.721  25.425  1.00  0.00     0.258 C 
ATOM     22  C   UNL A   1      32.578  15.227  25.424  1.00  0.00     0.071 C 
ENDBRANCH  15  21
ENDBRANCH  13  14
ENDBRANCH   9  13
ENDBRANCH   5   8
ENDBRANCH   3   4
ENDBRANCH   2   3
ENDBRANCH   1   2
BRANCH   1  23
ATOM     23  C   UNL A   1      32.783  29.584  25.995  1.00  0.00     0.002 C 
BRANCH  23  24
ATOM     24  C   UNL A   1      33.570  29.758  27.305  1.00  0.00     0.021 C 
BRANCH  24  25
ATOM     25  C   UNL A   1      34.610  30.862  27.246  1.00  0.00     0.116 C 
BRANCH  25  26
ATOM     26  N   UNL A   1      34.435  31.856  28.310  1.00  0.00    -0.352 N 
ATOM     27  C   UNL A   1      34.999  31.886  29.576  1.00  0.00     0.251 C 
ATOM     28  H   UNL A   1      33.833  32.604  28.096  1.00  0.00     0.163 HD
ATOM     29  O   UNL A   1      34.497  32.538  30.476  1.00  0.00    -0.269 OA
BRANCH  27  30
ATOM     30  C   UNL A   1      36.241  31.129  29.804  1.00  0.00     0.039 A 
ATOM     31  C   UNL A   1      36.252  29.781  30.177  1.00  0.00     0.014 A 
ATOM     32  C   UNL A   1      37.429  31.818  29.608  1.00  0.00     0.014 A 
ATOM     33  C   UNL A   1      37.481  29.135  30.301  1.00  0.00     0.010 A 
ATOM     34  C   UNL A   1      38.591  31.128  29.462  1.00  0.00     0.010 A 
ATOM     35  C   UNL A   1      38.644  29.828  29.936  1.00  0.00    -0.014 A 
BRANCH  35  36
ATOM     36  C   UNL A   1      39.965  29.229  29.950  1.00  0.00     0.031 A 
ATOM     37  C   UNL A   1      40.532  29.061  31.307  1.00  0.00     0.074 A 
ATOM     38  C   UNL A   1      40.478  28.626  28.853  1.00  0.00     0.049 A 
ATOM     39  N   UNL A   1      41.541  29.687  31.804  1.00  0.00    -0.248 NA
ATOM     40  C   UNL A   1      39.806  28.226  32.280  1.00  0.00     0.031 C 
ATOM     41  C   UNL A   1      39.857  28.445  27.532  1.00  0.00     0.029 A 
ATOM     42  N   UNL A   1      41.622  27.907  28.733  1.00  0.00    -0.354 N 
ATOM     43  C   UNL A   1      41.720  29.167  33.080  1.00  0.00     0.074 A 
ATOM     44  C   UNL A   1      40.512  28.447  33.391  1.00  0.00     0.031 C 
ATOM     45  C   UNL A   1      40.507  27.472  26.854  1.00  0.00     0.029 A 
ATOM     46  C   UNL A   1      41.672  27.072  27.621  1.00  0.00     0.049 A 
ATOM     47  H   UNL A   1      42.360  27.970  29.382  1.00  0.00     0.167 HD
ATOM     48  C   UNL A   1      42.954  29.136  33.653  1.00  0.00     0.031 A 
ATOM     49  C   UNL A   1      42.586  26.096  27.378  1.00  0.00     0.031 A 
ATOM     50  C   UNL A   1      43.899  29.929  32.902  1.00  0.00     0.049 A 
ATOM     51  C   UNL A   1      43.760  26.381  28.239  1.00  0.00     0.074 A 
ATOM     52  C   UNL A   1      43.964  31.256  32.524  1.00  0.00     0.029 A 
ATOM     53  N   UNL A   1      44.741  29.247  32.051  1.00  0.00    -0.354 N 
ATOM     54  N   UNL A   1      44.528  27.420  28.066  1.00  0.00    -0.248 NA
ATOM     55  C   UNL A   1      43.779  25.808  29.578  1.00  0.00     0.031 C 
ATOM     56  C   UNL A   1      44.437  31.226  31.179  1.00  0.00     0.029 A 
ATOM     57  C   UNL A   1      44.732  29.902  30.846  1.00  0.00     0.049 A 
ATOM     58  H   UNL A   1      45.255  28.436  32.268  1.00  0.00     0.167 HD
ATOM     59  C   UNL A   1      44.743  27.910  29.346  1.00  0.00     0.074 A 
ATOM     60  C   UNL A   1      44.347  26.822  30.243  1.00  0.00     0.031 C 
ATOM     61  C   UNL A   1      44.918  29.248  29.570  1.00  0.00     0.031 A 
BRANCH  48  62
ATOM     62  C   UNL A   1      43.414  28.065  34.607  1.00  0.00    -0.014 A 
ATOM     63  C   UNL A   1      43.742  26.803  34.079  1.00  0.00     0.009 A 
ATOM     64  C   UNL A   1      43.268  28.148  36.003  1.00  0.00     0.009 A 
ATOM     65  C   UNL A   1      43.827  25.671  34.897  1.00  0.00     0.001 A 
ATOM     66  C   UNL A   1      43.393  27.027  36.828  1.00  0.00     0.001 A 
ATOM     67  C   UNL A   1      43.642  25.783  36.270  1.00  0.00     0.000 A 
ENDBRANCH  48  62
BRANCH  49  68
ATOM     68  C   UNL A   1      42.419  24.812  26.656  1.00  0.00    -0.014 A 
ATOM     69  C   UNL A   1      43.112  24.555  25.460  1.00  0.00     0.009 A 
ATOM     70  C   UNL A   1      41.783  23.722  27.281  1.00  0.00     0.009 A 
ATOM     71  C   UNL A   1      43.199  23.255  24.937  1.00  0.00     0.001 A 
ATOM     72  C   UNL A   1      41.867  22.425  26.758  1.00  0.00     0.001 A 
ATOM     73  C   UNL A   1      42.590  22.189  25.594  1.00  0.00     0.000 A 
ENDBRANCH  49  68
BRANCH  61  74
ATOM     74  C   UNL A   1      45.066  30.157  28.372  1.00  0.00    -0.014 A 
ATOM     75  C   UNL A   1      43.980  30.789  27.739  1.00  0.00     0.009 A 
ATOM     76  C   UNL A   1      46.361  30.529  27.983  1.00  0.00     0.009 A 
ATOM     77  C   UNL A   1      44.185  31.739  26.731  1.00  0.00     0.001 A 
ATOM     78  C   UNL A   1      46.568  31.493  26.995  1.00  0.00     0.001 A 
ATOM     79  C   UNL A   1      45.481  32.094  26.364  1.00  0.00     0.000 A 
ENDBRANCH  61  74
ENDBRANCH  35  36
ENDBRANCH  27  30
ENDBRANCH  25  26
ENDBRANCH  24  25
ENDBRANCH  23  24
ENDBRANCH   1  23
TORSDOF 16
ENDMDL
