MODEL 1
REMARK VINA RESULT:     -11.2      0.000      0.000
REMARK SMILES O=C(NCCCCCCNC(=O)[C@H]1CC=CC[C@@H]1C(=O)NC1CCCCC1)c1ccc(-c2c3nc(c(-c4ccccc4)c4ccc([nH]4)c(-c4ccccc4)c4nc(c(-c5ccccc5)c5ccc2[nH]5)C=C4)C=C3)cc1
REMARK SMILES IDX 6 1 5 2 4 3 3 4 1 5 2 6 28 8 29 9 75 10 30 11 74 12 31 13
REMARK SMILES IDX 32 14 33 15 68 16 34 17 73 18 67 19 69 20 35 21 72 22 66 23
REMARK SMILES IDX 65 24 36 26 58 27 43 28 57 29 44 30 47 31 56 32 70 33 45 34
REMARK SMILES IDX 46 35 55 37 71 38 48 39 37 40 38 41 42 42 39 43 41 44 40 45
REMARK SMILES IDX 59 46 60 47 64 48 61 49 63 50 62 51 49 52 50 53 54 54 51 55
REMARK SMILES IDX 53 56 52 57 7 58 8 59 9 60 10 61 11 62 12 64 13 65 14 66
REMARK SMILES IDX 18 67 15 68 17 69 16 70 19 71 20 72 21 73 22 75 23 76 27 77
REMARK SMILES IDX 24 78 26 79 25 80
REMARK H PARENT 3 7 69 25 47 36 10 63 21 74
REMARK Flexibility Score: inf
ROOT
ATOM      1  C   UNL A   1      31.483  30.438  26.182  1.00  0.00     0.002 C 
ENDROOT
BRANCH   1   2
ATOM      2  C   UNL A   1      31.402  31.928  26.505  1.00  0.00     0.021 C 
BRANCH   2   3
ATOM      3  C   UNL A   1      32.683  32.542  27.047  1.00  0.00     0.116 C 
BRANCH   3   4
ATOM      4  N   UNL A   1      32.485  33.860  27.625  1.00  0.00    -0.352 N 
ATOM      5  O   UNL A   1      32.862  35.559  29.065  1.00  0.00    -0.269 OA
ATOM      6  C   UNL A   1      33.226  34.490  28.597  1.00  0.00     0.251 C 
ATOM      7  H   UNL A   1      31.718  34.369  27.275  1.00  0.00     0.163 HD
BRANCH   6   8
ATOM      8  C   UNL A   1      34.460  33.843  29.094  1.00  0.00     0.039 A 
ATOM      9  C   UNL A   1      34.404  32.897  30.122  1.00  0.00     0.014 A 
ATOM     10  C   UNL A   1      35.688  34.202  28.533  1.00  0.00     0.014 A 
ATOM     11  C   UNL A   1      35.582  32.412  30.676  1.00  0.00     0.010 A 
ATOM     12  C   UNL A   1      36.866  33.645  29.033  1.00  0.00     0.010 A 
ATOM     13  C   UNL A   1      36.824  32.763  30.124  1.00  0.00    -0.014 A 
BRANCH  13  14
ATOM     14  C   UNL A   1      38.057  32.127  30.648  1.00  0.00     0.031 A 
ATOM     15  C   UNL A   1      38.795  32.698  31.826  1.00  0.00     0.074 A 
ATOM     16  C   UNL A   1      38.501  31.004  30.049  1.00  0.00     0.049 A 
ATOM     17  N   UNL A   1      39.881  32.252  32.407  1.00  0.00    -0.248 NA
ATOM     18  C   UNL A   1      38.254  33.926  32.426  1.00  0.00     0.031 C 
ATOM     19  C   UNL A   1      37.869  30.361  28.893  1.00  0.00     0.029 A 
ATOM     20  N   UNL A   1      39.570  30.197  30.334  1.00  0.00    -0.354 N 
ATOM     21  C   UNL A   1      40.165  33.152  33.425  1.00  0.00     0.074 A 
ATOM     22  C   UNL A   1      39.150  34.183  33.370  1.00  0.00     0.031 C 
ATOM     23  C   UNL A   1      38.534  29.235  28.600  1.00  0.00     0.029 A 
ATOM     24  C   UNL A   1      39.674  29.112  29.499  1.00  0.00     0.049 A 
ATOM     25  H   UNL A   1      40.202  30.377  31.068  1.00  0.00     0.167 HD
ATOM     26  C   UNL A   1      41.178  33.119  34.325  1.00  0.00     0.031 A 
ATOM     27  C   UNL A   1      40.595  28.135  29.445  1.00  0.00     0.031 A 
ATOM     28  C   UNL A   1      42.188  32.094  34.372  1.00  0.00     0.049 A 
ATOM     29  C   UNL A   1      41.727  28.147  30.428  1.00  0.00     0.074 A 
ATOM     30  C   UNL A   1      43.238  31.957  35.265  1.00  0.00     0.029 A 
ATOM     31  N   UNL A   1      42.282  31.034  33.484  1.00  0.00    -0.354 N 
ATOM     32  N   UNL A   1      41.957  28.986  31.408  1.00  0.00    -0.248 NA
ATOM     33  C   UNL A   1      42.723  27.076  30.298  1.00  0.00     0.031 C 
ATOM     34  C   UNL A   1      43.995  30.845  34.885  1.00  0.00     0.029 A 
ATOM     35  C   UNL A   1      43.385  30.254  33.791  1.00  0.00     0.049 A 
ATOM     36  H   UNL A   1      41.655  30.860  32.744  1.00  0.00     0.167 HD
ATOM     37  C   UNL A   1      43.118  28.536  32.023  1.00  0.00     0.074 A 
ATOM     38  C   UNL A   1      43.526  27.336  31.319  1.00  0.00     0.031 C 
ATOM     39  C   UNL A   1      43.784  29.069  33.075  1.00  0.00     0.031 A 
BRANCH  26  40
ATOM     40  C   UNL A   1      41.264  34.245  35.320  1.00  0.00    -0.014 A 
ATOM     41  C   UNL A   1      41.992  35.412  35.044  1.00  0.00     0.009 A 
ATOM     42  C   UNL A   1      40.560  34.157  36.532  1.00  0.00     0.009 A 
ATOM     43  C   UNL A   1      42.039  36.454  35.974  1.00  0.00     0.001 A 
ATOM     44  C   UNL A   1      40.588  35.209  37.449  1.00  0.00     0.001 A 
ATOM     45  C   UNL A   1      41.333  36.354  37.173  1.00  0.00     0.000 A 
ENDBRANCH  26  40
BRANCH  27  46
ATOM     46  C   UNL A   1      40.486  27.077  28.409  1.00  0.00    -0.014 A 
ATOM     47  C   UNL A   1      39.747  25.910  28.654  1.00  0.00     0.009 A 
ATOM     48  C   UNL A   1      41.108  27.238  27.161  1.00  0.00     0.009 A 
ATOM     49  C   UNL A   1      39.651  24.917  27.676  1.00  0.00     0.001 A 
ATOM     50  C   UNL A   1      40.984  26.259  26.174  1.00  0.00     0.001 A 
ATOM     51  C   UNL A   1      40.263  25.096  26.435  1.00  0.00     0.000 A 
ENDBRANCH  27  46
BRANCH  39  52
ATOM     52  C   UNL A   1      45.009  28.339  33.544  1.00  0.00    -0.014 A 
ATOM     53  C   UNL A   1      44.926  27.321  34.507  1.00  0.00     0.009 A 
ATOM     54  C   UNL A   1      46.261  28.660  32.998  1.00  0.00     0.009 A 
ATOM     55  C   UNL A   1      46.080  26.664  34.940  1.00  0.00     0.001 A 
ATOM     56  C   UNL A   1      47.408  27.982  33.409  1.00  0.00     0.001 A 
ATOM     57  C   UNL A   1      47.318  26.992  34.388  1.00  0.00     0.000 A 
ENDBRANCH  39  52
ENDBRANCH  13  14
ENDBRANCH   6   8
ENDBRANCH   3   4
ENDBRANCH   2   3
ENDBRANCH   1   2
BRANCH   1  58
ATOM     58  C   UNL A   1      32.242  29.577  27.195  1.00  0.00     0.002 C 
BRANCH  58  59
ATOM     59  C   UNL A   1      31.632  28.207  27.523  1.00  0.00     0.021 C 
BRANCH  59  60
ATOM     60  C   UNL A   1      31.334  27.307  26.327  1.00  0.00     0.116 C 
BRANCH  60  61
ATOM     61  N   UNL A   1      31.690  25.932  26.581  1.00  0.00    -0.356 N 
ATOM     62  C   UNL A   1      32.591  25.119  25.979  1.00  0.00     0.224 C 
ATOM     63  H   UNL A   1      31.192  25.511  27.319  1.00  0.00     0.163 HD
ATOM     64  O   UNL A   1      32.666  23.975  26.438  1.00  0.00    -0.275 OA
BRANCH  62  65
ATOM     65  C   UNL A   1      33.398  25.570  24.755  1.00  0.00     0.095 C 
ATOM     66  C   UNL A   1      34.735  24.831  24.578  1.00  0.00     0.041 C 
ATOM     67  C   UNL A   1      32.493  25.415  23.502  1.00  0.00     0.095 C 
ATOM     68  C   UNL A   1      34.595  23.454  24.012  1.00  0.00    -0.030 C 
ATOM     69  C   UNL A   1      32.346  23.953  23.041  1.00  0.00     0.041 C 
ATOM     70  C   UNL A   1      33.510  23.057  23.339  1.00  0.00    -0.030 C 
BRANCH  67  71
ATOM     71  C   UNL A   1      32.912  26.343  22.371  1.00  0.00     0.224 C 
ATOM     72  O   UNL A   1      33.863  26.098  21.629  1.00  0.00    -0.275 OA
ATOM     73  N   UNL A   1      32.227  27.508  22.167  1.00  0.00    -0.353 N 
ATOM     74  H   UNL A   1      32.553  28.049  21.413  1.00  0.00     0.163 HD
BRANCH  73  75
ATOM     75  C   UNL A   1      31.089  28.085  22.886  1.00  0.00     0.082 C 
ATOM     76  C   UNL A   1      30.670  29.450  22.318  1.00  0.00     0.025 C 
ATOM     77  C   UNL A   1      29.900  27.109  22.824  1.00  0.00     0.025 C 
ATOM     78  C   UNL A   1      29.455  30.005  23.057  1.00  0.00     0.002 C 
ATOM     79  C   UNL A   1      28.649  27.664  23.502  1.00  0.00     0.002 C 
ATOM     80  C   UNL A   1      28.277  29.045  22.972  1.00  0.00     0.000 C 
ENDBRANCH  73  75
ENDBRANCH  67  71
ENDBRANCH  62  65
ENDBRANCH  60  61
ENDBRANCH  59  60
ENDBRANCH  58  59
ENDBRANCH   1  58
TORSDOF 15
ENDMDL
MODEL 2
REMARK VINA RESULT:     -11.1      3.029      5.315
REMARK SMILES O=C(NCCCCCCNC(=O)[C@H]1CC=CC[C@@H]1C(=O)NC1CCCCC1)c1ccc(-c2c3nc(c(-c4ccccc4)c4ccc([nH]4)c(-c4ccccc4)c4nc(c(-c5ccccc5)c5ccc2[nH]5)C=C4)C=C3)cc1
REMARK SMILES IDX 6 1 5 2 4 3 3 4 1 5 2 6 28 8 29 9 75 10 30 11 74 12 31 13
REMARK SMILES IDX 32 14 33 15 68 16 34 17 73 18 67 19 69 20 35 21 72 22 66 23
REMARK SMILES IDX 65 24 36 26 58 27 43 28 57 29 44 30 47 31 56 32 70 33 45 34
REMARK SMILES IDX 46 35 55 37 71 38 48 39 37 40 38 41 42 42 39 43 41 44 40 45
REMARK SMILES IDX 59 46 60 47 64 48 61 49 63 50 62 51 49 52 50 53 54 54 51 55
REMARK SMILES IDX 53 56 52 57 7 58 8 59 9 60 10 61 11 62 12 64 13 65 14 66
REMARK SMILES IDX 18 67 15 68 17 69 16 70 19 71 20 72 21 73 22 75 23 76 27 77
REMARK SMILES IDX 24 78 26 79 25 80
REMARK H PARENT 3 7 69 25 47 36 10 63 21 74
REMARK Flexibility Score: inf
ROOT
ATOM      1  C   UNL A   1      33.007  26.978  25.076  1.00  0.00     0.002 C 
ENDROOT
BRANCH   1   2
ATOM      2  C   UNL A   1      33.968  27.901  25.821  1.00  0.00     0.021 C 
BRANCH   2   3
ATOM      3  C   UNL A   1      33.551  28.259  27.239  1.00  0.00     0.116 C 
BRANCH   3   4
ATOM      4  N   UNL A   1      33.402  29.688  27.447  1.00  0.00    -0.352 N 
ATOM      5  O   UNL A   1      34.003  31.742  28.171  1.00  0.00    -0.269 OA
ATOM      6  C   UNL A   1      34.319  30.582  27.946  1.00  0.00     0.251 C 
ATOM      7  H   UNL A   1      32.528  30.067  27.197  1.00  0.00     0.163 HD
BRANCH   6   8
ATOM      8  C   UNL A   1      35.693  30.118  28.238  1.00  0.00     0.039 A 
ATOM      9  C   UNL A   1      36.034  29.659  29.514  1.00  0.00     0.014 A 
ATOM     10  C   UNL A   1      36.652  30.157  27.223  1.00  0.00     0.014 A 
ATOM     11  C   UNL A   1      37.360  29.368  29.809  1.00  0.00     0.010 A 
ATOM     12  C   UNL A   1      37.967  29.778  27.499  1.00  0.00     0.010 A 
ATOM     13  C   UNL A   1      38.337  29.403  28.800  1.00  0.00    -0.014 A 
BRANCH  13  14
ATOM     14  C   UNL A   1      39.717  28.958  29.112  1.00  0.00     0.031 A 
ATOM     15  C   UNL A   1      40.680  29.845  29.848  1.00  0.00     0.074 A 
ATOM     16  C   UNL A   1      40.091  27.722  28.728  1.00  0.00     0.049 A 
ATOM     17  N   UNL A   1      41.916  29.596  30.203  1.00  0.00    -0.248 NA
ATOM     18  C   UNL A   1      40.202  31.182  30.232  1.00  0.00     0.031 C 
ATOM     19  C   UNL A   1      39.242  26.773  28.001  1.00  0.00     0.029 A 
ATOM     20  N   UNL A   1      41.268  27.044  28.908  1.00  0.00    -0.354 N 
ATOM     21  C   UNL A   1      42.370  30.748  30.832  1.00  0.00     0.074 A 
ATOM     22  C   UNL A   1      41.285  31.705  30.791  1.00  0.00     0.031 C 
ATOM     23  C   UNL A   1      39.909  25.621  27.840  1.00  0.00     0.029 A 
ATOM     24  C   UNL A   1      41.250  25.772  28.390  1.00  0.00     0.049 A 
ATOM     25  H   UNL A   1      42.049  27.431  29.366  1.00  0.00     0.167 HD
ATOM     26  C   UNL A   1      43.582  30.983  31.393  1.00  0.00     0.031 A 
ATOM     27  C   UNL A   1      42.212  24.834  28.342  1.00  0.00     0.031 A 
ATOM     28  C   UNL A   1      44.660  30.029  31.426  1.00  0.00     0.049 A 
ATOM     29  C   UNL A   1      43.554  25.137  28.936  1.00  0.00     0.074 A 
ATOM     30  C   UNL A   1      45.913  30.163  31.999  1.00  0.00     0.029 A 
ATOM     31  N   UNL A   1      44.616  28.766  30.856  1.00  0.00    -0.354 N 
ATOM     32  N   UNL A   1      43.954  26.219  29.559  1.00  0.00    -0.248 NA
ATOM     33  C   UNL A   1      44.577  24.090  28.821  1.00  0.00     0.031 C 
ATOM     34  C   UNL A   1      46.645  29.002  31.728  1.00  0.00     0.029 A 
ATOM     35  C   UNL A   1      45.829  28.122  31.038  1.00  0.00     0.049 A 
ATOM     36  H   UNL A   1      43.838  28.384  30.389  1.00  0.00     0.167 HD
ATOM     37  C   UNL A   1      45.270  25.977  29.925  1.00  0.00     0.074 A 
ATOM     38  C   UNL A   1      45.591  24.637  29.475  1.00  0.00     0.031 C 
ATOM     39  C   UNL A   1      46.135  26.792  30.576  1.00  0.00     0.031 A 
BRANCH  26  40
ATOM     40  C   UNL A   1      43.819  32.341  31.996  1.00  0.00    -0.014 A 
ATOM     41  C   UNL A   1      43.550  32.598  33.349  1.00  0.00     0.009 A 
ATOM     42  C   UNL A   1      44.370  33.365  31.209  1.00  0.00     0.009 A 
ATOM     43  C   UNL A   1      43.800  33.861  33.894  1.00  0.00     0.001 A 
ATOM     44  C   UNL A   1      44.641  34.619  31.761  1.00  0.00     0.001 A 
ATOM     45  C   UNL A   1      44.350  34.868  33.101  1.00  0.00     0.000 A 
ENDBRANCH  26  40
BRANCH  27  46
ATOM     46  C   UNL A   1      41.936  23.529  27.690  1.00  0.00    -0.014 A 
ATOM     47  C   UNL A   1      41.311  22.494  28.399  1.00  0.00     0.009 A 
ATOM     48  C   UNL A   1      42.280  23.320  26.344  1.00  0.00     0.009 A 
ATOM     49  C   UNL A   1      41.056  21.267  27.781  1.00  0.00     0.001 A 
ATOM     50  C   UNL A   1      41.996  22.105  25.719  1.00  0.00     0.001 A 
ATOM     51  C   UNL A   1      41.392  21.077  26.440  1.00  0.00     0.000 A 
ENDBRANCH  27  46
BRANCH  39  52
ATOM     52  C   UNL A   1      47.503  26.241  30.863  1.00  0.00    -0.014 A 
ATOM     53  C   UNL A   1      48.506  26.236  29.881  1.00  0.00     0.009 A 
ATOM     54  C   UNL A   1      47.795  25.739  32.140  1.00  0.00     0.009 A 
ATOM     55  C   UNL A   1      49.766  25.706  30.164  1.00  0.00     0.001 A 
ATOM     56  C   UNL A   1      49.065  25.238  32.429  1.00  0.00     0.001 A 
ATOM     57  C   UNL A   1      50.045  25.212  31.438  1.00  0.00     0.000 A 
ENDBRANCH  39  52
ENDBRANCH  13  14
ENDBRANCH   6   8
ENDBRANCH   3   4
ENDBRANCH   2   3
ENDBRANCH   1   2
BRANCH   1  58
ATOM     58  C   UNL A   1      33.659  25.951  24.145  1.00  0.00     0.002 C 
BRANCH  58  59
ATOM     59  C   UNL A   1      32.730  24.889  23.539  1.00  0.00     0.021 C 
BRANCH  59  60
ATOM     60  C   UNL A   1      33.302  23.477  23.447  1.00  0.00     0.116 C 
BRANCH  60  61
ATOM     61  N   UNL A   1      34.630  23.466  22.882  1.00  0.00    -0.356 N 
ATOM     62  C   UNL A   1      35.737  22.764  23.222  1.00  0.00     0.224 C 
ATOM     63  H   UNL A   1      34.753  24.075  22.118  1.00  0.00     0.163 HD
ATOM     64  O   UNL A   1      36.737  22.978  22.529  1.00  0.00    -0.275 OA
BRANCH  62  65
ATOM     65  C   UNL A   1      35.763  21.832  24.439  1.00  0.00     0.095 C 
ATOM     66  C   UNL A   1      37.177  21.434  24.895  1.00  0.00     0.041 C 
ATOM     67  C   UNL A   1      34.969  22.517  25.584  1.00  0.00     0.095 C 
ATOM     68  C   UNL A   1      37.887  22.502  25.665  1.00  0.00    -0.030 C 
ATOM     69  C   UNL A   1      35.752  23.656  26.264  1.00  0.00     0.041 C 
ATOM     70  C   UNL A   1      37.244  23.511  26.261  1.00  0.00    -0.030 C 
BRANCH  67  71
ATOM     71  C   UNL A   1      34.417  21.513  26.584  1.00  0.00     0.224 C 
ATOM     72  O   UNL A   1      34.415  21.716  27.799  1.00  0.00    -0.275 OA
ATOM     73  N   UNL A   1      33.915  20.322  26.136  1.00  0.00    -0.353 N 
ATOM     74  H   UNL A   1      33.570  19.731  26.843  1.00  0.00     0.163 HD
BRANCH  73  75
ATOM     75  C   UNL A   1      33.806  19.781  24.779  1.00  0.00     0.082 C 
ATOM     76  C   UNL A   1      34.048  18.265  24.733  1.00  0.00     0.025 C 
ATOM     77  C   UNL A   1      32.410  20.104  24.214  1.00  0.00     0.025 C 
ATOM     78  C   UNL A   1      33.883  17.723  23.315  1.00  0.00     0.002 C 
ATOM     79  C   UNL A   1      32.194  19.521  22.819  1.00  0.00     0.002 C 
ATOM     80  C   UNL A   1      32.494  18.026  22.772  1.00  0.00     0.000 C 
ENDBRANCH  73  75
ENDBRANCH  67  71
ENDBRANCH  62  65
ENDBRANCH  60  61
ENDBRANCH  59  60
ENDBRANCH  58  59
ENDBRANCH   1  58
TORSDOF 15
ENDMDL
MODEL 3
REMARK VINA RESULT:     -11.1      4.816      9.948
REMARK SMILES O=C(NCCCCCCNC(=O)[C@H]1CC=CC[C@@H]1C(=O)NC1CCCCC1)c1ccc(-c2c3nc(c(-c4ccccc4)c4ccc([nH]4)c(-c4ccccc4)c4nc(c(-c5ccccc5)c5ccc2[nH]5)C=C4)C=C3)cc1
REMARK SMILES IDX 6 1 5 2 4 3 3 4 1 5 2 6 28 8 29 9 75 10 30 11 74 12 31 13
REMARK SMILES IDX 32 14 33 15 68 16 34 17 73 18 67 19 69 20 35 21 72 22 66 23
REMARK SMILES IDX 65 24 36 26 58 27 43 28 57 29 44 30 47 31 56 32 70 33 45 34
REMARK SMILES IDX 46 35 55 37 71 38 48 39 37 40 38 41 42 42 39 43 41 44 40 45
REMARK SMILES IDX 59 46 60 47 64 48 61 49 63 50 62 51 49 52 50 53 54 54 51 55
REMARK SMILES IDX 53 56 52 57 7 58 8 59 9 60 10 61 11 62 12 64 13 65 14 66
REMARK SMILES IDX 18 67 15 68 17 69 16 70 19 71 20 72 21 73 22 75 23 76 27 77
REMARK SMILES IDX 24 78 26 79 25 80
REMARK H PARENT 3 7 69 25 47 36 10 63 21 74
REMARK Flexibility Score: inf
ROOT
ATOM      1  C   UNL A   1      36.866  20.233  24.726  1.00  0.00     0.002 C 
ENDROOT
BRANCH   1   2
ATOM      2  C   UNL A   1      37.984  19.230  24.997  1.00  0.00     0.021 C 
BRANCH   2   3
ATOM      3  C   UNL A   1      39.180  19.783  25.755  1.00  0.00     0.116 C 
BRANCH   3   4
ATOM      4  N   UNL A   1      40.311  18.873  25.781  1.00  0.00    -0.352 N 
ATOM      5  O   UNL A   1      42.493  18.297  25.876  1.00  0.00    -0.269 OA
ATOM      6  C   UNL A   1      41.638  19.160  26.002  1.00  0.00     0.251 C 
ATOM      7  H   UNL A   1      40.101  17.925  25.618  1.00  0.00     0.163 HD
BRANCH   6   8
ATOM      8  C   UNL A   1      42.025  20.541  26.366  1.00  0.00     0.039 A 
ATOM      9  C   UNL A   1      42.278  21.495  25.376  1.00  0.00     0.014 A 
ATOM     10  C   UNL A   1      42.150  20.877  27.716  1.00  0.00     0.014 A 
ATOM     11  C   UNL A   1      42.783  22.739  25.731  1.00  0.00     0.010 A 
ATOM     12  C   UNL A   1      42.573  22.158  28.074  1.00  0.00     0.010 A 
ATOM     13  C   UNL A   1      42.915  23.092  27.084  1.00  0.00    -0.014 A 
BRANCH  13  14
ATOM     14  C   UNL A   1      43.328  24.472  27.437  1.00  0.00     0.031 A 
ATOM     15  C   UNL A   1      44.765  24.904  27.362  1.00  0.00     0.074 A 
ATOM     16  C   UNL A   1      42.376  25.346  27.818  1.00  0.00     0.049 A 
ATOM     17  N   UNL A   1      45.283  26.078  27.628  1.00  0.00    -0.248 NA
ATOM     18  C   UNL A   1      45.748  23.895  26.942  1.00  0.00     0.031 C 
ATOM     19  C   UNL A   1      40.947  25.038  27.933  1.00  0.00     0.029 A 
ATOM     20  N   UNL A   1      42.458  26.670  28.160  1.00  0.00    -0.354 N 
ATOM     21  C   UNL A   1      46.650  25.945  27.428  1.00  0.00     0.074 A 
ATOM     22  C   UNL A   1      46.886  24.570  27.039  1.00  0.00     0.031 C 
ATOM     23  C   UNL A   1      40.284  26.152  28.272  1.00  0.00     0.029 A 
ATOM     24  C   UNL A   1      41.243  27.232  28.463  1.00  0.00     0.049 A 
ATOM     25  H   UNL A   1      43.307  27.170  28.185  1.00  0.00     0.167 HD
ATOM     26  C   UNL A   1      47.619  26.884  27.555  1.00  0.00     0.031 A 
ATOM     27  C   UNL A   1      40.931  28.475  28.871  1.00  0.00     0.031 A 
ATOM     28  C   UNL A   1      47.380  28.249  27.947  1.00  0.00     0.049 A 
ATOM     29  C   UNL A   1      42.028  29.482  29.041  1.00  0.00     0.074 A 
ATOM     30  C   UNL A   1      48.292  29.283  28.074  1.00  0.00     0.029 A 
ATOM     31  N   UNL A   1      46.140  28.769  28.284  1.00  0.00    -0.354 N 
ATOM     32  N   UNL A   1      43.311  29.347  28.811  1.00  0.00    -0.248 NA
ATOM     33  C   UNL A   1      41.634  30.811  29.524  1.00  0.00     0.031 C 
ATOM     34  C   UNL A   1      47.611  30.413  28.539  1.00  0.00     0.029 A 
ATOM     35  C   UNL A   1      46.266  30.100  28.645  1.00  0.00     0.049 A 
ATOM     36  H   UNL A   1      45.293  28.266  28.269  1.00  0.00     0.167 HD
ATOM     37  C   UNL A   1      43.877  30.579  29.107  1.00  0.00     0.074 A 
ATOM     38  C   UNL A   1      42.792  31.453  29.508  1.00  0.00     0.031 C 
ATOM     39  C   UNL A   1      45.178  30.954  29.051  1.00  0.00     0.031 A 
BRANCH  26  40
ATOM     40  C   UNL A   1      49.039  26.461  27.294  1.00  0.00    -0.014 A 
ATOM     41  C   UNL A   1      49.868  26.002  28.330  1.00  0.00     0.009 A 
ATOM     42  C   UNL A   1      49.539  26.473  25.982  1.00  0.00     0.009 A 
ATOM     43  C   UNL A   1      51.177  25.592  28.060  1.00  0.00     0.001 A 
ATOM     44  C   UNL A   1      50.839  26.039  25.712  1.00  0.00     0.001 A 
ATOM     45  C   UNL A   1      51.659  25.606  26.751  1.00  0.00     0.000 A 
ENDBRANCH  26  40
BRANCH  27  46
ATOM     46  C   UNL A   1      39.517  28.822  29.161  1.00  0.00    -0.014 A 
ATOM     47  C   UNL A   1      38.984  28.635  30.445  1.00  0.00     0.009 A 
ATOM     48  C   UNL A   1      38.697  29.361  28.157  1.00  0.00     0.009 A 
ATOM     49  C   UNL A   1      37.651  28.961  30.711  1.00  0.00     0.001 A 
ATOM     50  C   UNL A   1      37.376  29.715  28.433  1.00  0.00     0.001 A 
ATOM     51  C   UNL A   1      36.851  29.507  29.707  1.00  0.00     0.000 A 
ENDBRANCH  27  46
BRANCH  39  52
ATOM     52  C   UNL A   1      45.492  32.378  29.408  1.00  0.00    -0.014 A 
ATOM     53  C   UNL A   1      45.863  32.738  30.713  1.00  0.00     0.009 A 
ATOM     54  C   UNL A   1      45.434  33.370  28.417  1.00  0.00     0.009 A 
ATOM     55  C   UNL A   1      46.136  34.070  31.026  1.00  0.00     0.001 A 
ATOM     56  C   UNL A   1      45.737  34.697  28.726  1.00  0.00     0.001 A 
ATOM     57  C   UNL A   1      46.077  35.047  30.032  1.00  0.00     0.000 A 
ENDBRANCH  39  52
ENDBRANCH  13  14
ENDBRANCH   6   8
ENDBRANCH   3   4
ENDBRANCH   2   3
ENDBRANCH   1   2
BRANCH   1  58
ATOM     58  C   UNL A   1      37.303  21.693  24.579  1.00  0.00     0.002 C 
BRANCH  58  59
ATOM     59  C   UNL A   1      36.967  22.630  25.749  1.00  0.00     0.021 C 
BRANCH  59  60
ATOM     60  C   UNL A   1      36.410  23.998  25.367  1.00  0.00     0.116 C 
BRANCH  60  61
ATOM     61  N   UNL A   1      35.764  23.980  24.077  1.00  0.00    -0.356 N 
ATOM     62  C   UNL A   1      34.474  23.756  23.729  1.00  0.00     0.224 C 
ATOM     63  H   UNL A   1      36.364  24.162  23.317  1.00  0.00     0.163 HD
ATOM     64  O   UNL A   1      34.230  23.815  22.519  1.00  0.00    -0.275 OA
BRANCH  62  65
ATOM     65  C   UNL A   1      33.411  23.371  24.765  1.00  0.00     0.095 C 
ATOM     66  C   UNL A   1      32.626  24.565  25.333  1.00  0.00     0.041 C 
ATOM     67  C   UNL A   1      32.463  22.328  24.112  1.00  0.00     0.095 C 
ATOM     68  C   UNL A   1      31.575  25.092  24.411  1.00  0.00    -0.030 C 
ATOM     69  C   UNL A   1      31.468  22.955  23.118  1.00  0.00     0.041 C 
ATOM     70  C   UNL A   1      31.072  24.372  23.402  1.00  0.00    -0.030 C 
BRANCH  67  71
ATOM     71  C   UNL A   1      31.777  21.447  25.146  1.00  0.00     0.224 C 
ATOM     72  O   UNL A   1      30.972  21.890  25.967  1.00  0.00    -0.275 OA
ATOM     73  N   UNL A   1      32.065  20.112  25.193  1.00  0.00    -0.353 N 
ATOM     74  H   UNL A   1      31.575  19.610  25.883  1.00  0.00     0.163 HD
BRANCH  73  75
ATOM     75  C   UNL A   1      32.984  19.304  24.386  1.00  0.00     0.082 C 
ATOM     76  C   UNL A   1      33.709  18.236  25.218  1.00  0.00     0.025 C 
ATOM     77  C   UNL A   1      32.200  18.631  23.244  1.00  0.00     0.025 C 
ATOM     78  C   UNL A   1      34.624  17.383  24.344  1.00  0.00     0.002 C 
ATOM     79  C   UNL A   1      33.078  17.720  22.388  1.00  0.00     0.002 C 
ATOM     80  C   UNL A   1      33.838  16.702  23.232  1.00  0.00     0.000 C 
ENDBRANCH  73  75
ENDBRANCH  67  71
ENDBRANCH  62  65
ENDBRANCH  60  61
ENDBRANCH  59  60
ENDBRANCH  58  59
ENDBRANCH   1  58
TORSDOF 15
ENDMDL
