MODEL 1
REMARK VINA RESULT:     -10.8      0.000      0.000
REMARK SMILES C[C@H]1CN(C(=O)N2CC[NH+]([C@@H](C)C(=O)NCCCCCCNC(=O)c3ccc(-c4c5nc(c(-c6ccccc6)c6ccc([nH]6)c(-c6ccccc6)c6nc(c(-c7ccccc7)c7ccc4[nH]7)C=C6)C=C5)cc3)CC2)C[C@@H]1C
REMARK SMILES IDX 19 1 18 2 17 3 16 4 15 5 13 6 14 7 11 9 12 10 10 11 1 12
REMARK SMILES IDX 2 13 3 14 76 15 4 16 75 17 77 18 5 19 6 20 7 21 8 22 74 23
REMARK SMILES IDX 9 24 73 25 20 27 21 28 22 29 23 30 24 32 25 33 26 34 72 35
REMARK SMILES IDX 27 36 71 37 28 38 29 39 30 40 65 41 31 42 70 43 64 44 66 45
REMARK SMILES IDX 32 46 69 47 63 48 62 49 33 51 55 52 40 53 54 54 41 55 44 56
REMARK SMILES IDX 53 57 67 58 42 59 43 60 52 62 68 63 45 64 34 65 35 66 39 67
REMARK SMILES IDX 36 68 38 69 37 70 56 71 57 72 61 73 58 74 60 75 59 76 46 77
REMARK SMILES IDX 47 78 51 79 48 80 50 81 49 82
REMARK H PARENT 15 8 10 26 22 31 66 50 44 61
REMARK Flexibility Score: inf
ROOT
ATOM      1  C   UNL A   1      42.047  20.875  26.741  1.00  0.00     0.002 C 
ENDROOT
BRANCH   1   2
ATOM      2  C   UNL A   1      40.650  21.154  27.304  1.00  0.00     0.002 C 
BRANCH   2   3
ATOM      3  C   UNL A   1      40.180  22.601  27.162  1.00  0.00     0.021 C 
BRANCH   3   4
ATOM      4  C   UNL A   1      38.840  22.761  26.431  1.00  0.00     0.116 C 
BRANCH   4   5
ATOM      5  N   UNL A   1      38.646  21.692  25.471  1.00  0.00    -0.351 N 
ATOM      6  C   UNL A   1      37.550  20.975  25.095  1.00  0.00     0.278 C 
ATOM      7  O   UNL A   1      37.772  20.009  24.352  1.00  0.00    -0.268 OA
ATOM      8  H   UNL A   1      39.469  21.432  24.996  1.00  0.00     0.163 HD
BRANCH   6   9
ATOM      9  C   UNL A   1      36.091  21.320  25.508  1.00  0.00     0.271 C 
ATOM     10  C   UNL A   1      35.049  20.349  24.958  1.00  0.00     0.086 C 
BRANCH   9  11
ATOM     11  N   UNL A   1      35.812  22.776  25.517  1.00  0.00    -0.322 N 
ATOM     12  C   UNL A   1      31.705  28.135  27.537  1.00  0.00     0.010 C 
ATOM     13  C   UNL A   1      32.136  27.872  26.094  1.00  0.00     0.010 C 
ATOM     14  C   UNL A   1      32.762  26.484  25.954  1.00  0.00     0.125 C 
ATOM     15  C   UNL A   1      30.934  27.811  25.132  1.00  0.00     0.010 C 
ATOM     16  N   UNL A   1      31.670  25.610  25.551  1.00  0.00    -0.324 N 
ATOM     17  C   UNL A   1      30.461  26.359  25.262  1.00  0.00     0.125 C 
ATOM     18  C   UNL A   1      31.352  28.119  23.689  1.00  0.00     0.010 C 
ATOM     19  C   UNL A   1      31.813  24.300  25.156  1.00  0.00     0.320 C 
ATOM     20  O   UNL A   1      30.935  23.666  24.577  1.00  0.00    -0.248 OA
ATOM     21  N   UNL A   1      33.088  23.809  25.310  1.00  0.00    -0.313 N 
ATOM     22  C   UNL A   1      33.741  23.255  24.146  1.00  0.00     0.183 C 
ATOM     23  C   UNL A   1      33.533  23.276  26.593  1.00  0.00     0.183 C 
ATOM     24  C   UNL A   1      35.260  23.387  24.306  1.00  0.00     0.284 C 
ATOM     25  C   UNL A   1      35.076  23.259  26.707  1.00  0.00     0.284 C 
ATOM     26  H   UNL A   1      36.774  23.112  25.560  1.00  0.00     0.348 HD
ENDBRANCH   9  11
ENDBRANCH   6   9
ENDBRANCH   4   5
ENDBRANCH   3   4
ENDBRANCH   2   3
ENDBRANCH   1   2
BRANCH   1  27
ATOM     27  C   UNL A   1      42.160  19.657  25.817  1.00  0.00     0.021 C 
BRANCH  27  28
ATOM     28  C   UNL A   1      43.408  18.798  26.013  1.00  0.00     0.116 C 
BRANCH  28  29
ATOM     29  N   UNL A   1      44.189  18.678  24.793  1.00  0.00    -0.352 N 
ATOM     30  C   UNL A   1      44.806  19.643  24.038  1.00  0.00     0.251 C 
ATOM     31  H   UNL A   1      44.292  17.760  24.455  1.00  0.00     0.163 HD
ATOM     32  O   UNL A   1      45.244  19.359  22.928  1.00  0.00    -0.269 OA
BRANCH  30  33
ATOM     33  C   UNL A   1      44.945  21.026  24.546  1.00  0.00     0.039 A 
ATOM     34  C   UNL A   1      45.568  21.222  25.782  1.00  0.00     0.014 A 
ATOM     35  C   UNL A   1      44.414  22.115  23.849  1.00  0.00     0.014 A 
ATOM     36  C   UNL A   1      45.695  22.513  26.299  1.00  0.00     0.010 A 
ATOM     37  C   UNL A   1      44.597  23.409  24.336  1.00  0.00     0.010 A 
ATOM     38  C   UNL A   1      45.227  23.619  25.571  1.00  0.00    -0.014 A 
BRANCH  38  39
ATOM     39  C   UNL A   1      45.379  24.996  26.106  1.00  0.00     0.031 A 
ATOM     40  C   UNL A   1      46.712  25.692  26.052  1.00  0.00     0.074 A 
ATOM     41  C   UNL A   1      44.318  25.614  26.659  1.00  0.00     0.049 A 
ATOM     42  N   UNL A   1      47.031  26.895  26.459  1.00  0.00    -0.248 NA
ATOM     43  C   UNL A   1      47.836  24.932  25.483  1.00  0.00     0.031 C 
ATOM     44  C   UNL A   1      42.980  25.036  26.804  1.00  0.00     0.029 A 
ATOM     45  N   UNL A   1      44.197  26.870  27.198  1.00  0.00    -0.354 N 
ATOM     46  C   UNL A   1      48.389  27.034  26.199  1.00  0.00     0.074 A 
ATOM     47  C   UNL A   1      48.845  25.775  25.651  1.00  0.00     0.031 C 
ATOM     48  C   UNL A   1      42.165  25.949  27.357  1.00  0.00     0.029 A 
ATOM     49  C   UNL A   1      42.928  27.162  27.634  1.00  0.00     0.049 A 
ATOM     50  H   UNL A   1      44.949  27.503  27.265  1.00  0.00     0.167 HD
ATOM     51  C   UNL A   1      49.182  28.117  26.377  1.00  0.00     0.031 A 
ATOM     52  C   UNL A   1      42.432  28.284  28.187  1.00  0.00     0.031 A 
ATOM     53  C   UNL A   1      48.733  29.371  26.917  1.00  0.00     0.049 A 
ATOM     54  C   UNL A   1      43.337  29.467  28.386  1.00  0.00     0.074 A 
ATOM     55  C   UNL A   1      49.453  30.538  27.110  1.00  0.00     0.029 A 
ATOM     56  N   UNL A   1      47.440  29.624  27.350  1.00  0.00    -0.354 N 
ATOM     57  N   UNL A   1      44.606  29.599  28.085  1.00  0.00    -0.248 NA
ATOM     58  C   UNL A   1      42.733  30.663  28.990  1.00  0.00     0.031 C 
ATOM     59  C   UNL A   1      48.605  31.486  27.693  1.00  0.00     0.029 A 
ATOM     60  C   UNL A   1      47.345  30.924  27.819  1.00  0.00     0.049 A 
ATOM     61  H   UNL A   1      46.700  28.976  27.328  1.00  0.00     0.167 HD
ATOM     62  C   UNL A   1      44.944  30.900  28.432  1.00  0.00     0.074 A 
ATOM     63  C   UNL A   1      43.743  31.521  28.952  1.00  0.00     0.031 C 
ATOM     64  C   UNL A   1      46.142  31.526  28.330  1.00  0.00     0.031 A 
BRANCH  51  65
ATOM     65  C   UNL A   1      50.625  27.989  25.974  1.00  0.00    -0.014 A 
ATOM     66  C   UNL A   1      51.596  27.561  26.893  1.00  0.00     0.009 A 
ATOM     67  C   UNL A   1      51.014  28.267  24.654  1.00  0.00     0.009 A 
ATOM     68  C   UNL A   1      52.934  27.447  26.508  1.00  0.00     0.001 A 
ATOM     69  C   UNL A   1      52.349  28.126  24.266  1.00  0.00     0.001 A 
ATOM     70  C   UNL A   1      53.308  27.725  25.195  1.00  0.00     0.000 A 
ENDBRANCH  51  65
BRANCH  52  71
ATOM     71  C   UNL A   1      40.997  28.362  28.565  1.00  0.00    -0.014 A 
ATOM     72  C   UNL A   1      40.563  27.865  29.804  1.00  0.00     0.009 A 
ATOM     73  C   UNL A   1      40.052  28.911  27.685  1.00  0.00     0.009 A 
ATOM     74  C   UNL A   1      39.208  27.888  30.141  1.00  0.00     0.001 A 
ATOM     75  C   UNL A   1      38.702  28.958  28.036  1.00  0.00     0.001 A 
ATOM     76  C   UNL A   1      38.279  28.435  29.258  1.00  0.00     0.000 A 
ENDBRANCH  52  71
BRANCH  64  77
ATOM     77  C   UNL A   1      46.196  32.965  28.755  1.00  0.00    -0.014 A 
ATOM     78  C   UNL A   1      46.506  33.326  30.075  1.00  0.00     0.009 A 
ATOM     79  C   UNL A   1      45.950  33.975  27.812  1.00  0.00     0.009 A 
ATOM     80  C   UNL A   1      46.529  34.670  30.452  1.00  0.00     0.001 A 
ATOM     81  C   UNL A   1      46.002  35.319  28.185  1.00  0.00     0.001 A 
ATOM     82  C   UNL A   1      46.280  35.665  29.506  1.00  0.00     0.000 A 
ENDBRANCH  64  77
ENDBRANCH  38  39
ENDBRANCH  30  33
ENDBRANCH  28  29
ENDBRANCH  27  28
ENDBRANCH   1  27
TORSDOF 14
ENDMDL
MODEL 2
REMARK VINA RESULT:     -10.8      5.398     10.724
REMARK SMILES C[C@H]1CN(C(=O)N2CC[NH+]([C@@H](C)C(=O)NCCCCCCNC(=O)c3ccc(-c4c5nc(c(-c6ccccc6)c6ccc([nH]6)c(-c6ccccc6)c6nc(c(-c7ccccc7)c7ccc4[nH]7)C=C6)C=C5)cc3)CC2)C[C@@H]1C
REMARK SMILES IDX 19 1 18 2 17 3 16 4 15 5 13 6 14 7 11 9 12 10 10 11 1 12
REMARK SMILES IDX 2 13 3 14 76 15 4 16 75 17 77 18 5 19 6 20 7 21 8 22 74 23
REMARK SMILES IDX 9 24 73 25 20 27 21 28 22 29 23 30 24 32 25 33 26 34 72 35
REMARK SMILES IDX 27 36 71 37 28 38 29 39 30 40 65 41 31 42 70 43 64 44 66 45
REMARK SMILES IDX 32 46 69 47 63 48 62 49 33 51 55 52 40 53 54 54 41 55 44 56
REMARK SMILES IDX 53 57 67 58 42 59 43 60 52 62 68 63 45 64 34 65 35 66 39 67
REMARK SMILES IDX 36 68 38 69 37 70 56 71 57 72 61 73 58 74 60 75 59 76 46 77
REMARK SMILES IDX 47 78 51 79 48 80 50 81 49 82
REMARK H PARENT 15 8 10 26 22 31 66 50 44 61
REMARK Flexibility Score: inf
ROOT
ATOM      1  C   UNL A   1      34.070  32.009  28.021  1.00  0.00     0.002 C 
ENDROOT
BRANCH   1   2
ATOM      2  C   UNL A   1      33.527  30.780  27.287  1.00  0.00     0.002 C 
BRANCH   2   3
ATOM      3  C   UNL A   1      32.141  30.964  26.670  1.00  0.00     0.021 C 
BRANCH   3   4
ATOM      4  C   UNL A   1      31.780  29.920  25.604  1.00  0.00     0.116 C 
BRANCH   4   5
ATOM      5  N   UNL A   1      32.844  29.795  24.626  1.00  0.00    -0.351 N 
ATOM      6  C   UNL A   1      32.993  29.016  23.518  1.00  0.00     0.278 C 
ATOM      7  O   UNL A   1      34.114  29.045  22.991  1.00  0.00    -0.268 OA
ATOM      8  H   UNL A   1      33.609  30.390  24.795  1.00  0.00     0.163 HD
BRANCH   6   9
ATOM      9  C   UNL A   1      31.859  28.157  22.889  1.00  0.00     0.271 C 
ATOM     10  C   UNL A   1      30.688  28.978  22.354  1.00  0.00     0.086 C 
BRANCH   9  11
ATOM     11  N   UNL A   1      31.602  26.895  23.622  1.00  0.00    -0.322 N 
ATOM     12  C   UNL A   1      34.044  21.573  27.546  1.00  0.00     0.010 C 
ATOM     13  C   UNL A   1      33.237  21.400  26.258  1.00  0.00     0.010 C 
ATOM     14  C   UNL A   1      33.123  22.723  25.502  1.00  0.00     0.125 C 
ATOM     15  C   UNL A   1      33.949  20.480  25.247  1.00  0.00     0.010 C 
ATOM     16  N   UNL A   1      34.222  22.715  24.547  1.00  0.00    -0.324 N 
ATOM     17  C   UNL A   1      34.906  21.435  24.526  1.00  0.00     0.125 C 
ATOM     18  C   UNL A   1      32.956  19.856  24.260  1.00  0.00     0.010 C 
ATOM     19  C   UNL A   1      34.406  23.643  23.549  1.00  0.00     0.320 C 
ATOM     20  O   UNL A   1      35.174  23.479  22.604  1.00  0.00    -0.248 OA
ATOM     21  N   UNL A   1      33.528  24.699  23.602  1.00  0.00    -0.313 N 
ATOM     22  C   UNL A   1      32.731  24.972  22.428  1.00  0.00     0.183 C 
ATOM     23  C   UNL A   1      33.793  25.848  24.462  1.00  0.00     0.183 C 
ATOM     24  C   UNL A   1      31.429  25.663  22.848  1.00  0.00     0.284 C 
ATOM     25  C   UNL A   1      32.505  26.648  24.769  1.00  0.00     0.284 C 
ATOM     26  H   UNL A   1      30.670  27.113  23.972  1.00  0.00     0.348 HD
ENDBRANCH   9  11
ENDBRANCH   6   9
ENDBRANCH   4   5
ENDBRANCH   3   4
ENDBRANCH   2   3
ENDBRANCH   1   2
BRANCH   1  27
ATOM     27  C   UNL A   1      33.213  33.276  27.922  1.00  0.00     0.021 C 
BRANCH  27  28
ATOM     28  C   UNL A   1      33.871  34.557  28.433  1.00  0.00     0.116 C 
BRANCH  28  29
ATOM     29  N   UNL A   1      33.349  34.965  29.726  1.00  0.00    -0.352 N 
ATOM     30  C   UNL A   1      33.718  34.583  30.990  1.00  0.00     0.251 C 
ATOM     31  H   UNL A   1      32.615  35.619  29.688  1.00  0.00     0.163 HD
ATOM     32  O   UNL A   1      33.014  34.889  31.948  1.00  0.00    -0.269 OA
BRANCH  30  33
ATOM     33  C   UNL A   1      34.955  33.802  31.213  1.00  0.00     0.039 A 
ATOM     34  C   UNL A   1      36.171  34.342  30.786  1.00  0.00     0.014 A 
ATOM     35  C   UNL A   1      34.917  32.524  31.778  1.00  0.00     0.014 A 
ATOM     36  C   UNL A   1      37.352  33.620  30.962  1.00  0.00     0.010 A 
ATOM     37  C   UNL A   1      36.104  31.831  32.011  1.00  0.00     0.010 A 
ATOM     38  C   UNL A   1      37.331  32.365  31.594  1.00  0.00    -0.014 A 
BRANCH  38  39
ATOM     39  C   UNL A   1      38.588  31.603  31.802  1.00  0.00     0.031 A 
ATOM     40  C   UNL A   1      39.489  31.922  32.964  1.00  0.00     0.074 A 
ATOM     41  C   UNL A   1      38.927  30.632  30.933  1.00  0.00     0.049 A 
ATOM     42  N   UNL A   1      40.618  31.356  33.312  1.00  0.00    -0.248 NA
ATOM     43  C   UNL A   1      39.079  33.032  33.839  1.00  0.00     0.031 C 
ATOM     44  C   UNL A   1      38.158  30.247  29.748  1.00  0.00     0.029 A 
ATOM     45  N   UNL A   1      40.007  29.785  30.917  1.00  0.00    -0.354 N 
ATOM     46  C   UNL A   1      41.052  32.043  34.440  1.00  0.00     0.074 A 
ATOM     47  C   UNL A   1      40.096  33.100  34.685  1.00  0.00     0.031 C 
ATOM     48  C   UNL A   1      38.771  29.217  29.142  1.00  0.00     0.029 A 
ATOM     49  C   UNL A   1      39.988  28.889  29.877  1.00  0.00     0.049 A 
ATOM     50  H   UNL A   1      40.728  29.817  31.588  1.00  0.00     0.167 HD
ATOM     51  C   UNL A   1      42.136  31.802  35.216  1.00  0.00     0.031 A 
ATOM     52  C   UNL A   1      40.851  27.907  29.555  1.00  0.00     0.031 A 
ATOM     53  C   UNL A   1      43.087  30.750  34.978  1.00  0.00     0.049 A 
ATOM     54  C   UNL A   1      42.053  27.670  30.426  1.00  0.00     0.074 A 
ATOM     55  C   UNL A   1      44.201  30.407  35.725  1.00  0.00     0.029 A 
ATOM     56  N   UNL A   1      43.032  29.867  33.911  1.00  0.00    -0.354 N 
ATOM     57  N   UNL A   1      42.418  28.294  31.519  1.00  0.00    -0.248 NA
ATOM     58  C   UNL A   1      42.953  26.581  30.023  1.00  0.00     0.031 C 
ATOM     59  C   UNL A   1      44.843  29.338  35.088  1.00  0.00     0.029 A 
ATOM     60  C   UNL A   1      44.100  28.987  33.973  1.00  0.00     0.049 A 
ATOM     61  H   UNL A   1      42.339  29.866  33.213  1.00  0.00     0.167 HD
ATOM     62  C   UNL A   1      43.572  27.653  31.952  1.00  0.00     0.074 A 
ATOM     63  C   UNL A   1      43.835  26.583  31.012  1.00  0.00     0.031 C 
ATOM     64  C   UNL A   1      44.345  27.926  33.031  1.00  0.00     0.031 A 
BRANCH  51  65
ATOM     65  C   UNL A   1      42.343  32.698  36.406  1.00  0.00    -0.014 A 
ATOM     66  C   UNL A   1      43.086  33.885  36.295  1.00  0.00     0.009 A 
ATOM     67  C   UNL A   1      41.765  32.371  37.642  1.00  0.00     0.009 A 
ATOM     68  C   UNL A   1      43.275  34.708  37.408  1.00  0.00     0.001 A 
ATOM     69  C   UNL A   1      41.934  33.211  38.746  1.00  0.00     0.001 A 
ATOM     70  C   UNL A   1      42.695  34.373  38.630  1.00  0.00     0.000 A 
ENDBRANCH  51  65
BRANCH  52  71
ATOM     71  C   UNL A   1      40.599  27.047  28.370  1.00  0.00    -0.014 A 
ATOM     72  C   UNL A   1      39.801  25.897  28.486  1.00  0.00     0.009 A 
ATOM     73  C   UNL A   1      41.169  27.355  27.126  1.00  0.00     0.009 A 
ATOM     74  C   UNL A   1      39.606  25.058  27.387  1.00  0.00     0.001 A 
ATOM     75  C   UNL A   1      40.949  26.529  26.022  1.00  0.00     0.001 A 
ATOM     76  C   UNL A   1      40.178  25.375  26.156  1.00  0.00     0.000 A 
ENDBRANCH  52  71
BRANCH  64  77
ATOM     77  C   UNL A   1      45.524  27.026  33.270  1.00  0.00    -0.014 A 
ATOM     78  C   UNL A   1      46.784  27.316  32.728  1.00  0.00     0.009 A 
ATOM     79  C   UNL A   1      45.370  25.879  34.064  1.00  0.00     0.009 A 
ATOM     80  C   UNL A   1      47.861  26.454  32.945  1.00  0.00     0.001 A 
ATOM     81  C   UNL A   1      46.454  25.034  34.303  1.00  0.00     0.001 A 
ATOM     82  C   UNL A   1      47.694  25.315  33.734  1.00  0.00     0.000 A 
ENDBRANCH  64  77
ENDBRANCH  38  39
ENDBRANCH  30  33
ENDBRANCH  28  29
ENDBRANCH  27  28
ENDBRANCH   1  27
TORSDOF 14
ENDMDL
MODEL 3
REMARK VINA RESULT:     -10.6      0.507      5.869
REMARK SMILES C[C@H]1CN(C(=O)N2CC[NH+]([C@@H](C)C(=O)NCCCCCCNC(=O)c3ccc(-c4c5nc(c(-c6ccccc6)c6ccc([nH]6)c(-c6ccccc6)c6nc(c(-c7ccccc7)c7ccc4[nH]7)C=C6)C=C5)cc3)CC2)C[C@@H]1C
REMARK SMILES IDX 19 1 18 2 17 3 16 4 15 5 13 6 14 7 11 9 12 10 10 11 1 12
REMARK SMILES IDX 2 13 3 14 76 15 4 16 75 17 77 18 5 19 6 20 7 21 8 22 74 23
REMARK SMILES IDX 9 24 73 25 20 27 21 28 22 29 23 30 24 32 25 33 26 34 72 35
REMARK SMILES IDX 27 36 71 37 28 38 29 39 30 40 65 41 31 42 70 43 64 44 66 45
REMARK SMILES IDX 32 46 69 47 63 48 62 49 33 51 55 52 40 53 54 54 41 55 44 56
REMARK SMILES IDX 53 57 67 58 42 59 43 60 52 62 68 63 45 64 34 65 35 66 39 67
REMARK SMILES IDX 36 68 38 69 37 70 56 71 57 72 61 73 58 74 60 75 59 76 46 77
REMARK SMILES IDX 47 78 51 79 48 80 50 81 49 82
REMARK H PARENT 15 8 10 26 22 31 66 50 44 61
REMARK Flexibility Score: inf
ROOT
ATOM      1  C   UNL A   1      42.209  21.320  27.635  1.00  0.00     0.002 C 
ENDROOT
BRANCH   1   2
ATOM      2  C   UNL A   1      40.766  21.812  27.777  1.00  0.00     0.002 C 
BRANCH   2   3
ATOM      3  C   UNL A   1      40.354  22.885  26.772  1.00  0.00     0.021 C 
BRANCH   3   4
ATOM      4  C   UNL A   1      38.884  22.811  26.335  1.00  0.00     0.116 C 
BRANCH   4   5
ATOM      5  N   UNL A   1      38.678  21.719  25.404  1.00  0.00    -0.351 N 
ATOM      6  C   UNL A   1      37.577  20.993  25.061  1.00  0.00     0.278 C 
ATOM      7  O   UNL A   1      37.790  20.009  24.338  1.00  0.00    -0.268 OA
ATOM      8  H   UNL A   1      39.494  21.449  24.925  1.00  0.00     0.163 HD
BRANCH   6   9
ATOM      9  C   UNL A   1      36.124  21.347  25.485  1.00  0.00     0.271 C 
ATOM     10  C   UNL A   1      35.079  20.345  25.002  1.00  0.00     0.086 C 
BRANCH   9  11
ATOM     11  N   UNL A   1      35.834  22.800  25.433  1.00  0.00    -0.322 N 
ATOM     12  C   UNL A   1      31.690  28.212  27.227  1.00  0.00     0.010 C 
ATOM     13  C   UNL A   1      32.122  27.890  25.795  1.00  0.00     0.010 C 
ATOM     14  C   UNL A   1      32.758  26.502  25.715  1.00  0.00     0.125 C 
ATOM     15  C   UNL A   1      30.919  27.778  24.838  1.00  0.00     0.010 C 
ATOM     16  N   UNL A   1      31.672  25.603  25.350  1.00  0.00    -0.324 N 
ATOM     17  C   UNL A   1      30.457  26.330  25.032  1.00  0.00     0.125 C 
ATOM     18  C   UNL A   1      31.333  28.028  23.383  1.00  0.00     0.010 C 
ATOM     19  C   UNL A   1      31.824  24.279  25.012  1.00  0.00     0.320 C 
ATOM     20  O   UNL A   1      30.950  23.614  24.462  1.00  0.00    -0.248 OA
ATOM     21  N   UNL A   1      33.102  23.804  25.185  1.00  0.00    -0.313 N 
ATOM     22  C   UNL A   1      33.758  23.205  24.045  1.00  0.00     0.183 C 
ATOM     23  C   UNL A   1      33.553  23.330  26.490  1.00  0.00     0.183 C 
ATOM     24  C   UNL A   1      35.276  23.354  24.197  1.00  0.00     0.284 C 
ATOM     25  C   UNL A   1      35.096  23.329  26.602  1.00  0.00     0.284 C 
ATOM     26  H   UNL A   1      36.793  23.144  25.460  1.00  0.00     0.348 HD
ENDBRANCH   9  11
ENDBRANCH   6   9
ENDBRANCH   4   5
ENDBRANCH   3   4
ENDBRANCH   2   3
ENDBRANCH   1   2
BRANCH   1  27
ATOM     27  C   UNL A   1      42.376  19.875  27.148  1.00  0.00     0.021 C 
BRANCH  27  28
ATOM     28  C   UNL A   1      42.181  19.660  25.648  1.00  0.00     0.116 C 
BRANCH  28  29
ATOM     29  N   UNL A   1      43.390  19.181  25.001  1.00  0.00    -0.352 N 
ATOM     30  C   UNL A   1      44.501  19.866  24.580  1.00  0.00     0.251 C 
ATOM     31  H   UNL A   1      43.417  18.211  24.840  1.00  0.00     0.163 HD
ATOM     32  O   UNL A   1      45.329  19.306  23.869  1.00  0.00    -0.269 OA
BRANCH  30  33
ATOM     33  C   UNL A   1      44.710  21.279  24.969  1.00  0.00     0.039 A 
ATOM     34  C   UNL A   1      45.442  21.549  26.129  1.00  0.00     0.014 A 
ATOM     35  C   UNL A   1      44.140  22.327  24.241  1.00  0.00     0.014 A 
ATOM     36  C   UNL A   1      45.638  22.870  26.535  1.00  0.00     0.010 A 
ATOM     37  C   UNL A   1      44.390  23.648  24.612  1.00  0.00     0.010 A 
ATOM     38  C   UNL A   1      45.129  23.932  25.769  1.00  0.00    -0.014 A 
BRANCH  38  39
ATOM     39  C   UNL A   1      45.353  25.340  26.185  1.00  0.00     0.031 A 
ATOM     40  C   UNL A   1      44.211  26.172  26.703  1.00  0.00     0.074 A 
ATOM     41  C   UNL A   1      46.584  25.876  26.080  1.00  0.00     0.049 A 
ATOM     42  N   UNL A   1      44.219  27.412  27.123  1.00  0.00    -0.248 NA
ATOM     43  C   UNL A   1      42.886  25.534  26.738  1.00  0.00     0.031 C 
ATOM     44  C   UNL A   1      47.768  25.186  25.562  1.00  0.00     0.029 A 
ATOM     45  N   UNL A   1      47.045  27.125  26.411  1.00  0.00    -0.354 N 
ATOM     46  C   UNL A   1      42.904  27.702  27.467  1.00  0.00     0.074 A 
ATOM     47  C   UNL A   1      42.117  26.529  27.155  1.00  0.00     0.031 C 
ATOM     48  C   UNL A   1      48.826  26.009  25.645  1.00  0.00     0.029 A 
ATOM     49  C   UNL A   1      48.391  27.290  26.192  1.00  0.00     0.049 A 
ATOM     50  H   UNL A   1      46.466  27.836  26.771  1.00  0.00     0.167 HD
ATOM     51  C   UNL A   1      42.399  28.834  28.014  1.00  0.00     0.031 A 
ATOM     52  C   UNL A   1      49.187  28.353  26.415  1.00  0.00     0.031 A 
ATOM     53  C   UNL A   1      43.178  30.000  28.329  1.00  0.00     0.049 A 
ATOM     54  C   UNL A   1      48.598  29.600  27.010  1.00  0.00     0.074 A 
ATOM     55  C   UNL A   1      42.762  31.186  28.912  1.00  0.00     0.029 A 
ATOM     56  N   UNL A   1      44.537  30.128  28.089  1.00  0.00    -0.354 N 
ATOM     57  N   UNL A   1      47.363  29.838  27.379  1.00  0.00    -0.248 NA
ATOM     58  C   UNL A   1      49.521  30.722  27.234  1.00  0.00     0.031 C 
ATOM     59  C   UNL A   1      43.865  32.044  28.992  1.00  0.00     0.029 A 
ATOM     60  C   UNL A   1      44.974  31.375  28.501  1.00  0.00     0.049 A 
ATOM     61  H   UNL A   1      45.106  29.435  27.684  1.00  0.00     0.167 HD
ATOM     62  C   UNL A   1      47.367  31.122  27.907  1.00  0.00     0.074 A 
ATOM     63  C   UNL A   1      48.730  31.606  27.825  1.00  0.00     0.031 C 
ATOM     64  C   UNL A   1      46.334  31.839  28.414  1.00  0.00     0.031 A 
BRANCH  51  65
ATOM     65  C   UNL A   1      40.925  28.856  28.312  1.00  0.00    -0.014 A 
ATOM     66  C   UNL A   1      39.999  29.276  27.344  1.00  0.00     0.009 A 
ATOM     67  C   UNL A   1      40.453  28.423  29.561  1.00  0.00     0.009 A 
ATOM     68  C   UNL A   1      38.632  29.295  27.633  1.00  0.00     0.001 A 
ATOM     69  C   UNL A   1      39.084  28.418  29.837  1.00  0.00     0.001 A 
ATOM     70  C   UNL A   1      38.176  28.862  28.877  1.00  0.00     0.000 A 
ENDBRANCH  51  65
BRANCH  52  71
ATOM     71  C   UNL A   1      50.639  28.279  26.106  1.00  0.00    -0.014 A 
ATOM     72  C   UNL A   1      51.105  28.581  24.817  1.00  0.00     0.009 A 
ATOM     73  C   UNL A   1      51.561  27.885  27.087  1.00  0.00     0.009 A 
ATOM     74  C   UNL A   1      52.462  28.461  24.509  1.00  0.00     0.001 A 
ATOM     75  C   UNL A   1      52.921  27.793  26.784  1.00  0.00     0.001 A 
ATOM     76  C   UNL A   1      53.368  28.069  25.492  1.00  0.00     0.000 A 
ENDBRANCH  52  71
BRANCH  64  77
ATOM     77  C   UNL A   1      46.652  33.204  28.953  1.00  0.00    -0.014 A 
ATOM     78  C   UNL A   1      47.024  33.391  30.293  1.00  0.00     0.009 A 
ATOM     79  C   UNL A   1      46.595  34.316  28.100  1.00  0.00     0.009 A 
ATOM     80  C   UNL A   1      47.294  34.673  30.778  1.00  0.00     0.001 A 
ATOM     81  C   UNL A   1      46.894  35.592  28.580  1.00  0.00     0.001 A 
ATOM     82  C   UNL A   1      47.231  35.771  29.919  1.00  0.00     0.000 A 
ENDBRANCH  64  77
ENDBRANCH  38  39
ENDBRANCH  30  33
ENDBRANCH  28  29
ENDBRANCH  27  28
ENDBRANCH   1  27
TORSDOF 14
ENDMDL
