MODEL 1
REMARK VINA RESULT:     -11.1      0.000      0.000
REMARK SMILES O=C(C[C@H](C(=O)NCCCCCCNC(=O)c1ccc(-c2c3nc(c(-c4ccccc4)c4ccc([nH]4)c(-c4ccccc4)c4nc(c(-c5ccccc5)c5ccc2[nH]5)C=C4)C=C3)cc1)c1ccccc1)Nc1ccc(Cl)cc1Cl
REMARK SMILES IDX 10 1 9 2 8 3 7 4 5 5 6 6 4 8 3 9 2 10 1 11 71 12 72 14 73 15
REMARK SMILES IDX 78 16 74 17 77 18 79 19 75 20 76 21 65 22 66 23 70 24 67 25
REMARK SMILES IDX 69 26 68 27 11 28 12 29 13 30 14 31 15 32 16 34 17 35 18 36
REMARK SMILES IDX 64 37 19 38 63 39 20 40 21 41 22 42 57 43 23 44 62 45 56 46
REMARK SMILES IDX 58 47 24 48 61 49 55 50 54 51 25 53 47 54 32 55 46 56 33 57
REMARK SMILES IDX 36 58 45 59 59 60 34 61 35 62 44 64 60 65 37 66 26 67 27 68
REMARK SMILES IDX 31 69 28 70 30 71 29 72 48 73 49 74 53 75 50 76 52 77 51 78
REMARK SMILES IDX 38 79 39 80 43 81 40 82 42 83 41 84
REMARK H PARENT 7 7 71 13 14 33 58 52 36 63
REMARK Flexibility Score: inf
ROOT
ATOM      1  C   UNL A   1      36.658  21.736  24.401  1.00  0.00     0.002 C 
ENDROOT
BRANCH   1   2
ATOM      2  C   UNL A   1      36.154  22.808  25.374  1.00  0.00     0.021 C 
BRANCH   2   3
ATOM      3  C   UNL A   1      35.428  23.991  24.744  1.00  0.00     0.116 C 
BRANCH   3   4
ATOM      4  N   UNL A   1      35.043  23.791  23.366  1.00  0.00    -0.356 N 
ATOM      5  C   UNL A   1      33.811  23.458  22.860  1.00  0.00     0.228 C 
ATOM      6  O   UNL A   1      33.692  23.471  21.634  1.00  0.00    -0.274 OA
ATOM      7  H   UNL A   1      35.760  23.908  22.701  1.00  0.00     0.163 HD
BRANCH   5   8
ATOM      8  C   UNL A   1      32.690  23.026  23.834  1.00  0.00     0.118 C 
BRANCH   8   9
ATOM      9  C   UNL A   1      31.273  23.568  23.542  1.00  0.00     0.118 C 
BRANCH   9  10
ATOM     10  C   UNL A   1      30.947  24.878  24.233  1.00  0.00     0.225 C 
ATOM     11  O   UNL A   1      29.965  25.542  23.927  1.00  0.00    -0.275 OA
ATOM     12  N   UNL A   1      31.860  25.217  25.220  1.00  0.00    -0.325 N 
ATOM     13  H   UNL A   1      32.399  24.485  25.599  1.00  0.00     0.169 HD
BRANCH  12  14
ATOM     14  C   UNL A   1      32.092  26.518  25.734  1.00  0.00     0.060 A 
ATOM     15  C   UNL A   1      31.473  26.971  26.905  1.00  0.00     0.029 A 
ATOM     16  C   UNL A   1      32.871  27.427  24.994  1.00  0.00     0.066 A 
ATOM     17  C   UNL A   1      31.610  28.302  27.315  1.00  0.00     0.023 A 
ATOM     18  C   UNL A   1      33.033  28.750  25.415  1.00  0.00     0.043 A 
ATOM     19  Cl  UNL A   1      33.620  26.950  23.509  1.00  0.00    -0.082 Cl
ATOM     20  C   UNL A   1      32.387  29.184  26.570  1.00  0.00     0.042 A 
ATOM     21  Cl  UNL A   1      32.497  30.833  27.043  1.00  0.00    -0.084 Cl
ENDBRANCH  12  14
ENDBRANCH   9  10
ENDBRANCH   8   9
BRANCH   8  22
ATOM     22  C   UNL A   1      32.654  21.522  24.108  1.00  0.00    -0.035 A 
ATOM     23  C   UNL A   1      32.366  20.630  23.061  1.00  0.00     0.004 A 
ATOM     24  C   UNL A   1      32.918  20.997  25.382  1.00  0.00     0.004 A 
ATOM     25  C   UNL A   1      32.316  19.253  23.287  1.00  0.00     0.000 A 
ATOM     26  C   UNL A   1      32.859  19.619  25.607  1.00  0.00     0.000 A 
ATOM     27  C   UNL A   1      32.556  18.748  24.562  1.00  0.00     0.000 A 
ENDBRANCH   8  22
ENDBRANCH   5   8
ENDBRANCH   3   4
ENDBRANCH   2   3
ENDBRANCH   1   2
BRANCH   1  28
ATOM     28  C   UNL A   1      36.459  20.283  24.836  1.00  0.00     0.002 C 
BRANCH  28  29
ATOM     29  C   UNL A   1      37.731  19.443  24.945  1.00  0.00     0.021 C 
BRANCH  29  30
ATOM     30  C   UNL A   1      38.887  20.121  25.665  1.00  0.00     0.116 C 
BRANCH  30  31
ATOM     31  N   UNL A   1      40.058  19.259  25.765  1.00  0.00    -0.352 N 
ATOM     32  C   UNL A   1      41.362  19.555  26.070  1.00  0.00     0.251 C 
ATOM     33  H   UNL A   1      39.884  18.307  25.584  1.00  0.00     0.163 HD
ATOM     34  O   UNL A   1      42.234  18.700  25.908  1.00  0.00    -0.269 OA
BRANCH  32  35
ATOM     35  C   UNL A   1      41.735  20.891  26.579  1.00  0.00     0.039 A 
ATOM     36  C   UNL A   1      42.204  21.860  25.686  1.00  0.00     0.014 A 
ATOM     37  C   UNL A   1      41.648  21.189  27.939  1.00  0.00     0.014 A 
ATOM     38  C   UNL A   1      42.522  23.139  26.151  1.00  0.00     0.010 A 
ATOM     39  C   UNL A   1      41.844  22.491  28.379  1.00  0.00     0.010 A 
ATOM     40  C   UNL A   1      42.307  23.477  27.497  1.00  0.00    -0.014 A 
BRANCH  40  41
ATOM     41  C   UNL A   1      42.590  24.837  28.022  1.00  0.00     0.031 A 
ATOM     42  C   UNL A   1      43.986  25.191  28.470  1.00  0.00     0.074 A 
ATOM     43  C   UNL A   1      41.585  25.721  28.177  1.00  0.00     0.049 A 
ATOM     44  N   UNL A   1      44.415  26.279  29.058  1.00  0.00    -0.248 NA
ATOM     45  C   UNL A   1      45.028  24.169  28.267  1.00  0.00     0.031 C 
ATOM     46  C   UNL A   1      40.182  25.483  27.830  1.00  0.00     0.029 A 
ATOM     47  N   UNL A   1      41.590  27.001  28.672  1.00  0.00    -0.354 N 
ATOM     48  C   UNL A   1      45.763  26.056  29.320  1.00  0.00     0.074 A 
ATOM     49  C   UNL A   1      46.061  24.708  28.894  1.00  0.00     0.031 C 
ATOM     50  C   UNL A   1      39.470  26.592  28.089  1.00  0.00     0.029 A 
ATOM     51  C   UNL A   1      40.353  27.599  28.665  1.00  0.00     0.049 A 
ATOM     52  H   UNL A   1      42.403  27.447  29.002  1.00  0.00     0.167 HD
ATOM     53  C   UNL A   1      46.678  26.907  29.841  1.00  0.00     0.031 A 
ATOM     54  C   UNL A   1      39.972  28.822  29.081  1.00  0.00     0.031 A 
ATOM     55  C   UNL A   1      46.384  28.257  30.236  1.00  0.00     0.049 A 
ATOM     56  C   UNL A   1      41.008  29.750  29.652  1.00  0.00     0.074 A 
ATOM     57  C   UNL A   1      47.248  29.224  30.717  1.00  0.00     0.029 A 
ATOM     58  N   UNL A   1      45.122  28.831  30.188  1.00  0.00    -0.354 N 
ATOM     59  N   UNL A   1      42.291  29.547  29.835  1.00  0.00    -0.248 NA
ATOM     60  C   UNL A   1      40.544  31.082  30.063  1.00  0.00     0.031 C 
ATOM     61  C   UNL A   1      46.499  30.368  31.011  1.00  0.00     0.029 A 
ATOM     62  C   UNL A   1      45.182  30.134  30.652  1.00  0.00     0.049 A 
ATOM     63  H   UNL A   1      44.307  28.381  29.872  1.00  0.00     0.167 HD
ATOM     64  C   UNL A   1      42.792  30.734  30.354  1.00  0.00     0.074 A 
ATOM     65  C   UNL A   1      41.679  31.657  30.439  1.00  0.00     0.031 C 
ATOM     66  C   UNL A   1      44.061  31.035  30.726  1.00  0.00     0.031 A 
BRANCH  53  67
ATOM     67  C   UNL A   1      48.085  26.395  30.007  1.00  0.00    -0.014 A 
ATOM     68  C   UNL A   1      49.038  26.532  28.983  1.00  0.00     0.009 A 
ATOM     69  C   UNL A   1      48.471  25.786  31.211  1.00  0.00     0.009 A 
ATOM     70  C   UNL A   1      50.330  26.030  29.144  1.00  0.00     0.001 A 
ATOM     71  C   UNL A   1      49.774  25.315  31.383  1.00  0.00     0.001 A 
ATOM     72  C   UNL A   1      50.699  25.426  30.345  1.00  0.00     0.000 A 
ENDBRANCH  53  67
BRANCH  54  73
ATOM     73  C   UNL A   1      38.552  29.245  28.957  1.00  0.00    -0.014 A 
ATOM     74  C   UNL A   1      37.685  29.159  30.057  1.00  0.00     0.009 A 
ATOM     75  C   UNL A   1      38.054  29.736  27.740  1.00  0.00     0.009 A 
ATOM     76  C   UNL A   1      36.342  29.526  29.932  1.00  0.00     0.001 A 
ATOM     77  C   UNL A   1      36.719  30.134  27.628  1.00  0.00     0.001 A 
ATOM     78  C   UNL A   1      35.862  30.018  28.720  1.00  0.00     0.000 A 
ENDBRANCH  54  73
BRANCH  66  79
ATOM     79  C   UNL A   1      44.317  32.430  31.223  1.00  0.00    -0.014 A 
ATOM     80  C   UNL A   1      44.587  33.484  30.337  1.00  0.00     0.009 A 
ATOM     81  C   UNL A   1      44.239  32.699  32.598  1.00  0.00     0.009 A 
ATOM     82  C   UNL A   1      44.810  34.774  30.825  1.00  0.00     0.001 A 
ATOM     83  C   UNL A   1      44.430  33.994  33.080  1.00  0.00     0.001 A 
ATOM     84  C   UNL A   1      44.726  35.029  32.193  1.00  0.00     0.000 A 
ENDBRANCH  66  79
ENDBRANCH  40  41
ENDBRANCH  32  35
ENDBRANCH  30  31
ENDBRANCH  29  30
ENDBRANCH  28  29
ENDBRANCH   1  28
TORSDOF 17
ENDMDL
MODEL 2
REMARK VINA RESULT:     -11.0      0.446      5.796
REMARK SMILES O=C(C[C@H](C(=O)NCCCCCCNC(=O)c1ccc(-c2c3nc(c(-c4ccccc4)c4ccc([nH]4)c(-c4ccccc4)c4nc(c(-c5ccccc5)c5ccc2[nH]5)C=C4)C=C3)cc1)c1ccccc1)Nc1ccc(Cl)cc1Cl
REMARK SMILES IDX 10 1 9 2 8 3 7 4 5 5 6 6 4 8 3 9 2 10 1 11 71 12 72 14 73 15
REMARK SMILES IDX 78 16 74 17 77 18 79 19 75 20 76 21 65 22 66 23 70 24 67 25
REMARK SMILES IDX 69 26 68 27 11 28 12 29 13 30 14 31 15 32 16 34 17 35 18 36
REMARK SMILES IDX 64 37 19 38 63 39 20 40 21 41 22 42 57 43 23 44 62 45 56 46
REMARK SMILES IDX 58 47 24 48 61 49 55 50 54 51 25 53 47 54 32 55 46 56 33 57
REMARK SMILES IDX 36 58 45 59 59 60 34 61 35 62 44 64 60 65 37 66 26 67 27 68
REMARK SMILES IDX 31 69 28 70 30 71 29 72 48 73 49 74 53 75 50 76 52 77 51 78
REMARK SMILES IDX 38 79 39 80 43 81 40 82 42 83 41 84
REMARK H PARENT 7 7 71 13 14 33 58 52 36 63
REMARK Flexibility Score: inf
ROOT
ATOM      1  C   UNL A   1      36.669  22.163  24.647  1.00  0.00     0.002 C 
ENDROOT
BRANCH   1   2
ATOM      2  C   UNL A   1      35.946  23.157  25.563  1.00  0.00     0.021 C 
BRANCH   2   3
ATOM      3  C   UNL A   1      35.137  24.242  24.861  1.00  0.00     0.116 C 
BRANCH   3   4
ATOM      4  N   UNL A   1      34.878  23.984  23.463  1.00  0.00    -0.356 N 
ATOM      5  C   UNL A   1      33.721  23.536  22.874  1.00  0.00     0.228 C 
ATOM      6  O   UNL A   1      33.696  23.516  21.643  1.00  0.00    -0.274 OA
ATOM      7  H   UNL A   1      35.631  24.151  22.852  1.00  0.00     0.163 HD
BRANCH   5   8
ATOM      8  C   UNL A   1      32.570  23.026  23.772  1.00  0.00     0.118 C 
BRANCH   8   9
ATOM      9  C   UNL A   1      31.155  23.559  23.451  1.00  0.00     0.118 C 
BRANCH   9  10
ATOM     10  C   UNL A   1      30.828  24.894  24.092  1.00  0.00     0.225 C 
ATOM     11  O   UNL A   1      29.876  25.570  23.723  1.00  0.00    -0.275 OA
ATOM     12  N   UNL A   1      31.702  25.240  25.111  1.00  0.00    -0.325 N 
ATOM     13  H   UNL A   1      32.206  24.507  25.534  1.00  0.00     0.169 HD
BRANCH  12  14
ATOM     14  C   UNL A   1      31.939  26.549  25.601  1.00  0.00     0.060 A 
ATOM     15  C   UNL A   1      31.417  26.987  26.823  1.00  0.00     0.029 A 
ATOM     16  C   UNL A   1      32.619  27.479  24.791  1.00  0.00     0.066 A 
ATOM     17  C   UNL A   1      31.550  28.324  27.218  1.00  0.00     0.023 A 
ATOM     18  C   UNL A   1      32.778  28.808  25.195  1.00  0.00     0.043 A 
ATOM     19  Cl  UNL A   1      33.243  27.020  23.243  1.00  0.00    -0.082 Cl
ATOM     20  C   UNL A   1      32.227  29.226  26.404  1.00  0.00     0.042 A 
ATOM     21  Cl  UNL A   1      32.329  30.879  26.864  1.00  0.00    -0.084 Cl
ENDBRANCH  12  14
ENDBRANCH   9  10
ENDBRANCH   8   9
BRANCH   8  22
ATOM     22  C   UNL A   1      32.553  21.508  23.954  1.00  0.00    -0.035 A 
ATOM     23  C   UNL A   1      32.222  20.679  22.868  1.00  0.00     0.004 A 
ATOM     24  C   UNL A   1      32.878  20.907  25.179  1.00  0.00     0.004 A 
ATOM     25  C   UNL A   1      32.189  19.291  23.010  1.00  0.00     0.000 A 
ATOM     26  C   UNL A   1      32.836  19.517  25.322  1.00  0.00     0.000 A 
ATOM     27  C   UNL A   1      32.489  18.710  24.239  1.00  0.00     0.000 A 
ENDBRANCH   8  22
ENDBRANCH   5   8
ENDBRANCH   3   4
ENDBRANCH   2   3
ENDBRANCH   1   2
BRANCH   1  28
ATOM     28  C   UNL A   1      36.434  20.681  24.943  1.00  0.00     0.002 C 
BRANCH  28  29
ATOM     29  C   UNL A   1      37.682  19.800  24.948  1.00  0.00     0.021 C 
BRANCH  29  30
ATOM     30  C   UNL A   1      38.869  20.375  25.705  1.00  0.00     0.116 C 
BRANCH  30  31
ATOM     31  N   UNL A   1      39.979  19.434  25.792  1.00  0.00    -0.352 N 
ATOM     32  C   UNL A   1      41.301  19.636  26.096  1.00  0.00     0.251 C 
ATOM     33  H   UNL A   1      39.740  18.498  25.600  1.00  0.00     0.163 HD
ATOM     34  O   UNL A   1      42.112  18.725  25.922  1.00  0.00    -0.269 OA
BRANCH  32  35
ATOM     35  C   UNL A   1      41.766  20.938  26.619  1.00  0.00     0.039 A 
ATOM     36  C   UNL A   1      42.111  21.955  25.723  1.00  0.00     0.014 A 
ATOM     37  C   UNL A   1      41.886  21.156  27.992  1.00  0.00     0.014 A 
ATOM     38  C   UNL A   1      42.514  23.202  26.208  1.00  0.00     0.010 A 
ATOM     39  C   UNL A   1      42.165  22.428  28.471  1.00  0.00     0.010 A 
ATOM     40  C   UNL A   1      42.507  23.461  27.588  1.00  0.00    -0.014 A 
BRANCH  40  41
ATOM     41  C   UNL A   1      42.885  24.786  28.142  1.00  0.00     0.031 A 
ATOM     42  C   UNL A   1      41.824  25.833  28.369  1.00  0.00     0.074 A 
ATOM     43  C   UNL A   1      44.182  25.080  28.358  1.00  0.00     0.049 A 
ATOM     44  N   UNL A   1      41.958  27.082  28.737  1.00  0.00    -0.248 NA
ATOM     45  C   UNL A   1      40.429  25.433  28.109  1.00  0.00     0.031 C 
ATOM     46  C   UNL A   1      45.310  24.173  28.129  1.00  0.00     0.029 A 
ATOM     47  N   UNL A   1      44.772  26.231  28.816  1.00  0.00    -0.354 N 
ATOM     48  C   UNL A   1      40.675  27.618  28.719  1.00  0.00     0.074 A 
ATOM     49  C   UNL A   1      39.789  26.584  28.238  1.00  0.00     0.031 C 
ATOM     50  C   UNL A   1      46.449  24.789  28.482  1.00  0.00     0.029 A 
ATOM     51  C   UNL A   1      46.140  26.147  28.914  1.00  0.00     0.049 A 
ATOM     52  H   UNL A   1      44.263  27.041  29.053  1.00  0.00     0.167 HD
ATOM     53  C   UNL A   1      40.265  28.851  29.098  1.00  0.00     0.031 A 
ATOM     54  C   UNL A   1      47.046  27.065  29.303  1.00  0.00     0.031 A 
ATOM     55  C   UNL A   1      41.146  29.868  29.604  1.00  0.00     0.049 A 
ATOM     56  C   UNL A   1      46.566  28.427  29.723  1.00  0.00     0.074 A 
ATOM     57  C   UNL A   1      40.828  31.129  30.075  1.00  0.00     0.029 A 
ATOM     58  N   UNL A   1      42.522  29.733  29.710  1.00  0.00    -0.354 N 
ATOM     59  N   UNL A   1      45.342  28.898  29.761  1.00  0.00    -0.248 NA
ATOM     60  C   UNL A   1      47.592  29.380  30.166  1.00  0.00     0.031 C 
ATOM     61  C   UNL A   1      42.019  31.778  30.417  1.00  0.00     0.029 A 
ATOM     62  C   UNL A   1      43.070  30.897  30.220  1.00  0.00     0.049 A 
ATOM     63  H   UNL A   1      43.032  28.930  29.461  1.00  0.00     0.167 HD
ATOM     64  C   UNL A   1      45.449  30.190  30.260  1.00  0.00     0.074 A 
ATOM     65  C   UNL A   1      46.854  30.420  30.527  1.00  0.00     0.031 C 
ATOM     66  C   UNL A   1      44.472  31.104  30.478  1.00  0.00     0.031 A 
BRANCH  53  67
ATOM     67  C   UNL A   1      38.796  29.161  28.980  1.00  0.00    -0.014 A 
ATOM     68  C   UNL A   1      37.927  29.007  30.073  1.00  0.00     0.009 A 
ATOM     69  C   UNL A   1      38.275  29.633  27.765  1.00  0.00     0.009 A 
ATOM     70  C   UNL A   1      36.563  29.274  29.939  1.00  0.00     0.001 A 
ATOM     71  C   UNL A   1      36.917  29.933  27.643  1.00  0.00     0.001 A 
ATOM     72  C   UNL A   1      36.059  29.742  28.726  1.00  0.00     0.000 A 
ENDBRANCH  53  67
BRANCH  54  73
ATOM     73  C   UNL A   1      48.493  26.723  29.331  1.00  0.00    -0.014 A 
ATOM     74  C   UNL A   1      49.315  27.016  28.231  1.00  0.00     0.009 A 
ATOM     75  C   UNL A   1      49.061  26.101  30.454  1.00  0.00     0.009 A 
ATOM     76  C   UNL A   1      50.668  26.666  28.244  1.00  0.00     0.001 A 
ATOM     77  C   UNL A   1      50.422  25.782  30.476  1.00  0.00     0.001 A 
ATOM     78  C   UNL A   1      51.221  26.054  29.368  1.00  0.00     0.000 A 
ENDBRANCH  54  73
BRANCH  66  79
ATOM     79  C   UNL A   1      44.886  32.423  31.068  1.00  0.00    -0.014 A 
ATOM     80  C   UNL A   1      45.278  33.497  30.255  1.00  0.00     0.009 A 
ATOM     81  C   UNL A   1      44.837  32.604  32.459  1.00  0.00     0.009 A 
ATOM     82  C   UNL A   1      45.648  34.717  30.828  1.00  0.00     0.001 A 
ATOM     83  C   UNL A   1      45.174  33.832  33.027  1.00  0.00     0.001 A 
ATOM     84  C   UNL A   1      45.590  34.884  32.212  1.00  0.00     0.000 A 
ENDBRANCH  66  79
ENDBRANCH  40  41
ENDBRANCH  32  35
ENDBRANCH  30  31
ENDBRANCH  29  30
ENDBRANCH  28  29
ENDBRANCH   1  28
TORSDOF 17
ENDMDL
MODEL 3
REMARK VINA RESULT:     -11.0      3.429      8.835
REMARK SMILES O=C(C[C@H](C(=O)NCCCCCCNC(=O)c1ccc(-c2c3nc(c(-c4ccccc4)c4ccc([nH]4)c(-c4ccccc4)c4nc(c(-c5ccccc5)c5ccc2[nH]5)C=C4)C=C3)cc1)c1ccccc1)Nc1ccc(Cl)cc1Cl
REMARK SMILES IDX 10 1 9 2 8 3 7 4 5 5 6 6 4 8 3 9 2 10 1 11 71 12 72 14 73 15
REMARK SMILES IDX 78 16 74 17 77 18 79 19 75 20 76 21 65 22 66 23 70 24 67 25
REMARK SMILES IDX 69 26 68 27 11 28 12 29 13 30 14 31 15 32 16 34 17 35 18 36
REMARK SMILES IDX 64 37 19 38 63 39 20 40 21 41 22 42 57 43 23 44 62 45 56 46
REMARK SMILES IDX 58 47 24 48 61 49 55 50 54 51 25 53 47 54 32 55 46 56 33 57
REMARK SMILES IDX 36 58 45 59 59 60 34 61 35 62 44 64 60 65 37 66 26 67 27 68
REMARK SMILES IDX 31 69 28 70 30 71 29 72 48 73 49 74 53 75 50 76 52 77 51 78
REMARK SMILES IDX 38 79 39 80 43 81 40 82 42 83 41 84
REMARK H PARENT 7 7 71 13 14 33 58 52 36 63
REMARK Flexibility Score: inf
ROOT
ATOM      1  C   UNL A   1      32.478  29.834  25.932  1.00  0.00     0.002 C 
ENDROOT
BRANCH   1   2
ATOM      2  C   UNL A   1      32.484  28.789  27.053  1.00  0.00     0.021 C 
BRANCH   2   3
ATOM      3  C   UNL A   1      32.494  27.332  26.605  1.00  0.00     0.116 C 
BRANCH   3   4
ATOM      4  N   UNL A   1      31.241  26.638  26.799  1.00  0.00    -0.356 N 
ATOM      5  C   UNL A   1      30.518  25.903  25.892  1.00  0.00     0.228 C 
ATOM      6  O   UNL A   1      29.540  25.294  26.324  1.00  0.00    -0.274 OA
ATOM      7  H   UNL A   1      30.853  26.703  27.702  1.00  0.00     0.163 HD
BRANCH   5   8
ATOM      8  C   UNL A   1      30.924  25.943  24.400  1.00  0.00     0.118 C 
BRANCH   8   9
ATOM      9  C   UNL A   1      30.670  24.658  23.580  1.00  0.00     0.118 C 
BRANCH   9  10
ATOM     10  C   UNL A   1      31.883  23.760  23.429  1.00  0.00     0.225 C 
ATOM     11  O   UNL A   1      31.779  22.584  23.105  1.00  0.00    -0.275 OA
ATOM     12  N   UNL A   1      33.080  24.410  23.688  1.00  0.00    -0.325 N 
ATOM     13  H   UNL A   1      33.078  25.392  23.615  1.00  0.00     0.169 HD
BRANCH  12  14
ATOM     14  C   UNL A   1      34.305  23.794  24.049  1.00  0.00     0.060 A 
ATOM     15  C   UNL A   1      35.263  23.437  23.093  1.00  0.00     0.029 A 
ATOM     16  C   UNL A   1      34.525  23.423  25.389  1.00  0.00     0.066 A 
ATOM     17  C   UNL A   1      36.400  22.708  23.461  1.00  0.00     0.023 A 
ATOM     18  C   UNL A   1      35.673  22.719  25.764  1.00  0.00     0.043 A 
ATOM     19  Cl  UNL A   1      33.357  23.784  26.614  1.00  0.00    -0.082 Cl
ATOM     20  C   UNL A   1      36.600  22.352  24.791  1.00  0.00     0.042 A 
ATOM     21  Cl  UNL A   1      37.964  21.401  25.224  1.00  0.00    -0.084 Cl
ENDBRANCH  12  14
ENDBRANCH   9  10
ENDBRANCH   8   9
BRANCH   8  22
ATOM     22  C   UNL A   1      30.417  27.176  23.653  1.00  0.00    -0.035 A 
ATOM     23  C   UNL A   1      29.042  27.469  23.644  1.00  0.00     0.004 A 
ATOM     24  C   UNL A   1      31.290  28.045  22.981  1.00  0.00     0.004 A 
ATOM     25  C   UNL A   1      28.552  28.583  22.960  1.00  0.00     0.000 A 
ATOM     26  C   UNL A   1      30.796  29.155  22.291  1.00  0.00     0.000 A 
ATOM     27  C   UNL A   1      29.428  29.422  22.278  1.00  0.00     0.000 A 
ENDBRANCH   8  22
ENDBRANCH   5   8
ENDBRANCH   3   4
ENDBRANCH   2   3
ENDBRANCH   1   2
BRANCH   1  28
ATOM     28  C   UNL A   1      31.182  30.628  25.757  1.00  0.00     0.002 C 
BRANCH  28  29
ATOM     29  C   UNL A   1      31.148  31.999  26.430  1.00  0.00     0.021 C 
BRANCH  29  30
ATOM     30  C   UNL A   1      32.494  32.498  26.934  1.00  0.00     0.116 C 
BRANCH  30  31
ATOM     31  N   UNL A   1      32.402  33.823  27.536  1.00  0.00    -0.352 N 
ATOM     32  C   UNL A   1      33.180  34.427  28.490  1.00  0.00     0.251 C 
ATOM     33  H   UNL A   1      31.658  34.375  27.203  1.00  0.00     0.163 HD
ATOM     34  O   UNL A   1      32.807  35.485  28.999  1.00  0.00    -0.269 OA
BRANCH  32  35
ATOM     35  C   UNL A   1      34.455  33.818  28.923  1.00  0.00     0.039 A 
ATOM     36  C   UNL A   1      35.643  34.184  28.284  1.00  0.00     0.014 A 
ATOM     37  C   UNL A   1      34.483  32.867  29.945  1.00  0.00     0.014 A 
ATOM     38  C   UNL A   1      36.859  33.643  28.712  1.00  0.00     0.010 A 
ATOM     39  C   UNL A   1      35.699  32.427  30.450  1.00  0.00     0.010 A 
ATOM     40  C   UNL A   1      36.901  32.789  29.826  1.00  0.00    -0.014 A 
BRANCH  40  41
ATOM     41  C   UNL A   1      38.176  32.228  30.340  1.00  0.00     0.031 A 
ATOM     42  C   UNL A   1      38.704  30.932  29.779  1.00  0.00     0.074 A 
ATOM     43  C   UNL A   1      38.813  32.832  31.363  1.00  0.00     0.049 A 
ATOM     44  N   UNL A   1      39.733  30.221  30.166  1.00  0.00    -0.248 NA
ATOM     45  C   UNL A   1      37.950  30.335  28.662  1.00  0.00     0.031 C 
ATOM     46  C   UNL A   1      38.377  34.062  32.028  1.00  0.00     0.029 A 
ATOM     47  N   UNL A   1      39.962  32.487  32.027  1.00  0.00    -0.354 N 
ATOM     48  C   UNL A   1      39.728  29.086  29.363  1.00  0.00     0.074 A 
ATOM     49  C   UNL A   1      38.557  29.167  28.520  1.00  0.00     0.031 C 
ATOM     50  C   UNL A   1      39.268  34.388  32.979  1.00  0.00     0.029 A 
ATOM     51  C   UNL A   1      40.307  33.367  33.025  1.00  0.00     0.049 A 
ATOM     52  H   UNL A   1      40.491  31.685  31.809  1.00  0.00     0.167 HD
ATOM     53  C   UNL A   1      40.631  28.079  29.309  1.00  0.00     0.031 A 
ATOM     54  C   UNL A   1      41.343  33.349  33.885  1.00  0.00     0.031 A 
ATOM     55  C   UNL A   1      41.810  28.016  30.129  1.00  0.00     0.049 A 
ATOM     56  C   UNL A   1      42.336  32.223  33.804  1.00  0.00     0.074 A 
ATOM     57  C   UNL A   1      42.824  27.075  30.112  1.00  0.00     0.029 A 
ATOM     58  N   UNL A   1      42.134  28.942  31.110  1.00  0.00    -0.354 N 
ATOM     59  N   UNL A   1      42.351  31.189  32.995  1.00  0.00    -0.248 NA
ATOM     60  C   UNL A   1      43.463  32.267  34.745  1.00  0.00     0.031 C 
ATOM     61  C   UNL A   1      43.735  27.402  31.122  1.00  0.00     0.029 A 
ATOM     62  C   UNL A   1      43.323  28.582  31.720  1.00  0.00     0.049 A 
ATOM     63  H   UNL A   1      41.600  29.736  31.337  1.00  0.00     0.167 HD
ATOM     64  C   UNL A   1      43.502  30.478  33.311  1.00  0.00     0.074 A 
ATOM     65  C   UNL A   1      44.167  31.208  34.371  1.00  0.00     0.031 C 
ATOM     66  C   UNL A   1      43.967  29.324  32.773  1.00  0.00     0.031 A 
BRANCH  53  67
ATOM     67  C   UNL A   1      40.375  26.968  28.325  1.00  0.00    -0.014 A 
ATOM     68  C   UNL A   1      40.879  27.021  27.015  1.00  0.00     0.009 A 
ATOM     69  C   UNL A   1      39.636  25.842  28.719  1.00  0.00     0.009 A 
ATOM     70  C   UNL A   1      40.611  25.995  26.108  1.00  0.00     0.001 A 
ATOM     71  C   UNL A   1      39.397  24.799  27.820  1.00  0.00     0.001 A 
ATOM     72  C   UNL A   1      39.874  24.882  26.512  1.00  0.00     0.000 A 
ENDBRANCH  53  67
BRANCH  54  73
ATOM     73  C   UNL A   1      41.505  34.439  34.884  1.00  0.00    -0.014 A 
ATOM     74  C   UNL A   1      40.858  34.366  36.128  1.00  0.00     0.009 A 
ATOM     75  C   UNL A   1      42.305  35.557  34.601  1.00  0.00     0.009 A 
ATOM     76  C   UNL A   1      40.983  35.405  37.054  1.00  0.00     0.001 A 
ATOM     77  C   UNL A   1      42.454  36.579  35.543  1.00  0.00     0.001 A 
ATOM     78  C   UNL A   1      41.785  36.507  36.763  1.00  0.00     0.000 A 
ENDBRANCH  54  73
BRANCH  66  79
ATOM     79  C   UNL A   1      45.277  28.802  33.296  1.00  0.00    -0.014 A 
ATOM     80  C   UNL A   1      45.327  27.885  34.356  1.00  0.00     0.009 A 
ATOM     81  C   UNL A   1      46.474  29.201  32.682  1.00  0.00     0.009 A 
ATOM     82  C   UNL A   1      46.557  27.407  34.816  1.00  0.00     0.001 A 
ATOM     83  C   UNL A   1      47.698  28.697  33.121  1.00  0.00     0.001 A 
ATOM     84  C   UNL A   1      47.739  27.808  34.194  1.00  0.00     0.000 A 
ENDBRANCH  66  79
ENDBRANCH  40  41
ENDBRANCH  32  35
ENDBRANCH  30  31
ENDBRANCH  29  30
ENDBRANCH  28  29
ENDBRANCH   1  28
TORSDOF 17
ENDMDL
