MODEL 1
REMARK VINA RESULT:      -9.6      0.000      0.000
REMARK SMILES COC[C@@H](C)CC(=O)N1CC(CC(=O)NCCCCCCNC(=O)c2ccc(-c3c4nc(c(-c5ccccc5)c5ccc([nH]5)c(-c5ccccc5)c5nc(c(-c6ccccc6)c6ccc3[nH]6)C=C5)C=C4)cc2)C1
REMARK SMILES IDX 17 1 16 2 15 3 13 4 14 5 12 7 11 8 7 9 8 10 9 11 10 12 73 13
REMARK SMILES IDX 6 14 4 15 5 16 3 17 2 18 1 19 18 20 19 21 20 22 21 23 22 24
REMARK SMILES IDX 23 25 24 27 25 28 26 29 72 30 27 31 71 32 28 33 29 34 30 35
REMARK SMILES IDX 65 36 31 37 70 38 64 39 66 40 32 41 69 42 63 43 62 44 33 46
REMARK SMILES IDX 55 47 40 48 54 49 41 50 44 51 53 52 67 53 42 54 43 55 52 57
REMARK SMILES IDX 68 58 45 59 34 60 35 61 39 62 36 63 38 64 37 65 56 66 57 67
REMARK SMILES IDX 61 68 58 69 60 70 59 71 46 72 47 73 51 74 48 75 50 76 49 77
REMARK H PARENT 15 6 22 26 66 45 44 56
REMARK Flexibility Score: inf
ROOT
ATOM      1  C   UNL A   1      34.574  32.192  28.599  1.00  0.00     0.021 C 
ENDROOT
BRANCH   1   2
ATOM      2  C   UNL A   1      35.386  31.065  27.950  1.00  0.00     0.116 C 
BRANCH   2   3
ATOM      3  N   UNL A   1      34.688  29.794  28.028  1.00  0.00    -0.356 N 
ATOM      4  C   UNL A   1      33.819  29.195  27.168  1.00  0.00     0.220 C 
ATOM      5  O   UNL A   1      33.299  28.133  27.514  1.00  0.00    -0.275 OA
ATOM      6  H   UNL A   1      34.875  29.276  28.845  1.00  0.00     0.163 HD
BRANCH   4   7
ATOM      7  C   UNL A   1      33.469  29.823  25.830  1.00  0.00     0.107 C 
BRANCH   7   8
ATOM      8  C   UNL A   1      32.529  28.955  24.999  1.00  0.00     0.037 C 
ATOM      9  C   UNL A   1      30.454  28.879  22.429  1.00  0.00     0.222 C 
ATOM     10  O   UNL A   1      30.414  27.705  22.072  1.00  0.00    -0.275 OA
ATOM     11  N   UNL A   1      31.420  29.388  23.271  1.00  0.00    -0.342 N 
ATOM     12  C   UNL A   1      32.763  28.842  23.489  1.00  0.00     0.125 C 
ATOM     13  C   UNL A   1      31.190  29.609  24.692  1.00  0.00     0.125 C 
BRANCH   9  14
ATOM     14  C   UNL A   1      29.500  29.928  21.871  1.00  0.00     0.106 C 
BRANCH  14  15
ATOM     15  C   UNL A   1      28.930  30.959  22.864  1.00  0.00     0.021 C 
ATOM     16  C   UNL A   1      27.535  30.505  23.309  1.00  0.00     0.010 C 
BRANCH  15  17
ATOM     17  C   UNL A   1      28.896  32.370  22.252  1.00  0.00     0.163 C 
BRANCH  17  18
ATOM     18  O   UNL A   1      27.664  32.698  21.616  1.00  0.00    -0.384 OA
ATOM     19  C   UNL A   1      27.732  32.594  20.201  1.00  0.00     0.194 C 
ENDBRANCH  17  18
ENDBRANCH  15  17
ENDBRANCH  14  15
ENDBRANCH   9  14
ENDBRANCH   7   8
ENDBRANCH   4   7
ENDBRANCH   2   3
ENDBRANCH   1   2
BRANCH   1  20
ATOM     20  C   UNL A   1      35.260  33.562  28.623  1.00  0.00     0.002 C 
BRANCH  20  21
ATOM     21  C   UNL A   1      34.459  34.715  28.005  1.00  0.00     0.002 C 
BRANCH  21  22
ATOM     22  C   UNL A   1      33.173  35.110  28.738  1.00  0.00     0.021 C 
BRANCH  22  23
ATOM     23  C   UNL A   1      33.223  36.431  29.509  1.00  0.00     0.116 C 
BRANCH  23  24
ATOM     24  N   UNL A   1      32.457  36.397  30.744  1.00  0.00    -0.352 N 
ATOM     25  C   UNL A   1      32.694  35.692  31.904  1.00  0.00     0.251 C 
ATOM     26  H   UNL A   1      31.650  36.962  30.754  1.00  0.00     0.163 HD
ATOM     27  O   UNL A   1      31.870  35.694  32.808  1.00  0.00    -0.269 OA
BRANCH  25  28
ATOM     28  C   UNL A   1      33.933  34.894  32.047  1.00  0.00     0.039 A 
ATOM     29  C   UNL A   1      35.157  35.561  32.147  1.00  0.00     0.014 A 
ATOM     30  C   UNL A   1      33.897  33.500  32.079  1.00  0.00     0.014 A 
ATOM     31  C   UNL A   1      36.332  34.833  32.369  1.00  0.00     0.010 A 
ATOM     32  C   UNL A   1      35.063  32.778  32.353  1.00  0.00     0.010 A 
ATOM     33  C   UNL A   1      36.291  33.437  32.523  1.00  0.00    -0.014 A 
BRANCH  33  34
ATOM     34  C   UNL A   1      37.509  32.672  32.908  1.00  0.00     0.031 A 
ATOM     35  C   UNL A   1      38.232  32.958  34.197  1.00  0.00     0.074 A 
ATOM     36  C   UNL A   1      38.007  31.744  32.065  1.00  0.00     0.049 A 
ATOM     37  N   UNL A   1      39.320  32.401  34.672  1.00  0.00    -0.248 NA
ATOM     38  C   UNL A   1      37.674  34.013  35.055  1.00  0.00     0.031 C 
ATOM     39  C   UNL A   1      37.436  31.386  30.764  1.00  0.00     0.029 A 
ATOM     40  N   UNL A   1      39.110  30.931  32.177  1.00  0.00    -0.354 N 
ATOM     41  C   UNL A   1      39.579  33.042  35.877  1.00  0.00     0.074 A 
ATOM     42  C   UNL A   1      38.561  34.058  36.039  1.00  0.00     0.031 C 
ATOM     43  C   UNL A   1      38.175  30.408  30.215  1.00  0.00     0.029 A 
ATOM     44  C   UNL A   1      39.293  30.097  31.099  1.00  0.00     0.049 A 
ATOM     45  H   UNL A   1      39.713  30.945  32.955  1.00  0.00     0.167 HD
ATOM     46  C   UNL A   1      40.562  32.797  36.777  1.00  0.00     0.031 A 
ATOM     47  C   UNL A   1      40.253  29.187  30.843  1.00  0.00     0.031 A 
ATOM     48  C   UNL A   1      41.575  31.785  36.632  1.00  0.00     0.049 A 
ATOM     49  C   UNL A   1      41.353  28.960  31.843  1.00  0.00     0.074 A 
ATOM     50  C   UNL A   1      42.568  31.427  37.529  1.00  0.00     0.029 A 
ATOM     51  N   UNL A   1      41.734  30.978  35.518  1.00  0.00    -0.354 N 
ATOM     52  N   UNL A   1      41.533  29.523  33.012  1.00  0.00    -0.248 NA
ATOM     53  C   UNL A   1      42.379  27.969  31.485  1.00  0.00     0.031 C 
ATOM     54  C   UNL A   1      43.362  30.441  36.935  1.00  0.00     0.029 A 
ATOM     55  C   UNL A   1      42.830  30.148  35.690  1.00  0.00     0.049 A 
ATOM     56  H   UNL A   1      41.154  30.991  34.722  1.00  0.00     0.167 HD
ATOM     57  C   UNL A   1      42.680  28.940  33.538  1.00  0.00     0.074 A 
ATOM     58  C   UNL A   1      43.144  27.969  32.569  1.00  0.00     0.031 C 
ATOM     59  C   UNL A   1      43.292  29.190  34.719  1.00  0.00     0.031 A 
BRANCH  46  60
ATOM     60  C   UNL A   1      40.596  33.650  38.014  1.00  0.00    -0.014 A 
ATOM     61  C   UNL A   1      39.921  33.262  39.182  1.00  0.00     0.009 A 
ATOM     62  C   UNL A   1      41.360  34.828  38.030  1.00  0.00     0.009 A 
ATOM     63  C   UNL A   1      39.984  34.053  40.331  1.00  0.00     0.001 A 
ATOM     64  C   UNL A   1      41.443  35.603  39.188  1.00  0.00     0.001 A 
ATOM     65  C   UNL A   1      40.749  35.219  40.335  1.00  0.00     0.000 A 
ENDBRANCH  46  60
BRANCH  47  66
ATOM     66  C   UNL A   1      40.224  28.413  29.574  1.00  0.00    -0.014 A 
ATOM     67  C   UNL A   1      39.568  27.175  29.510  1.00  0.00     0.009 A 
ATOM     68  C   UNL A   1      40.870  28.900  28.427  1.00  0.00     0.009 A 
ATOM     69  C   UNL A   1      39.579  26.429  28.330  1.00  0.00     0.001 A 
ATOM     70  C   UNL A   1      40.855  28.165  27.241  1.00  0.00     0.001 A 
ATOM     71  C   UNL A   1      40.218  26.926  27.195  1.00  0.00     0.000 A 
ENDBRANCH  47  66
BRANCH  59  72
ATOM     72  C   UNL A   1      44.524  28.392  35.043  1.00  0.00    -0.014 A 
ATOM     73  C   UNL A   1      44.435  27.159  35.705  1.00  0.00     0.009 A 
ATOM     74  C   UNL A   1      45.785  28.860  34.640  1.00  0.00     0.009 A 
ATOM     75  C   UNL A   1      45.589  26.421  35.981  1.00  0.00     0.001 A 
ATOM     76  C   UNL A   1      46.933  28.108  34.894  1.00  0.00     0.001 A 
ATOM     77  C   UNL A   1      46.835  26.893  35.569  1.00  0.00     0.000 A 
ENDBRANCH  59  72
ENDBRANCH  33  34
ENDBRANCH  25  28
ENDBRANCH  23  24
ENDBRANCH  22  23
ENDBRANCH  21  22
ENDBRANCH  20  21
ENDBRANCH   1  20
TORSDOF 18
ENDMDL
MODEL 2
REMARK VINA RESULT:      -9.4      0.324      5.996
REMARK SMILES COC[C@@H](C)CC(=O)N1CC(CC(=O)NCCCCCCNC(=O)c2ccc(-c3c4nc(c(-c5ccccc5)c5ccc([nH]5)c(-c5ccccc5)c5nc(c(-c6ccccc6)c6ccc3[nH]6)C=C5)C=C4)cc2)C1
REMARK SMILES IDX 17 1 16 2 15 3 13 4 14 5 12 7 11 8 7 9 8 10 9 11 10 12 73 13
REMARK SMILES IDX 6 14 4 15 5 16 3 17 2 18 1 19 18 20 19 21 20 22 21 23 22 24
REMARK SMILES IDX 23 25 24 27 25 28 26 29 72 30 27 31 71 32 28 33 29 34 30 35
REMARK SMILES IDX 65 36 31 37 70 38 64 39 66 40 32 41 69 42 63 43 62 44 33 46
REMARK SMILES IDX 55 47 40 48 54 49 41 50 44 51 53 52 67 53 42 54 43 55 52 57
REMARK SMILES IDX 68 58 45 59 34 60 35 61 39 62 36 63 38 64 37 65 56 66 57 67
REMARK SMILES IDX 61 68 58 69 60 70 59 71 46 72 47 73 51 74 48 75 50 76 49 77
REMARK H PARENT 15 6 22 26 66 45 44 56
REMARK Flexibility Score: inf
ROOT
ATOM      1  C   UNL A   1      34.544  32.005  28.313  1.00  0.00     0.021 C 
ENDROOT
BRANCH   1   2
ATOM      2  C   UNL A   1      35.545  31.053  27.647  1.00  0.00     0.116 C 
BRANCH   2   3
ATOM      3  N   UNL A   1      35.049  29.689  27.631  1.00  0.00    -0.356 N 
ATOM      4  C   UNL A   1      34.069  29.100  26.891  1.00  0.00     0.220 C 
ATOM      5  O   UNL A   1      33.787  27.925  27.130  1.00  0.00    -0.275 OA
ATOM      6  H   UNL A   1      35.499  29.084  28.265  1.00  0.00     0.163 HD
BRANCH   4   7
ATOM      7  C   UNL A   1      33.316  29.869  25.820  1.00  0.00     0.107 C 
BRANCH   7   8
ATOM      8  C   UNL A   1      32.459  28.966  24.938  1.00  0.00     0.037 C 
ATOM      9  C   UNL A   1      30.347  28.851  22.399  1.00  0.00     0.222 C 
ATOM     10  O   UNL A   1      30.430  27.710  21.953  1.00  0.00    -0.275 OA
ATOM     11  N   UNL A   1      31.271  29.400  23.264  1.00  0.00    -0.342 N 
ATOM     12  C   UNL A   1      32.670  28.994  23.420  1.00  0.00     0.125 C 
ATOM     13  C   UNL A   1      31.050  29.487  24.701  1.00  0.00     0.125 C 
BRANCH   9  14
ATOM     14  C   UNL A   1      29.271  29.826  21.937  1.00  0.00     0.106 C 
BRANCH  14  15
ATOM     15  C   UNL A   1      28.839  30.919  22.932  1.00  0.00     0.021 C 
ATOM     16  C   UNL A   1      27.410  30.628  23.405  1.00  0.00     0.010 C 
BRANCH  15  17
ATOM     17  C   UNL A   1      28.954  32.322  22.312  1.00  0.00     0.163 C 
BRANCH  17  18
ATOM     18  O   UNL A   1      27.739  32.809  21.748  1.00  0.00    -0.384 OA
ATOM     19  C   UNL A   1      27.734  32.757  20.328  1.00  0.00     0.194 C 
ENDBRANCH  17  18
ENDBRANCH  15  17
ENDBRANCH  14  15
ENDBRANCH   9  14
ENDBRANCH   7   8
ENDBRANCH   4   7
ENDBRANCH   2   3
ENDBRANCH   1   2
BRANCH   1  20
ATOM     20  C   UNL A   1      35.158  33.254  28.956  1.00  0.00     0.002 C 
BRANCH  20  21
ATOM     21  C   UNL A   1      34.654  34.595  28.411  1.00  0.00     0.002 C 
BRANCH  21  22
ATOM     22  C   UNL A   1      33.267  35.039  28.889  1.00  0.00     0.021 C 
BRANCH  22  23
ATOM     23  C   UNL A   1      33.216  36.367  29.647  1.00  0.00     0.116 C 
BRANCH  23  24
ATOM     24  N   UNL A   1      32.421  36.297  30.863  1.00  0.00    -0.352 N 
ATOM     25  C   UNL A   1      32.648  35.581  32.018  1.00  0.00     0.251 C 
ATOM     26  H   UNL A   1      31.600  36.841  30.861  1.00  0.00     0.163 HD
ATOM     27  O   UNL A   1      31.803  35.550  32.902  1.00  0.00    -0.269 OA
BRANCH  25  28
ATOM     28  C   UNL A   1      33.904  34.813  32.180  1.00  0.00     0.039 A 
ATOM     29  C   UNL A   1      35.125  35.484  32.067  1.00  0.00     0.014 A 
ATOM     30  C   UNL A   1      33.885  33.442  32.438  1.00  0.00     0.014 A 
ATOM     31  C   UNL A   1      36.321  34.797  32.301  1.00  0.00     0.010 A 
ATOM     32  C   UNL A   1      35.078  32.770  32.724  1.00  0.00     0.010 A 
ATOM     33  C   UNL A   1      36.308  33.444  32.680  1.00  0.00    -0.014 A 
BRANCH  33  34
ATOM     34  C   UNL A   1      37.564  32.747  33.077  1.00  0.00     0.031 A 
ATOM     35  C   UNL A   1      38.185  31.698  32.194  1.00  0.00     0.074 A 
ATOM     36  C   UNL A   1      38.127  33.020  34.273  1.00  0.00     0.049 A 
ATOM     37  N   UNL A   1      39.262  30.981  32.400  1.00  0.00    -0.248 NA
ATOM     38  C   UNL A   1      37.502  31.406  30.924  1.00  0.00     0.031 C 
ATOM     39  C   UNL A   1      37.617  33.984  35.250  1.00  0.00     0.029 A 
ATOM     40  N   UNL A   1      39.255  32.508  34.870  1.00  0.00    -0.354 N 
ATOM     41  C   UNL A   1      39.382  30.149  31.294  1.00  0.00     0.074 A 
ATOM     42  C   UNL A   1      38.244  30.421  30.441  1.00  0.00     0.031 C 
ATOM     43  C   UNL A   1      38.443  34.014  36.309  1.00  0.00     0.029 A 
ATOM     44  C   UNL A   1      39.516  33.046  36.107  1.00  0.00     0.049 A 
ATOM     45  H   UNL A   1      39.821  31.820  34.451  1.00  0.00     0.167 HD
ATOM     46  C   UNL A   1      40.357  29.254  31.003  1.00  0.00     0.031 A 
ATOM     47  C   UNL A   1      40.504  32.791  36.988  1.00  0.00     0.031 A 
ATOM     48  C   UNL A   1      41.496  28.981  31.839  1.00  0.00     0.049 A 
ATOM     49  C   UNL A   1      41.553  31.767  36.656  1.00  0.00     0.074 A 
ATOM     50  C   UNL A   1      42.565  28.137  31.586  1.00  0.00     0.029 A 
ATOM     51  N   UNL A   1      41.711  29.533  33.090  1.00  0.00    -0.354 N 
ATOM     52  N   UNL A   1      41.690  31.049  35.569  1.00  0.00    -0.248 NA
ATOM     53  C   UNL A   1      42.586  31.522  37.674  1.00  0.00     0.031 C 
ATOM     54  C   UNL A   1      43.400  28.138  32.709  1.00  0.00     0.029 A 
ATOM     55  C   UNL A   1      42.877  29.022  33.637  1.00  0.00     0.049 A 
ATOM     56  H   UNL A   1      41.123  30.192  33.526  1.00  0.00     0.167 HD
ATOM     57  C   UNL A   1      42.834  30.284  35.764  1.00  0.00     0.074 A 
ATOM     58  C   UNL A   1      43.362  30.636  37.065  1.00  0.00     0.031 C 
ATOM     59  C   UNL A   1      43.393  29.370  34.936  1.00  0.00     0.031 A 
BRANCH  46  60
ATOM     60  C   UNL A   1      40.233  28.490  29.715  1.00  0.00    -0.014 A 
ATOM     61  C   UNL A   1      40.796  28.978  28.525  1.00  0.00     0.009 A 
ATOM     62  C   UNL A   1      39.597  27.239  29.703  1.00  0.00     0.009 A 
ATOM     63  C   UNL A   1      40.695  28.243  27.342  1.00  0.00     0.001 A 
ATOM     64  C   UNL A   1      39.521  26.494  28.525  1.00  0.00     0.001 A 
ATOM     65  C   UNL A   1      40.063  27.000  27.344  1.00  0.00     0.000 A 
ENDBRANCH  46  60
BRANCH  47  66
ATOM     66  C   UNL A   1      40.551  33.517  38.284  1.00  0.00    -0.014 A 
ATOM     67  C   UNL A   1      41.286  34.705  38.408  1.00  0.00     0.009 A 
ATOM     68  C   UNL A   1      39.876  33.015  39.408  1.00  0.00     0.009 A 
ATOM     69  C   UNL A   1      41.365  35.363  39.637  1.00  0.00     0.001 A 
ATOM     70  C   UNL A   1      39.934  33.690  40.628  1.00  0.00     0.001 A 
ATOM     71  C   UNL A   1      40.686  34.858  40.745  1.00  0.00     0.000 A 
ENDBRANCH  47  66
BRANCH  59  72
ATOM     72  C   UNL A   1      44.653  28.694  35.400  1.00  0.00    -0.014 A 
ATOM     73  C   UNL A   1      44.607  27.495  36.127  1.00  0.00     0.009 A 
ATOM     74  C   UNL A   1      45.902  29.240  35.066  1.00  0.00     0.009 A 
ATOM     75  C   UNL A   1      45.788  26.870  36.534  1.00  0.00     0.001 A 
ATOM     76  C   UNL A   1      47.081  28.600  35.452  1.00  0.00     0.001 A 
ATOM     77  C   UNL A   1      47.023  27.419  36.190  1.00  0.00     0.000 A 
ENDBRANCH  59  72
ENDBRANCH  33  34
ENDBRANCH  25  28
ENDBRANCH  23  24
ENDBRANCH  22  23
ENDBRANCH  21  22
ENDBRANCH  20  21
ENDBRANCH   1  20
TORSDOF 18
ENDMDL
MODEL 3
REMARK VINA RESULT:      -9.4      2.234      3.637
REMARK SMILES COC[C@@H](C)CC(=O)N1CC(CC(=O)NCCCCCCNC(=O)c2ccc(-c3c4nc(c(-c5ccccc5)c5ccc([nH]5)c(-c5ccccc5)c5nc(c(-c6ccccc6)c6ccc3[nH]6)C=C5)C=C4)cc2)C1
REMARK SMILES IDX 17 1 16 2 15 3 13 4 14 5 12 7 11 8 7 9 8 10 9 11 10 12 73 13
REMARK SMILES IDX 6 14 4 15 5 16 3 17 2 18 1 19 18 20 19 21 20 22 21 23 22 24
REMARK SMILES IDX 23 25 24 27 25 28 26 29 72 30 27 31 71 32 28 33 29 34 30 35
REMARK SMILES IDX 65 36 31 37 70 38 64 39 66 40 32 41 69 42 63 43 62 44 33 46
REMARK SMILES IDX 55 47 40 48 54 49 41 50 44 51 53 52 67 53 42 54 43 55 52 57
REMARK SMILES IDX 68 58 45 59 34 60 35 61 39 62 36 63 38 64 37 65 56 66 57 67
REMARK SMILES IDX 61 68 58 69 60 70 59 71 46 72 47 73 51 74 48 75 50 76 49 77
REMARK H PARENT 15 6 22 26 66 45 44 56
REMARK Flexibility Score: inf
ROOT
ATOM      1  C   UNL A   1      34.810  31.168  27.926  1.00  0.00     0.021 C 
ENDROOT
BRANCH   1   2
ATOM      2  C   UNL A   1      33.591  30.447  27.338  1.00  0.00     0.116 C 
BRANCH   2   3
ATOM      3  N   UNL A   1      33.914  29.795  26.082  1.00  0.00    -0.356 N 
ATOM      4  C   UNL A   1      33.135  29.101  25.207  1.00  0.00     0.220 C 
ATOM      5  O   UNL A   1      33.681  28.573  24.237  1.00  0.00    -0.275 OA
ATOM      6  H   UNL A   1      34.860  29.867  25.817  1.00  0.00     0.163 HD
BRANCH   4   7
ATOM      7  C   UNL A   1      31.640  28.948  25.426  1.00  0.00     0.107 C 
BRANCH   7   8
ATOM      8  C   UNL A   1      31.281  27.663  26.166  1.00  0.00     0.037 C 
ATOM      9  C   UNL A   1      31.390  24.361  26.100  1.00  0.00     0.222 C 
ATOM     10  O   UNL A   1      31.313  24.006  27.272  1.00  0.00    -0.275 OA
ATOM     11  N   UNL A   1      31.678  25.653  25.712  1.00  0.00    -0.342 N 
ATOM     12  C   UNL A   1      32.392  26.662  26.500  1.00  0.00     0.125 C 
ATOM     13  C   UNL A   1      30.652  26.595  25.284  1.00  0.00     0.125 C 
BRANCH   9  14
ATOM     14  C   UNL A   1      31.297  23.372  24.945  1.00  0.00     0.106 C 
BRANCH  14  15
ATOM     15  C   UNL A   1      32.519  23.261  24.014  1.00  0.00     0.021 C 
ATOM     16  C   UNL A   1      32.254  22.171  22.970  1.00  0.00     0.010 C 
BRANCH  15  17
ATOM     17  C   UNL A   1      33.807  22.983  24.806  1.00  0.00     0.163 C 
BRANCH  17  18
ATOM     18  O   UNL A   1      33.788  21.760  25.536  1.00  0.00    -0.384 OA
ATOM     19  C   UNL A   1      35.061  21.133  25.590  1.00  0.00     0.194 C 
ENDBRANCH  17  18
ENDBRANCH  15  17
ENDBRANCH  14  15
ENDBRANCH   9  14
ENDBRANCH   7   8
ENDBRANCH   4   7
ENDBRANCH   2   3
ENDBRANCH   1   2
BRANCH   1  20
ATOM     20  C   UNL A   1      34.494  32.223  28.992  1.00  0.00     0.002 C 
BRANCH  20  21
ATOM     21  C   UNL A   1      34.557  33.681  28.519  1.00  0.00     0.002 C 
BRANCH  21  22
ATOM     22  C   UNL A   1      33.298  34.521  28.756  1.00  0.00     0.021 C 
BRANCH  22  23
ATOM     23  C   UNL A   1      33.509  35.848  29.488  1.00  0.00     0.116 C 
BRANCH  23  24
ATOM     24  N   UNL A   1      32.559  36.059  30.569  1.00  0.00    -0.352 N 
ATOM     25  C   UNL A   1      32.622  35.653  31.883  1.00  0.00     0.251 C 
ATOM     26  H   UNL A   1      31.751  36.566  30.324  1.00  0.00     0.163 HD
ATOM     27  O   UNL A   1      31.666  35.819  32.629  1.00  0.00    -0.269 OA
BRANCH  25  28
ATOM     28  C   UNL A   1      33.838  34.978  32.394  1.00  0.00     0.039 A 
ATOM     29  C   UNL A   1      33.752  33.640  32.786  1.00  0.00     0.014 A 
ATOM     30  C   UNL A   1      35.054  35.655  32.492  1.00  0.00     0.014 A 
ATOM     31  C   UNL A   1      34.905  32.957  33.190  1.00  0.00     0.010 A 
ATOM     32  C   UNL A   1      36.214  34.957  32.846  1.00  0.00     0.010 A 
ATOM     33  C   UNL A   1      36.157  33.595  33.178  1.00  0.00    -0.014 A 
BRANCH  33  34
ATOM     34  C   UNL A   1      37.407  32.836  33.461  1.00  0.00     0.031 A 
ATOM     35  C   UNL A   1      38.193  33.072  34.723  1.00  0.00     0.074 A 
ATOM     36  C   UNL A   1      37.874  31.959  32.548  1.00  0.00     0.049 A 
ATOM     37  N   UNL A   1      39.312  32.514  35.112  1.00  0.00    -0.248 NA
ATOM     38  C   UNL A   1      37.663  34.073  35.660  1.00  0.00     0.031 C 
ATOM     39  C   UNL A   1      37.241  31.654  31.263  1.00  0.00     0.029 A 
ATOM     40  N   UNL A   1      38.995  31.162  32.561  1.00  0.00    -0.354 N 
ATOM     41  C   UNL A   1      39.625  33.099  36.332  1.00  0.00     0.074 A 
ATOM     42  C   UNL A   1      38.600  34.087  36.597  1.00  0.00     0.031 C 
ATOM     43  C   UNL A   1      37.966  30.718  30.627  1.00  0.00     0.029 A 
ATOM     44  C   UNL A   1      39.134  30.386  31.436  1.00  0.00     0.049 A 
ATOM     45  H   UNL A   1      39.638  31.150  33.307  1.00  0.00     0.167 HD
ATOM     46  C   UNL A   1      40.658  32.830  37.167  1.00  0.00     0.031 A 
ATOM     47  C   UNL A   1      40.093  29.507  31.085  1.00  0.00     0.031 A 
ATOM     48  C   UNL A   1      41.679  31.846  36.918  1.00  0.00     0.049 A 
ATOM     49  C   UNL A   1      41.249  29.253  32.013  1.00  0.00     0.074 A 
ATOM     50  C   UNL A   1      42.723  31.464  37.744  1.00  0.00     0.029 A 
ATOM     51  N   UNL A   1      41.791  31.097  35.759  1.00  0.00    -0.354 N 
ATOM     52  N   UNL A   1      41.482  29.762  33.198  1.00  0.00    -0.248 NA
ATOM     53  C   UNL A   1      42.271  28.301  31.554  1.00  0.00     0.031 C 
ATOM     54  C   UNL A   1      43.500  30.522  37.060  1.00  0.00     0.029 A 
ATOM     55  C   UNL A   1      42.908  30.281  35.832  1.00  0.00     0.049 A 
ATOM     56  H   UNL A   1      41.170  31.138  34.996  1.00  0.00     0.167 HD
ATOM     57  C   UNL A   1      42.664  29.176  33.634  1.00  0.00     0.074 A 
ATOM     58  C   UNL A   1      43.091  28.262  32.594  1.00  0.00     0.031 C 
ATOM     59  C   UNL A   1      43.334  29.380  34.792  1.00  0.00     0.031 A 
BRANCH  46  60
ATOM     60  C   UNL A   1      40.744  33.622  38.441  1.00  0.00    -0.014 A 
ATOM     61  C   UNL A   1      41.437  34.841  38.491  1.00  0.00     0.009 A 
ATOM     62  C   UNL A   1      40.073  33.173  39.589  1.00  0.00     0.009 A 
ATOM     63  C   UNL A   1      41.484  35.580  39.676  1.00  0.00     0.001 A 
ATOM     64  C   UNL A   1      40.100  33.926  40.765  1.00  0.00     0.001 A 
ATOM     65  C   UNL A   1      40.811  35.124  40.810  1.00  0.00     0.000 A 
ENDBRANCH  46  60
BRANCH  47  66
ATOM     66  C   UNL A   1      40.010  28.796  29.783  1.00  0.00    -0.014 A 
ATOM     67  C   UNL A   1      40.419  29.428  28.599  1.00  0.00     0.009 A 
ATOM     68  C   UNL A   1      39.503  27.488  29.715  1.00  0.00     0.009 A 
ATOM     69  C   UNL A   1      40.299  28.774  27.370  1.00  0.00     0.001 A 
ATOM     70  C   UNL A   1      39.411  26.827  28.490  1.00  0.00     0.001 A 
ATOM     71  C   UNL A   1      39.800  27.473  27.317  1.00  0.00     0.000 A 
ENDBRANCH  47  66
BRANCH  59  72
ATOM     72  C   UNL A   1      44.594  28.591  35.012  1.00  0.00    -0.014 A 
ATOM     73  C   UNL A   1      44.559  27.319  35.601  1.00  0.00     0.009 A 
ATOM     74  C   UNL A   1      45.826  29.108  34.581  1.00  0.00     0.009 A 
ATOM     75  C   UNL A   1      45.738  26.590  35.780  1.00  0.00     0.001 A 
ATOM     76  C   UNL A   1      46.999  28.367  34.736  1.00  0.00     0.001 A 
ATOM     77  C   UNL A   1      46.955  27.112  35.341  1.00  0.00     0.000 A 
ENDBRANCH  59  72
ENDBRANCH  33  34
ENDBRANCH  25  28
ENDBRANCH  23  24
ENDBRANCH  22  23
ENDBRANCH  21  22
ENDBRANCH  20  21
ENDBRANCH   1  20
TORSDOF 18
ENDMDL
