MODEL 1
REMARK VINA RESULT:      -8.4      0.000      0.000
REMARK SMILES C#CCN(CC(=O)NCCCCCCNC(=O)c1ccc(-c2c3nc(c(-c4ccccc4)c4ccc([nH]4)c(-c4ccccc4)c4nc(c(-c5ccccc5)c5ccc2[nH]5)C=C4)C=C3)cc1)C(=O)C(C)(C)[NH2+]CC
REMARK SMILES IDX 10 1 9 2 8 3 6 4 7 5 5 7 4 8 3 9 2 10 1 11 66 12 67 13 68 14
REMARK SMILES IDX 69 15 70 16 71 17 72 20 73 21 11 22 12 23 13 24 14 25 15 26
REMARK SMILES IDX 16 27 17 29 18 30 19 31 65 32 20 33 64 34 21 35 22 36 23 37
REMARK SMILES IDX 58 38 24 39 63 40 57 41 59 42 25 43 62 44 56 45 55 46 26 48
REMARK SMILES IDX 48 49 33 50 47 51 34 52 37 53 46 54 60 55 35 56 36 57 45 59
REMARK SMILES IDX 61 60 38 61 27 62 28 63 32 64 29 65 31 66 30 67 49 68 50 69
REMARK SMILES IDX 54 70 51 71 53 72 52 73 39 74 40 75 44 76 41 77 43 78 42 79
REMARK H PARENT 8 6 71 18 71 19 15 28 59 47 37 58
REMARK Flexibility Score: inf
ROOT
ATOM      1  C   UNL A   1      37.180  22.299  25.091  1.00  0.00     0.021 C 
ENDROOT
BRANCH   1   2
ATOM      2  C   UNL A   1      35.725  22.663  25.380  1.00  0.00     0.116 C 
BRANCH   2   3
ATOM      3  N   UNL A   1      35.394  24.023  25.020  1.00  0.00    -0.355 N 
ATOM      4  C   UNL A   1      34.303  24.777  25.336  1.00  0.00     0.239 C 
ATOM      5  O   UNL A   1      34.378  25.992  25.124  1.00  0.00    -0.273 OA
ATOM      6  H   UNL A   1      36.062  24.477  24.457  1.00  0.00     0.163 HD
BRANCH   4   7
ATOM      7  C   UNL A   1      33.077  24.193  26.056  1.00  0.00     0.220 C 
BRANCH   7   8
ATOM      8  N   UNL A   1      31.762  24.544  25.516  1.00  0.00    -0.317 N 
BRANCH   8   9
ATOM      9  C   UNL A   1      31.070  23.492  24.770  1.00  0.00     0.210 C 
BRANCH   9  10
ATOM     10  C   UNL A   1      31.989  22.786  23.786  1.00  0.00    -0.085 C 
ATOM     11  C   UNL A   1      32.777  22.180  22.942  1.00  0.00     0.006 C 
ENDBRANCH   9  10
ENDBRANCH   8   9
BRANCH   8  12
ATOM     12  C   UNL A   1      31.089  25.762  25.647  1.00  0.00     0.284 C 
ATOM     13  O   UNL A   1      30.474  25.966  26.706  1.00  0.00    -0.268 OA
BRANCH  12  14
ATOM     14  C   UNL A   1      30.998  26.844  24.484  1.00  0.00     0.170 C 
ATOM     15  C   UNL A   1      29.656  26.981  23.761  1.00  0.00     0.090 C 
ATOM     16  C   UNL A   1      31.405  28.205  25.081  1.00  0.00     0.090 C 
BRANCH  14  17
ATOM     17  N   UNL A   1      32.057  26.588  23.457  1.00  0.00    -0.334 N 
ATOM     18  H   UNL A   1      32.710  25.917  23.861  1.00  0.00     0.347 HD
ATOM     19  H   UNL A   1      32.430  27.515  23.251  1.00  0.00     0.347 HD
BRANCH  17  20
ATOM     20  C   UNL A   1      31.660  26.069  22.152  1.00  0.00     0.257 C 
ATOM     21  C   UNL A   1      32.807  25.578  21.280  1.00  0.00     0.071 C 
ENDBRANCH  17  20
ENDBRANCH  14  17
ENDBRANCH  12  14
ENDBRANCH   8  12
ENDBRANCH   7   8
ENDBRANCH   4   7
ENDBRANCH   2   3
ENDBRANCH   1   2
BRANCH   1  22
ATOM     22  C   UNL A   1      38.216  23.040  25.943  1.00  0.00     0.002 C 
BRANCH  22  23
ATOM     23  C   UNL A   1      39.356  22.180  26.500  1.00  0.00     0.002 C 
BRANCH  23  24
ATOM     24  C   UNL A   1      39.629  20.871  25.752  1.00  0.00     0.021 C 
BRANCH  24  25
ATOM     25  C   UNL A   1      40.366  19.802  26.555  1.00  0.00     0.116 C 
BRANCH  25  26
ATOM     26  N   UNL A   1      41.660  19.477  25.980  1.00  0.00    -0.352 N 
ATOM     27  C   UNL A   1      42.753  20.272  25.750  1.00  0.00     0.251 C 
ATOM     28  H   UNL A   1      41.771  18.536  25.712  1.00  0.00     0.163 HD
ATOM     29  O   UNL A   1      43.688  19.836  25.075  1.00  0.00    -0.269 OA
BRANCH  27  30
ATOM     30  C   UNL A   1      42.824  21.652  26.281  1.00  0.00     0.039 A 
ATOM     31  C   UNL A   1      42.776  21.835  27.666  1.00  0.00     0.014 A 
ATOM     32  C   UNL A   1      42.885  22.764  25.435  1.00  0.00     0.014 A 
ATOM     33  C   UNL A   1      42.845  23.123  28.204  1.00  0.00     0.010 A 
ATOM     34  C   UNL A   1      43.018  24.046  25.975  1.00  0.00     0.010 A 
ATOM     35  C   UNL A   1      42.995  24.237  27.363  1.00  0.00    -0.014 A 
BRANCH  35  36
ATOM     36  C   UNL A   1      43.160  25.595  27.940  1.00  0.00     0.031 A 
ATOM     37  C   UNL A   1      44.521  26.136  28.276  1.00  0.00     0.074 A 
ATOM     38  C   UNL A   1      42.066  26.334  28.203  1.00  0.00     0.049 A 
ATOM     39  N   UNL A   1      44.846  27.319  28.739  1.00  0.00    -0.248 NA
ATOM     40  C   UNL A   1      45.663  25.228  28.094  1.00  0.00     0.031 C 
ATOM     41  C   UNL A   1      40.683  25.901  27.992  1.00  0.00     0.029 A 
ATOM     42  N   UNL A   1      41.945  27.606  28.704  1.00  0.00    -0.354 N 
ATOM     43  C   UNL A   1      46.223  27.291  28.915  1.00  0.00     0.074 A 
ATOM     44  C   UNL A   1      46.666  25.961  28.554  1.00  0.00     0.031 C 
ATOM     45  C   UNL A   1      39.855  26.901  28.330  1.00  0.00     0.029 A 
ATOM     46  C   UNL A   1      40.644  28.035  28.798  1.00  0.00     0.049 A 
ATOM     47  H   UNL A   1      42.717  28.157  28.968  1.00  0.00     0.167 HD
ATOM     48  C   UNL A   1      47.049  28.285  29.325  1.00  0.00     0.031 A 
ATOM     49  C   UNL A   1      40.140  29.215  29.205  1.00  0.00     0.031 A 
ATOM     50  C   UNL A   1      46.613  29.610  29.681  1.00  0.00     0.049 A 
ATOM     51  C   UNL A   1      41.072  30.316  29.615  1.00  0.00     0.074 A 
ATOM     52  C   UNL A   1      47.381  30.707  30.034  1.00  0.00     0.029 A 
ATOM     53  N   UNL A   1      45.289  30.014  29.742  1.00  0.00    -0.354 N 
ATOM     54  N   UNL A   1      42.382  30.306  29.679  1.00  0.00    -0.248 NA
ATOM     55  C   UNL A   1      40.457  31.597  29.986  1.00  0.00     0.031 C 
ATOM     56  C   UNL A   1      46.517  31.763  30.353  1.00  0.00     0.029 A 
ATOM     57  C   UNL A   1      45.214  31.336  30.151  1.00  0.00     0.049 A 
ATOM     58  H   UNL A   1      44.514  29.446  29.526  1.00  0.00     0.167 HD
ATOM     59  C   UNL A   1      42.749  31.582  30.084  1.00  0.00     0.074 A 
ATOM     60  C   UNL A   1      41.524  32.345  30.228  1.00  0.00     0.031 C 
ATOM     61  C   UNL A   1      43.989  32.077  30.315  1.00  0.00     0.031 A 
BRANCH  48  62
ATOM     62  C   UNL A   1      48.515  27.962  29.419  1.00  0.00    -0.014 A 
ATOM     63  C   UNL A   1      49.374  28.146  28.323  1.00  0.00     0.009 A 
ATOM     64  C   UNL A   1      49.047  27.478  30.625  1.00  0.00     0.009 A 
ATOM     65  C   UNL A   1      50.725  27.805  28.418  1.00  0.00     0.001 A 
ATOM     66  C   UNL A   1      50.405  27.165  30.724  1.00  0.00     0.001 A 
ATOM     67  C   UNL A   1      51.239  27.317  29.619  1.00  0.00     0.000 A 
ENDBRANCH  48  62
BRANCH  49  68
ATOM     68  C   UNL A   1      38.669  29.418  29.199  1.00  0.00    -0.014 A 
ATOM     69  C   UNL A   1      37.924  29.241  30.374  1.00  0.00     0.009 A 
ATOM     70  C   UNL A   1      38.012  29.828  28.029  1.00  0.00     0.009 A 
ATOM     71  C   UNL A   1      36.545  29.457  30.374  1.00  0.00     0.001 A 
ATOM     72  C   UNL A   1      36.636  30.066  28.038  1.00  0.00     0.001 A 
ATOM     73  C   UNL A   1      35.903  29.876  29.208  1.00  0.00     0.000 A 
ENDBRANCH  49  68
BRANCH  61  74
ATOM     74  C   UNL A   1      44.077  33.514  30.745  1.00  0.00    -0.014 A 
ATOM     75  C   UNL A   1      44.170  34.550  29.802  1.00  0.00     0.009 A 
ATOM     76  C   UNL A   1      44.057  33.837  32.110  1.00  0.00     0.009 A 
ATOM     77  C   UNL A   1      44.280  35.877  30.220  1.00  0.00     0.001 A 
ATOM     78  C   UNL A   1      44.141  35.168  32.524  1.00  0.00     0.001 A 
ATOM     79  C   UNL A   1      44.265  36.185  31.579  1.00  0.00     0.000 A 
ENDBRANCH  61  74
ENDBRANCH  35  36
ENDBRANCH  27  30
ENDBRANCH  25  26
ENDBRANCH  24  25
ENDBRANCH  23  24
ENDBRANCH  22  23
ENDBRANCH   1  22
TORSDOF 20
ENDMDL
MODEL 2
REMARK VINA RESULT:      -8.3      0.849      6.093
REMARK SMILES C#CCN(CC(=O)NCCCCCCNC(=O)c1ccc(-c2c3nc(c(-c4ccccc4)c4ccc([nH]4)c(-c4ccccc4)c4nc(c(-c5ccccc5)c5ccc2[nH]5)C=C4)C=C3)cc1)C(=O)C(C)(C)[NH2+]CC
REMARK SMILES IDX 10 1 9 2 8 3 6 4 7 5 5 7 4 8 3 9 2 10 1 11 66 12 67 13 68 14
REMARK SMILES IDX 69 15 70 16 71 17 72 20 73 21 11 22 12 23 13 24 14 25 15 26
REMARK SMILES IDX 16 27 17 29 18 30 19 31 65 32 20 33 64 34 21 35 22 36 23 37
REMARK SMILES IDX 58 38 24 39 63 40 57 41 59 42 25 43 62 44 56 45 55 46 26 48
REMARK SMILES IDX 48 49 33 50 47 51 34 52 37 53 46 54 60 55 35 56 36 57 45 59
REMARK SMILES IDX 61 60 38 61 27 62 28 63 32 64 29 65 31 66 30 67 49 68 50 69
REMARK SMILES IDX 54 70 51 71 53 72 52 73 39 74 40 75 44 76 41 77 43 78 42 79
REMARK H PARENT 8 6 71 18 71 19 15 28 59 47 37 58
REMARK Flexibility Score: inf
ROOT
ATOM      1  C   UNL A   1      37.470  22.717  25.486  1.00  0.00     0.021 C 
ENDROOT
BRANCH   1   2
ATOM      2  C   UNL A   1      36.049  23.151  25.840  1.00  0.00     0.116 C 
BRANCH   2   3
ATOM      3  N   UNL A   1      35.457  24.024  24.851  1.00  0.00    -0.355 N 
ATOM      4  C   UNL A   1      34.344  24.808  24.924  1.00  0.00     0.239 C 
ATOM      5  O   UNL A   1      34.194  25.658  24.039  1.00  0.00    -0.273 OA
ATOM      6  H   UNL A   1      35.932  24.059  23.990  1.00  0.00     0.163 HD
BRANCH   4   7
ATOM      7  C   UNL A   1      33.376  24.758  26.117  1.00  0.00     0.220 C 
BRANCH   7   8
ATOM      8  N   UNL A   1      31.950  24.631  25.809  1.00  0.00    -0.317 N 
BRANCH   8   9
ATOM      9  C   UNL A   1      31.451  23.268  25.622  1.00  0.00     0.210 C 
BRANCH   9  10
ATOM     10  C   UNL A   1      30.296  22.945  26.556  1.00  0.00    -0.085 C 
ATOM     11  C   UNL A   1      29.306  22.668  27.358  1.00  0.00     0.006 C 
ENDBRANCH   9  10
ENDBRANCH   8   9
BRANCH   8  12
ATOM     12  C   UNL A   1      31.013  25.662  25.689  1.00  0.00     0.284 C 
ATOM     13  O   UNL A   1      30.397  25.998  26.714  1.00  0.00    -0.268 OA
BRANCH  12  14
ATOM     14  C   UNL A   1      30.636  26.350  24.304  1.00  0.00     0.170 C 
ATOM     15  C   UNL A   1      29.150  26.446  23.955  1.00  0.00     0.090 C 
ATOM     16  C   UNL A   1      31.261  27.758  24.300  1.00  0.00     0.090 C 
BRANCH  14  17
ATOM     17  N   UNL A   1      31.338  25.658  23.177  1.00  0.00    -0.334 N 
ATOM     18  H   UNL A   1      30.821  24.800  22.984  1.00  0.00     0.347 HD
ATOM     19  H   UNL A   1      32.294  25.544  23.514  1.00  0.00     0.347 HD
BRANCH  17  20
ATOM     20  C   UNL A   1      31.491  26.361  21.907  1.00  0.00     0.257 C 
ATOM     21  C   UNL A   1      32.481  25.728  20.938  1.00  0.00     0.071 C 
ENDBRANCH  17  20
ENDBRANCH  14  17
ENDBRANCH  12  14
ENDBRANCH   8  12
ENDBRANCH   7   8
ENDBRANCH   4   7
ENDBRANCH   2   3
ENDBRANCH   1   2
BRANCH   1  22
ATOM     22  C   UNL A   1      38.577  23.379  26.315  1.00  0.00     0.002 C 
BRANCH  22  23
ATOM     23  C   UNL A   1      39.667  22.438  26.841  1.00  0.00     0.002 C 
BRANCH  23  24
ATOM     24  C   UNL A   1      39.859  21.136  26.055  1.00  0.00     0.021 C 
BRANCH  24  25
ATOM     25  C   UNL A   1      40.682  20.063  26.763  1.00  0.00     0.116 C 
BRANCH  25  26
ATOM     26  N   UNL A   1      41.910  19.754  26.051  1.00  0.00    -0.352 N 
ATOM     27  C   UNL A   1      42.936  20.574  25.658  1.00  0.00     0.251 C 
ATOM     28  H   UNL A   1      42.024  18.807  25.811  1.00  0.00     0.163 HD
ATOM     29  O   UNL A   1      43.801  20.138  24.895  1.00  0.00    -0.269 OA
BRANCH  27  30
ATOM     30  C   UNL A   1      43.017  21.978  26.118  1.00  0.00     0.039 A 
ATOM     31  C   UNL A   1      43.148  22.224  27.488  1.00  0.00     0.014 A 
ATOM     32  C   UNL A   1      42.915  23.052  25.227  1.00  0.00     0.014 A 
ATOM     33  C   UNL A   1      43.232  23.536  27.958  1.00  0.00     0.010 A 
ATOM     34  C   UNL A   1      43.062  24.361  25.691  1.00  0.00     0.010 A 
ATOM     35  C   UNL A   1      43.218  24.616  27.060  1.00  0.00    -0.014 A 
BRANCH  35  36
ATOM     36  C   UNL A   1      43.398  26.004  27.554  1.00  0.00     0.031 A 
ATOM     37  C   UNL A   1      42.219  26.848  27.948  1.00  0.00     0.074 A 
ATOM     38  C   UNL A   1      44.639  26.525  27.609  1.00  0.00     0.049 A 
ATOM     39  N   UNL A   1      42.203  28.060  28.446  1.00  0.00    -0.248 NA
ATOM     40  C   UNL A   1      40.885  26.269  27.733  1.00  0.00     0.031 C 
ATOM     41  C   UNL A   1      45.863  25.840  27.190  1.00  0.00     0.029 A 
ATOM     42  N   UNL A   1      45.074  27.752  28.043  1.00  0.00    -0.354 N 
ATOM     43  C   UNL A   1      40.862  28.392  28.590  1.00  0.00     0.074 A 
ATOM     44  C   UNL A   1      40.095  27.274  28.085  1.00  0.00     0.031 C 
ATOM     45  C   UNL A   1      46.913  26.643  27.416  1.00  0.00     0.029 A 
ATOM     46  C   UNL A   1      46.437  27.903  27.977  1.00  0.00     0.049 A 
ATOM     47  H   UNL A   1      44.468  28.454  28.372  1.00  0.00     0.167 HD
ATOM     48  C   UNL A   1      40.316  29.518  29.110  1.00  0.00     0.031 A 
ATOM     49  C   UNL A   1      47.221  28.935  28.339  1.00  0.00     0.031 A 
ATOM     50  C   UNL A   1      41.076  30.632  29.617  1.00  0.00     0.049 A 
ATOM     51  C   UNL A   1      46.601  30.156  28.952  1.00  0.00     0.074 A 
ATOM     52  C   UNL A   1      40.615  31.783  30.235  1.00  0.00     0.029 A 
ATOM     53  N   UNL A   1      42.456  30.738  29.555  1.00  0.00    -0.354 N 
ATOM     54  N   UNL A   1      45.335  30.413  29.175  1.00  0.00    -0.248 NA
ATOM     55  C   UNL A   1      47.521  31.218  29.382  1.00  0.00     0.031 C 
ATOM     56  C   UNL A   1      41.715  32.607  30.504  1.00  0.00     0.029 A 
ATOM     57  C   UNL A   1      42.864  31.946  30.098  1.00  0.00     0.049 A 
ATOM     58  H   UNL A   1      43.058  30.055  29.180  1.00  0.00     0.167 HD
ATOM     59  C   UNL A   1      45.306  31.660  29.785  1.00  0.00     0.074 A 
ATOM     60  C   UNL A   1      46.683  32.095  29.916  1.00  0.00     0.031 C 
ATOM     61  C   UNL A   1      44.234  32.379  30.200  1.00  0.00     0.031 A 
BRANCH  48  62
ATOM     62  C   UNL A   1      38.815  29.600  29.143  1.00  0.00    -0.014 A 
ATOM     63  C   UNL A   1      38.093  29.300  30.310  1.00  0.00     0.009 A 
ATOM     64  C   UNL A   1      38.112  29.992  27.992  1.00  0.00     0.009 A 
ATOM     65  C   UNL A   1      36.697  29.345  30.310  1.00  0.00     0.001 A 
ATOM     66  C   UNL A   1      36.717  30.064  28.005  1.00  0.00     0.001 A 
ATOM     67  C   UNL A   1      36.011  29.728  29.158  1.00  0.00     0.000 A 
ENDBRANCH  48  62
BRANCH  49  68
ATOM     68  C   UNL A   1      48.691  28.828  28.164  1.00  0.00    -0.014 A 
ATOM     69  C   UNL A   1      49.301  29.283  26.985  1.00  0.00     0.009 A 
ATOM     70  C   UNL A   1      49.494  28.308  29.190  1.00  0.00     0.009 A 
ATOM     71  C   UNL A   1      50.686  29.205  26.831  1.00  0.00     0.001 A 
ATOM     72  C   UNL A   1      50.882  28.254  29.044  1.00  0.00     0.001 A 
ATOM     73  C   UNL A   1      51.476  28.698  27.863  1.00  0.00     0.000 A 
ENDBRANCH  49  68
BRANCH  61  74
ATOM     74  C   UNL A   1      44.516  33.710  30.837  1.00  0.00    -0.014 A 
ATOM     75  C   UNL A   1      44.754  33.820  32.217  1.00  0.00     0.009 A 
ATOM     76  C   UNL A   1      44.555  34.868  30.046  1.00  0.00     0.009 A 
ATOM     77  C   UNL A   1      44.984  35.068  32.796  1.00  0.00     0.001 A 
ATOM     78  C   UNL A   1      44.813  36.113  30.625  1.00  0.00     0.001 A 
ATOM     79  C   UNL A   1      45.015  36.213  32.001  1.00  0.00     0.000 A 
ENDBRANCH  61  74
ENDBRANCH  35  36
ENDBRANCH  27  30
ENDBRANCH  25  26
ENDBRANCH  24  25
ENDBRANCH  23  24
ENDBRANCH  22  23
ENDBRANCH   1  22
TORSDOF 20
ENDMDL
MODEL 3
REMARK VINA RESULT:      -8.3      2.401      8.297
REMARK SMILES C#CCN(CC(=O)NCCCCCCNC(=O)c1ccc(-c2c3nc(c(-c4ccccc4)c4ccc([nH]4)c(-c4ccccc4)c4nc(c(-c5ccccc5)c5ccc2[nH]5)C=C4)C=C3)cc1)C(=O)C(C)(C)[NH2+]CC
REMARK SMILES IDX 10 1 9 2 8 3 6 4 7 5 5 7 4 8 3 9 2 10 1 11 66 12 67 13 68 14
REMARK SMILES IDX 69 15 70 16 71 17 72 20 73 21 11 22 12 23 13 24 14 25 15 26
REMARK SMILES IDX 16 27 17 29 18 30 19 31 65 32 20 33 64 34 21 35 22 36 23 37
REMARK SMILES IDX 58 38 24 39 63 40 57 41 59 42 25 43 62 44 56 45 55 46 26 48
REMARK SMILES IDX 48 49 33 50 47 51 34 52 37 53 46 54 60 55 35 56 36 57 45 59
REMARK SMILES IDX 61 60 38 61 27 62 28 63 32 64 29 65 31 66 30 67 49 68 50 69
REMARK SMILES IDX 54 70 51 71 53 72 52 73 39 74 40 75 44 76 41 77 43 78 42 79
REMARK H PARENT 8 6 71 18 71 19 15 28 59 47 37 58
REMARK Flexibility Score: inf
ROOT
ATOM      1  C   UNL A   1      31.739  30.068  25.208  1.00  0.00     0.021 C 
ENDROOT
BRANCH   1   2
ATOM      2  C   UNL A   1      31.487  28.892  24.267  1.00  0.00     0.116 C 
BRANCH   2   3
ATOM      3  N   UNL A   1      32.510  28.738  23.258  1.00  0.00    -0.355 N 
ATOM      4  C   UNL A   1      33.365  27.703  23.021  1.00  0.00     0.239 C 
ATOM      5  O   UNL A   1      33.966  27.703  21.941  1.00  0.00    -0.273 OA
ATOM      6  H   UNL A   1      32.606  29.502  22.644  1.00  0.00     0.163 HD
BRANCH   4   7
ATOM      7  C   UNL A   1      33.488  26.501  23.971  1.00  0.00     0.220 C 
BRANCH   7   8
ATOM      8  N   UNL A   1      32.936  25.227  23.506  1.00  0.00    -0.317 N 
BRANCH   8   9
ATOM      9  C   UNL A   1      31.503  25.218  23.209  1.00  0.00     0.210 C 
BRANCH   9  10
ATOM     10  C   UNL A   1      30.657  25.472  24.446  1.00  0.00    -0.085 C 
ATOM     11  C   UNL A   1      29.932  25.691  25.508  1.00  0.00     0.006 C 
ENDBRANCH   9  10
ENDBRANCH   8   9
BRANCH   8  12
ATOM     12  C   UNL A   1      33.625  24.029  23.299  1.00  0.00     0.284 C 
ATOM     13  O   UNL A   1      34.433  23.988  22.357  1.00  0.00    -0.268 OA
BRANCH  12  14
ATOM     14  C   UNL A   1      33.359  22.706  24.143  1.00  0.00     0.170 C 
ATOM     15  C   UNL A   1      32.278  21.755  23.628  1.00  0.00     0.090 C 
ATOM     16  C   UNL A   1      34.698  21.954  24.261  1.00  0.00     0.090 C 
BRANCH  14  17
ATOM     17  N   UNL A   1      33.035  23.057  25.563  1.00  0.00    -0.334 N 
ATOM     18  H   UNL A   1      32.420  22.325  25.919  1.00  0.00     0.347 HD
ATOM     19  H   UNL A   1      32.634  23.993  25.500  1.00  0.00     0.347 HD
BRANCH  17  20
ATOM     20  C   UNL A   1      34.128  23.202  26.518  1.00  0.00     0.257 C 
ATOM     21  C   UNL A   1      34.059  22.269  27.720  1.00  0.00     0.071 C 
ENDBRANCH  17  20
ENDBRANCH  14  17
ENDBRANCH  12  14
ENDBRANCH   8  12
ENDBRANCH   7   8
ENDBRANCH   4   7
ENDBRANCH   2   3
ENDBRANCH   1   2
BRANCH   1  22
ATOM     22  C   UNL A   1      32.031  29.684  26.663  1.00  0.00     0.002 C 
BRANCH  22  23
ATOM     23  C   UNL A   1      33.155  28.661  26.868  1.00  0.00     0.002 C 
BRANCH  23  24
ATOM     24  C   UNL A   1      34.373  29.159  27.652  1.00  0.00     0.021 C 
BRANCH  24  25
ATOM     25  C   UNL A   1      34.604  30.667  27.610  1.00  0.00     0.116 C 
BRANCH  25  26
ATOM     26  N   UNL A   1      34.601  31.261  28.936  1.00  0.00    -0.352 N 
ATOM     27  C   UNL A   1      35.519  31.168  29.950  1.00  0.00     0.251 C 
ATOM     28  H   UNL A   1      33.816  31.818  29.140  1.00  0.00     0.163 HD
ATOM     29  O   UNL A   1      35.230  31.599  31.069  1.00  0.00    -0.269 OA
BRANCH  27  30
ATOM     30  C   UNL A   1      36.843  30.544  29.734  1.00  0.00     0.039 A 
ATOM     31  C   UNL A   1      37.469  30.723  28.496  1.00  0.00     0.014 A 
ATOM     32  C   UNL A   1      37.449  29.746  30.709  1.00  0.00     0.014 A 
ATOM     33  C   UNL A   1      38.721  30.153  28.257  1.00  0.00     0.010 A 
ATOM     34  C   UNL A   1      38.729  29.229  30.493  1.00  0.00     0.010 A 
ATOM     35  C   UNL A   1      39.375  29.424  29.264  1.00  0.00    -0.014 A 
BRANCH  35  36
ATOM     36  C   UNL A   1      40.744  28.896  29.039  1.00  0.00     0.031 A 
ATOM     37  C   UNL A   1      40.966  27.472  28.613  1.00  0.00     0.074 A 
ATOM     38  C   UNL A   1      41.801  29.698  29.260  1.00  0.00     0.049 A 
ATOM     39  N   UNL A   1      42.092  26.865  28.324  1.00  0.00    -0.248 NA
ATOM     40  C   UNL A   1      39.779  26.610  28.523  1.00  0.00     0.031 C 
ATOM     41  C   UNL A   1      41.728  31.078  29.744  1.00  0.00     0.029 A 
ATOM     42  N   UNL A   1      43.145  29.469  29.106  1.00  0.00    -0.354 N 
ATOM     43  C   UNL A   1      41.750  25.551  28.033  1.00  0.00     0.074 A 
ATOM     44  C   UNL A   1      40.319  25.437  28.224  1.00  0.00     0.031 C 
ATOM     45  C   UNL A   1      42.970  31.582  29.816  1.00  0.00     0.029 A 
ATOM     46  C   UNL A   1      43.924  30.560  29.404  1.00  0.00     0.049 A 
ATOM     47  H   UNL A   1      43.515  28.606  28.808  1.00  0.00     0.167 HD
ATOM     48  C   UNL A   1      42.548  24.534  27.627  1.00  0.00     0.031 A 
ATOM     49  C   UNL A   1      45.258  30.725  29.341  1.00  0.00     0.031 A 
ATOM     50  C   UNL A   1      43.970  24.644  27.433  1.00  0.00     0.049 A 
ATOM     51  C   UNL A   1      46.121  29.600  28.850  1.00  0.00     0.074 A 
ATOM     52  C   UNL A   1      44.853  23.692  26.950  1.00  0.00     0.029 A 
ATOM     53  N   UNL A   1      44.721  25.772  27.723  1.00  0.00    -0.354 N 
ATOM     54  N   UNL A   1      45.769  28.392  28.480  1.00  0.00    -0.248 NA
ATOM     55  C   UNL A   1      47.561  29.871  28.747  1.00  0.00     0.031 C 
ATOM     56  C   UNL A   1      46.145  24.231  26.992  1.00  0.00     0.029 A 
ATOM     57  C   UNL A   1      46.059  25.534  27.454  1.00  0.00     0.049 A 
ATOM     58  H   UNL A   1      44.356  26.619  28.068  1.00  0.00     0.167 HD
ATOM     59  C   UNL A   1      46.942  27.762  28.087  1.00  0.00     0.074 A 
ATOM     60  C   UNL A   1      48.010  28.730  28.242  1.00  0.00     0.031 C 
ATOM     61  C   UNL A   1      47.117  26.495  27.636  1.00  0.00     0.031 A 
BRANCH  48  62
ATOM     62  C   UNL A   1      41.891  23.204  27.379  1.00  0.00    -0.014 A 
ATOM     63  C   UNL A   1      41.005  23.017  26.305  1.00  0.00     0.009 A 
ATOM     64  C   UNL A   1      42.169  22.119  28.226  1.00  0.00     0.009 A 
ATOM     65  C   UNL A   1      40.375  21.786  26.113  1.00  0.00     0.001 A 
ATOM     66  C   UNL A   1      41.559  20.881  28.013  1.00  0.00     0.001 A 
ATOM     67  C   UNL A   1      40.654  20.719  26.966  1.00  0.00     0.000 A 
ENDBRANCH  48  62
BRANCH  49  68
ATOM     68  C   UNL A   1      45.848  32.033  29.720  1.00  0.00    -0.014 A 
ATOM     69  C   UNL A   1      45.918  33.077  28.785  1.00  0.00     0.009 A 
ATOM     70  C   UNL A   1      46.307  32.256  31.027  1.00  0.00     0.009 A 
ATOM     71  C   UNL A   1      46.450  34.315  29.149  1.00  0.00     0.001 A 
ATOM     72  C   UNL A   1      46.816  33.503  31.395  1.00  0.00     0.001 A 
ATOM     73  C   UNL A   1      46.892  34.530  30.455  1.00  0.00     0.000 A 
ENDBRANCH  49  68
BRANCH  61  74
ATOM     74  C   UNL A   1      48.518  26.091  27.278  1.00  0.00    -0.014 A 
ATOM     75  C   UNL A   1      49.364  25.485  28.221  1.00  0.00     0.009 A 
ATOM     76  C   UNL A   1      48.997  26.308  25.977  1.00  0.00     0.009 A 
ATOM     77  C   UNL A   1      50.673  25.143  27.879  1.00  0.00     0.001 A 
ATOM     78  C   UNL A   1      50.298  25.940  25.631  1.00  0.00     0.001 A 
ATOM     79  C   UNL A   1      51.139  25.369  26.585  1.00  0.00     0.000 A 
ENDBRANCH  61  74
ENDBRANCH  35  36
ENDBRANCH  27  30
ENDBRANCH  25  26
ENDBRANCH  24  25
ENDBRANCH  23  24
ENDBRANCH  22  23
ENDBRANCH   1  22
TORSDOF 20
ENDMDL
