MODEL 1
REMARK VINA RESULT:      -9.9      0.000      0.000
REMARK SMILES O=C(NCCCCCCNC(=O)[C@H]1CC[C@@H](CNc2ncccn2)O1)c1ccc(-c2c3nc(c(-c4ccccc4)c4ccc([nH]4)c(-c4ccccc4)c4nc(c(-c5ccccc5)c5ccc2[nH]5)C=C4)C=C3)cc1
REMARK SMILES IDX 7 1 6 2 5 3 4 4 3 5 1 6 2 7 26 9 27 10 73 11 28 12 72 13
REMARK SMILES IDX 29 14 30 15 31 16 66 17 32 18 71 19 65 20 67 21 33 22 70 23
REMARK SMILES IDX 64 24 63 25 34 27 56 28 41 29 55 30 42 31 45 32 54 33 68 34
REMARK SMILES IDX 43 35 44 36 53 38 69 39 46 40 35 41 36 42 40 43 37 44 39 45
REMARK SMILES IDX 38 46 57 47 58 48 62 49 59 50 61 51 60 52 47 53 48 54 52 55
REMARK SMILES IDX 49 56 51 57 50 58 8 59 9 60 10 61 11 62 12 64 13 65 14 66
REMARK SMILES IDX 25 67 15 68 16 69 17 70 18 71 19 73 20 74 24 75 21 76 23 77
REMARK SMILES IDX 22 78
REMARK H PARENT 3 8 67 26 45 37 10 63 18 72
REMARK Flexibility Score: inf
ROOT
ATOM      1  C   UNL A   1      34.987  33.050  28.949  1.00  0.00     0.002 C 
ENDROOT
BRANCH   1   2
ATOM      2  C   UNL A   1      35.316  34.535  28.762  1.00  0.00     0.002 C 
BRANCH   2   3
ATOM      3  C   UNL A   1      34.146  35.493  28.987  1.00  0.00     0.021 C 
BRANCH   3   4
ATOM      4  C   UNL A   1      32.935  34.869  29.669  1.00  0.00     0.116 C 
BRANCH   4   5
ATOM      5  N   UNL A   1      32.409  35.701  30.740  1.00  0.00    -0.352 N 
ATOM      6  O   UNL A   1      32.129  36.407  32.867  1.00  0.00    -0.269 OA
ATOM      7  C   UNL A   1      32.794  35.767  32.057  1.00  0.00     0.251 C 
ATOM      8  H   UNL A   1      31.673  36.302  30.484  1.00  0.00     0.163 HD
BRANCH   7   9
ATOM      9  C   UNL A   1      34.002  35.042  32.506  1.00  0.00     0.039 A 
ATOM     10  C   UNL A   1      35.259  35.649  32.451  1.00  0.00     0.014 A 
ATOM     11  C   UNL A   1      33.872  33.737  32.988  1.00  0.00     0.014 A 
ATOM     12  C   UNL A   1      36.397  34.903  32.736  1.00  0.00     0.010 A 
ATOM     13  C   UNL A   1      35.012  33.016  33.353  1.00  0.00     0.010 A 
ATOM     14  C   UNL A   1      36.287  33.581  33.195  1.00  0.00    -0.014 A 
BRANCH  14  15
ATOM     15  C   UNL A   1      37.517  32.824  33.540  1.00  0.00     0.031 A 
ATOM     16  C   UNL A   1      38.119  31.839  32.578  1.00  0.00     0.074 A 
ATOM     17  C   UNL A   1      38.110  33.054  34.727  1.00  0.00     0.049 A 
ATOM     18  N   UNL A   1      39.212  31.127  32.705  1.00  0.00    -0.248 NA
ATOM     19  C   UNL A   1      37.403  31.616  31.313  1.00  0.00     0.031 C 
ATOM     20  C   UNL A   1      37.622  33.987  35.746  1.00  0.00     0.029 A 
ATOM     21  N   UNL A   1      39.263  32.544  35.266  1.00  0.00    -0.354 N 
ATOM     22  C   UNL A   1      39.301  30.355  31.554  1.00  0.00     0.074 A 
ATOM     23  C   UNL A   1      38.139  30.669  30.748  1.00  0.00     0.031 C 
ATOM     24  C   UNL A   1      38.499  34.025  36.761  1.00  0.00     0.029 A 
ATOM     25  C   UNL A   1      39.574  33.078  36.492  1.00  0.00     0.049 A 
ATOM     26  H   UNL A   1      39.813  31.862  34.819  1.00  0.00     0.167 HD
ATOM     27  C   UNL A   1      40.262  29.469  31.199  1.00  0.00     0.031 A 
ATOM     28  C   UNL A   1      40.608  32.831  37.317  1.00  0.00     0.031 A 
ATOM     29  C   UNL A   1      41.418  29.159  32.000  1.00  0.00     0.049 A 
ATOM     30  C   UNL A   1      41.643  31.824  36.912  1.00  0.00     0.074 A 
ATOM     31  C   UNL A   1      42.466  28.303  31.707  1.00  0.00     0.029 A 
ATOM     32  N   UNL A   1      41.673  29.686  33.255  1.00  0.00    -0.354 N 
ATOM     33  N   UNL A   1      41.731  31.131  35.802  1.00  0.00    -0.248 NA
ATOM     34  C   UNL A   1      42.723  31.568  37.873  1.00  0.00     0.031 C 
ATOM     35  C   UNL A   1      43.330  28.275  32.808  1.00  0.00     0.029 A 
ATOM     36  C   UNL A   1      42.849  29.157  33.762  1.00  0.00     0.049 A 
ATOM     37  H   UNL A   1      41.104  30.342  33.719  1.00  0.00     0.167 HD
ATOM     38  C   UNL A   1      42.887  30.374  35.921  1.00  0.00     0.074 A 
ATOM     39  C   UNL A   1      43.475  30.704  37.204  1.00  0.00     0.031 C 
ATOM     40  C   UNL A   1      43.418  29.489  35.043  1.00  0.00     0.031 A 
BRANCH  27  41
ATOM     41  C   UNL A   1      40.081  28.740  29.894  1.00  0.00    -0.014 A 
ATOM     42  C   UNL A   1      40.512  29.292  28.678  1.00  0.00     0.009 A 
ATOM     43  C   UNL A   1      39.492  27.465  29.888  1.00  0.00     0.009 A 
ATOM     44  C   UNL A   1      40.319  28.602  27.479  1.00  0.00     0.001 A 
ATOM     45  C   UNL A   1      39.325  26.765  28.691  1.00  0.00     0.001 A 
ATOM     46  C   UNL A   1      39.729  27.338  27.487  1.00  0.00     0.000 A 
ENDBRANCH  27  41
BRANCH  28  47
ATOM     47  C   UNL A   1      40.713  33.563  38.604  1.00  0.00    -0.014 A 
ATOM     48  C   UNL A   1      41.423  34.770  38.676  1.00  0.00     0.009 A 
ATOM     49  C   UNL A   1      40.082  33.073  39.758  1.00  0.00     0.009 A 
ATOM     50  C   UNL A   1      41.510  35.466  39.885  1.00  0.00     0.001 A 
ATOM     51  C   UNL A   1      40.148  33.784  40.957  1.00  0.00     0.001 A 
ATOM     52  C   UNL A   1      40.868  34.976  41.021  1.00  0.00     0.000 A 
ENDBRANCH  28  47
BRANCH  40  53
ATOM     53  C   UNL A   1      44.719  28.843  35.429  1.00  0.00    -0.014 A 
ATOM     54  C   UNL A   1      44.753  27.608  36.095  1.00  0.00     0.009 A 
ATOM     55  C   UNL A   1      45.929  29.475  35.102  1.00  0.00     0.009 A 
ATOM     56  C   UNL A   1      45.975  27.038  36.458  1.00  0.00     0.001 A 
ATOM     57  C   UNL A   1      47.148  28.888  35.441  1.00  0.00     0.001 A 
ATOM     58  C   UNL A   1      47.170  27.675  36.128  1.00  0.00     0.000 A 
ENDBRANCH  40  53
ENDBRANCH  14  15
ENDBRANCH   7   9
ENDBRANCH   4   5
ENDBRANCH   3   4
ENDBRANCH   2   3
ENDBRANCH   1   2
BRANCH   1  59
ATOM     59  C   UNL A   1      35.755  32.083  28.035  1.00  0.00     0.021 C 
BRANCH  59  60
ATOM     60  C   UNL A   1      35.124  30.696  27.912  1.00  0.00     0.116 C 
BRANCH  60  61
ATOM     61  N   UNL A   1      33.697  30.792  27.687  1.00  0.00    -0.354 N 
ATOM     62  C   UNL A   1      32.936  30.168  26.741  1.00  0.00     0.249 C 
ATOM     63  H   UNL A   1      33.208  31.387  28.301  1.00  0.00     0.163 HD
ATOM     64  O   UNL A   1      31.739  30.454  26.687  1.00  0.00    -0.272 OA
BRANCH  62  65
ATOM     65  C   UNL A   1      33.586  29.087  25.847  1.00  0.00     0.207 C 
ATOM     66  C   UNL A   1      33.118  27.687  26.216  1.00  0.00     0.045 C 
ATOM     67  O   UNL A   1      33.269  29.255  24.454  1.00  0.00    -0.363 OA
ATOM     68  C   UNL A   1      31.912  27.525  25.326  1.00  0.00     0.037 C 
ATOM     69  C   UNL A   1      32.392  28.186  24.042  1.00  0.00     0.138 C 
BRANCH  69  70
ATOM     70  C   UNL A   1      31.288  28.732  23.121  1.00  0.00     0.148 C 
BRANCH  70  71
ATOM     71  N   UNL A   1      30.354  29.576  23.839  1.00  0.00    -0.352 N 
ATOM     72  H   UNL A   1      30.324  29.599  24.823  1.00  0.00     0.163 HD
BRANCH  71  73
ATOM     73  C   UNL A   1      29.511  30.347  23.069  1.00  0.00     0.222 A 
ATOM     74  N   UNL A   1      29.116  31.502  23.618  1.00  0.00    -0.222 NA
ATOM     75  N   UNL A   1      29.176  29.948  21.834  1.00  0.00    -0.222 NA
ATOM     76  C   UNL A   1      28.369  32.315  22.847  1.00  0.00     0.117 A 
ATOM     77  C   UNL A   1      28.395  30.775  21.117  1.00  0.00     0.117 A 
ATOM     78  C   UNL A   1      27.968  31.995  21.574  1.00  0.00     0.040 A 
ENDBRANCH  71  73
ENDBRANCH  70  71
ENDBRANCH  69  70
ENDBRANCH  62  65
ENDBRANCH  60  61
ENDBRANCH  59  60
ENDBRANCH   1  59
TORSDOF 16
ENDMDL
MODEL 2
REMARK VINA RESULT:      -9.8      5.052     10.068
REMARK SMILES O=C(NCCCCCCNC(=O)[C@H]1CC[C@@H](CNc2ncccn2)O1)c1ccc(-c2c3nc(c(-c4ccccc4)c4ccc([nH]4)c(-c4ccccc4)c4nc(c(-c5ccccc5)c5ccc2[nH]5)C=C4)C=C3)cc1
REMARK SMILES IDX 7 1 6 2 5 3 4 4 3 5 1 6 2 7 26 9 27 10 73 11 28 12 72 13
REMARK SMILES IDX 29 14 30 15 31 16 66 17 32 18 71 19 65 20 67 21 33 22 70 23
REMARK SMILES IDX 64 24 63 25 34 27 56 28 41 29 55 30 42 31 45 32 54 33 68 34
REMARK SMILES IDX 43 35 44 36 53 38 69 39 46 40 35 41 36 42 40 43 37 44 39 45
REMARK SMILES IDX 38 46 57 47 58 48 62 49 59 50 61 51 60 52 47 53 48 54 52 55
REMARK SMILES IDX 49 56 51 57 50 58 8 59 9 60 10 61 11 62 12 64 13 65 14 66
REMARK SMILES IDX 25 67 15 68 16 69 17 70 18 71 19 73 20 74 24 75 21 76 23 77
REMARK SMILES IDX 22 78
REMARK H PARENT 3 8 67 26 45 37 10 63 18 72
REMARK Flexibility Score: inf
ROOT
ATOM      1  C   UNL A   1      36.731  22.172  24.755  1.00  0.00     0.002 C 
ENDROOT
BRANCH   1   2
ATOM      2  C   UNL A   1      36.461  20.678  24.969  1.00  0.00     0.002 C 
BRANCH   2   3
ATOM      3  C   UNL A   1      37.698  19.780  24.923  1.00  0.00     0.021 C 
BRANCH   3   4
ATOM      4  C   UNL A   1      38.887  20.295  25.723  1.00  0.00     0.116 C 
BRANCH   4   5
ATOM      5  N   UNL A   1      39.993  19.350  25.746  1.00  0.00    -0.352 N 
ATOM      6  O   UNL A   1      42.148  18.687  25.867  1.00  0.00    -0.269 OA
ATOM      7  C   UNL A   1      41.312  19.565  26.062  1.00  0.00     0.251 C 
ATOM      8  H   UNL A   1      39.762  18.425  25.500  1.00  0.00     0.163 HD
BRANCH   7   9
ATOM      9  C   UNL A   1      41.731  20.871  26.615  1.00  0.00     0.039 A 
ATOM     10  C   UNL A   1      41.689  21.109  27.991  1.00  0.00     0.014 A 
ATOM     11  C   UNL A   1      42.170  21.870  25.742  1.00  0.00     0.014 A 
ATOM     12  C   UNL A   1      41.944  22.385  28.478  1.00  0.00     0.010 A 
ATOM     13  C   UNL A   1      42.505  23.131  26.244  1.00  0.00     0.010 A 
ATOM     14  C   UNL A   1      42.360  23.409  27.612  1.00  0.00    -0.014 A 
BRANCH  14  15
ATOM     15  C   UNL A   1      42.673  24.750  28.166  1.00  0.00     0.031 A 
ATOM     16  C   UNL A   1      44.084  25.145  28.500  1.00  0.00     0.074 A 
ATOM     17  C   UNL A   1      41.669  25.632  28.340  1.00  0.00     0.049 A 
ATOM     18  N   UNL A   1      44.534  26.290  28.951  1.00  0.00    -0.248 NA
ATOM     19  C   UNL A   1      45.126  24.124  28.312  1.00  0.00     0.031 C 
ATOM     20  C   UNL A   1      40.256  25.367  28.052  1.00  0.00     0.029 A 
ATOM     21  N   UNL A   1      41.683  26.932  28.775  1.00  0.00    -0.354 N 
ATOM     22  C   UNL A   1      45.902  26.121  29.126  1.00  0.00     0.074 A 
ATOM     23  C   UNL A   1      46.206  24.755  28.753  1.00  0.00     0.031 C 
ATOM     24  C   UNL A   1      39.550  26.488  28.262  1.00  0.00     0.029 A 
ATOM     25  C   UNL A   1      40.446  27.527  28.757  1.00  0.00     0.049 A 
ATOM     26  H   UNL A   1      42.500  27.393  29.071  1.00  0.00     0.167 HD
ATOM     27  C   UNL A   1      46.820  27.020  29.554  1.00  0.00     0.031 A 
ATOM     28  C   UNL A   1      40.068  28.770  29.106  1.00  0.00     0.031 A 
ATOM     29  C   UNL A   1      46.517  28.379  29.923  1.00  0.00     0.049 A 
ATOM     30  C   UNL A   1      41.100  29.736  29.604  1.00  0.00     0.074 A 
ATOM     31  C   UNL A   1      47.386  29.376  30.332  1.00  0.00     0.029 A 
ATOM     32  N   UNL A   1      45.245  28.928  29.935  1.00  0.00    -0.354 N 
ATOM     33  N   UNL A   1      42.395  29.570  29.727  1.00  0.00    -0.248 NA
ATOM     34  C   UNL A   1      40.618  31.062  30.009  1.00  0.00     0.031 C 
ATOM     35  C   UNL A   1      46.632  30.514  30.640  1.00  0.00     0.029 A 
ATOM     36  C   UNL A   1      45.301  30.243  30.368  1.00  0.00     0.049 A 
ATOM     37  H   UNL A   1      44.423  28.455  29.673  1.00  0.00     0.167 HD
ATOM     38  C   UNL A   1      42.887  30.778  30.200  1.00  0.00     0.074 A 
ATOM     39  C   UNL A   1      41.752  31.672  30.329  1.00  0.00     0.031 C 
ATOM     40  C   UNL A   1      44.164  31.118  30.498  1.00  0.00     0.031 A 
BRANCH  27  41
ATOM     41  C   UNL A   1      48.243  26.546  29.683  1.00  0.00    -0.014 A 
ATOM     42  C   UNL A   1      49.163  26.688  28.632  1.00  0.00     0.009 A 
ATOM     43  C   UNL A   1      48.675  25.970  30.888  1.00  0.00     0.009 A 
ATOM     44  C   UNL A   1      50.474  26.226  28.772  1.00  0.00     0.001 A 
ATOM     45  C   UNL A   1      49.994  25.534  31.035  1.00  0.00     0.001 A 
ATOM     46  C   UNL A   1      50.889  25.652  29.973  1.00  0.00     0.000 A 
ENDBRANCH  27  41
BRANCH  28  47
ATOM     47  C   UNL A   1      38.642  29.166  28.983  1.00  0.00    -0.014 A 
ATOM     48  C   UNL A   1      37.790  29.101  30.095  1.00  0.00     0.009 A 
ATOM     49  C   UNL A   1      38.135  29.637  27.762  1.00  0.00     0.009 A 
ATOM     50  C   UNL A   1      36.452  29.487  29.982  1.00  0.00     0.001 A 
ATOM     51  C   UNL A   1      36.805  30.047  27.659  1.00  0.00     0.001 A 
ATOM     52  C   UNL A   1      35.963  29.965  28.766  1.00  0.00     0.000 A 
ENDBRANCH  28  47
BRANCH  40  53
ATOM     53  C   UNL A   1      44.404  32.529  30.956  1.00  0.00    -0.014 A 
ATOM     54  C   UNL A   1      44.381  32.870  32.317  1.00  0.00     0.009 A 
ATOM     55  C   UNL A   1      44.677  33.528  30.008  1.00  0.00     0.009 A 
ATOM     56  C   UNL A   1      44.591  34.191  32.716  1.00  0.00     0.001 A 
ATOM     57  C   UNL A   1      44.914  34.842  30.412  1.00  0.00     0.001 A 
ATOM     58  C   UNL A   1      44.860  35.175  31.765  1.00  0.00     0.000 A 
ENDBRANCH  40  53
ENDBRANCH  14  15
ENDBRANCH   7   9
ENDBRANCH   4   5
ENDBRANCH   3   4
ENDBRANCH   2   3
ENDBRANCH   1   2
BRANCH   1  59
ATOM     59  C   UNL A   1      36.010  22.810  23.559  1.00  0.00     0.021 C 
BRANCH  59  60
ATOM     60  C   UNL A   1      34.662  23.446  23.902  1.00  0.00     0.116 C 
BRANCH  60  61
ATOM     61  N   UNL A   1      34.370  24.554  23.017  1.00  0.00    -0.354 N 
ATOM     62  C   UNL A   1      33.545  25.620  23.226  1.00  0.00     0.249 C 
ATOM     63  H   UNL A   1      34.829  24.536  22.146  1.00  0.00     0.163 HD
ATOM     64  O   UNL A   1      33.388  26.416  22.299  1.00  0.00    -0.272 OA
BRANCH  62  65
ATOM     65  C   UNL A   1      32.917  25.823  24.625  1.00  0.00     0.207 C 
ATOM     66  C   UNL A   1      33.901  26.444  25.605  1.00  0.00     0.045 C 
ATOM     67  O   UNL A   1      31.778  26.700  24.601  1.00  0.00    -0.363 OA
ATOM     68  C   UNL A   1      33.638  27.915  25.409  1.00  0.00     0.037 C 
ATOM     69  C   UNL A   1      32.124  27.936  25.259  1.00  0.00     0.138 C 
BRANCH  69  70
ATOM     70  C   UNL A   1      31.548  29.131  24.482  1.00  0.00     0.148 C 
BRANCH  70  71
ATOM     71  N   UNL A   1      30.497  28.725  23.570  1.00  0.00    -0.352 N 
ATOM     72  H   UNL A   1      30.371  27.785  23.305  1.00  0.00     0.163 HD
BRANCH  71  73
ATOM     73  C   UNL A   1      29.682  29.729  23.093  1.00  0.00     0.222 A 
ATOM     74  N   UNL A   1      29.167  29.528  21.873  1.00  0.00    -0.222 NA
ATOM     75  N   UNL A   1      29.410  30.795  23.858  1.00  0.00    -0.222 NA
ATOM     76  C   UNL A   1      28.293  30.451  21.426  1.00  0.00     0.117 A 
ATOM     77  C   UNL A   1      28.564  31.709  23.351  1.00  0.00     0.117 A 
ATOM     78  C   UNL A   1      27.955  31.579  22.130  1.00  0.00     0.040 A 
ENDBRANCH  71  73
ENDBRANCH  70  71
ENDBRANCH  69  70
ENDBRANCH  62  65
ENDBRANCH  60  61
ENDBRANCH  59  60
ENDBRANCH   1  59
TORSDOF 16
ENDMDL
MODEL 3
REMARK VINA RESULT:      -9.8      0.360      6.042
REMARK SMILES O=C(NCCCCCCNC(=O)[C@H]1CC[C@@H](CNc2ncccn2)O1)c1ccc(-c2c3nc(c(-c4ccccc4)c4ccc([nH]4)c(-c4ccccc4)c4nc(c(-c5ccccc5)c5ccc2[nH]5)C=C4)C=C3)cc1
REMARK SMILES IDX 7 1 6 2 5 3 4 4 3 5 1 6 2 7 26 9 27 10 73 11 28 12 72 13
REMARK SMILES IDX 29 14 30 15 31 16 66 17 32 18 71 19 65 20 67 21 33 22 70 23
REMARK SMILES IDX 64 24 63 25 34 27 56 28 41 29 55 30 42 31 45 32 54 33 68 34
REMARK SMILES IDX 43 35 44 36 53 38 69 39 46 40 35 41 36 42 40 43 37 44 39 45
REMARK SMILES IDX 38 46 57 47 58 48 62 49 59 50 61 51 60 52 47 53 48 54 52 55
REMARK SMILES IDX 49 56 51 57 50 58 8 59 9 60 10 61 11 62 12 64 13 65 14 66
REMARK SMILES IDX 25 67 15 68 16 69 17 70 18 71 19 73 20 74 24 75 21 76 23 77
REMARK SMILES IDX 22 78
REMARK H PARENT 3 8 67 26 45 37 10 63 18 72
REMARK Flexibility Score: inf
ROOT
ATOM      1  C   UNL A   1      35.002  33.019  28.940  1.00  0.00     0.002 C 
ENDROOT
BRANCH   1   2
ATOM      2  C   UNL A   1      35.299  34.508  28.735  1.00  0.00     0.002 C 
BRANCH   2   3
ATOM      3  C   UNL A   1      34.125  35.449  29.008  1.00  0.00     0.021 C 
BRANCH   3   4
ATOM      4  C   UNL A   1      32.930  34.794  29.687  1.00  0.00     0.116 C 
BRANCH   4   5
ATOM      5  N   UNL A   1      32.412  35.587  30.791  1.00  0.00    -0.352 N 
ATOM      6  O   UNL A   1      32.178  36.241  32.940  1.00  0.00    -0.269 OA
ATOM      7  C   UNL A   1      32.837  35.639  32.096  1.00  0.00     0.251 C 
ATOM      8  H   UNL A   1      31.649  36.169  30.571  1.00  0.00     0.163 HD
BRANCH   7   9
ATOM      9  C   UNL A   1      34.080  34.944  32.492  1.00  0.00     0.039 A 
ATOM     10  C   UNL A   1      35.313  35.598  32.430  1.00  0.00     0.014 A 
ATOM     11  C   UNL A   1      34.009  33.619  32.931  1.00  0.00     0.014 A 
ATOM     12  C   UNL A   1      36.484  34.886  32.663  1.00  0.00     0.010 A 
ATOM     13  C   UNL A   1      35.183  32.929  33.244  1.00  0.00     0.010 A 
ATOM     14  C   UNL A   1      36.433  33.546  33.078  1.00  0.00    -0.014 A 
BRANCH  14  15
ATOM     15  C   UNL A   1      37.697  32.824  33.367  1.00  0.00     0.031 A 
ATOM     16  C   UNL A   1      38.431  33.027  34.662  1.00  0.00     0.074 A 
ATOM     17  C   UNL A   1      38.169  31.950  32.457  1.00  0.00     0.049 A 
ATOM     18  N   UNL A   1      39.524  32.445  35.090  1.00  0.00    -0.248 NA
ATOM     19  C   UNL A   1      37.875  34.016  35.598  1.00  0.00     0.031 C 
ATOM     20  C   UNL A   1      37.546  31.664  31.161  1.00  0.00     0.029 A 
ATOM     21  N   UNL A   1      39.263  31.125  32.490  1.00  0.00    -0.354 N 
ATOM     22  C   UNL A   1      39.801  33.012  36.328  1.00  0.00     0.074 A 
ATOM     23  C   UNL A   1      38.772  34.002  36.574  1.00  0.00     0.031 C 
ATOM     24  C   UNL A   1      38.235  30.689  30.550  1.00  0.00     0.029 A 
ATOM     25  C   UNL A   1      39.379  30.326  31.380  1.00  0.00     0.049 A 
ATOM     26  H   UNL A   1      39.904  31.107  33.237  1.00  0.00     0.167 HD
ATOM     27  C   UNL A   1      40.814  32.734  37.182  1.00  0.00     0.031 A 
ATOM     28  C   UNL A   1      40.305  29.405  31.057  1.00  0.00     0.031 A 
ATOM     29  C   UNL A   1      41.835  31.747  36.938  1.00  0.00     0.049 A 
ATOM     30  C   UNL A   1      41.432  29.136  32.007  1.00  0.00     0.074 A 
ATOM     31  C   UNL A   1      42.881  31.366  37.760  1.00  0.00     0.029 A 
ATOM     32  N   UNL A   1      41.942  30.992  35.781  1.00  0.00    -0.354 N 
ATOM     33  N   UNL A   1      41.656  29.656  33.190  1.00  0.00    -0.248 NA
ATOM     34  C   UNL A   1      42.433  28.151  31.579  1.00  0.00     0.031 C 
ATOM     35  C   UNL A   1      43.651  30.416  37.079  1.00  0.00     0.029 A 
ATOM     36  C   UNL A   1      43.051  30.164  35.856  1.00  0.00     0.049 A 
ATOM     37  H   UNL A   1      41.322  31.036  35.018  1.00  0.00     0.167 HD
ATOM     38  C   UNL A   1      42.810  29.044  33.658  1.00  0.00     0.074 A 
ATOM     39  C   UNL A   1      43.231  28.104  32.637  1.00  0.00     0.031 C 
ATOM     40  C   UNL A   1      43.461  29.239  34.831  1.00  0.00     0.031 A 
BRANCH  27  41
ATOM     41  C   UNL A   1      40.889  33.539  38.452  1.00  0.00    -0.014 A 
ATOM     42  C   UNL A   1      40.273  33.103  39.635  1.00  0.00     0.009 A 
ATOM     43  C   UNL A   1      41.612  34.743  38.467  1.00  0.00     0.009 A 
ATOM     44  C   UNL A   1      40.346  33.876  40.797  1.00  0.00     0.001 A 
ATOM     45  C   UNL A   1      41.705  35.500  39.637  1.00  0.00     0.001 A 
ATOM     46  C   UNL A   1      41.063  35.072  40.797  1.00  0.00     0.000 A 
ENDBRANCH  27  41
BRANCH  28  47
ATOM     47  C   UNL A   1      40.189  28.665  29.775  1.00  0.00    -0.014 A 
ATOM     48  C   UNL A   1      39.492  27.450  29.718  1.00  0.00     0.009 A 
ATOM     49  C   UNL A   1      40.752  29.184  28.598  1.00  0.00     0.009 A 
ATOM     50  C   UNL A   1      39.372  26.761  28.508  1.00  0.00     0.001 A 
ATOM     51  C   UNL A   1      40.607  28.506  27.387  1.00  0.00     0.001 A 
ATOM     52  C   UNL A   1      39.925  27.293  27.344  1.00  0.00     0.000 A 
ENDBRANCH  28  47
BRANCH  40  53
ATOM     53  C   UNL A   1      44.676  28.392  35.085  1.00  0.00    -0.014 A 
ATOM     54  C   UNL A   1      45.960  28.827  34.722  1.00  0.00     0.009 A 
ATOM     55  C   UNL A   1      44.531  27.147  35.716  1.00  0.00     0.009 A 
ATOM     56  C   UNL A   1      47.071  28.014  34.954  1.00  0.00     0.001 A 
ATOM     57  C   UNL A   1      45.646  26.349  35.972  1.00  0.00     0.001 A 
ATOM     58  C   UNL A   1      46.914  26.778  35.581  1.00  0.00     0.000 A 
ENDBRANCH  40  53
ENDBRANCH  14  15
ENDBRANCH   7   9
ENDBRANCH   4   5
ENDBRANCH   3   4
ENDBRANCH   2   3
ENDBRANCH   1   2
BRANCH   1  59
ATOM     59  C   UNL A   1      35.745  32.061  27.998  1.00  0.00     0.021 C 
BRANCH  59  60
ATOM     60  C   UNL A   1      34.993  30.765  27.695  1.00  0.00     0.116 C 
BRANCH  60  61
ATOM     61  N   UNL A   1      33.602  31.028  27.394  1.00  0.00    -0.354 N 
ATOM     62  C   UNL A   1      32.804  30.439  26.456  1.00  0.00     0.249 C 
ATOM     63  H   UNL A   1      33.173  31.726  27.940  1.00  0.00     0.163 HD
ATOM     64  O   UNL A   1      31.658  30.873  26.322  1.00  0.00    -0.272 OA
BRANCH  62  65
ATOM     65  C   UNL A   1      33.338  29.218  25.672  1.00  0.00     0.207 C 
ATOM     66  C   UNL A   1      32.764  27.911  26.196  1.00  0.00     0.045 C 
ATOM     67  O   UNL A   1      33.003  29.266  24.275  1.00  0.00    -0.363 OA
ATOM     68  C   UNL A   1      31.528  27.760  25.347  1.00  0.00     0.037 C 
ATOM     69  C   UNL A   1      32.029  28.239  23.992  1.00  0.00     0.138 C 
BRANCH  69  70
ATOM     70  C   UNL A   1      30.953  28.777  23.036  1.00  0.00     0.148 C 
BRANCH  70  71
ATOM     71  N   UNL A   1      30.097  29.754  23.680  1.00  0.00    -0.352 N 
ATOM     72  H   UNL A   1      30.050  29.838  24.660  1.00  0.00     0.163 HD
BRANCH  71  73
ATOM     73  C   UNL A   1      29.353  30.559  22.846  1.00  0.00     0.222 A 
ATOM     74  N   UNL A   1      29.059  31.775  23.323  1.00  0.00    -0.222 NA
ATOM     75  N   UNL A   1      29.012  30.128  21.624  1.00  0.00    -0.222 NA
ATOM     76  C   UNL A   1      28.415  32.613  22.488  1.00  0.00     0.117 A 
ATOM     77  C   UNL A   1      28.334  30.986  20.842  1.00  0.00     0.117 A 
ATOM     78  C   UNL A   1      28.017  32.265  21.221  1.00  0.00     0.040 A 
ENDBRANCH  71  73
ENDBRANCH  70  71
ENDBRANCH  69  70
ENDBRANCH  62  65
ENDBRANCH  60  61
ENDBRANCH  59  60
ENDBRANCH   1  59
TORSDOF 16
ENDMDL
