MODEL 1
REMARK VINA RESULT:     -12.5      0.000      0.000
REMARK SMILES O=C(NCCCCCCNC(=O)c1nnn(-c2cccc(Br)c2)c1[C@@H]1COc2ccccc2O1)c1ccc(-c2c3nc(c(-c4ccccc4)c4ccc([nH]4)c(-c4ccccc4)c4nc(c(-c5ccccc5)c5ccc2[nH]5)C=C4)C=C3)cc1
REMARK SMILES IDX 6 1 5 2 4 3 3 4 1 5 2 6 35 8 36 9 82 10 37 11 81 12 38 13
REMARK SMILES IDX 39 14 40 15 75 16 41 17 80 18 74 19 76 20 42 21 79 22 73 23
REMARK SMILES IDX 72 24 43 26 65 27 50 28 64 29 51 30 54 31 63 32 77 33 52 34
REMARK SMILES IDX 53 35 62 37 78 38 55 39 44 40 45 41 49 42 46 43 48 44 47 45
REMARK SMILES IDX 66 46 67 47 71 48 68 49 70 50 69 51 56 52 57 53 61 54 58 55
REMARK SMILES IDX 60 56 59 57 7 58 8 59 9 60 10 61 11 62 12 64 13 65 14 66
REMARK SMILES IDX 24 67 15 68 16 69 25 70 26 71 34 72 27 73 33 74 28 75 32 76
REMARK SMILES IDX 29 77 31 78 30 79 17 80 18 81 23 82 19 83 21 84 20 85 22 86
REMARK H PARENT 3 7 76 25 54 36 10 63
REMARK Flexibility Score: inf
ROOT
ATOM      1  C   UNL A   1      34.391  30.014  27.425  1.00  0.00     0.002 C 
ENDROOT
BRANCH   1   2
ATOM      2  C   UNL A   1      35.315  31.222  27.658  1.00  0.00     0.021 C 
BRANCH   2   3
ATOM      3  C   UNL A   1      34.730  32.470  28.331  1.00  0.00     0.116 C 
BRANCH   3   4
ATOM      4  N   UNL A   1      34.563  32.430  29.772  1.00  0.00    -0.352 N 
ATOM      5  O   UNL A   1      34.869  32.290  31.962  1.00  0.00    -0.269 OA
ATOM      6  C   UNL A   1      35.313  32.020  30.839  1.00  0.00     0.251 C 
ATOM      7  H   UNL A   1      33.690  32.789  30.052  1.00  0.00     0.163 HD
BRANCH   6   8
ATOM      8  C   UNL A   1      36.570  31.232  30.757  1.00  0.00     0.039 A 
ATOM      9  C   UNL A   1      37.848  31.769  30.626  1.00  0.00     0.014 A 
ATOM     10  C   UNL A   1      36.431  29.833  30.844  1.00  0.00     0.014 A 
ATOM     11  C   UNL A   1      38.953  30.926  30.485  1.00  0.00     0.010 A 
ATOM     12  C   UNL A   1      37.534  28.989  30.732  1.00  0.00     0.010 A 
ATOM     13  C   UNL A   1      38.796  29.536  30.514  1.00  0.00    -0.014 A 
BRANCH  13  14
ATOM     14  C   UNL A   1      39.993  28.696  30.422  1.00  0.00     0.031 A 
ATOM     15  C   UNL A   1      40.763  28.495  31.686  1.00  0.00     0.074 A 
ATOM     16  C   UNL A   1      40.331  27.980  29.329  1.00  0.00     0.049 A 
ATOM     17  N   UNL A   1      42.019  28.723  31.913  1.00  0.00    -0.248 NA
ATOM     18  C   UNL A   1      40.022  28.000  32.856  1.00  0.00     0.031 C 
ATOM     19  C   UNL A   1      39.541  27.771  28.113  1.00  0.00     0.029 A 
ATOM     20  N   UNL A   1      41.422  27.180  29.134  1.00  0.00    -0.354 N 
ATOM     21  C   UNL A   1      42.268  28.267  33.209  1.00  0.00     0.074 A 
ATOM     22  C   UNL A   1      40.987  27.919  33.772  1.00  0.00     0.031 C 
ATOM     23  C   UNL A   1      40.063  26.736  27.419  1.00  0.00     0.029 A 
ATOM     24  C   UNL A   1      41.290  26.303  28.069  1.00  0.00     0.049 A 
ATOM     25  H   UNL A   1      42.228  27.224  29.698  1.00  0.00     0.167 HD
ATOM     26  C   UNL A   1      43.525  28.036  33.681  1.00  0.00     0.031 A 
ATOM     27  C   UNL A   1      42.088  25.250  27.775  1.00  0.00     0.031 A 
ATOM     28  C   UNL A   1      44.537  28.692  32.902  1.00  0.00     0.049 A 
ATOM     29  C   UNL A   1      43.375  25.425  28.480  1.00  0.00     0.074 A 
ATOM     30  C   UNL A   1      44.833  30.000  32.574  1.00  0.00     0.029 A 
ATOM     31  N   UNL A   1      45.302  27.920  32.065  1.00  0.00    -0.354 N 
ATOM     32  N   UNL A   1      44.256  26.332  28.173  1.00  0.00    -0.248 NA
ATOM     33  C   UNL A   1      43.547  24.803  29.782  1.00  0.00     0.031 C 
ATOM     34  C   UNL A   1      45.372  29.938  31.255  1.00  0.00     0.029 A 
ATOM     35  C   UNL A   1      45.389  28.594  30.877  1.00  0.00     0.049 A 
ATOM     36  H   UNL A   1      45.711  27.049  32.277  1.00  0.00     0.167 HD
ATOM     37  C   UNL A   1      44.826  26.695  29.383  1.00  0.00     0.074 A 
ATOM     38  C   UNL A   1      44.448  25.635  30.311  1.00  0.00     0.031 C 
ATOM     39  C   UNL A   1      45.311  27.956  29.583  1.00  0.00     0.031 A 
BRANCH  26  40
ATOM     40  C   UNL A   1      43.868  26.920  34.643  1.00  0.00    -0.014 A 
ATOM     41  C   UNL A   1      43.698  25.585  34.228  1.00  0.00     0.009 A 
ATOM     42  C   UNL A   1      44.069  27.130  36.019  1.00  0.00     0.009 A 
ATOM     43  C   UNL A   1      43.648  24.532  35.149  1.00  0.00     0.001 A 
ATOM     44  C   UNL A   1      44.066  26.075  36.938  1.00  0.00     0.001 A 
ATOM     45  C   UNL A   1      43.824  24.779  36.506  1.00  0.00     0.000 A 
ENDBRANCH  26  40
BRANCH  27  46
ATOM     46  C   UNL A   1      41.722  23.981  27.113  1.00  0.00    -0.014 A 
ATOM     47  C   UNL A   1      42.555  23.401  26.145  1.00  0.00     0.009 A 
ATOM     48  C   UNL A   1      40.660  23.206  27.616  1.00  0.00     0.009 A 
ATOM     49  C   UNL A   1      42.347  22.082  25.716  1.00  0.00     0.001 A 
ATOM     50  C   UNL A   1      40.448  21.893  27.184  1.00  0.00     0.001 A 
ATOM     51  C   UNL A   1      41.301  21.327  26.243  1.00  0.00     0.000 A 
ENDBRANCH  27  46
BRANCH  39  52
ATOM     52  C   UNL A   1      45.462  28.856  28.384  1.00  0.00    -0.014 A 
ATOM     53  C   UNL A   1      44.460  29.760  27.990  1.00  0.00     0.009 A 
ATOM     54  C   UNL A   1      46.703  28.911  27.731  1.00  0.00     0.009 A 
ATOM     55  C   UNL A   1      44.681  30.667  26.949  1.00  0.00     0.001 A 
ATOM     56  C   UNL A   1      46.931  29.832  26.707  1.00  0.00     0.001 A 
ATOM     57  C   UNL A   1      45.919  30.706  26.312  1.00  0.00     0.000 A 
ENDBRANCH  39  52
ENDBRANCH  13  14
ENDBRANCH   6   8
ENDBRANCH   3   4
ENDBRANCH   2   3
ENDBRANCH   1   2
BRANCH   1  58
ATOM     58  C   UNL A   1      33.080  30.223  26.665  1.00  0.00     0.002 C 
BRANCH  58  59
ATOM     59  C   UNL A   1      31.842  29.473  27.167  1.00  0.00     0.021 C 
BRANCH  59  60
ATOM     60  C   UNL A   1      31.879  27.934  27.459  1.00  0.00     0.116 C 
BRANCH  60  61
ATOM     61  N   UNL A   1      30.919  27.058  26.669  1.00  0.00    -0.351 N 
ATOM     62  C   UNL A   1      30.584  25.815  26.126  1.00  0.00     0.273 C 
ATOM     63  H   UNL A   1      30.174  27.653  26.424  1.00  0.00     0.163 HD
ATOM     64  O   UNL A   1      29.411  25.912  25.713  1.00  0.00    -0.267 OA
BRANCH  62  65
ATOM     65  C   UNL A   1      31.234  24.450  25.916  1.00  0.00     0.178 A 
ATOM     66  N   UNL A   1      31.630  23.852  27.124  1.00  0.00    -0.124 NA
ATOM     67  C   UNL A   1      31.584  23.506  24.917  1.00  0.00     0.122 A 
ATOM     68  N   UNL A   1      32.232  22.699  26.906  1.00  0.00    -0.061 NA
ATOM     69  N   UNL A   1      32.144  22.430  25.602  1.00  0.00    -0.213 N 
BRANCH  67  70
ATOM     70  C   UNL A   1      31.539  23.433  23.400  1.00  0.00     0.262 C 
ATOM     71  C   UNL A   1      32.919  23.412  22.850  1.00  0.00     0.281 C 
ATOM     72  O   UNL A   1      30.845  24.580  22.802  1.00  0.00    -0.477 OA
ATOM     73  O   UNL A   1      33.538  24.551  23.438  1.00  0.00    -0.485 OA
ATOM     74  C   UNL A   1      31.569  25.741  22.889  1.00  0.00     0.162 A 
ATOM     75  C   UNL A   1      32.831  25.710  23.431  1.00  0.00     0.161 A 
ATOM     76  C   UNL A   1      31.057  26.968  22.505  1.00  0.00     0.050 A 
ATOM     77  C   UNL A   1      33.414  26.844  23.977  1.00  0.00     0.050 A 
ATOM     78  C   UNL A   1      31.744  28.140  22.861  1.00  0.00     0.004 A 
ATOM     79  C   UNL A   1      32.873  28.079  23.679  1.00  0.00     0.004 A 
ENDBRANCH  67  70
BRANCH  69  80
ATOM     80  C   UNL A   1      32.961  21.440  25.008  1.00  0.00     0.068 A 
ATOM     81  C   UNL A   1      32.356  20.215  24.701  1.00  0.00     0.028 A 
ATOM     82  C   UNL A   1      34.354  21.564  25.059  1.00  0.00     0.044 A 
ATOM     83  C   UNL A   1      33.152  19.083  24.545  1.00  0.00     0.003 A 
ATOM     84  C   UNL A   1      35.137  20.423  24.893  1.00  0.00     0.020 A 
ATOM     85  C   UNL A   1      34.541  19.182  24.663  1.00  0.00     0.016 A 
ATOM     86  Br  UNL A   1      37.014  20.538  25.089  1.00  0.00    -0.051 Br
ENDBRANCH  69  80
ENDBRANCH  62  65
ENDBRANCH  60  61
ENDBRANCH  59  60
ENDBRANCH  58  59
ENDBRANCH   1  58
TORSDOF 15
ENDMDL
MODEL 2
REMARK VINA RESULT:     -12.3      2.937      8.151
REMARK SMILES O=C(NCCCCCCNC(=O)c1nnn(-c2cccc(Br)c2)c1[C@@H]1COc2ccccc2O1)c1ccc(-c2c3nc(c(-c4ccccc4)c4ccc([nH]4)c(-c4ccccc4)c4nc(c(-c5ccccc5)c5ccc2[nH]5)C=C4)C=C3)cc1
REMARK SMILES IDX 6 1 5 2 4 3 3 4 1 5 2 6 35 8 36 9 82 10 37 11 81 12 38 13
REMARK SMILES IDX 39 14 40 15 75 16 41 17 80 18 74 19 76 20 42 21 79 22 73 23
REMARK SMILES IDX 72 24 43 26 65 27 50 28 64 29 51 30 54 31 63 32 77 33 52 34
REMARK SMILES IDX 53 35 62 37 78 38 55 39 44 40 45 41 49 42 46 43 48 44 47 45
REMARK SMILES IDX 66 46 67 47 71 48 68 49 70 50 69 51 56 52 57 53 61 54 58 55
REMARK SMILES IDX 60 56 59 57 7 58 8 59 9 60 10 61 11 62 12 64 13 65 14 66
REMARK SMILES IDX 24 67 15 68 16 69 25 70 26 71 34 72 27 73 33 74 28 75 32 76
REMARK SMILES IDX 29 77 31 78 30 79 17 80 18 81 23 82 19 83 21 84 20 85 22 86
REMARK H PARENT 3 7 76 25 54 36 10 63
REMARK Flexibility Score: inf
ROOT
ATOM      1  C   UNL A   1      38.948  23.287  26.540  1.00  0.00     0.002 C 
ENDROOT
BRANCH   1   2
ATOM      2  C   UNL A   1      39.515  21.904  26.177  1.00  0.00     0.021 C 
BRANCH   2   3
ATOM      3  C   UNL A   1      40.993  21.621  26.471  1.00  0.00     0.116 C 
BRANCH   3   4
ATOM      4  N   UNL A   1      41.969  22.133  25.525  1.00  0.00    -0.352 N 
ATOM      5  O   UNL A   1      43.556  23.287  24.498  1.00  0.00    -0.269 OA
ATOM      6  C   UNL A   1      42.695  23.283  25.386  1.00  0.00     0.251 C 
ATOM      7  H   UNL A   1      42.153  21.491  24.802  1.00  0.00     0.163 HD
BRANCH   6   8
ATOM      8  C   UNL A   1      42.491  24.530  26.166  1.00  0.00     0.039 A 
ATOM      9  C   UNL A   1      42.996  24.772  27.442  1.00  0.00     0.014 A 
ATOM     10  C   UNL A   1      41.743  25.542  25.533  1.00  0.00     0.014 A 
ATOM     11  C   UNL A   1      42.678  25.957  28.110  1.00  0.00     0.010 A 
ATOM     12  C   UNL A   1      41.448  26.737  26.185  1.00  0.00     0.010 A 
ATOM     13  C   UNL A   1      41.885  26.932  27.493  1.00  0.00    -0.014 A 
BRANCH  13  14
ATOM     14  C   UNL A   1      41.630  28.183  28.213  1.00  0.00     0.031 A 
ATOM     15  C   UNL A   1      42.647  29.264  28.046  1.00  0.00     0.074 A 
ATOM     16  C   UNL A   1      40.479  28.460  28.859  1.00  0.00     0.049 A 
ATOM     17  N   UNL A   1      43.305  29.903  28.962  1.00  0.00    -0.248 NA
ATOM     18  C   UNL A   1      42.991  29.661  26.673  1.00  0.00     0.031 C 
ATOM     19  C   UNL A   1      39.238  27.682  28.857  1.00  0.00     0.029 A 
ATOM     20  N   UNL A   1      40.144  29.581  29.566  1.00  0.00    -0.354 N 
ATOM     21  C   UNL A   1      44.041  30.885  28.297  1.00  0.00     0.074 A 
ATOM     22  C   UNL A   1      43.882  30.629  26.887  1.00  0.00     0.031 C 
ATOM     23  C   UNL A   1      38.232  28.453  29.327  1.00  0.00     0.029 A 
ATOM     24  C   UNL A   1      38.782  29.719  29.784  1.00  0.00     0.049 A 
ATOM     25  H   UNL A   1      40.809  30.230  29.891  1.00  0.00     0.167 HD
ATOM     26  C   UNL A   1      44.595  31.953  28.937  1.00  0.00     0.031 A 
ATOM     27  C   UNL A   1      38.135  30.817  30.241  1.00  0.00     0.031 A 
ATOM     28  C   UNL A   1      44.712  31.748  30.353  1.00  0.00     0.049 A 
ATOM     29  C   UNL A   1      39.119  31.701  30.900  1.00  0.00     0.074 A 
ATOM     30  C   UNL A   1      45.365  30.843  31.166  1.00  0.00     0.029 A 
ATOM     31  N   UNL A   1      43.833  32.410  31.172  1.00  0.00    -0.354 N 
ATOM     32  N   UNL A   1      39.702  31.426  32.031  1.00  0.00    -0.248 NA
ATOM     33  C   UNL A   1      39.737  32.761  30.120  1.00  0.00     0.031 C 
ATOM     34  C   UNL A   1      44.510  30.675  32.295  1.00  0.00     0.029 A 
ATOM     35  C   UNL A   1      43.403  31.505  32.104  1.00  0.00     0.049 A 
ATOM     36  H   UNL A   1      43.562  33.355  31.103  1.00  0.00     0.167 HD
ATOM     37  C   UNL A   1      40.974  31.966  31.913  1.00  0.00     0.074 A 
ATOM     38  C   UNL A   1      40.892  32.882  30.780  1.00  0.00     0.031 C 
ATOM     39  C   UNL A   1      42.038  31.410  32.565  1.00  0.00     0.031 A 
BRANCH  26  40
ATOM     40  C   UNL A   1      44.704  33.333  28.328  1.00  0.00    -0.014 A 
ATOM     41  C   UNL A   1      43.586  34.189  28.372  1.00  0.00     0.009 A 
ATOM     42  C   UNL A   1      45.750  33.708  27.465  1.00  0.00     0.009 A 
ATOM     43  C   UNL A   1      43.487  35.309  27.539  1.00  0.00     0.001 A 
ATOM     44  C   UNL A   1      45.675  34.853  26.665  1.00  0.00     0.001 A 
ATOM     45  C   UNL A   1      44.529  35.637  26.679  1.00  0.00     0.000 A 
ENDBRANCH  26  40
BRANCH  27  46
ATOM     46  C   UNL A   1      36.761  31.264  29.933  1.00  0.00    -0.014 A 
ATOM     47  C   UNL A   1      35.951  31.848  30.919  1.00  0.00     0.009 A 
ATOM     48  C   UNL A   1      36.328  31.340  28.597  1.00  0.00     0.009 A 
ATOM     49  C   UNL A   1      34.763  32.508  30.573  1.00  0.00     0.001 A 
ATOM     50  C   UNL A   1      35.140  31.992  28.252  1.00  0.00     0.001 A 
ATOM     51  C   UNL A   1      34.365  32.588  29.241  1.00  0.00     0.000 A 
ENDBRANCH  27  46
BRANCH  39  52
ATOM     52  C   UNL A   1      41.758  30.373  33.622  1.00  0.00    -0.014 A 
ATOM     53  C   UNL A   1      41.577  29.014  33.315  1.00  0.00     0.009 A 
ATOM     54  C   UNL A   1      41.839  30.746  34.972  1.00  0.00     0.009 A 
ATOM     55  C   UNL A   1      41.443  28.061  34.329  1.00  0.00     0.001 A 
ATOM     56  C   UNL A   1      41.729  29.791  35.985  1.00  0.00     0.001 A 
ATOM     57  C   UNL A   1      41.526  28.449  35.664  1.00  0.00     0.000 A 
ENDBRANCH  39  52
ENDBRANCH  13  14
ENDBRANCH   6   8
ENDBRANCH   3   4
ENDBRANCH   2   3
ENDBRANCH   1   2
BRANCH   1  58
ATOM     58  C   UNL A   1      37.628  23.733  25.907  1.00  0.00     0.002 C 
BRANCH  58  59
ATOM     59  C   UNL A   1      36.948  22.768  24.931  1.00  0.00     0.021 C 
BRANCH  59  60
ATOM     60  C   UNL A   1      36.577  23.205  23.473  1.00  0.00     0.116 C 
BRANCH  60  61
ATOM     61  N   UNL A   1      35.144  22.964  23.023  1.00  0.00    -0.351 N 
ATOM     62  C   UNL A   1      33.877  23.458  22.702  1.00  0.00     0.273 C 
ATOM     63  H   UNL A   1      35.077  21.990  22.896  1.00  0.00     0.163 HD
ATOM     64  O   UNL A   1      33.236  22.504  22.216  1.00  0.00    -0.267 OA
BRANCH  62  65
ATOM     65  C   UNL A   1      33.115  24.778  22.781  1.00  0.00     0.178 A 
ATOM     66  N   UNL A   1      33.824  25.844  22.201  1.00  0.00    -0.124 NA
ATOM     67  C   UNL A   1      31.896  25.354  23.219  1.00  0.00     0.122 A 
ATOM     68  N   UNL A   1      33.162  26.977  22.330  1.00  0.00    -0.061 NA
ATOM     69  N   UNL A   1      31.969  26.698  22.861  1.00  0.00    -0.213 N 
BRANCH  67  70
ATOM     70  C   UNL A   1      30.660  24.890  23.972  1.00  0.00     0.262 C 
ATOM     71  C   UNL A   1      30.590  25.558  25.297  1.00  0.00     0.281 C 
ATOM     72  O   UNL A   1      30.658  23.441  24.210  1.00  0.00    -0.477 OA
ATOM     73  O   UNL A   1      31.859  25.290  25.882  1.00  0.00    -0.485 OA
ATOM     74  C   UNL A   1      31.578  23.057  25.151  1.00  0.00     0.162 A 
ATOM     75  C   UNL A   1      32.321  24.016  25.797  1.00  0.00     0.161 A 
ATOM     76  C   UNL A   1      31.836  21.730  25.442  1.00  0.00     0.050 A 
ATOM     77  C   UNL A   1      33.545  23.716  26.376  1.00  0.00     0.050 A 
ATOM     78  C   UNL A   1      32.961  21.403  26.216  1.00  0.00     0.004 A 
ATOM     79  C   UNL A   1      33.868  22.392  26.602  1.00  0.00     0.004 A 
ENDBRANCH  67  70
BRANCH  69  80
ATOM     80  C   UNL A   1      31.166  27.721  23.416  1.00  0.00     0.068 A 
ATOM     81  C   UNL A   1      30.097  28.184  22.637  1.00  0.00     0.028 A 
ATOM     82  C   UNL A   1      31.630  28.456  24.513  1.00  0.00     0.044 A 
ATOM     83  C   UNL A   1      29.559  29.442  22.900  1.00  0.00     0.003 A 
ATOM     84  C   UNL A   1      31.076  29.709  24.766  1.00  0.00     0.020 A 
ATOM     85  C   UNL A   1      30.063  30.214  23.949  1.00  0.00     0.016 A 
ATOM     86  Br  UNL A   1      31.776  30.779  26.159  1.00  0.00    -0.051 Br
ENDBRANCH  69  80
ENDBRANCH  62  65
ENDBRANCH  60  61
ENDBRANCH  59  60
ENDBRANCH  58  59
ENDBRANCH   1  58
TORSDOF 15
ENDMDL
MODEL 3
REMARK VINA RESULT:     -11.7      2.211      3.471
REMARK SMILES O=C(NCCCCCCNC(=O)c1nnn(-c2cccc(Br)c2)c1[C@@H]1COc2ccccc2O1)c1ccc(-c2c3nc(c(-c4ccccc4)c4ccc([nH]4)c(-c4ccccc4)c4nc(c(-c5ccccc5)c5ccc2[nH]5)C=C4)C=C3)cc1
REMARK SMILES IDX 6 1 5 2 4 3 3 4 1 5 2 6 35 8 36 9 82 10 37 11 81 12 38 13
REMARK SMILES IDX 39 14 40 15 75 16 41 17 80 18 74 19 76 20 42 21 79 22 73 23
REMARK SMILES IDX 72 24 43 26 65 27 50 28 64 29 51 30 54 31 63 32 77 33 52 34
REMARK SMILES IDX 53 35 62 37 78 38 55 39 44 40 45 41 49 42 46 43 48 44 47 45
REMARK SMILES IDX 66 46 67 47 71 48 68 49 70 50 69 51 56 52 57 53 61 54 58 55
REMARK SMILES IDX 60 56 59 57 7 58 8 59 9 60 10 61 11 62 12 64 13 65 14 66
REMARK SMILES IDX 24 67 15 68 16 69 25 70 26 71 34 72 27 73 33 74 28 75 32 76
REMARK SMILES IDX 29 77 31 78 30 79 17 80 18 81 23 82 19 83 21 84 20 85 22 86
REMARK H PARENT 3 7 76 25 54 36 10 63
REMARK Flexibility Score: inf
ROOT
ATOM      1  C   UNL A   1      36.289  30.412  31.372  1.00  0.00     0.002 C 
ENDROOT
BRANCH   1   2
ATOM      2  C   UNL A   1      36.214  31.948  31.344  1.00  0.00     0.021 C 
BRANCH   2   3
ATOM      3  C   UNL A   1      36.522  32.718  32.634  1.00  0.00     0.116 C 
BRANCH   3   4
ATOM      4  N   UNL A   1      37.691  33.579  32.631  1.00  0.00    -0.352 N 
ATOM      5  O   UNL A   1      39.661  34.516  32.244  1.00  0.00    -0.269 OA
ATOM      6  C   UNL A   1      38.983  33.482  32.195  1.00  0.00     0.251 C 
ATOM      7  H   UNL A   1      37.507  34.452  33.046  1.00  0.00     0.163 HD
BRANCH   6   8
ATOM      8  C   UNL A   1      39.645  32.235  31.733  1.00  0.00     0.039 A 
ATOM      9  C   UNL A   1      40.308  32.080  30.517  1.00  0.00     0.014 A 
ATOM     10  C   UNL A   1      39.605  31.144  32.623  1.00  0.00     0.014 A 
ATOM     11  C   UNL A   1      40.833  30.837  30.157  1.00  0.00     0.010 A 
ATOM     12  C   UNL A   1      40.151  29.910  32.279  1.00  0.00     0.010 A 
ATOM     13  C   UNL A   1      40.734  29.743  31.025  1.00  0.00    -0.014 A 
BRANCH  13  14
ATOM     14  C   UNL A   1      41.352  28.476  30.625  1.00  0.00     0.031 A 
ATOM     15  C   UNL A   1      42.264  27.838  31.622  1.00  0.00     0.074 A 
ATOM     16  C   UNL A   1      41.020  27.793  29.511  1.00  0.00     0.049 A 
ATOM     17  N   UNL A   1      43.498  27.470  31.469  1.00  0.00    -0.248 NA
ATOM     18  C   UNL A   1      41.733  27.610  32.974  1.00  0.00     0.031 C 
ATOM     19  C   UNL A   1      39.921  28.069  28.583  1.00  0.00     0.029 A 
ATOM     20  N   UNL A   1      41.538  26.618  29.042  1.00  0.00    -0.354 N 
ATOM     21  C   UNL A   1      43.861  26.829  32.655  1.00  0.00     0.074 A 
ATOM     22  C   UNL A   1      42.770  27.027  33.577  1.00  0.00     0.031 C 
ATOM     23  C   UNL A   1      39.712  26.980  27.809  1.00  0.00     0.029 A 
ATOM     24  C   UNL A   1      40.740  25.994  28.095  1.00  0.00     0.049 A 
ATOM     25  H   UNL A   1      42.398  26.250  29.348  1.00  0.00     0.167 HD
ATOM     26  C   UNL A   1      44.957  26.026  32.755  1.00  0.00     0.031 A 
ATOM     27  C   UNL A   1      40.868  24.730  27.625  1.00  0.00     0.031 A 
ATOM     28  C   UNL A   1      45.899  26.242  31.692  1.00  0.00     0.049 A 
ATOM     29  C   UNL A   1      42.235  24.255  27.923  1.00  0.00     0.074 A 
ATOM     30  C   UNL A   1      46.645  27.312  31.242  1.00  0.00     0.029 A 
ATOM     31  N   UNL A   1      45.975  25.297  30.701  1.00  0.00    -0.354 N 
ATOM     32  N   UNL A   1      43.307  24.708  27.340  1.00  0.00    -0.248 NA
ATOM     33  C   UNL A   1      42.460  23.500  29.144  1.00  0.00     0.031 C 
ATOM     34  C   UNL A   1      46.716  27.145  29.827  1.00  0.00     0.029 A 
ATOM     35  C   UNL A   1      46.025  25.974  29.513  1.00  0.00     0.049 A 
ATOM     36  H   UNL A   1      45.991  24.319  30.821  1.00  0.00     0.167 HD
ATOM     37  C   UNL A   1      44.287  24.667  28.320  1.00  0.00     0.074 A 
ATOM     38  C   UNL A   1      43.745  23.797  29.359  1.00  0.00     0.031 C 
ATOM     39  C   UNL A   1      45.319  25.562  28.322  1.00  0.00     0.031 A 
BRANCH  26  40
ATOM     40  C   UNL A   1      45.014  24.787  33.620  1.00  0.00    -0.014 A 
ATOM     41  C   UNL A   1      44.160  23.707  33.322  1.00  0.00     0.009 A 
ATOM     42  C   UNL A   1      45.654  24.756  34.873  1.00  0.00     0.009 A 
ATOM     43  C   UNL A   1      43.899  22.700  34.259  1.00  0.00     0.001 A 
ATOM     44  C   UNL A   1      45.431  23.727  35.793  1.00  0.00     0.001 A 
ATOM     45  C   UNL A   1      44.528  22.714  35.498  1.00  0.00     0.000 A 
ENDBRANCH  26  40
BRANCH  27  46
ATOM     46  C   UNL A   1      39.807  23.820  27.148  1.00  0.00    -0.014 A 
ATOM     47  C   UNL A   1      38.543  24.309  26.784  1.00  0.00     0.009 A 
ATOM     48  C   UNL A   1      40.118  22.490  26.813  1.00  0.00     0.009 A 
ATOM     49  C   UNL A   1      37.634  23.500  26.087  1.00  0.00     0.001 A 
ATOM     50  C   UNL A   1      39.210  21.680  26.123  1.00  0.00     0.001 A 
ATOM     51  C   UNL A   1      37.973  22.191  25.749  1.00  0.00     0.000 A 
ENDBRANCH  27  46
BRANCH  39  52
ATOM     52  C   UNL A   1      45.520  26.414  27.096  1.00  0.00    -0.014 A 
ATOM     53  C   UNL A   1      45.018  27.723  26.997  1.00  0.00     0.009 A 
ATOM     54  C   UNL A   1      46.372  25.949  26.083  1.00  0.00     0.009 A 
ATOM     55  C   UNL A   1      45.328  28.529  25.899  1.00  0.00     0.001 A 
ATOM     56  C   UNL A   1      46.700  26.763  24.996  1.00  0.00     0.001 A 
ATOM     57  C   UNL A   1      46.175  28.051  24.902  1.00  0.00     0.000 A 
ENDBRANCH  39  52
ENDBRANCH  13  14
ENDBRANCH   6   8
ENDBRANCH   3   4
ENDBRANCH   2   3
ENDBRANCH   1   2
BRANCH   1  58
ATOM     58  C   UNL A   1      36.902  29.681  30.176  1.00  0.00     0.002 C 
BRANCH  58  59
ATOM     59  C   UNL A   1      37.202  30.504  28.919  1.00  0.00     0.021 C 
BRANCH  59  60
ATOM     60  C   UNL A   1      36.648  30.085  27.515  1.00  0.00     0.116 C 
BRANCH  60  61
ATOM     61  N   UNL A   1      35.178  30.364  27.240  1.00  0.00    -0.351 N 
ATOM     62  C   UNL A   1      33.874  29.900  27.049  1.00  0.00     0.273 C 
ATOM     63  H   UNL A   1      35.115  31.343  27.156  1.00  0.00     0.163 HD
ATOM     64  O   UNL A   1      33.137  30.907  27.032  1.00  0.00    -0.267 OA
BRANCH  62  65
ATOM     65  C   UNL A   1      33.154  28.567  26.868  1.00  0.00     0.178 A 
ATOM     66  N   UNL A   1      32.408  28.201  28.001  1.00  0.00    -0.124 NA
ATOM     67  C   UNL A   1      32.926  27.523  25.936  1.00  0.00     0.122 A 
ATOM     68  N   UNL A   1      31.839  27.023  27.832  1.00  0.00    -0.061 NA
ATOM     69  N   UNL A   1      32.065  26.634  26.575  1.00  0.00    -0.213 N 
BRANCH  67  70
ATOM     70  C   UNL A   1      33.408  27.161  24.541  1.00  0.00     0.262 C 
ATOM     71  C   UNL A   1      33.991  28.355  23.877  1.00  0.00     0.281 C 
ATOM     72  O   UNL A   1      32.326  26.665  23.682  1.00  0.00    -0.477 OA
ATOM     73  O   UNL A   1      32.969  29.340  23.987  1.00  0.00    -0.485 OA
ATOM     74  C   UNL A   1      31.456  27.654  23.303  1.00  0.00     0.162 A 
ATOM     75  C   UNL A   1      31.704  28.952  23.680  1.00  0.00     0.161 A 
ATOM     76  C   UNL A   1      30.294  27.394  22.598  1.00  0.00     0.050 A 
ATOM     77  C   UNL A   1      30.688  29.892  23.756  1.00  0.00     0.050 A 
ATOM     78  C   UNL A   1      29.328  28.405  22.471  1.00  0.00     0.004 A 
ATOM     79  C   UNL A   1      29.485  29.623  23.132  1.00  0.00     0.004 A 
ENDBRANCH  67  70
BRANCH  69  80
ATOM     80  C   UNL A   1      31.866  25.290  26.185  1.00  0.00     0.068 A 
ATOM     81  C   UNL A   1      30.541  24.850  26.067  1.00  0.00     0.028 A 
ATOM     82  C   UNL A   1      32.925  24.377  26.262  1.00  0.00     0.044 A 
ATOM     83  C   UNL A   1      30.270  23.485  26.131  1.00  0.00     0.003 A 
ATOM     84  C   UNL A   1      32.635  23.015  26.318  1.00  0.00     0.020 A 
ATOM     85  C   UNL A   1      31.314  22.569  26.279  1.00  0.00     0.016 A 
ATOM     86  Br  UNL A   1      34.037  21.769  26.556  1.00  0.00    -0.051 Br
ENDBRANCH  69  80
ENDBRANCH  62  65
ENDBRANCH  60  61
ENDBRANCH  59  60
ENDBRANCH  58  59
ENDBRANCH   1  58
TORSDOF 15
ENDMDL
