MODEL 1
REMARK VINA RESULT:     -11.0      0.000      0.000
REMARK SMILES COc1ccc(-n2nc(C(=O)NCCCCCCNC(=O)c3ccc(-c4c5nc(c(-c6ccccc6)c6ccc([nH]6)c(-c6ccccc6)c6nc(c(-c7ccccc7)c7ccc4[nH]7)C=C6)C=C5)cc3)c(=O)cc2C)cc1
REMARK SMILES IDX 15 1 14 2 13 3 12 4 10 5 11 6 9 8 7 9 8 10 73 11 72 12 74 13
REMARK SMILES IDX 70 14 71 15 6 16 3 17 4 18 76 19 5 20 75 21 2 22 1 23 16 24
REMARK SMILES IDX 17 25 18 26 19 27 20 28 21 30 22 31 23 32 69 33 24 34 68 35
REMARK SMILES IDX 25 36 26 37 27 38 62 39 28 40 67 41 61 42 63 43 29 44 66 45
REMARK SMILES IDX 60 46 59 47 30 49 52 50 37 51 51 52 38 53 41 54 50 55 64 56
REMARK SMILES IDX 39 57 40 58 49 60 65 61 42 62 31 63 32 64 36 65 33 66 35 67
REMARK SMILES IDX 34 68 53 69 54 70 58 71 55 72 57 73 56 74 43 75 44 76 48 77
REMARK SMILES IDX 45 78 47 79 46 80
REMARK H PARENT 12 7 19 29 63 48 41 59
REMARK Flexibility Score: inf
ROOT
ATOM      1  C   UNL A   1      31.522  28.948  25.064  1.00  0.00     0.002 C 
ENDROOT
BRANCH   1   2
ATOM      2  C   UNL A   1      32.248  28.674  23.743  1.00  0.00     0.021 C 
BRANCH   2   3
ATOM      3  C   UNL A   1      31.404  28.089  22.615  1.00  0.00     0.116 C 
BRANCH   3   4
ATOM      4  N   UNL A   1      32.174  27.272  21.702  1.00  0.00    -0.351 N 
ATOM      5  C   UNL A   1      32.630  25.980  21.821  1.00  0.00     0.275 C 
ATOM      6  O   UNL A   1      33.168  25.464  20.843  1.00  0.00    -0.267 OA
ATOM      7  H   UNL A   1      32.412  27.715  20.855  1.00  0.00     0.163 HD
BRANCH   5   8
ATOM      8  C   UNL A   1      32.529  25.169  23.109  1.00  0.00     0.196 A 
ATOM      9  N   UNL A   1      33.653  24.037  24.773  1.00  0.00    -0.237 N 
ATOM     10  N   UNL A   1      33.670  24.855  23.668  1.00  0.00    -0.158 NA
ATOM     11  C   UNL A   1      32.513  23.845  25.555  1.00  0.00     0.044 A 
ATOM     12  C   UNL A   1      31.297  24.189  25.104  1.00  0.00     0.078 A 
ATOM     13  C   UNL A   1      32.622  23.279  26.951  1.00  0.00     0.067 C 
ATOM     14  C   UNL A   1      31.240  24.659  23.713  1.00  0.00     0.213 A 
ATOM     15  O   UNL A   1      30.193  24.639  23.084  1.00  0.00    -0.287 OA
BRANCH   9  16
ATOM     16  C   UNL A   1      34.879  23.332  24.971  1.00  0.00     0.065 A 
ATOM     17  C   UNL A   1      37.303  21.935  25.349  1.00  0.00     0.119 A 
ATOM     18  C   UNL A   1      36.206  21.304  24.763  1.00  0.00     0.048 A 
ATOM     19  C   UNL A   1      37.194  23.264  25.754  1.00  0.00     0.048 A 
ATOM     20  C   UNL A   1      34.997  21.987  24.599  1.00  0.00     0.032 A 
ATOM     21  C   UNL A   1      35.991  23.955  25.566  1.00  0.00     0.032 A 
BRANCH  17  22
ATOM     22  O   UNL A   1      38.443  21.184  25.429  1.00  0.00    -0.497 OA
ATOM     23  C   UNL A   1      38.304  19.824  25.033  1.00  0.00     0.278 C 
ENDBRANCH  17  22
ENDBRANCH   9  16
ENDBRANCH   5   8
ENDBRANCH   3   4
ENDBRANCH   2   3
ENDBRANCH   1   2
BRANCH   1  24
ATOM     24  C   UNL A   1      31.476  27.794  26.070  1.00  0.00     0.002 C 
BRANCH  24  25
ATOM     25  C   UNL A   1      32.206  28.027  27.394  1.00  0.00     0.021 C 
BRANCH  25  26
ATOM     26  C   UNL A   1      33.587  28.668  27.280  1.00  0.00     0.116 C 
BRANCH  26  27
ATOM     27  N   UNL A   1      33.583  30.072  27.656  1.00  0.00    -0.352 N 
ATOM     28  C   UNL A   1      34.553  30.810  28.285  1.00  0.00     0.251 C 
ATOM     29  H   UNL A   1      32.764  30.566  27.426  1.00  0.00     0.163 HD
ATOM     30  O   UNL A   1      34.303  31.945  28.684  1.00  0.00    -0.269 OA
BRANCH  28  31
ATOM     31  C   UNL A   1      35.899  30.239  28.501  1.00  0.00     0.039 A 
ATOM     32  C   UNL A   1      36.821  30.265  27.451  1.00  0.00     0.014 A 
ATOM     33  C   UNL A   1      36.248  29.661  29.725  1.00  0.00     0.014 A 
ATOM     34  C   UNL A   1      38.110  29.765  27.646  1.00  0.00     0.010 A 
ATOM     35  C   UNL A   1      37.555  29.229  29.941  1.00  0.00     0.010 A 
ATOM     36  C   UNL A   1      38.497  29.271  28.902  1.00  0.00    -0.014 A 
BRANCH  36  37
ATOM     37  C   UNL A   1      39.883  28.797  29.147  1.00  0.00     0.031 A 
ATOM     38  C   UNL A   1      40.896  29.710  29.783  1.00  0.00     0.074 A 
ATOM     39  C   UNL A   1      40.247  27.564  28.745  1.00  0.00     0.049 A 
ATOM     40  N   UNL A   1      42.163  29.494  30.028  1.00  0.00    -0.248 NA
ATOM     41  C   UNL A   1      40.430  31.052  30.172  1.00  0.00     0.031 C 
ATOM     42  C   UNL A   1      39.369  26.595  28.085  1.00  0.00     0.029 A 
ATOM     43  N   UNL A   1      41.453  26.916  28.828  1.00  0.00    -0.354 N 
ATOM     44  C   UNL A   1      42.647  30.671  30.584  1.00  0.00     0.074 A 
ATOM     45  C   UNL A   1      41.551  31.616  30.592  1.00  0.00     0.031 C 
ATOM     46  C   UNL A   1      40.058  25.466  27.850  1.00  0.00     0.029 A 
ATOM     47  C   UNL A   1      41.435  25.647  28.300  1.00  0.00     0.049 A 
ATOM     48  H   UNL A   1      42.256  27.321  29.227  1.00  0.00     0.167 HD
ATOM     49  C   UNL A   1      43.886  30.937  31.064  1.00  0.00     0.031 A 
ATOM     50  C   UNL A   1      42.417  24.734  28.183  1.00  0.00     0.031 A 
ATOM     51  C   UNL A   1      44.974  29.996  31.059  1.00  0.00     0.049 A 
ATOM     52  C   UNL A   1      43.790  25.064  28.699  1.00  0.00     0.074 A 
ATOM     53  C   UNL A   1      46.251  30.153  31.569  1.00  0.00     0.029 A 
ATOM     54  N   UNL A   1      44.914  28.723  30.514  1.00  0.00    -0.354 N 
ATOM     55  N   UNL A   1      44.212  26.158  29.284  1.00  0.00    -0.248 NA
ATOM     56  C   UNL A   1      44.819  24.025  28.548  1.00  0.00     0.031 C 
ATOM     57  C   UNL A   1      46.982  28.996  31.279  1.00  0.00     0.029 A 
ATOM     58  C   UNL A   1      46.140  28.094  30.650  1.00  0.00     0.049 A 
ATOM     59  H   UNL A   1      44.117  28.324  30.094  1.00  0.00     0.167 HD
ATOM     60  C   UNL A   1      45.546  25.929  29.597  1.00  0.00     0.074 A 
ATOM     61  C   UNL A   1      45.856  24.586  29.153  1.00  0.00     0.031 C 
ATOM     62  C   UNL A   1      46.435  26.757  30.201  1.00  0.00     0.031 A 
BRANCH  49  63
ATOM     63  C   UNL A   1      44.133  32.311  31.625  1.00  0.00    -0.014 A 
ATOM     64  C   UNL A   1      44.028  32.566  33.002  1.00  0.00     0.009 A 
ATOM     65  C   UNL A   1      44.514  33.358  30.770  1.00  0.00     0.009 A 
ATOM     66  C   UNL A   1      44.259  33.849  33.505  1.00  0.00     0.001 A 
ATOM     67  C   UNL A   1      44.776  34.631  31.280  1.00  0.00     0.001 A 
ATOM     68  C   UNL A   1      44.639  34.877  32.645  1.00  0.00     0.000 A 
ENDBRANCH  49  63
BRANCH  50  69
ATOM     69  C   UNL A   1      42.138  23.413  27.560  1.00  0.00    -0.014 A 
ATOM     70  C   UNL A   1      41.554  22.380  28.309  1.00  0.00     0.009 A 
ATOM     71  C   UNL A   1      42.465  23.174  26.216  1.00  0.00     0.009 A 
ATOM     72  C   UNL A   1      41.330  21.127  27.734  1.00  0.00     0.001 A 
ATOM     73  C   UNL A   1      42.210  21.930  25.635  1.00  0.00     0.001 A 
ATOM     74  C   UNL A   1      41.654  20.904  26.396  1.00  0.00     0.000 A 
ENDBRANCH  50  69
BRANCH  62  75
ATOM     75  C   UNL A   1      47.815  26.219  30.452  1.00  0.00    -0.014 A 
ATOM     76  C   UNL A   1      48.798  26.228  29.449  1.00  0.00     0.009 A 
ATOM     77  C   UNL A   1      48.148  25.733  31.726  1.00  0.00     0.009 A 
ATOM     78  C   UNL A   1      50.076  25.726  29.709  1.00  0.00     0.001 A 
ATOM     79  C   UNL A   1      49.435  25.263  31.992  1.00  0.00     0.001 A 
ATOM     80  C   UNL A   1      50.394  25.251  30.981  1.00  0.00     0.000 A 
ENDBRANCH  62  75
ENDBRANCH  36  37
ENDBRANCH  28  31
ENDBRANCH  26  27
ENDBRANCH  25  26
ENDBRANCH  24  25
ENDBRANCH   1  24
TORSDOF 15
ENDMDL
MODEL 2
REMARK VINA RESULT:     -10.9      2.208      7.722
REMARK SMILES COc1ccc(-n2nc(C(=O)NCCCCCCNC(=O)c3ccc(-c4c5nc(c(-c6ccccc6)c6ccc([nH]6)c(-c6ccccc6)c6nc(c(-c7ccccc7)c7ccc4[nH]7)C=C6)C=C5)cc3)c(=O)cc2C)cc1
REMARK SMILES IDX 15 1 14 2 13 3 12 4 10 5 11 6 9 8 7 9 8 10 73 11 72 12 74 13
REMARK SMILES IDX 70 14 71 15 6 16 3 17 4 18 76 19 5 20 75 21 2 22 1 23 16 24
REMARK SMILES IDX 17 25 18 26 19 27 20 28 21 30 22 31 23 32 69 33 24 34 68 35
REMARK SMILES IDX 25 36 26 37 27 38 62 39 28 40 67 41 61 42 63 43 29 44 66 45
REMARK SMILES IDX 60 46 59 47 30 49 52 50 37 51 51 52 38 53 41 54 50 55 64 56
REMARK SMILES IDX 39 57 40 58 49 60 65 61 42 62 31 63 32 64 36 65 33 66 35 67
REMARK SMILES IDX 34 68 53 69 54 70 58 71 55 72 57 73 56 74 43 75 44 76 48 77
REMARK SMILES IDX 45 78 47 79 46 80
REMARK H PARENT 12 7 19 29 63 48 41 59
REMARK Flexibility Score: inf
ROOT
ATOM      1  C   UNL A   1      35.053  20.055  25.001  1.00  0.00     0.002 C 
ENDROOT
BRANCH   1   2
ATOM      2  C   UNL A   1      33.880  20.944  25.426  1.00  0.00     0.021 C 
BRANCH   2   3
ATOM      3  C   UNL A   1      34.070  21.747  26.710  1.00  0.00     0.116 C 
BRANCH   3   4
ATOM      4  N   UNL A   1      32.819  22.195  27.283  1.00  0.00    -0.351 N 
ATOM      5  C   UNL A   1      31.952  23.185  26.882  1.00  0.00     0.275 C 
ATOM      6  O   UNL A   1      30.882  23.293  27.478  1.00  0.00    -0.267 OA
ATOM      7  H   UNL A   1      32.543  21.711  28.095  1.00  0.00     0.163 HD
BRANCH   5   8
ATOM      8  C   UNL A   1      32.264  24.170  25.760  1.00  0.00     0.196 A 
ATOM      9  N   UNL A   1      32.935  26.300  25.190  1.00  0.00    -0.237 N 
ATOM     10  N   UNL A   1      32.733  25.330  26.143  1.00  0.00    -0.158 NA
ATOM     11  C   UNL A   1      33.047  26.012  23.828  1.00  0.00     0.044 A 
ATOM     12  C   UNL A   1      32.653  24.828  23.336  1.00  0.00     0.078 A 
ATOM     13  C   UNL A   1      33.653  27.015  22.875  1.00  0.00     0.067 C 
ATOM     14  C   UNL A   1      31.999  23.923  24.292  1.00  0.00     0.213 A 
ATOM     15  O   UNL A   1      31.280  23.014  23.907  1.00  0.00    -0.287 OA
BRANCH   9  16
ATOM     16  C   UNL A   1      32.914  27.626  25.721  1.00  0.00     0.065 A 
ATOM     17  C   UNL A   1      32.884  30.249  26.765  1.00  0.00     0.119 A 
ATOM     18  C   UNL A   1      33.998  29.428  26.943  1.00  0.00     0.048 A 
ATOM     19  C   UNL A   1      31.779  29.762  26.070  1.00  0.00     0.048 A 
ATOM     20  C   UNL A   1      34.004  28.120  26.449  1.00  0.00     0.032 A 
ATOM     21  C   UNL A   1      31.795  28.461  25.554  1.00  0.00     0.032 A 
BRANCH  17  22
ATOM     22  O   UNL A   1      33.001  31.518  27.259  1.00  0.00    -0.497 OA
ATOM     23  C   UNL A   1      34.188  31.776  28.000  1.00  0.00     0.278 C 
ENDBRANCH  17  22
ENDBRANCH   9  16
ENDBRANCH   5   8
ENDBRANCH   3   4
ENDBRANCH   2   3
ENDBRANCH   1   2
BRANCH   1  24
ATOM     24  C   UNL A   1      36.442  20.701  25.026  1.00  0.00     0.002 C 
BRANCH  24  25
ATOM     25  C   UNL A   1      37.632  19.739  24.990  1.00  0.00     0.021 C 
BRANCH  25  26
ATOM     26  C   UNL A   1      38.877  20.205  25.739  1.00  0.00     0.116 C 
BRANCH  26  27
ATOM     27  N   UNL A   1      39.896  19.171  25.827  1.00  0.00    -0.352 N 
ATOM     28  C   UNL A   1      41.247  19.291  26.030  1.00  0.00     0.251 C 
ATOM     29  H   UNL A   1      39.567  18.248  25.724  1.00  0.00     0.163 HD
ATOM     30  O   UNL A   1      41.980  18.313  25.895  1.00  0.00    -0.269 OA
BRANCH  28  31
ATOM     31  C   UNL A   1      41.831  20.599  26.395  1.00  0.00     0.039 A 
ATOM     32  C   UNL A   1      42.220  21.472  25.376  1.00  0.00     0.014 A 
ATOM     33  C   UNL A   1      42.015  20.957  27.733  1.00  0.00     0.014 A 
ATOM     34  C   UNL A   1      42.740  22.727  25.699  1.00  0.00     0.010 A 
ATOM     35  C   UNL A   1      42.465  22.236  28.054  1.00  0.00     0.010 A 
ATOM     36  C   UNL A   1      42.837  23.132  27.040  1.00  0.00    -0.014 A 
BRANCH  36  37
ATOM     37  C   UNL A   1      43.324  24.487  27.401  1.00  0.00     0.031 A 
ATOM     38  C   UNL A   1      42.351  25.557  27.818  1.00  0.00     0.074 A 
ATOM     39  C   UNL A   1      44.636  24.774  27.296  1.00  0.00     0.049 A 
ATOM     40  N   UNL A   1      42.581  26.810  28.117  1.00  0.00    -0.248 NA
ATOM     41  C   UNL A   1      40.931  25.175  27.884  1.00  0.00     0.031 C 
ATOM     42  C   UNL A   1      45.677  23.836  26.870  1.00  0.00     0.029 A 
ATOM     43  N   UNL A   1      45.319  25.940  27.538  1.00  0.00    -0.354 N 
ATOM     44  C   UNL A   1      41.338  27.367  28.392  1.00  0.00     0.074 A 
ATOM     45  C   UNL A   1      40.353  26.330  28.173  1.00  0.00     0.031 C 
ATOM     46  C   UNL A   1      46.869  24.455  26.907  1.00  0.00     0.029 A 
ATOM     47  C   UNL A   1      46.672  25.842  27.316  1.00  0.00     0.049 A 
ATOM     48  H   UNL A   1      44.882  26.768  27.840  1.00  0.00     0.167 HD
ATOM     49  C   UNL A   1      41.043  28.622  28.809  1.00  0.00     0.031 A 
ATOM     50  C   UNL A   1      47.645  26.766  27.422  1.00  0.00     0.031 A 
ATOM     51  C   UNL A   1      42.024  29.651  29.031  1.00  0.00     0.049 A 
ATOM     52  C   UNL A   1      47.287  28.160  27.860  1.00  0.00     0.074 A 
ATOM     53  C   UNL A   1      41.830  30.938  29.502  1.00  0.00     0.029 A 
ATOM     54  N   UNL A   1      43.382  29.512  28.794  1.00  0.00    -0.354 N 
ATOM     55  N   UNL A   1      46.115  28.650  28.181  1.00  0.00    -0.248 NA
ATOM     56  C   UNL A   1      48.393  29.123  27.961  1.00  0.00     0.031 C 
ATOM     57  C   UNL A   1      43.065  31.596  29.494  1.00  0.00     0.029 A 
ATOM     58  C   UNL A   1      44.036  30.698  29.081  1.00  0.00     0.049 A 
ATOM     59  H   UNL A   1      43.819  28.690  28.469  1.00  0.00     0.167 HD
ATOM     60  C   UNL A   1      46.345  29.969  28.551  1.00  0.00     0.074 A 
ATOM     61  C   UNL A   1      47.770  30.196  28.431  1.00  0.00     0.031 C 
ATOM     62  C   UNL A   1      45.455  30.909  28.955  1.00  0.00     0.031 A 
BRANCH  49  63
ATOM     63  C   UNL A   1      39.594  28.954  29.040  1.00  0.00    -0.014 A 
ATOM     64  C   UNL A   1      38.789  29.461  28.007  1.00  0.00     0.009 A 
ATOM     65  C   UNL A   1      39.016  28.724  30.298  1.00  0.00     0.009 A 
ATOM     66  C   UNL A   1      37.446  29.766  28.240  1.00  0.00     0.001 A 
ATOM     67  C   UNL A   1      37.665  28.999  30.519  1.00  0.00     0.001 A 
ATOM     68  C   UNL A   1      36.884  29.529  29.493  1.00  0.00     0.000 A 
ENDBRANCH  49  63
BRANCH  50  69
ATOM     69  C   UNL A   1      49.054  26.406  27.117  1.00  0.00    -0.014 A 
ATOM     70  C   UNL A   1      49.908  25.947  28.132  1.00  0.00     0.009 A 
ATOM     71  C   UNL A   1      49.557  26.527  25.812  1.00  0.00     0.009 A 
ATOM     72  C   UNL A   1      51.244  25.648  27.852  1.00  0.00     0.001 A 
ATOM     73  C   UNL A   1      50.884  26.196  25.530  1.00  0.00     0.001 A 
ATOM     74  C   UNL A   1      51.729  25.768  26.551  1.00  0.00     0.000 A 
ENDBRANCH  50  69
BRANCH  62  75
ATOM     75  C   UNL A   1      46.003  32.256  29.336  1.00  0.00    -0.014 A 
ATOM     76  C   UNL A   1      46.089  33.301  28.403  1.00  0.00     0.009 A 
ATOM     77  C   UNL A   1      46.400  32.493  30.662  1.00  0.00     0.009 A 
ATOM     78  C   UNL A   1      46.597  34.546  28.783  1.00  0.00     0.001 A 
ATOM     79  C   UNL A   1      46.876  33.748  31.046  1.00  0.00     0.001 A 
ATOM     80  C   UNL A   1      46.984  34.769  30.104  1.00  0.00     0.000 A 
ENDBRANCH  62  75
ENDBRANCH  36  37
ENDBRANCH  28  31
ENDBRANCH  26  27
ENDBRANCH  25  26
ENDBRANCH  24  25
ENDBRANCH   1  24
TORSDOF 15
ENDMDL
MODEL 3
REMARK VINA RESULT:     -10.7      2.952      7.025
REMARK SMILES COc1ccc(-n2nc(C(=O)NCCCCCCNC(=O)c3ccc(-c4c5nc(c(-c6ccccc6)c6ccc([nH]6)c(-c6ccccc6)c6nc(c(-c7ccccc7)c7ccc4[nH]7)C=C6)C=C5)cc3)c(=O)cc2C)cc1
REMARK SMILES IDX 15 1 14 2 13 3 12 4 10 5 11 6 9 8 7 9 8 10 73 11 72 12 74 13
REMARK SMILES IDX 70 14 71 15 6 16 3 17 4 18 76 19 5 20 75 21 2 22 1 23 16 24
REMARK SMILES IDX 17 25 18 26 19 27 20 28 21 30 22 31 23 32 69 33 24 34 68 35
REMARK SMILES IDX 25 36 26 37 27 38 62 39 28 40 67 41 61 42 63 43 29 44 66 45
REMARK SMILES IDX 60 46 59 47 30 49 52 50 37 51 51 52 38 53 41 54 50 55 64 56
REMARK SMILES IDX 39 57 40 58 49 60 65 61 42 62 31 63 32 64 36 65 33 66 35 67
REMARK SMILES IDX 34 68 53 69 54 70 58 71 55 72 57 73 56 74 43 75 44 76 48 77
REMARK SMILES IDX 45 78 47 79 46 80
REMARK H PARENT 12 7 19 29 63 48 41 59
REMARK Flexibility Score: inf
ROOT
ATOM      1  C   UNL A   1      32.273  29.776  25.722  1.00  0.00     0.002 C 
ENDROOT
BRANCH   1   2
ATOM      2  C   UNL A   1      32.986  29.196  24.496  1.00  0.00     0.021 C 
BRANCH   2   3
ATOM      3  C   UNL A   1      32.096  28.777  23.330  1.00  0.00     0.116 C 
BRANCH   3   4
ATOM      4  N   UNL A   1      32.814  28.041  22.312  1.00  0.00    -0.351 N 
ATOM      5  C   UNL A   1      33.136  26.706  22.229  1.00  0.00     0.275 C 
ATOM      6  O   UNL A   1      33.653  26.299  21.191  1.00  0.00    -0.267 OA
ATOM      7  H   UNL A   1      33.122  28.585  21.552  1.00  0.00     0.163 HD
BRANCH   5   8
ATOM      8  C   UNL A   1      32.912  25.717  23.369  1.00  0.00     0.196 A 
ATOM      9  N   UNL A   1      33.870  24.296  24.910  1.00  0.00    -0.237 N 
ATOM     10  N   UNL A   1      33.997  25.269  23.947  1.00  0.00    -0.158 NA
ATOM     11  C   UNL A   1      32.668  24.042  25.576  1.00  0.00     0.044 A 
ATOM     12  C   UNL A   1      31.502  24.506  25.103  1.00  0.00     0.078 A 
ATOM     13  C   UNL A   1      32.655  23.267  26.873  1.00  0.00     0.067 C 
ATOM     14  C   UNL A   1      31.564  25.182  23.799  1.00  0.00     0.213 A 
ATOM     15  O   UNL A   1      30.567  25.306  23.106  1.00  0.00    -0.287 OA
BRANCH   9  16
ATOM     16  C   UNL A   1      35.052  23.513  25.080  1.00  0.00     0.065 A 
ATOM     17  C   UNL A   1      37.389  21.962  25.401  1.00  0.00     0.119 A 
ATOM     18  C   UNL A   1      36.262  21.424  24.777  1.00  0.00     0.048 A 
ATOM     19  C   UNL A   1      37.352  23.273  25.871  1.00  0.00     0.048 A 
ATOM     20  C   UNL A   1      35.096  22.183  24.641  1.00  0.00     0.032 A 
ATOM     21  C   UNL A   1      36.192  24.040  25.712  1.00  0.00     0.032 A 
BRANCH  17  22
ATOM     22  O   UNL A   1      38.483  21.143  25.448  1.00  0.00    -0.497 OA
ATOM     23  C   UNL A   1      39.617  21.680  26.121  1.00  0.00     0.278 C 
ENDBRANCH  17  22
ENDBRANCH   9  16
ENDBRANCH   5   8
ENDBRANCH   3   4
ENDBRANCH   2   3
ENDBRANCH   1   2
BRANCH   1  24
ATOM     24  C   UNL A   1      31.062  30.674  25.446  1.00  0.00     0.002 C 
BRANCH  24  25
ATOM     25  C   UNL A   1      30.950  31.935  26.305  1.00  0.00     0.021 C 
BRANCH  25  26
ATOM     26  C   UNL A   1      32.264  32.460  26.877  1.00  0.00     0.116 C 
BRANCH  26  27
ATOM     27  N   UNL A   1      32.161  33.832  27.345  1.00  0.00    -0.352 N 
ATOM     28  C   UNL A   1      32.903  34.489  28.293  1.00  0.00     0.251 C 
ATOM     29  H   UNL A   1      31.455  34.369  26.919  1.00  0.00     0.163 HD
ATOM     30  O   UNL A   1      32.554  35.600  28.688  1.00  0.00    -0.269 OA
BRANCH  28  31
ATOM     31  C   UNL A   1      34.114  33.859  28.859  1.00  0.00     0.039 A 
ATOM     32  C   UNL A   1      35.364  34.226  28.354  1.00  0.00     0.014 A 
ATOM     33  C   UNL A   1      34.021  32.896  29.867  1.00  0.00     0.014 A 
ATOM     34  C   UNL A   1      36.524  33.670  28.899  1.00  0.00     0.010 A 
ATOM     35  C   UNL A   1      35.180  32.397  30.459  1.00  0.00     0.010 A 
ATOM     36  C   UNL A   1      36.442  32.775  29.978  1.00  0.00    -0.014 A 
BRANCH  36  37
ATOM     37  C   UNL A   1      37.666  32.225  30.614  1.00  0.00     0.031 A 
ATOM     38  C   UNL A   1      38.334  31.004  30.045  1.00  0.00     0.074 A 
ATOM     39  C   UNL A   1      38.144  32.791  31.740  1.00  0.00     0.049 A 
ATOM     40  N   UNL A   1      39.377  30.349  30.491  1.00  0.00    -0.248 NA
ATOM     41  C   UNL A   1      37.739  30.426  28.828  1.00  0.00     0.031 C 
ATOM     42  C   UNL A   1      37.567  33.958  32.411  1.00  0.00     0.029 A 
ATOM     43  N   UNL A   1      39.222  32.459  32.520  1.00  0.00    -0.354 N 
ATOM     44  C   UNL A   1      39.553  29.280  29.622  1.00  0.00     0.074 A 
ATOM     45  C   UNL A   1      38.479  29.343  28.653  1.00  0.00     0.031 C 
ATOM     46  C   UNL A   1      38.314  34.260  33.486  1.00  0.00     0.029 A 
ATOM     47  C   UNL A   1      39.393  33.285  33.605  1.00  0.00     0.049 A 
ATOM     48  H   UNL A   1      39.816  31.700  32.323  1.00  0.00     0.167 HD
ATOM     49  C   UNL A   1      40.529  28.342  29.616  1.00  0.00     0.031 A 
ATOM     50  C   UNL A   1      40.311  33.258  34.589  1.00  0.00     0.031 A 
ATOM     51  C   UNL A   1      41.599  28.283  30.577  1.00  0.00     0.049 A 
ATOM     52  C   UNL A   1      41.369  32.189  34.575  1.00  0.00     0.074 A 
ATOM     53  C   UNL A   1      42.665  27.402  30.626  1.00  0.00     0.029 A 
ATOM     54  N   UNL A   1      41.735  29.138  31.659  1.00  0.00    -0.354 N 
ATOM     55  N   UNL A   1      41.560  31.226  33.707  1.00  0.00    -0.248 NA
ATOM     56  C   UNL A   1      42.345  32.213  35.674  1.00  0.00     0.031 C 
ATOM     57  C   UNL A   1      43.415  27.688  31.772  1.00  0.00     0.029 A 
ATOM     58  C   UNL A   1      42.852  28.788  32.399  1.00  0.00     0.049 A 
ATOM     59  H   UNL A   1      41.128  29.884  31.871  1.00  0.00     0.167 HD
ATOM     60  C   UNL A   1      42.694  30.549  34.136  1.00  0.00     0.074 A 
ATOM     61  C   UNL A   1      43.157  31.222  35.332  1.00  0.00     0.031 C 
ATOM     62  C   UNL A   1      43.300  29.466  33.589  1.00  0.00     0.031 A 
BRANCH  49  63
ATOM     63  C   UNL A   1      40.478  27.292  28.540  1.00  0.00    -0.014 A 
ATOM     64  C   UNL A   1      39.778  26.089  28.728  1.00  0.00     0.009 A 
ATOM     65  C   UNL A   1      41.107  27.523  27.307  1.00  0.00     0.009 A 
ATOM     66  C   UNL A   1      39.742  25.124  27.719  1.00  0.00     0.001 A 
ATOM     67  C   UNL A   1      41.043  26.571  26.287  1.00  0.00     0.001 A 
ATOM     68  C   UNL A   1      40.369  25.368  26.498  1.00  0.00     0.000 A 
ENDBRANCH  49  63
BRANCH  50  69
ATOM     69  C   UNL A   1      40.279  34.279  35.669  1.00  0.00    -0.014 A 
ATOM     70  C   UNL A   1      41.005  35.474  35.542  1.00  0.00     0.009 A 
ATOM     71  C   UNL A   1      39.531  34.061  36.837  1.00  0.00     0.009 A 
ATOM     72  C   UNL A   1      41.006  36.414  36.575  1.00  0.00     0.001 A 
ATOM     73  C   UNL A   1      39.510  35.018  37.854  1.00  0.00     0.001 A 
ATOM     74  C   UNL A   1      40.256  36.188  37.727  1.00  0.00     0.000 A 
ENDBRANCH  50  69
BRANCH  62  75
ATOM     75  C   UNL A   1      44.551  28.967  34.255  1.00  0.00    -0.014 A 
ATOM     76  C   UNL A   1      45.814  29.476  33.915  1.00  0.00     0.009 A 
ATOM     77  C   UNL A   1      44.457  28.000  35.269  1.00  0.00     0.009 A 
ATOM     78  C   UNL A   1      46.962  28.999  34.553  1.00  0.00     0.001 A 
ATOM     79  C   UNL A   1      45.603  27.550  35.927  1.00  0.00     0.001 A 
ATOM     80  C   UNL A   1      46.854  28.042  35.561  1.00  0.00     0.000 A 
ENDBRANCH  62  75
ENDBRANCH  36  37
ENDBRANCH  28  31
ENDBRANCH  26  27
ENDBRANCH  25  26
ENDBRANCH  24  25
ENDBRANCH   1  24
TORSDOF 15
ENDMDL
