MODEL 1
REMARK VINA RESULT:     -10.4      0.000      0.000
REMARK SMILES O=C(CCn1ccnc1)N[C@H]1C=C[C@H](C(=O)NCCCCCCNC(=O)c2ccc(-c3c4nc(c(-c5ccccc5)c5ccc([nH]5)c(-c5ccccc5)c5nc(c(-c6ccccc6)c6ccc3[nH]6)C=C5)C=C4)cc2)C1
REMARK SMILES IDX 19 1 18 2 17 3 15 4 16 5 14 7 11 8 12 9 75 10 13 11 10 12
REMARK SMILES IDX 1 13 2 14 3 16 4 17 5 18 6 19 9 20 7 21 8 22 20 23 21 24
REMARK SMILES IDX 22 25 23 26 24 27 25 28 26 30 27 31 28 32 74 33 29 34 73 35
REMARK SMILES IDX 30 36 31 37 32 38 67 39 33 40 72 41 66 42 68 43 34 44 71 45
REMARK SMILES IDX 65 46 64 47 35 49 57 50 42 51 56 52 43 53 46 54 55 55 69 56
REMARK SMILES IDX 44 57 45 58 54 60 70 61 47 62 36 63 37 64 41 65 38 66 40 67
REMARK SMILES IDX 39 68 58 69 59 70 63 71 60 72 62 73 61 74 48 75 49 76 53 77
REMARK SMILES IDX 50 78 52 79 51 80
REMARK H PARENT 17 6 10 15 24 29 68 48 46 59
REMARK Flexibility Score: inf
ROOT
ATOM      1  C   UNL A   1      33.549  32.745  28.084  1.00  0.00     0.021 C 
ENDROOT
BRANCH   1   2
ATOM      2  C   UNL A   1      33.820  31.309  27.637  1.00  0.00     0.116 C 
BRANCH   2   3
ATOM      3  N   UNL A   1      32.787  30.845  26.732  1.00  0.00    -0.356 N 
ATOM      4  C   UNL A   1      32.757  29.895  25.764  1.00  0.00     0.227 C 
ATOM      5  O   UNL A   1      31.735  29.862  25.066  1.00  0.00    -0.274 OA
ATOM      6  H   UNL A   1      31.929  31.316  26.842  1.00  0.00     0.163 HD
BRANCH   4   7
ATOM      7  C   UNL A   1      33.828  28.813  25.563  1.00  0.00     0.103 C 
ATOM      8  C   UNL A   1      32.935  26.714  24.666  1.00  0.00     0.106 C 
ATOM      9  C   UNL A   1      33.449  26.554  26.062  1.00  0.00    -0.006 C 
ATOM     10  C   UNL A   1      33.529  28.064  24.252  1.00  0.00     0.047 C 
ATOM     11  C   UNL A   1      33.972  27.691  26.537  1.00  0.00    -0.016 C 
BRANCH   8  12
ATOM     12  N   UNL A   1      33.512  25.635  23.910  1.00  0.00    -0.350 N 
ATOM     13  O   UNL A   1      31.748  25.281  22.504  1.00  0.00    -0.275 OA
ATOM     14  C   UNL A   1      32.845  24.943  22.937  1.00  0.00     0.222 C 
ATOM     15  H   UNL A   1      34.442  25.379  24.105  1.00  0.00     0.164 HD
BRANCH  14  16
ATOM     16  C   UNL A   1      33.486  23.631  22.515  1.00  0.00     0.122 C 
BRANCH  16  17
ATOM     17  C   UNL A   1      32.608  22.390  22.641  1.00  0.00     0.133 C 
BRANCH  17  18
ATOM     18  N   UNL A   1      32.865  21.520  23.773  1.00  0.00    -0.337 N 
ATOM     19  C   UNL A   1      33.487  21.903  24.931  1.00  0.00     0.107 A 
ATOM     20  C   UNL A   1      32.475  20.219  23.935  1.00  0.00     0.199 A 
ATOM     21  C   UNL A   1      33.344  20.837  25.786  1.00  0.00     0.130 A 
ATOM     22  N   UNL A   1      32.692  19.805  25.163  1.00  0.00    -0.245 NA
ENDBRANCH  17  18
ENDBRANCH  16  17
ENDBRANCH  14  16
ENDBRANCH   8  12
ENDBRANCH   4   7
ENDBRANCH   2   3
ENDBRANCH   1   2
BRANCH   1  23
ATOM     23  C   UNL A   1      34.785  33.647  28.062  1.00  0.00     0.002 C 
BRANCH  23  24
ATOM     24  C   UNL A   1      34.507  35.151  28.210  1.00  0.00     0.002 C 
BRANCH  24  25
ATOM     25  C   UNL A   1      33.178  35.527  28.881  1.00  0.00     0.021 C 
BRANCH  25  26
ATOM     26  C   UNL A   1      33.295  36.684  29.861  1.00  0.00     0.116 C 
BRANCH  26  27
ATOM     27  N   UNL A   1      32.511  36.456  31.069  1.00  0.00    -0.352 N 
ATOM     28  C   UNL A   1      32.656  35.460  32.008  1.00  0.00     0.251 C 
ATOM     29  H   UNL A   1      31.783  37.098  31.234  1.00  0.00     0.163 HD
ATOM     30  O   UNL A   1      31.740  35.171  32.764  1.00  0.00    -0.269 OA
BRANCH  28  31
ATOM     31  C   UNL A   1      33.938  34.738  32.090  1.00  0.00     0.039 A 
ATOM     32  C   UNL A   1      34.009  33.387  31.739  1.00  0.00     0.014 A 
ATOM     33  C   UNL A   1      35.072  35.423  32.526  1.00  0.00     0.014 A 
ATOM     34  C   UNL A   1      35.245  32.750  31.758  1.00  0.00     0.010 A 
ATOM     35  C   UNL A   1      36.309  34.826  32.439  1.00  0.00     0.010 A 
ATOM     36  C   UNL A   1      36.397  33.482  32.089  1.00  0.00    -0.014 A 
BRANCH  36  37
ATOM     37  C   UNL A   1      37.716  32.876  31.930  1.00  0.00     0.031 A 
ATOM     38  C   UNL A   1      38.505  32.771  33.189  1.00  0.00     0.074 A 
ATOM     39  C   UNL A   1      38.113  32.249  30.802  1.00  0.00     0.049 A 
ATOM     40  N   UNL A   1      39.628  33.343  33.472  1.00  0.00    -0.248 NA
ATOM     41  C   UNL A   1      37.915  32.028  34.316  1.00  0.00     0.031 C 
ATOM     42  C   UNL A   1      37.325  31.969  29.596  1.00  0.00     0.029 A 
ATOM     43  N   UNL A   1      39.287  31.608  30.547  1.00  0.00    -0.354 N 
ATOM     44  C   UNL A   1      39.985  32.891  34.741  1.00  0.00     0.074 A 
ATOM     45  C   UNL A   1      38.827  32.218  35.271  1.00  0.00     0.031 C 
ATOM     46  C   UNL A   1      37.950  31.023  28.860  1.00  0.00     0.029 A 
ATOM     47  C   UNL A   1      39.249  30.756  29.450  1.00  0.00     0.049 A 
ATOM     48  H   UNL A   1      40.096  31.737  31.095  1.00  0.00     0.167 HD
ATOM     49  C   UNL A   1      41.284  32.896  35.158  1.00  0.00     0.031 A 
ATOM     50  C   UNL A   1      40.202  29.868  29.073  1.00  0.00     0.031 A 
ATOM     51  C   UNL A   1      42.104  33.732  34.319  1.00  0.00     0.049 A 
ATOM     52  C   UNL A   1      41.461  30.257  29.743  1.00  0.00     0.074 A 
ATOM     53  C   UNL A   1      42.111  35.069  33.977  1.00  0.00     0.029 A 
ATOM     54  N   UNL A   1      42.877  33.096  33.376  1.00  0.00    -0.354 N 
ATOM     55  N   UNL A   1      42.123  31.339  29.457  1.00  0.00    -0.248 NA
ATOM     56  C   UNL A   1      41.762  29.662  31.035  1.00  0.00     0.031 C 
ATOM     57  C   UNL A   1      42.473  35.090  32.597  1.00  0.00     0.029 A 
ATOM     58  C   UNL A   1      42.735  33.777  32.199  1.00  0.00     0.049 A 
ATOM     59  H   UNL A   1      43.431  32.296  33.522  1.00  0.00     0.167 HD
ATOM     60  C   UNL A   1      42.569  31.810  30.683  1.00  0.00     0.074 A 
ATOM     61  C   UNL A   1      42.416  30.681  31.599  1.00  0.00     0.031 C 
ATOM     62  C   UNL A   1      42.747  33.147  30.899  1.00  0.00     0.031 A 
BRANCH  49  63
ATOM     63  C   UNL A   1      41.889  31.821  36.032  1.00  0.00    -0.014 A 
ATOM     64  C   UNL A   1      42.548  32.211  37.215  1.00  0.00     0.009 A 
ATOM     65  C   UNL A   1      42.103  30.498  35.603  1.00  0.00     0.009 A 
ATOM     66  C   UNL A   1      43.449  31.359  37.866  1.00  0.00     0.001 A 
ATOM     67  C   UNL A   1      42.969  29.631  36.274  1.00  0.00     0.001 A 
ATOM     68  C   UNL A   1      43.670  30.074  37.386  1.00  0.00     0.000 A 
ENDBRANCH  49  63
BRANCH  50  69
ATOM     69  C   UNL A   1      40.062  28.574  28.373  1.00  0.00    -0.014 A 
ATOM     70  C   UNL A   1      40.721  28.346  27.154  1.00  0.00     0.009 A 
ATOM     71  C   UNL A   1      39.512  27.464  29.037  1.00  0.00     0.009 A 
ATOM     72  C   UNL A   1      40.867  27.048  26.644  1.00  0.00     0.001 A 
ATOM     73  C   UNL A   1      39.654  26.168  28.527  1.00  0.00     0.001 A 
ATOM     74  C   UNL A   1      40.347  25.959  27.340  1.00  0.00     0.000 A 
ENDBRANCH  50  69
BRANCH  62  75
ATOM     75  C   UNL A   1      42.700  34.070  29.705  1.00  0.00    -0.014 A 
ATOM     76  C   UNL A   1      43.731  34.155  28.752  1.00  0.00     0.009 A 
ATOM     77  C   UNL A   1      41.506  34.762  29.457  1.00  0.00     0.009 A 
ATOM     78  C   UNL A   1      43.578  34.937  27.601  1.00  0.00     0.001 A 
ATOM     79  C   UNL A   1      41.345  35.522  28.297  1.00  0.00     0.001 A 
ATOM     80  C   UNL A   1      42.382  35.615  27.373  1.00  0.00     0.000 A 
ENDBRANCH  62  75
ENDBRANCH  36  37
ENDBRANCH  28  31
ENDBRANCH  26  27
ENDBRANCH  25  26
ENDBRANCH  24  25
ENDBRANCH  23  24
ENDBRANCH   1  23
TORSDOF 17
ENDMDL
MODEL 2
REMARK VINA RESULT:     -10.2      4.526     10.025
REMARK SMILES O=C(CCn1ccnc1)N[C@H]1C=C[C@H](C(=O)NCCCCCCNC(=O)c2ccc(-c3c4nc(c(-c5ccccc5)c5ccc([nH]5)c(-c5ccccc5)c5nc(c(-c6ccccc6)c6ccc3[nH]6)C=C5)C=C4)cc2)C1
REMARK SMILES IDX 19 1 18 2 17 3 15 4 16 5 14 7 11 8 12 9 75 10 13 11 10 12
REMARK SMILES IDX 1 13 2 14 3 16 4 17 5 18 6 19 9 20 7 21 8 22 20 23 21 24
REMARK SMILES IDX 22 25 23 26 24 27 25 28 26 30 27 31 28 32 74 33 29 34 73 35
REMARK SMILES IDX 30 36 31 37 32 38 67 39 33 40 72 41 66 42 68 43 34 44 71 45
REMARK SMILES IDX 65 46 64 47 35 49 57 50 42 51 56 52 43 53 46 54 55 55 69 56
REMARK SMILES IDX 44 57 45 58 54 60 70 61 47 62 36 63 37 64 41 65 38 66 40 67
REMARK SMILES IDX 39 68 58 69 59 70 63 71 60 72 62 73 61 74 48 75 49 76 53 77
REMARK SMILES IDX 50 78 52 79 51 80
REMARK H PARENT 17 6 10 15 24 29 68 48 46 59
REMARK Flexibility Score: inf
ROOT
ATOM      1  C   UNL A   1      39.027  23.203  26.856  1.00  0.00     0.021 C 
ENDROOT
BRANCH   1   2
ATOM      2  C   UNL A   1      37.985  23.309  25.744  1.00  0.00     0.116 C 
BRANCH   2   3
ATOM      3  N   UNL A   1      36.772  22.599  26.101  1.00  0.00    -0.356 N 
ATOM      4  C   UNL A   1      35.475  22.976  26.218  1.00  0.00     0.227 C 
ATOM      5  O   UNL A   1      34.705  22.134  26.698  1.00  0.00    -0.274 OA
ATOM      6  H   UNL A   1      36.921  21.647  26.300  1.00  0.00     0.163 HD
BRANCH   4   7
ATOM      7  C   UNL A   1      34.894  24.299  25.696  1.00  0.00     0.103 C 
ATOM      8  C   UNL A   1      32.578  24.106  24.918  1.00  0.00     0.106 C 
ATOM      9  C   UNL A   1      33.522  24.414  23.799  1.00  0.00    -0.006 C 
ATOM     10  C   UNL A   1      33.430  24.407  26.156  1.00  0.00     0.047 C 
ATOM     11  C   UNL A   1      34.781  24.558  24.231  1.00  0.00    -0.016 C 
BRANCH   8  12
ATOM     12  N   UNL A   1      31.496  25.045  24.787  1.00  0.00    -0.350 N 
ATOM     13  O   UNL A   1      30.255  23.858  23.281  1.00  0.00    -0.275 OA
ATOM     14  C   UNL A   1      30.452  24.889  23.916  1.00  0.00     0.222 C 
ATOM     15  H   UNL A   1      31.507  25.847  25.358  1.00  0.00     0.164 HD
BRANCH  14  16
ATOM     16  C   UNL A   1      29.618  26.135  23.672  1.00  0.00     0.122 C 
BRANCH  16  17
ATOM     17  C   UNL A   1      30.395  27.444  23.553  1.00  0.00     0.133 C 
BRANCH  17  18
ATOM     18  N   UNL A   1      29.700  28.563  22.945  1.00  0.00    -0.337 N 
ATOM     19  C   UNL A   1      30.295  29.538  22.190  1.00  0.00     0.107 A 
ATOM     20  C   UNL A   1      28.354  28.805  22.932  1.00  0.00     0.199 A 
ATOM     21  C   UNL A   1      29.256  30.268  21.663  1.00  0.00     0.130 A 
ATOM     22  N   UNL A   1      28.054  29.788  22.113  1.00  0.00    -0.245 NA
ENDBRANCH  17  18
ENDBRANCH  16  17
ENDBRANCH  14  16
ENDBRANCH   8  12
ENDBRANCH   4   7
ENDBRANCH   2   3
ENDBRANCH   1   2
BRANCH   1  23
ATOM     23  C   UNL A   1      40.218  22.305  26.508  1.00  0.00     0.002 C 
BRANCH  23  24
ATOM     24  C   UNL A   1      40.902  21.625  27.704  1.00  0.00     0.002 C 
BRANCH  24  25
ATOM     25  C   UNL A   1      41.898  20.507  27.363  1.00  0.00     0.021 C 
BRANCH  25  26
ATOM     26  C   UNL A   1      41.952  20.168  25.882  1.00  0.00     0.116 C 
BRANCH  26  27
ATOM     27  N   UNL A   1      43.310  19.880  25.438  1.00  0.00    -0.352 N 
ATOM     28  C   UNL A   1      44.315  20.768  25.128  1.00  0.00     0.251 C 
ATOM     29  H   UNL A   1      43.538  18.926  25.348  1.00  0.00     0.163 HD
ATOM     30  O   UNL A   1      45.268  20.423  24.443  1.00  0.00    -0.269 OA
BRANCH  28  31
ATOM     31  C   UNL A   1      44.227  22.150  25.631  1.00  0.00     0.039 A 
ATOM     32  C   UNL A   1      43.435  23.092  24.969  1.00  0.00     0.014 A 
ATOM     33  C   UNL A   1      44.949  22.500  26.772  1.00  0.00     0.014 A 
ATOM     34  C   UNL A   1      43.314  24.368  25.507  1.00  0.00     0.010 A 
ATOM     35  C   UNL A   1      44.743  23.725  27.364  1.00  0.00     0.010 A 
ATOM     36  C   UNL A   1      43.955  24.674  26.718  1.00  0.00    -0.014 A 
BRANCH  36  37
ATOM     37  C   UNL A   1      43.684  25.943  27.386  1.00  0.00     0.031 A 
ATOM     38  C   UNL A   1      44.603  27.052  27.003  1.00  0.00     0.074 A 
ATOM     39  C   UNL A   1      42.569  26.178  28.110  1.00  0.00     0.049 A 
ATOM     40  N   UNL A   1      45.434  27.691  27.757  1.00  0.00    -0.248 NA
ATOM     41  C   UNL A   1      44.687  27.420  25.579  1.00  0.00     0.031 C 
ATOM     42  C   UNL A   1      41.408  25.299  28.295  1.00  0.00     0.029 A 
ATOM     43  N   UNL A   1      42.180  27.323  28.735  1.00  0.00    -0.354 N 
ATOM     44  C   UNL A   1      46.018  28.667  26.952  1.00  0.00     0.074 A 
ATOM     45  C   UNL A   1      45.643  28.351  25.598  1.00  0.00     0.031 C 
ATOM     46  C   UNL A   1      40.367  26.021  28.767  1.00  0.00     0.029 A 
ATOM     47  C   UNL A   1      40.832  27.362  29.073  1.00  0.00     0.049 A 
ATOM     48  H   UNL A   1      42.801  28.061  28.932  1.00  0.00     0.167 HD
ATOM     49  C   UNL A   1      46.565  29.796  27.487  1.00  0.00     0.031 A 
ATOM     50  C   UNL A   1      40.139  28.430  29.537  1.00  0.00     0.031 A 
ATOM     51  C   UNL A   1      46.784  29.656  28.904  1.00  0.00     0.049 A 
ATOM     52  C   UNL A   1      41.121  29.412  30.044  1.00  0.00     0.074 A 
ATOM     53  C   UNL A   1      47.526  28.807  29.701  1.00  0.00     0.029 A 
ATOM     54  N   UNL A   1      45.862  30.246  29.735  1.00  0.00    -0.354 N 
ATOM     55  N   UNL A   1      41.851  29.218  31.103  1.00  0.00    -0.248 NA
ATOM     56  C   UNL A   1      41.606  30.432  29.128  1.00  0.00     0.031 C 
ATOM     57  C   UNL A   1      46.705  28.570  30.843  1.00  0.00     0.029 A 
ATOM     58  C   UNL A   1      45.548  29.341  30.712  1.00  0.00     0.049 A 
ATOM     59  H   UNL A   1      45.494  31.154  29.644  1.00  0.00     0.167 HD
ATOM     60  C   UNL A   1      43.091  29.741  30.772  1.00  0.00     0.074 A 
ATOM     61  C   UNL A   1      42.849  30.573  29.595  1.00  0.00     0.031 C 
ATOM     62  C   UNL A   1      44.237  29.224  31.308  1.00  0.00     0.031 A 
BRANCH  49  63
ATOM     63  C   UNL A   1      46.490  31.156  26.832  1.00  0.00    -0.014 A 
ATOM     64  C   UNL A   1      47.642  31.968  26.838  1.00  0.00     0.009 A 
ATOM     65  C   UNL A   1      45.281  31.788  26.486  1.00  0.00     0.009 A 
ATOM     66  C   UNL A   1      47.566  33.348  26.615  1.00  0.00     0.001 A 
ATOM     67  C   UNL A   1      45.209  33.158  26.221  1.00  0.00     0.001 A 
ATOM     68  C   UNL A   1      46.346  33.945  26.320  1.00  0.00     0.000 A 
ENDBRANCH  49  63
BRANCH  50  69
ATOM     69  C   UNL A   1      38.712  28.778  29.362  1.00  0.00    -0.014 A 
ATOM     70  C   UNL A   1      37.876  28.947  30.478  1.00  0.00     0.009 A 
ATOM     71  C   UNL A   1      38.239  29.222  28.115  1.00  0.00     0.009 A 
ATOM     72  C   UNL A   1      36.632  29.581  30.357  1.00  0.00     0.001 A 
ATOM     73  C   UNL A   1      36.995  29.852  27.994  1.00  0.00     0.001 A 
ATOM     74  C   UNL A   1      36.200  30.047  29.118  1.00  0.00     0.000 A 
ENDBRANCH  50  69
BRANCH  62  75
ATOM     75  C   UNL A   1      44.106  28.252  32.455  1.00  0.00    -0.014 A 
ATOM     76  C   UNL A   1      43.831  28.648  33.777  1.00  0.00     0.009 A 
ATOM     77  C   UNL A   1      44.109  26.881  32.160  1.00  0.00     0.009 A 
ATOM     78  C   UNL A   1      43.599  27.696  34.776  1.00  0.00     0.001 A 
ATOM     79  C   UNL A   1      43.854  25.933  33.152  1.00  0.00     0.001 A 
ATOM     80  C   UNL A   1      43.605  26.339  34.460  1.00  0.00     0.000 A 
ENDBRANCH  62  75
ENDBRANCH  36  37
ENDBRANCH  28  31
ENDBRANCH  26  27
ENDBRANCH  25  26
ENDBRANCH  24  25
ENDBRANCH  23  24
ENDBRANCH   1  23
TORSDOF 17
ENDMDL
MODEL 3
REMARK VINA RESULT:     -10.2      3.350      5.188
REMARK SMILES O=C(CCn1ccnc1)N[C@H]1C=C[C@H](C(=O)NCCCCCCNC(=O)c2ccc(-c3c4nc(c(-c5ccccc5)c5ccc([nH]5)c(-c5ccccc5)c5nc(c(-c6ccccc6)c6ccc3[nH]6)C=C5)C=C4)cc2)C1
REMARK SMILES IDX 19 1 18 2 17 3 15 4 16 5 14 7 11 8 12 9 75 10 13 11 10 12
REMARK SMILES IDX 1 13 2 14 3 16 4 17 5 18 6 19 9 20 7 21 8 22 20 23 21 24
REMARK SMILES IDX 22 25 23 26 24 27 25 28 26 30 27 31 28 32 74 33 29 34 73 35
REMARK SMILES IDX 30 36 31 37 32 38 67 39 33 40 72 41 66 42 68 43 34 44 71 45
REMARK SMILES IDX 65 46 64 47 35 49 57 50 42 51 56 52 43 53 46 54 55 55 69 56
REMARK SMILES IDX 44 57 45 58 54 60 70 61 47 62 36 63 37 64 41 65 38 66 40 67
REMARK SMILES IDX 39 68 58 69 59 70 63 71 60 72 62 73 61 74 48 75 49 76 53 77
REMARK SMILES IDX 50 78 52 79 51 80
REMARK H PARENT 17 6 10 15 24 29 68 48 46 59
REMARK Flexibility Score: inf
ROOT
ATOM      1  C   UNL A   1      32.245  29.000  27.013  1.00  0.00     0.021 C 
ENDROOT
BRANCH   1   2
ATOM      2  C   UNL A   1      31.645  28.546  25.684  1.00  0.00     0.116 C 
BRANCH   2   3
ATOM      3  N   UNL A   1      32.674  28.396  24.675  1.00  0.00    -0.356 N 
ATOM      4  C   UNL A   1      32.940  27.438  23.753  1.00  0.00     0.227 C 
ATOM      5  O   UNL A   1      34.008  27.555  23.139  1.00  0.00    -0.274 OA
ATOM      6  H   UNL A   1      33.313  29.144  24.654  1.00  0.00     0.163 HD
BRANCH   4   7
ATOM      7  C   UNL A   1      31.972  26.315  23.350  1.00  0.00     0.103 C 
ATOM      8  C   UNL A   1      32.980  24.083  23.435  1.00  0.00     0.106 C 
ATOM      9  C   UNL A   1      32.635  24.489  22.037  1.00  0.00    -0.006 C 
ATOM     10  C   UNL A   1      32.209  25.107  24.274  1.00  0.00     0.047 C 
ATOM     11  C   UNL A   1      32.048  25.691  21.996  1.00  0.00    -0.016 C 
BRANCH   8  12
ATOM     12  N   UNL A   1      32.443  22.759  23.603  1.00  0.00    -0.350 N 
ATOM     13  O   UNL A   1      34.333  21.774  24.425  1.00  0.00    -0.275 OA
ATOM     14  C   UNL A   1      33.182  21.682  24.009  1.00  0.00     0.222 C 
ATOM     15  H   UNL A   1      31.487  22.620  23.413  1.00  0.00     0.164 HD
BRANCH  14  16
ATOM     16  C   UNL A   1      32.534  20.326  23.781  1.00  0.00     0.122 C 
BRANCH  16  17
ATOM     17  C   UNL A   1      32.613  19.347  24.950  1.00  0.00     0.133 C 
BRANCH  17  18
ATOM     18  N   UNL A   1      33.066  18.003  24.646  1.00  0.00    -0.337 N 
ATOM     19  C   UNL A   1      32.893  16.915  25.459  1.00  0.00     0.107 A 
ATOM     20  C   UNL A   1      33.653  17.558  23.494  1.00  0.00     0.199 A 
ATOM     21  C   UNL A   1      33.291  15.836  24.706  1.00  0.00     0.130 A 
ATOM     22  N   UNL A   1      33.739  16.247  23.477  1.00  0.00    -0.245 NA
ENDBRANCH  17  18
ENDBRANCH  16  17
ENDBRANCH  14  16
ENDBRANCH   8  12
ENDBRANCH   4   7
ENDBRANCH   2   3
ENDBRANCH   1   2
BRANCH   1  23
ATOM     23  C   UNL A   1      33.709  28.596  27.205  1.00  0.00     0.002 C 
BRANCH  23  24
ATOM     24  C   UNL A   1      34.701  29.760  27.354  1.00  0.00     0.002 C 
BRANCH  24  25
ATOM     25  C   UNL A   1      34.083  31.142  27.615  1.00  0.00     0.021 C 
BRANCH  25  26
ATOM     26  C   UNL A   1      35.102  32.203  27.999  1.00  0.00     0.116 C 
BRANCH  26  27
ATOM     27  N   UNL A   1      35.004  32.569  29.407  1.00  0.00    -0.352 N 
ATOM     28  C   UNL A   1      35.606  31.970  30.490  1.00  0.00     0.251 C 
ATOM     29  H   UNL A   1      34.431  33.344  29.609  1.00  0.00     0.163 HD
ATOM     30  O   UNL A   1      35.175  32.140  31.622  1.00  0.00    -0.269 OA
BRANCH  28  31
ATOM     31  C   UNL A   1      36.784  31.113  30.269  1.00  0.00     0.039 A 
ATOM     32  C   UNL A   1      38.035  31.686  30.022  1.00  0.00     0.014 A 
ATOM     33  C   UNL A   1      36.628  29.728  30.304  1.00  0.00     0.014 A 
ATOM     34  C   UNL A   1      39.142  30.855  29.887  1.00  0.00     0.010 A 
ATOM     35  C   UNL A   1      37.736  28.913  30.281  1.00  0.00     0.010 A 
ATOM     36  C   UNL A   1      38.990  29.468  30.039  1.00  0.00    -0.014 A 
BRANCH  36  37
ATOM     37  C   UNL A   1      40.167  28.606  30.088  1.00  0.00     0.031 A 
ATOM     38  C   UNL A   1      40.776  28.466  31.441  1.00  0.00     0.074 A 
ATOM     39  C   UNL A   1      40.550  27.814  29.064  1.00  0.00     0.049 A 
ATOM     40  N   UNL A   1      41.954  28.834  31.823  1.00  0.00    -0.248 NA
ATOM     41  C   UNL A   1      39.928  27.957  32.532  1.00  0.00     0.031 C 
ATOM     42  C   UNL A   1      39.858  27.583  27.790  1.00  0.00     0.029 A 
ATOM     43  N   UNL A   1      41.590  26.937  29.002  1.00  0.00    -0.354 N 
ATOM     44  C   UNL A   1      42.072  28.438  33.154  1.00  0.00     0.074 A 
ATOM     45  C   UNL A   1      40.750  28.053  33.579  1.00  0.00     0.031 C 
ATOM     46  C   UNL A   1      40.354  26.470  27.204  1.00  0.00     0.029 A 
ATOM     47  C   UNL A   1      41.500  26.012  27.969  1.00  0.00     0.049 A 
ATOM     48  H   UNL A   1      42.343  26.957  29.637  1.00  0.00     0.167 HD
ATOM     49  C   UNL A   1      43.290  28.230  33.729  1.00  0.00     0.031 A 
ATOM     50  C   UNL A   1      42.288  24.926  27.775  1.00  0.00     0.031 A 
ATOM     51  C   UNL A   1      44.350  28.811  32.944  1.00  0.00     0.049 A 
ATOM     52  C   UNL A   1      43.519  25.123  28.570  1.00  0.00     0.074 A 
ATOM     53  C   UNL A   1      44.666  30.085  32.516  1.00  0.00     0.029 A 
ATOM     54  N   UNL A   1      45.076  27.954  32.151  1.00  0.00    -0.354 N 
ATOM     55  N   UNL A   1      44.414  26.027  28.296  1.00  0.00    -0.248 NA
ATOM     56  C   UNL A   1      43.550  24.602  29.927  1.00  0.00     0.031 C 
ATOM     57  C   UNL A   1      45.173  29.909  31.195  1.00  0.00     0.029 A 
ATOM     58  C   UNL A   1      45.205  28.540  30.922  1.00  0.00     0.049 A 
ATOM     59  H   UNL A   1      45.436  27.079  32.420  1.00  0.00     0.167 HD
ATOM     60  C   UNL A   1      44.809  26.512  29.534  1.00  0.00     0.074 A 
ATOM     61  C   UNL A   1      44.331  25.522  30.497  1.00  0.00     0.031 C 
ATOM     62  C   UNL A   1      45.231  27.803  29.679  1.00  0.00     0.031 A 
BRANCH  49  63
ATOM     63  C   UNL A   1      43.566  27.143  34.743  1.00  0.00    -0.014 A 
ATOM     64  C   UNL A   1      43.431  25.800  34.339  1.00  0.00     0.009 A 
ATOM     65  C   UNL A   1      43.652  27.374  36.128  1.00  0.00     0.009 A 
ATOM     66  C   UNL A   1      43.285  24.766  35.271  1.00  0.00     0.001 A 
ATOM     67  C   UNL A   1      43.549  26.339  37.061  1.00  0.00     0.001 A 
ATOM     68  C   UNL A   1      43.330  25.038  36.633  1.00  0.00     0.000 A 
ENDBRANCH  49  63
BRANCH  50  69
ATOM     69  C   UNL A   1      41.965  23.625  27.152  1.00  0.00    -0.014 A 
ATOM     70  C   UNL A   1      42.895  22.981  26.320  1.00  0.00     0.009 A 
ATOM     71  C   UNL A   1      40.860  22.880  27.598  1.00  0.00     0.009 A 
ATOM     72  C   UNL A   1      42.749  21.628  25.987  1.00  0.00     0.001 A 
ATOM     73  C   UNL A   1      40.712  21.529  27.263  1.00  0.00     0.001 A 
ATOM     74  C   UNL A   1      41.666  20.899  26.472  1.00  0.00     0.000 A 
ENDBRANCH  50  69
BRANCH  62  75
ATOM     75  C   UNL A   1      45.502  28.604  28.430  1.00  0.00    -0.014 A 
ATOM     76  C   UNL A   1      44.553  29.456  27.835  1.00  0.00     0.009 A 
ATOM     77  C   UNL A   1      46.811  28.615  27.926  1.00  0.00     0.009 A 
ATOM     78  C   UNL A   1      44.901  30.267  26.749  1.00  0.00     0.001 A 
ATOM     79  C   UNL A   1      47.163  29.442  26.859  1.00  0.00     0.001 A 
ATOM     80  C   UNL A   1      46.207  30.263  26.266  1.00  0.00     0.000 A 
ENDBRANCH  62  75
ENDBRANCH  36  37
ENDBRANCH  28  31
ENDBRANCH  26  27
ENDBRANCH  25  26
ENDBRANCH  24  25
ENDBRANCH  23  24
ENDBRANCH   1  23
TORSDOF 17
ENDMDL
