MODEL 1
REMARK VINA RESULT:     -11.7      0.000      0.000
REMARK SMILES C[NH+]1CCC(NC(=O)N[C@H]2C=C[C@H](C(=O)NCCCCCCNC(=O)c3ccc(-c4c5nc(c(-c6ccccc6)c6ccc([nH]6)c(-c6ccccc6)c6nc(c(-c7ccccc7)c7ccc4[nH]7)C=C6)C=C5)cc3)C2)CC1
REMARK SMILES IDX 19 1 18 2 17 3 16 4 14 5 15 6 13 8 10 9 11 10 74 11 12 12
REMARK SMILES IDX 9 13 6 14 7 15 8 17 5 19 1 20 2 21 3 22 76 23 4 25 75 26
REMARK SMILES IDX 20 27 21 28 22 29 23 30 24 31 25 33 26 34 27 35 73 36 28 37
REMARK SMILES IDX 72 38 29 39 30 40 31 41 66 42 32 43 71 44 65 45 67 46 33 47
REMARK SMILES IDX 70 48 64 49 63 50 34 52 56 53 41 54 55 55 42 56 45 57 54 58
REMARK SMILES IDX 68 59 43 60 44 61 53 63 69 64 46 65 35 66 36 67 40 68 37 69
REMARK SMILES IDX 39 70 38 71 57 72 58 73 62 74 59 75 61 76 60 77 47 78 48 79
REMARK SMILES IDX 52 80 49 81 51 82 50 83
REMARK H PARENT 16 7 6 16 9 18 2 24 23 32 67 51 45 62
REMARK Flexibility Score: inf
ROOT
ATOM      1  C   UNL A   1      35.365  20.685  25.375  1.00  0.00     0.002 C 
ENDROOT
BRANCH   1   2
ATOM      2  C   UNL A   1      35.110  21.687  26.508  1.00  0.00     0.021 C 
BRANCH   2   3
ATOM      3  C   UNL A   1      33.873  21.356  27.351  1.00  0.00     0.116 C 
BRANCH   3   4
ATOM      4  N   UNL A   1      33.033  22.509  27.636  1.00  0.00    -0.356 N 
ATOM      5  C   UNL A   1      32.280  23.270  26.777  1.00  0.00     0.227 C 
ATOM      6  O   UNL A   1      31.438  24.032  27.251  1.00  0.00    -0.274 OA
ATOM      7  H   UNL A   1      33.000  22.782  28.582  1.00  0.00     0.163 HD
BRANCH   5   8
ATOM      8  C   UNL A   1      32.526  23.158  25.271  1.00  0.00     0.103 C 
ATOM      9  C   UNL A   1      31.693  24.485  23.377  1.00  0.00     0.107 C 
ATOM     10  C   UNL A   1      31.038  23.152  23.440  1.00  0.00    -0.006 C 
ATOM     11  C   UNL A   1      32.656  24.524  24.567  1.00  0.00     0.047 C 
ATOM     12  C   UNL A   1      31.429  22.458  24.516  1.00  0.00    -0.016 C 
BRANCH   9  13
ATOM     13  N   UNL A   1      32.206  24.824  22.057  1.00  0.00    -0.332 N 
ATOM     14  N   UNL A   1      32.582  27.138  21.628  1.00  0.00    -0.335 N 
ATOM     15  C   UNL A   1      32.561  25.850  21.285  1.00  0.00     0.315 C 
ATOM     16  H   UNL A   1      32.800  27.737  20.877  1.00  0.00     0.165 HD
ATOM     17  O   UNL A   1      32.902  25.578  20.129  1.00  0.00    -0.249 OA
ATOM     18  H   UNL A   1      32.341  23.991  21.550  1.00  0.00     0.165 HD
BRANCH  14  19
ATOM     19  C   UNL A   1      32.353  27.837  22.867  1.00  0.00     0.095 C 
ATOM     20  C   UNL A   1      31.794  30.465  26.127  1.00  0.00     0.332 C 
ATOM     21  N   UNL A   1      32.042  30.031  24.750  1.00  0.00    -0.337 N 
ATOM     22  C   UNL A   1      30.866  29.362  24.183  1.00  0.00     0.264 C 
ATOM     23  C   UNL A   1      33.274  29.229  24.700  1.00  0.00     0.264 C 
ATOM     24  H   UNL A   1      32.197  30.842  24.152  1.00  0.00     0.347 HD
ATOM     25  C   UNL A   1      31.119  28.733  22.810  1.00  0.00     0.086 C 
ATOM     26  C   UNL A   1      33.551  28.666  23.308  1.00  0.00     0.086 C 
ENDBRANCH  14  19
ENDBRANCH   9  13
ENDBRANCH   5   8
ENDBRANCH   3   4
ENDBRANCH   2   3
ENDBRANCH   1   2
BRANCH   1  27
ATOM     27  C   UNL A   1      36.719  20.844  24.665  1.00  0.00     0.002 C 
BRANCH  27  28
ATOM     28  C   UNL A   1      37.764  19.767  24.969  1.00  0.00     0.021 C 
BRANCH  28  29
ATOM     29  C   UNL A   1      38.986  20.239  25.753  1.00  0.00     0.116 C 
BRANCH  29  30
ATOM     30  N   UNL A   1      40.018  19.218  25.842  1.00  0.00    -0.352 N 
ATOM     31  C   UNL A   1      41.371  19.337  26.027  1.00  0.00     0.251 C 
ATOM     32  H   UNL A   1      39.694  18.293  25.755  1.00  0.00     0.163 HD
ATOM     33  O   UNL A   1      42.098  18.354  25.875  1.00  0.00    -0.269 OA
BRANCH  31  34
ATOM     34  C   UNL A   1      41.971  20.637  26.391  1.00  0.00     0.039 A 
ATOM     35  C   UNL A   1      42.447  21.471  25.375  1.00  0.00     0.014 A 
ATOM     36  C   UNL A   1      42.093  21.026  27.727  1.00  0.00     0.014 A 
ATOM     37  C   UNL A   1      42.984  22.719  25.695  1.00  0.00     0.010 A 
ATOM     38  C   UNL A   1      42.556  22.301  28.040  1.00  0.00     0.010 A 
ATOM     39  C   UNL A   1      43.008  23.160  27.028  1.00  0.00    -0.014 A 
BRANCH  39  40
ATOM     40  C   UNL A   1      43.490  24.522  27.378  1.00  0.00     0.031 A 
ATOM     41  C   UNL A   1      42.517  25.585  27.810  1.00  0.00     0.074 A 
ATOM     42  C   UNL A   1      44.798  24.816  27.250  1.00  0.00     0.049 A 
ATOM     43  N   UNL A   1      42.746  26.840  28.107  1.00  0.00    -0.248 NA
ATOM     44  C   UNL A   1      41.101  25.195  27.899  1.00  0.00     0.031 C 
ATOM     45  C   UNL A   1      45.837  23.884  26.807  1.00  0.00     0.029 A 
ATOM     46  N   UNL A   1      45.478  25.987  27.477  1.00  0.00    -0.354 N 
ATOM     47  C   UNL A   1      41.504  27.390  28.404  1.00  0.00     0.074 A 
ATOM     48  C   UNL A   1      40.522  26.348  28.200  1.00  0.00     0.031 C 
ATOM     49  C   UNL A   1      47.025  24.509  26.824  1.00  0.00     0.029 A 
ATOM     50  C   UNL A   1      46.827  25.895  27.234  1.00  0.00     0.049 A 
ATOM     51  H   UNL A   1      45.040  26.813  27.784  1.00  0.00     0.167 HD
ATOM     52  C   UNL A   1      41.211  28.643  28.826  1.00  0.00     0.031 A 
ATOM     53  C   UNL A   1      47.796  26.825  27.321  1.00  0.00     0.031 A 
ATOM     54  C   UNL A   1      42.189  29.678  29.029  1.00  0.00     0.049 A 
ATOM     55  C   UNL A   1      47.438  28.218  27.759  1.00  0.00     0.074 A 
ATOM     56  C   UNL A   1      41.998  30.964  29.504  1.00  0.00     0.029 A 
ATOM     57  N   UNL A   1      43.544  29.548  28.763  1.00  0.00    -0.354 N 
ATOM     58  N   UNL A   1      46.269  28.702  28.103  1.00  0.00    -0.248 NA
ATOM     59  C   UNL A   1      48.538  29.190  27.831  1.00  0.00     0.031 C 
ATOM     60  C   UNL A   1      43.226  31.632  29.466  1.00  0.00     0.029 A 
ATOM     61  C   UNL A   1      44.195  30.740  29.032  1.00  0.00     0.049 A 
ATOM     62  H   UNL A   1      43.978  28.728  28.431  1.00  0.00     0.167 HD
ATOM     63  C   UNL A   1      46.498  30.025  28.458  1.00  0.00     0.074 A 
ATOM     64  C   UNL A   1      47.919  30.261  28.306  1.00  0.00     0.031 C 
ATOM     65  C   UNL A   1      45.609  30.962  28.873  1.00  0.00     0.031 A 
BRANCH  52  66
ATOM     66  C   UNL A   1      39.764  28.965  29.088  1.00  0.00    -0.014 A 
ATOM     67  C   UNL A   1      38.940  29.494  28.081  1.00  0.00     0.009 A 
ATOM     68  C   UNL A   1      39.206  28.700  30.348  1.00  0.00     0.009 A 
ATOM     69  C   UNL A   1      37.601  29.788  28.343  1.00  0.00     0.001 A 
ATOM     70  C   UNL A   1      37.858  28.965  30.598  1.00  0.00     0.001 A 
ATOM     71  C   UNL A   1      37.059  29.519  29.599  1.00  0.00     0.000 A 
ENDBRANCH  52  66
BRANCH  53  72
ATOM     72  C   UNL A   1      49.204  26.470  26.995  1.00  0.00    -0.014 A 
ATOM     73  C   UNL A   1      50.077  26.022  27.999  1.00  0.00     0.009 A 
ATOM     74  C   UNL A   1      49.685  26.588  25.682  1.00  0.00     0.009 A 
ATOM     75  C   UNL A   1      51.408  25.726  27.699  1.00  0.00     0.001 A 
ATOM     76  C   UNL A   1      51.009  26.260  25.379  1.00  0.00     0.001 A 
ATOM     77  C   UNL A   1      51.872  25.840  26.390  1.00  0.00     0.000 A 
ENDBRANCH  53  72
BRANCH  65  78
ATOM     78  C   UNL A   1      46.153  32.318  29.225  1.00  0.00    -0.014 A 
ATOM     79  C   UNL A   1      46.622  32.607  30.516  1.00  0.00     0.009 A 
ATOM     80  C   UNL A   1      46.232  33.312  28.235  1.00  0.00     0.009 A 
ATOM     81  C   UNL A   1      47.125  33.875  30.818  1.00  0.00     0.001 A 
ATOM     82  C   UNL A   1      46.766  34.567  28.531  1.00  0.00     0.001 A 
ATOM     83  C   UNL A   1      47.203  34.850  29.823  1.00  0.00     0.000 A 
ENDBRANCH  65  78
ENDBRANCH  39  40
ENDBRANCH  31  34
ENDBRANCH  29  30
ENDBRANCH  28  29
ENDBRANCH  27  28
ENDBRANCH   1  27
TORSDOF 15
ENDMDL
MODEL 2
REMARK VINA RESULT:     -11.6      4.357      9.744
REMARK SMILES C[NH+]1CCC(NC(=O)N[C@H]2C=C[C@H](C(=O)NCCCCCCNC(=O)c3ccc(-c4c5nc(c(-c6ccccc6)c6ccc([nH]6)c(-c6ccccc6)c6nc(c(-c7ccccc7)c7ccc4[nH]7)C=C6)C=C5)cc3)C2)CC1
REMARK SMILES IDX 19 1 18 2 17 3 16 4 14 5 15 6 13 8 10 9 11 10 74 11 12 12
REMARK SMILES IDX 9 13 6 14 7 15 8 17 5 19 1 20 2 21 3 22 76 23 4 25 75 26
REMARK SMILES IDX 20 27 21 28 22 29 23 30 24 31 25 33 26 34 27 35 73 36 28 37
REMARK SMILES IDX 72 38 29 39 30 40 31 41 66 42 32 43 71 44 65 45 67 46 33 47
REMARK SMILES IDX 70 48 64 49 63 50 34 52 56 53 41 54 55 55 42 56 45 57 54 58
REMARK SMILES IDX 68 59 43 60 44 61 53 63 69 64 46 65 35 66 36 67 40 68 37 69
REMARK SMILES IDX 39 70 38 71 57 72 58 73 62 74 59 75 61 76 60 77 47 78 48 79
REMARK SMILES IDX 52 80 49 81 51 82 50 83
REMARK H PARENT 16 7 6 16 9 18 2 24 23 32 67 51 45 62
REMARK Flexibility Score: inf
ROOT
ATOM      1  C   UNL A   1      33.206  29.514  27.258  1.00  0.00     0.002 C 
ENDROOT
BRANCH   1   2
ATOM      2  C   UNL A   1      34.042  28.912  26.123  1.00  0.00     0.021 C 
BRANCH   2   3
ATOM      3  C   UNL A   1      33.596  29.365  24.727  1.00  0.00     0.116 C 
BRANCH   3   4
ATOM      4  N   UNL A   1      33.848  28.384  23.684  1.00  0.00    -0.356 N 
ATOM      5  C   UNL A   1      33.059  27.343  23.260  1.00  0.00     0.227 C 
ATOM      6  O   UNL A   1      33.334  26.794  22.194  1.00  0.00    -0.274 OA
ATOM      7  H   UNL A   1      34.708  28.480  23.215  1.00  0.00     0.163 HD
BRANCH   5   8
ATOM      8  C   UNL A   1      31.885  26.894  24.133  1.00  0.00     0.103 C 
ATOM      9  C   UNL A   1      31.056  24.659  24.731  1.00  0.00     0.107 C 
ATOM     10  C   UNL A   1      30.160  25.330  23.751  1.00  0.00    -0.006 C 
ATOM     11  C   UNL A   1      32.197  25.647  24.986  1.00  0.00     0.047 C 
ATOM     12  C   UNL A   1      30.652  26.513  23.362  1.00  0.00    -0.016 C 
BRANCH   9  13
ATOM     13  N   UNL A   1      30.353  24.097  25.877  1.00  0.00    -0.332 N 
ATOM     14  N   UNL A   1      31.393  22.241  26.951  1.00  0.00    -0.335 N 
ATOM     15  C   UNL A   1      30.412  23.129  26.790  1.00  0.00     0.315 C 
ATOM     16  H   UNL A   1      31.195  21.562  27.636  1.00  0.00     0.165 HD
ATOM     17  O   UNL A   1      29.454  23.045  27.566  1.00  0.00    -0.249 OA
ATOM     18  H   UNL A   1      29.538  24.626  26.034  1.00  0.00     0.165 HD
BRANCH  14  19
ATOM     19  C   UNL A   1      32.682  22.065  26.331  1.00  0.00     0.095 C 
ATOM     20  C   UNL A   1      36.563  21.062  25.001  1.00  0.00     0.332 C 
ATOM     21  N   UNL A   1      35.336  21.006  25.799  1.00  0.00    -0.337 N 
ATOM     22  C   UNL A   1      34.189  20.590  24.984  1.00  0.00     0.264 C 
ATOM     23  C   UNL A   1      35.145  22.284  26.501  1.00  0.00     0.264 C 
ATOM     24  H   UNL A   1      35.422  20.287  26.518  1.00  0.00     0.347 HD
ATOM     25  C   UNL A   1      32.850  20.678  25.719  1.00  0.00     0.086 C 
ATOM     26  C   UNL A   1      33.837  22.332  27.286  1.00  0.00     0.086 C 
ENDBRANCH  14  19
ENDBRANCH   9  13
ENDBRANCH   5   8
ENDBRANCH   3   4
ENDBRANCH   2   3
ENDBRANCH   1   2
BRANCH   1  27
ATOM     27  C   UNL A   1      31.796  29.970  26.851  1.00  0.00     0.002 C 
BRANCH  27  28
ATOM     28  C   UNL A   1      31.534  31.478  26.920  1.00  0.00     0.021 C 
BRANCH  28  29
ATOM     29  C   UNL A   1      32.780  32.360  26.941  1.00  0.00     0.116 C 
BRANCH  29  30
ATOM     30  N   UNL A   1      32.509  33.691  27.465  1.00  0.00    -0.352 N 
ATOM     31  C   UNL A   1      33.134  34.397  28.460  1.00  0.00     0.251 C 
ATOM     32  H   UNL A   1      31.757  34.159  27.036  1.00  0.00     0.163 HD
ATOM     33  O   UNL A   1      32.624  35.435  28.885  1.00  0.00    -0.269 OA
BRANCH  31  34
ATOM     34  C   UNL A   1      34.406  33.920  29.039  1.00  0.00     0.039 A 
ATOM     35  C   UNL A   1      34.369  33.105  30.175  1.00  0.00     0.014 A 
ATOM     36  C   UNL A   1      35.635  34.293  28.489  1.00  0.00     0.014 A 
ATOM     37  C   UNL A   1      35.558  32.613  30.716  1.00  0.00     0.010 A 
ATOM     38  C   UNL A   1      36.813  33.740  28.981  1.00  0.00     0.010 A 
ATOM     39  C   UNL A   1      36.788  32.896  30.101  1.00  0.00    -0.014 A 
BRANCH  39  40
ATOM     40  C   UNL A   1      38.054  32.306  30.608  1.00  0.00     0.031 A 
ATOM     41  C   UNL A   1      38.584  31.026  30.023  1.00  0.00     0.074 A 
ATOM     42  C   UNL A   1      38.695  32.895  31.636  1.00  0.00     0.049 A 
ATOM     43  N   UNL A   1      39.644  30.338  30.370  1.00  0.00    -0.248 NA
ATOM     44  C   UNL A   1      37.814  30.427  28.921  1.00  0.00     0.031 C 
ATOM     45  C   UNL A   1      38.265  34.120  32.314  1.00  0.00     0.029 A 
ATOM     46  N   UNL A   1      39.845  32.538  32.295  1.00  0.00    -0.354 N 
ATOM     47  C   UNL A   1      39.658  29.223  29.540  1.00  0.00     0.074 A 
ATOM     48  C   UNL A   1      38.475  29.299  28.711  1.00  0.00     0.031 C 
ATOM     49  C   UNL A   1      39.155  34.429  33.270  1.00  0.00     0.029 A 
ATOM     50  C   UNL A   1      40.191  33.403  33.305  1.00  0.00     0.049 A 
ATOM     51  H   UNL A   1      40.371  31.739  32.066  1.00  0.00     0.167 HD
ATOM     52  C   UNL A   1      40.582  28.237  29.461  1.00  0.00     0.031 A 
ATOM     53  C   UNL A   1      41.222  33.369  34.170  1.00  0.00     0.031 A 
ATOM     54  C   UNL A   1      41.759  28.162  30.285  1.00  0.00     0.049 A 
ATOM     55  C   UNL A   1      42.215  32.244  34.084  1.00  0.00     0.074 A 
ATOM     56  C   UNL A   1      42.781  27.229  30.247  1.00  0.00     0.029 A 
ATOM     57  N   UNL A   1      42.068  29.052  31.303  1.00  0.00    -0.354 N 
ATOM     58  N   UNL A   1      42.251  31.235  33.247  1.00  0.00    -0.248 NA
ATOM     59  C   UNL A   1      43.315  32.258  35.057  1.00  0.00     0.031 C 
ATOM     60  C   UNL A   1      43.676  27.519  31.282  1.00  0.00     0.029 A 
ATOM     61  C   UNL A   1      43.248  28.673  31.920  1.00  0.00     0.049 A 
ATOM     62  H   UNL A   1      41.528  29.838  31.548  1.00  0.00     0.167 HD
ATOM     63  C   UNL A   1      43.391  30.513  33.574  1.00  0.00     0.074 A 
ATOM     64  C   UNL A   1      44.028  31.209  34.673  1.00  0.00     0.031 C 
ATOM     65  C   UNL A   1      43.868  29.373  33.015  1.00  0.00     0.031 A 
BRANCH  52  66
ATOM     66  C   UNL A   1      40.348  27.147  28.449  1.00  0.00    -0.014 A 
ATOM     67  C   UNL A   1      39.568  26.019  28.757  1.00  0.00     0.009 A 
ATOM     68  C   UNL A   1      40.882  27.266  27.157  1.00  0.00     0.009 A 
ATOM     69  C   UNL A   1      39.364  25.018  27.806  1.00  0.00     0.001 A 
ATOM     70  C   UNL A   1      40.649  26.279  26.198  1.00  0.00     0.001 A 
ATOM     71  C   UNL A   1      39.900  25.151  26.526  1.00  0.00     0.000 A 
ENDBRANCH  52  66
BRANCH  53  72
ATOM     72  C   UNL A   1      41.376  34.441  35.190  1.00  0.00    -0.014 A 
ATOM     73  C   UNL A   1      40.757  34.326  36.445  1.00  0.00     0.009 A 
ATOM     74  C   UNL A   1      42.133  35.590  34.911  1.00  0.00     0.009 A 
ATOM     75  C   UNL A   1      40.871  35.351  37.387  1.00  0.00     0.001 A 
ATOM     76  C   UNL A   1      42.271  36.599  35.867  1.00  0.00     0.001 A 
ATOM     77  C   UNL A   1      41.631  36.483  37.100  1.00  0.00     0.000 A 
ENDBRANCH  53  72
BRANCH  65  78
ATOM     78  C   UNL A   1      45.159  28.827  33.560  1.00  0.00    -0.014 A 
ATOM     79  C   UNL A   1      45.174  27.878  34.594  1.00  0.00     0.009 A 
ATOM     80  C   UNL A   1      46.378  29.244  33.002  1.00  0.00     0.009 A 
ATOM     81  C   UNL A   1      46.386  27.384  35.081  1.00  0.00     0.001 A 
ATOM     82  C   UNL A   1      47.586  28.724  33.469  1.00  0.00     0.001 A 
ATOM     83  C   UNL A   1      47.589  27.803  34.514  1.00  0.00     0.000 A 
ENDBRANCH  65  78
ENDBRANCH  39  40
ENDBRANCH  31  34
ENDBRANCH  29  30
ENDBRANCH  28  29
ENDBRANCH  27  28
ENDBRANCH   1  27
TORSDOF 15
ENDMDL
MODEL 3
REMARK VINA RESULT:     -11.5      1.666      6.093
REMARK SMILES C[NH+]1CCC(NC(=O)N[C@H]2C=C[C@H](C(=O)NCCCCCCNC(=O)c3ccc(-c4c5nc(c(-c6ccccc6)c6ccc([nH]6)c(-c6ccccc6)c6nc(c(-c7ccccc7)c7ccc4[nH]7)C=C6)C=C5)cc3)C2)CC1
REMARK SMILES IDX 19 1 18 2 17 3 16 4 14 5 15 6 13 8 10 9 11 10 74 11 12 12
REMARK SMILES IDX 9 13 6 14 7 15 8 17 5 19 1 20 2 21 3 22 76 23 4 25 75 26
REMARK SMILES IDX 20 27 21 28 22 29 23 30 24 31 25 33 26 34 27 35 73 36 28 37
REMARK SMILES IDX 72 38 29 39 30 40 31 41 66 42 32 43 71 44 65 45 67 46 33 47
REMARK SMILES IDX 70 48 64 49 63 50 34 52 56 53 41 54 55 55 42 56 45 57 54 58
REMARK SMILES IDX 68 59 43 60 44 61 53 63 69 64 46 65 35 66 36 67 40 68 37 69
REMARK SMILES IDX 39 70 38 71 57 72 58 73 62 74 59 75 61 76 60 77 47 78 48 79
REMARK SMILES IDX 52 80 49 81 51 82 50 83
REMARK H PARENT 16 7 6 16 9 18 2 24 23 32 67 51 45 62
REMARK Flexibility Score: inf
ROOT
ATOM      1  C   UNL A   1      34.740  20.949  25.733  1.00  0.00     0.002 C 
ENDROOT
BRANCH   1   2
ATOM      2  C   UNL A   1      33.514  20.197  25.200  1.00  0.00     0.021 C 
BRANCH   2   3
ATOM      3  C   UNL A   1      32.284  21.092  25.006  1.00  0.00     0.116 C 
BRANCH   3   4
ATOM      4  N   UNL A   1      31.952  21.893  26.174  1.00  0.00    -0.356 N 
ATOM      5  C   UNL A   1      31.750  23.247  26.270  1.00  0.00     0.227 C 
ATOM      6  O   UNL A   1      31.221  23.692  27.288  1.00  0.00    -0.274 OA
ATOM      7  H   UNL A   1      31.860  21.391  27.016  1.00  0.00     0.163 HD
BRANCH   5   8
ATOM      8  C   UNL A   1      32.201  24.151  25.121  1.00  0.00     0.103 C 
ATOM      9  C   UNL A   1      33.033  23.635  22.867  1.00  0.00     0.107 C 
ATOM     10  C   UNL A   1      34.127  24.105  23.758  1.00  0.00    -0.006 C 
ATOM     11  C   UNL A   1      31.770  23.639  23.732  1.00  0.00     0.047 C 
ATOM     12  C   UNL A   1      33.693  24.310  25.008  1.00  0.00    -0.016 C 
BRANCH   9  13
ATOM     13  N   UNL A   1      32.996  24.313  21.578  1.00  0.00    -0.332 N 
ATOM     14  N   UNL A   1      32.611  26.665  21.629  1.00  0.00    -0.335 N 
ATOM     15  C   UNL A   1      32.812  25.503  21.007  1.00  0.00     0.315 C 
ATOM     16  H   UNL A   1      32.418  27.408  21.012  1.00  0.00     0.165 HD
ATOM     17  O   UNL A   1      32.826  25.529  19.772  1.00  0.00    -0.249 OA
ATOM     18  H   UNL A   1      33.171  23.651  20.871  1.00  0.00     0.165 HD
BRANCH  14  19
ATOM     19  C   UNL A   1      32.616  27.061  23.014  1.00  0.00     0.095 C 
ATOM     20  C   UNL A   1      32.461  28.855  26.835  1.00  0.00     0.332 C 
ATOM     21  N   UNL A   1      32.358  28.732  25.379  1.00  0.00    -0.337 N 
ATOM     22  C   UNL A   1      31.284  27.808  24.998  1.00  0.00     0.264 C 
ATOM     23  C   UNL A   1      33.675  28.392  24.818  1.00  0.00     0.264 C 
ATOM     24  H   UNL A   1      32.089  29.629  24.973  1.00  0.00     0.347 HD
ATOM     25  C   UNL A   1      31.239  27.504  23.498  1.00  0.00     0.086 C 
ATOM     26  C   UNL A   1      33.626  28.161  23.309  1.00  0.00     0.086 C 
ENDBRANCH  14  19
ENDBRANCH   9  13
ENDBRANCH   5   8
ENDBRANCH   3   4
ENDBRANCH   2   3
ENDBRANCH   1   2
BRANCH   1  27
ATOM     27  C   UNL A   1      35.917  21.045  24.749  1.00  0.00     0.002 C 
BRANCH  27  28
ATOM     28  C   UNL A   1      37.061  20.052  24.977  1.00  0.00     0.021 C 
BRANCH  28  29
ATOM     29  C   UNL A   1      38.400  20.671  25.371  1.00  0.00     0.116 C 
BRANCH  29  30
ATOM     30  N   UNL A   1      39.439  19.671  25.567  1.00  0.00    -0.352 N 
ATOM     31  C   UNL A   1      40.731  19.807  26.003  1.00  0.00     0.251 C 
ATOM     32  H   UNL A   1      39.171  18.749  25.352  1.00  0.00     0.163 HD
ATOM     33  O   UNL A   1      41.510  18.857  25.910  1.00  0.00    -0.269 OA
BRANCH  31  34
ATOM     34  C   UNL A   1      41.205  21.086  26.569  1.00  0.00     0.039 A 
ATOM     35  C   UNL A   1      41.776  22.034  25.715  1.00  0.00     0.014 A 
ATOM     36  C   UNL A   1      41.117  21.346  27.939  1.00  0.00     0.014 A 
ATOM     37  C   UNL A   1      42.197  23.264  26.224  1.00  0.00     0.010 A 
ATOM     38  C   UNL A   1      41.465  22.600  28.432  1.00  0.00     0.010 A 
ATOM     39  C   UNL A   1      42.010  23.572  27.580  1.00  0.00    -0.014 A 
BRANCH  39  40
ATOM     40  C   UNL A   1      42.366  24.909  28.122  1.00  0.00     0.031 A 
ATOM     41  C   UNL A   1      43.779  25.208  28.542  1.00  0.00     0.074 A 
ATOM     42  C   UNL A   1      41.402  25.834  28.290  1.00  0.00     0.049 A 
ATOM     43  N   UNL A   1      44.266  26.298  29.081  1.00  0.00    -0.248 NA
ATOM     44  C   UNL A   1      44.771  24.137  28.354  1.00  0.00     0.031 C 
ATOM     45  C   UNL A   1      39.987  25.655  27.955  1.00  0.00     0.029 A 
ATOM     46  N   UNL A   1      41.465  27.111  28.789  1.00  0.00    -0.354 N 
ATOM     47  C   UNL A   1      45.612  26.039  29.307  1.00  0.00     0.074 A 
ATOM     48  C   UNL A   1      45.854  24.673  28.897  1.00  0.00     0.031 C 
ATOM     49  C   UNL A   1      39.324  26.790  28.229  1.00  0.00     0.029 A 
ATOM     50  C   UNL A   1      40.253  27.758  28.801  1.00  0.00     0.049 A 
ATOM     51  H   UNL A   1      42.299  27.524  29.110  1.00  0.00     0.167 HD
ATOM     52  C   UNL A   1      46.565  26.869  29.793  1.00  0.00     0.031 A 
ATOM     53  C   UNL A   1      39.923  28.990  29.231  1.00  0.00     0.031 A 
ATOM     54  C   UNL A   1      46.325  28.228  30.199  1.00  0.00     0.049 A 
ATOM     55  C   UNL A   1      40.995  29.880  29.799  1.00  0.00     0.074 A 
ATOM     56  C   UNL A   1      47.235  29.165  30.657  1.00  0.00     0.029 A 
ATOM     57  N   UNL A   1      45.081  28.843  30.204  1.00  0.00    -0.354 N 
ATOM     58  N   UNL A   1      42.277  29.643  29.941  1.00  0.00    -0.248 NA
ATOM     59  C   UNL A   1      40.573  31.211  30.257  1.00  0.00     0.031 C 
ATOM     60  C   UNL A   1      46.533  30.326  30.998  1.00  0.00     0.029 A 
ATOM     61  C   UNL A   1      45.195  30.136  30.687  1.00  0.00     0.049 A 
ATOM     62  H   UNL A   1      44.243  28.421  29.907  1.00  0.00     0.167 HD
ATOM     63  C   UNL A   1      42.818  30.804  30.477  1.00  0.00     0.074 A 
ATOM     64  C   UNL A   1      41.729  31.749  30.617  1.00  0.00     0.031 C 
ATOM     65  C   UNL A   1      44.103  31.064  30.823  1.00  0.00     0.031 A 
BRANCH  52  66
ATOM     66  C   UNL A   1      47.962  26.321  29.921  1.00  0.00    -0.014 A 
ATOM     67  C   UNL A   1      48.873  26.388  28.854  1.00  0.00     0.009 A 
ATOM     68  C   UNL A   1      48.385  25.765  31.138  1.00  0.00     0.009 A 
ATOM     69  C   UNL A   1      50.164  25.873  28.991  1.00  0.00     0.001 A 
ATOM     70  C   UNL A   1      49.686  25.279  31.283  1.00  0.00     0.001 A 
ATOM     71  C   UNL A   1      50.571  25.324  30.207  1.00  0.00     0.000 A 
ENDBRANCH  52  66
BRANCH  53  72
ATOM     72  C   UNL A   1      38.516  29.463  29.135  1.00  0.00    -0.014 A 
ATOM     73  C   UNL A   1      37.635  29.304  30.216  1.00  0.00     0.009 A 
ATOM     74  C   UNL A   1      38.044  30.067  27.959  1.00  0.00     0.009 A 
ATOM     75  C   UNL A   1      36.304  29.713  30.110  1.00  0.00     0.001 A 
ATOM     76  C   UNL A   1      36.720  30.504  27.868  1.00  0.00     0.001 A 
ATOM     77  C   UNL A   1      35.849  30.317  28.940  1.00  0.00     0.000 A 
ENDBRANCH  53  72
BRANCH  65  78
ATOM     78  C   UNL A   1      44.408  32.436  31.356  1.00  0.00    -0.014 A 
ATOM     79  C   UNL A   1      44.736  33.498  30.498  1.00  0.00     0.009 A 
ATOM     80  C   UNL A   1      44.328  32.678  32.736  1.00  0.00     0.009 A 
ATOM     81  C   UNL A   1      45.013  34.765  31.016  1.00  0.00     0.001 A 
ATOM     82  C   UNL A   1      44.572  33.953  33.249  1.00  0.00     0.001 A 
ATOM     83  C   UNL A   1      44.924  34.992  32.390  1.00  0.00     0.000 A 
ENDBRANCH  65  78
ENDBRANCH  39  40
ENDBRANCH  31  34
ENDBRANCH  29  30
ENDBRANCH  28  29
ENDBRANCH  27  28
ENDBRANCH   1  27
TORSDOF 15
ENDMDL
