MODEL 1
REMARK VINA RESULT:     -13.0      0.000      0.000
REMARK SMILES NS(=O)(=O)c1ccc(-n2nc(C(=O)NCCCCCCNC(=O)c3ccc(-c4c5nc(c(-c6ccccc6)c6ccc([nH]6)c(-c6ccccc6)c6nc(c(-c7ccccc7)c7ccc4[nH]7)C=C6)C=C5)cc3)c(Cl)c2-c2ccc(Cl)cc2)cc1
REMARK SMILES IDX 17 1 16 2 15 3 14 4 12 5 13 6 11 8 9 9 10 10 74 11 72 12
REMARK SMILES IDX 73 13 8 14 5 15 6 16 83 17 7 18 82 19 2 20 3 21 4 22 1 23
REMARK SMILES IDX 75 26 76 27 81 28 77 29 80 30 78 31 79 32 18 33 19 34 20 35
REMARK SMILES IDX 21 36 22 37 23 39 24 40 25 41 71 42 26 43 70 44 27 45 28 46
REMARK SMILES IDX 29 47 64 48 30 49 69 50 63 51 65 52 31 53 68 54 62 55 61 56
REMARK SMILES IDX 32 58 54 59 39 60 53 61 40 62 43 63 52 64 66 65 41 66 42 67
REMARK SMILES IDX 51 69 67 70 44 71 33 72 34 73 38 74 35 75 37 76 36 77 55 78
REMARK SMILES IDX 56 79 60 80 57 81 59 82 58 83 45 84 46 85 50 86 47 87 49 88
REMARK SMILES IDX 48 89
REMARK H PARENT 14 7 1 24 1 25 21 38 65 57 43 68
REMARK Flexibility Score: inf
ROOT
ATOM      1  C   UNL A   1      36.524  21.510  25.697  1.00  0.00     0.002 C 
ENDROOT
BRANCH   1   2
ATOM      2  C   UNL A   1      35.480  22.564  25.320  1.00  0.00     0.021 C 
BRANCH   2   3
ATOM      3  C   UNL A   1      35.119  22.624  23.829  1.00  0.00     0.116 C 
BRANCH   3   4
ATOM      4  N   UNL A   1      33.789  22.087  23.592  1.00  0.00    -0.351 N 
ATOM      5  C   UNL A   1      32.528  22.646  23.643  1.00  0.00     0.273 C 
ATOM      6  O   UNL A   1      31.602  21.906  23.302  1.00  0.00    -0.267 OA
ATOM      7  H   UNL A   1      33.788  21.134  23.345  1.00  0.00     0.163 HD
BRANCH   5   8
ATOM      8  C   UNL A   1      32.304  24.059  24.004  1.00  0.00     0.169 A 
ATOM      9  N   UNL A   1      31.709  26.115  23.711  1.00  0.00    -0.231 N 
ATOM     10  N   UNL A   1      31.708  24.893  23.122  1.00  0.00    -0.160 NA
ATOM     11  C   UNL A   1      32.421  26.107  24.896  1.00  0.00     0.094 A 
ATOM     12  C   UNL A   1      32.515  24.762  25.210  1.00  0.00     0.100 A 
ATOM     13  Cl  UNL A   1      32.763  24.164  26.783  1.00  0.00    -0.079 Cl
BRANCH   9  14
ATOM     14  C   UNL A   1      30.890  27.159  23.211  1.00  0.00     0.065 A 
ATOM     15  C   UNL A   1      29.276  29.337  22.575  1.00  0.00     0.082 A 
ATOM     16  C   UNL A   1      28.707  28.213  23.179  1.00  0.00     0.024 A 
ATOM     17  C   UNL A   1      30.637  29.362  22.247  1.00  0.00     0.024 A 
ATOM     18  C   UNL A   1      29.511  27.107  23.472  1.00  0.00     0.030 A 
ATOM     19  C   UNL A   1      31.451  28.279  22.587  1.00  0.00     0.030 A 
BRANCH  15  20
ATOM     20  S   UNL A   1      28.285  30.763  22.239  1.00  0.00     0.238 S 
ATOM     21  O   UNL A   1      27.399  31.002  23.367  1.00  0.00    -0.207 OA
ATOM     22  O   UNL A   1      27.825  30.703  20.883  1.00  0.00    -0.207 OA
BRANCH  20  23
ATOM     23  N   UNL A   1      29.409  32.015  22.308  1.00  0.00    -0.225 NA
ATOM     24  H   UNL A   1      30.182  31.814  21.674  1.00  0.00     0.137 HD
ATOM     25  H   UNL A   1      29.764  32.100  23.261  1.00  0.00     0.137 HD
ENDBRANCH  20  23
ENDBRANCH  15  20
ENDBRANCH   9  14
BRANCH  11  26
ATOM     26  C   UNL A   1      32.693  27.209  25.809  1.00  0.00     0.002 A 
ATOM     27  C   UNL A   1      31.608  27.824  26.453  1.00  0.00     0.012 A 
ATOM     28  C   UNL A   1      33.954  27.815  25.841  1.00  0.00     0.012 A 
ATOM     29  C   UNL A   1      31.769  29.064  27.070  1.00  0.00     0.021 A 
ATOM     30  C   UNL A   1      34.112  29.056  26.459  1.00  0.00     0.021 A 
ATOM     31  C   UNL A   1      33.015  29.685  27.048  1.00  0.00     0.041 A 
ATOM     32  Cl  UNL A   1      33.190  31.265  27.704  1.00  0.00    -0.084 Cl
ENDBRANCH  11  26
ENDBRANCH   5   8
ENDBRANCH   3   4
ENDBRANCH   2   3
ENDBRANCH   1   2
BRANCH   1  33
ATOM     33  C   UNL A   1      36.430  20.175  24.941  1.00  0.00     0.002 C 
BRANCH  33  34
ATOM     34  C   UNL A   1      37.716  19.336  24.842  1.00  0.00     0.021 C 
BRANCH  34  35
ATOM     35  C   UNL A   1      38.941  20.004  25.445  1.00  0.00     0.116 C 
BRANCH  35  36
ATOM     36  N   UNL A   1      40.019  19.052  25.757  1.00  0.00    -0.352 N 
ATOM     37  C   UNL A   1      41.354  19.277  26.051  1.00  0.00     0.251 C 
ATOM     38  H   UNL A   1      39.748  18.105  25.756  1.00  0.00     0.163 HD
ATOM     39  O   UNL A   1      42.180  18.377  25.953  1.00  0.00    -0.269 OA
BRANCH  37  40
ATOM     40  C   UNL A   1      41.773  20.615  26.506  1.00  0.00     0.039 A 
ATOM     41  C   UNL A   1      42.630  21.456  25.784  1.00  0.00     0.014 A 
ATOM     42  C   UNL A   1      41.260  21.031  27.721  1.00  0.00     0.014 A 
ATOM     43  C   UNL A   1      42.937  22.711  26.314  1.00  0.00     0.010 A 
ATOM     44  C   UNL A   1      41.271  22.349  28.036  1.00  0.00     0.010 A 
ATOM     45  C   UNL A   1      42.254  23.132  27.459  1.00  0.00    -0.014 A 
BRANCH  45  46
ATOM     46  C   UNL A   1      42.490  24.379  28.163  1.00  0.00     0.031 A 
ATOM     47  C   UNL A   1      41.433  25.396  27.979  1.00  0.00     0.074 A 
ATOM     48  C   UNL A   1      43.350  24.418  29.210  1.00  0.00     0.049 A 
ATOM     49  N   UNL A   1      41.526  26.536  27.384  1.00  0.00    -0.248 NA
ATOM     50  C   UNL A   1      40.059  25.034  28.377  1.00  0.00     0.031 C 
ATOM     51  C   UNL A   1      44.155  23.314  29.765  1.00  0.00     0.029 A 
ATOM     52  N   UNL A   1      43.559  25.412  30.112  1.00  0.00    -0.354 N 
ATOM     53  C   UNL A   1      40.274  27.124  27.519  1.00  0.00     0.074 A 
ATOM     54  C   UNL A   1      39.371  26.066  27.891  1.00  0.00     0.031 C 
ATOM     55  C   UNL A   1      44.567  23.635  31.012  1.00  0.00     0.029 A 
ATOM     56  C   UNL A   1      44.187  25.009  31.287  1.00  0.00     0.049 A 
ATOM     57  H   UNL A   1      43.287  26.344  29.948  1.00  0.00     0.167 HD
ATOM     58  C   UNL A   1      40.126  28.473  27.630  1.00  0.00     0.031 A 
ATOM     59  C   UNL A   1      44.337  25.739  32.420  1.00  0.00     0.031 A 
ATOM     60  C   UNL A   1      41.352  29.165  27.319  1.00  0.00     0.049 A 
ATOM     61  C   UNL A   1      44.092  27.157  32.064  1.00  0.00     0.074 A 
ATOM     62  C   UNL A   1      42.190  29.222  26.222  1.00  0.00     0.029 A 
ATOM     63  N   UNL A   1      42.097  29.611  28.388  1.00  0.00    -0.354 N 
ATOM     64  N   UNL A   1      44.872  27.846  31.281  1.00  0.00    -0.248 NA
ATOM     65  C   UNL A   1      42.738  27.672  32.199  1.00  0.00     0.031 C 
ATOM     66  C   UNL A   1      43.507  29.237  26.769  1.00  0.00     0.029 A 
ATOM     67  C   UNL A   1      43.404  29.268  28.161  1.00  0.00     0.049 A 
ATOM     68  H   UNL A   1      41.751  30.091  29.175  1.00  0.00     0.167 HD
ATOM     69  C   UNL A   1      44.009  28.588  30.486  1.00  0.00     0.074 A 
ATOM     70  C   UNL A   1      42.720  28.531  31.174  1.00  0.00     0.031 C 
ATOM     71  C   UNL A   1      44.346  28.918  29.204  1.00  0.00     0.031 A 
BRANCH  58  72
ATOM     72  C   UNL A   1      39.026  29.132  28.427  1.00  0.00    -0.014 A 
ATOM     73  C   UNL A   1      38.936  28.852  29.801  1.00  0.00     0.009 A 
ATOM     74  C   UNL A   1      37.929  29.802  27.850  1.00  0.00     0.009 A 
ATOM     75  C   UNL A   1      37.785  29.162  30.535  1.00  0.00     0.001 A 
ATOM     76  C   UNL A   1      36.798  30.157  28.589  1.00  0.00     0.001 A 
ATOM     77  C   UNL A   1      36.715  29.809  29.927  1.00  0.00     0.000 A 
ENDBRANCH  58  72
BRANCH  59  78
ATOM     78  C   UNL A   1      44.426  25.282  33.825  1.00  0.00    -0.014 A 
ATOM     79  C   UNL A   1      45.534  25.605  34.625  1.00  0.00     0.009 A 
ATOM     80  C   UNL A   1      43.295  24.744  34.466  1.00  0.00     0.009 A 
ATOM     81  C   UNL A   1      45.496  25.427  36.017  1.00  0.00     0.001 A 
ATOM     82  C   UNL A   1      43.257  24.565  35.853  1.00  0.00     0.001 A 
ATOM     83  C   UNL A   1      44.354  24.920  36.631  1.00  0.00     0.000 A 
ENDBRANCH  59  78
BRANCH  71  84
ATOM     84  C   UNL A   1      45.767  28.649  28.760  1.00  0.00    -0.014 A 
ATOM     85  C   UNL A   1      46.190  27.408  28.248  1.00  0.00     0.009 A 
ATOM     86  C   UNL A   1      46.664  29.724  28.712  1.00  0.00     0.009 A 
ATOM     87  C   UNL A   1      47.481  27.244  27.734  1.00  0.00     0.001 A 
ATOM     88  C   UNL A   1      47.945  29.566  28.180  1.00  0.00     0.001 A 
ATOM     89  C   UNL A   1      48.356  28.325  27.696  1.00  0.00     0.000 A 
ENDBRANCH  71  84
ENDBRANCH  45  46
ENDBRANCH  37  40
ENDBRANCH  35  36
ENDBRANCH  34  35
ENDBRANCH  33  34
ENDBRANCH   1  33
TORSDOF 17
ENDMDL
MODEL 2
REMARK VINA RESULT:     -12.7      4.177      9.655
REMARK SMILES NS(=O)(=O)c1ccc(-n2nc(C(=O)NCCCCCCNC(=O)c3ccc(-c4c5nc(c(-c6ccccc6)c6ccc([nH]6)c(-c6ccccc6)c6nc(c(-c7ccccc7)c7ccc4[nH]7)C=C6)C=C5)cc3)c(Cl)c2-c2ccc(Cl)cc2)cc1
REMARK SMILES IDX 17 1 16 2 15 3 14 4 12 5 13 6 11 8 9 9 10 10 74 11 72 12
REMARK SMILES IDX 73 13 8 14 5 15 6 16 83 17 7 18 82 19 2 20 3 21 4 22 1 23
REMARK SMILES IDX 75 26 76 27 81 28 77 29 80 30 78 31 79 32 18 33 19 34 20 35
REMARK SMILES IDX 21 36 22 37 23 39 24 40 25 41 71 42 26 43 70 44 27 45 28 46
REMARK SMILES IDX 29 47 64 48 30 49 69 50 63 51 65 52 31 53 68 54 62 55 61 56
REMARK SMILES IDX 32 58 54 59 39 60 53 61 40 62 43 63 52 64 66 65 41 66 42 67
REMARK SMILES IDX 51 69 67 70 44 71 33 72 34 73 38 74 35 75 37 76 36 77 55 78
REMARK SMILES IDX 56 79 60 80 57 81 59 82 58 83 45 84 46 85 50 86 47 87 49 88
REMARK SMILES IDX 48 89
REMARK H PARENT 14 7 1 24 1 25 21 38 65 57 43 68
REMARK Flexibility Score: inf
ROOT
ATOM      1  C   UNL A   1      31.792  29.561  26.547  1.00  0.00     0.002 C 
ENDROOT
BRANCH   1   2
ATOM      2  C   UNL A   1      32.004  28.225  25.832  1.00  0.00     0.021 C 
BRANCH   2   3
ATOM      3  C   UNL A   1      31.040  27.102  26.243  1.00  0.00     0.116 C 
BRANCH   3   4
ATOM      4  N   UNL A   1      30.258  26.643  25.108  1.00  0.00    -0.351 N 
ATOM      5  C   UNL A   1      30.395  25.576  24.243  1.00  0.00     0.273 C 
ATOM      6  O   UNL A   1      29.489  25.436  23.419  1.00  0.00    -0.267 OA
ATOM      7  H   UNL A   1      29.473  27.206  24.917  1.00  0.00     0.163 HD
BRANCH   5   8
ATOM      8  C   UNL A   1      31.510  24.614  24.345  1.00  0.00     0.169 A 
ATOM      9  N   UNL A   1      32.465  22.708  24.690  1.00  0.00    -0.231 N 
ATOM     10  N   UNL A   1      31.254  23.308  24.586  1.00  0.00    -0.160 NA
ATOM     11  C   UNL A   1      33.494  23.630  24.660  1.00  0.00     0.094 A 
ATOM     12  C   UNL A   1      32.898  24.765  24.136  1.00  0.00     0.100 A 
ATOM     13  Cl  UNL A   1      33.746  26.011  23.347  1.00  0.00    -0.079 Cl
BRANCH   9  14
ATOM     14  C   UNL A   1      32.579  21.296  24.629  1.00  0.00     0.065 A 
ATOM     15  C   UNL A   1      33.119  18.581  24.331  1.00  0.00     0.082 A 
ATOM     16  C   UNL A   1      32.595  19.300  23.253  1.00  0.00     0.024 A 
ATOM     17  C   UNL A   1      33.335  19.199  25.568  1.00  0.00     0.024 A 
ATOM     18  C   UNL A   1      32.296  20.655  23.411  1.00  0.00     0.030 A 
ATOM     19  C   UNL A   1      33.085  20.566  25.711  1.00  0.00     0.030 A 
BRANCH  15  20
ATOM     20  S   UNL A   1      33.548  16.875  24.136  1.00  0.00     0.238 S 
ATOM     21  O   UNL A   1      33.914  16.632  22.751  1.00  0.00    -0.207 OA
ATOM     22  O   UNL A   1      32.598  16.071  24.846  1.00  0.00    -0.207 OA
BRANCH  20  23
ATOM     23  N   UNL A   1      34.998  16.763  24.984  1.00  0.00    -0.225 NA
ATOM     24  H   UNL A   1      35.430  17.685  25.044  1.00  0.00     0.137 HD
ATOM     25  H   UNL A   1      35.628  16.124  24.498  1.00  0.00     0.137 HD
ENDBRANCH  20  23
ENDBRANCH  15  20
ENDBRANCH   9  14
BRANCH  11  26
ATOM     26  C   UNL A   1      34.929  23.408  24.779  1.00  0.00     0.002 A 
ATOM     27  C   UNL A   1      35.546  22.537  23.866  1.00  0.00     0.012 A 
ATOM     28  C   UNL A   1      35.624  23.825  25.919  1.00  0.00     0.012 A 
ATOM     29  C   UNL A   1      36.822  22.040  24.124  1.00  0.00     0.021 A 
ATOM     30  C   UNL A   1      36.902  23.326  26.174  1.00  0.00     0.021 A 
ATOM     31  C   UNL A   1      37.485  22.418  25.289  1.00  0.00     0.041 A 
ATOM     32  Cl  UNL A   1      39.008  21.717  25.669  1.00  0.00    -0.084 Cl
ENDBRANCH  11  26
ENDBRANCH   5   8
ENDBRANCH   3   4
ENDBRANCH   2   3
ENDBRANCH   1   2
BRANCH   1  33
ATOM     33  C   UNL A   1      31.363  30.738  25.656  1.00  0.00     0.002 C 
BRANCH  33  34
ATOM     34  C   UNL A   1      31.094  32.082  26.353  1.00  0.00     0.021 C 
BRANCH  34  35
ATOM     35  C   UNL A   1      32.169  32.490  27.348  1.00  0.00     0.116 C 
BRANCH  35  36
ATOM     36  N   UNL A   1      32.220  33.945  27.572  1.00  0.00    -0.352 N 
ATOM     37  C   UNL A   1      33.006  34.689  28.439  1.00  0.00     0.251 C 
ATOM     38  H   UNL A   1      31.599  34.471  27.019  1.00  0.00     0.163 HD
ATOM     39  O   UNL A   1      32.693  35.834  28.744  1.00  0.00    -0.269 OA
BRANCH  37  40
ATOM     40  C   UNL A   1      34.240  34.093  28.980  1.00  0.00     0.039 A 
ATOM     41  C   UNL A   1      34.413  33.731  30.322  1.00  0.00     0.014 A 
ATOM     42  C   UNL A   1      35.264  33.889  28.072  1.00  0.00     0.014 A 
ATOM     43  C   UNL A   1      35.626  33.156  30.708  1.00  0.00     0.010 A 
ATOM     44  C   UNL A   1      36.262  33.024  28.373  1.00  0.00     0.010 A 
ATOM     45  C   UNL A   1      36.549  32.826  29.711  1.00  0.00    -0.014 A 
BRANCH  45  46
ATOM     46  C   UNL A   1      37.872  32.274  29.945  1.00  0.00     0.031 A 
ATOM     47  C   UNL A   1      38.024  30.860  29.542  1.00  0.00     0.074 A 
ATOM     48  C   UNL A   1      38.937  33.098  30.095  1.00  0.00     0.049 A 
ATOM     49  N   UNL A   1      38.240  29.840  30.300  1.00  0.00    -0.248 NA
ATOM     50  C   UNL A   1      37.756  30.518  28.132  1.00  0.00     0.031 C 
ATOM     51  C   UNL A   1      38.954  34.573  30.079  1.00  0.00     0.029 A 
ATOM     52  N   UNL A   1      40.261  32.793  30.121  1.00  0.00    -0.354 N 
ATOM     53  C   UNL A   1      38.343  28.756  29.436  1.00  0.00     0.074 A 
ATOM     54  C   UNL A   1      37.784  29.187  28.181  1.00  0.00     0.031 C 
ATOM     55  C   UNL A   1      40.214  35.010  29.864  1.00  0.00     0.029 A 
ATOM     56  C   UNL A   1      41.110  33.867  29.875  1.00  0.00     0.049 A 
ATOM     57  H   UNL A   1      40.592  31.883  30.298  1.00  0.00     0.167 HD
ATOM     58  C   UNL A   1      39.159  27.700  29.707  1.00  0.00     0.031 A 
ATOM     59  C   UNL A   1      42.446  33.811  29.649  1.00  0.00     0.031 A 
ATOM     60  C   UNL A   1      39.645  27.744  31.064  1.00  0.00     0.049 A 
ATOM     61  C   UNL A   1      42.914  32.482  30.107  1.00  0.00     0.074 A 
ATOM     62  C   UNL A   1      39.053  27.767  32.312  1.00  0.00     0.029 A 
ATOM     63  N   UNL A   1      40.928  28.207  31.246  1.00  0.00    -0.354 N 
ATOM     64  N   UNL A   1      42.911  32.112  31.357  1.00  0.00    -0.248 NA
ATOM     65  C   UNL A   1      42.949  31.397  29.139  1.00  0.00     0.031 C 
ATOM     66  C   UNL A   1      39.840  28.680  33.074  1.00  0.00     0.029 A 
ATOM     67  C   UNL A   1      40.909  29.104  32.282  1.00  0.00     0.049 A 
ATOM     68  H   UNL A   1      41.719  27.940  30.725  1.00  0.00     0.167 HD
ATOM     69  C   UNL A   1      42.486  30.790  31.332  1.00  0.00     0.074 A 
ATOM     70  C   UNL A   1      42.640  30.371  29.939  1.00  0.00     0.031 C 
ATOM     71  C   UNL A   1      41.771  30.264  32.370  1.00  0.00     0.031 A 
BRANCH  58  72
ATOM     72  C   UNL A   1      39.857  26.886  28.644  1.00  0.00    -0.014 A 
ATOM     73  C   UNL A   1      40.835  27.516  27.854  1.00  0.00     0.009 A 
ATOM     74  C   UNL A   1      39.423  25.619  28.211  1.00  0.00     0.009 A 
ATOM     75  C   UNL A   1      41.295  26.938  26.665  1.00  0.00     0.001 A 
ATOM     76  C   UNL A   1      39.914  25.016  27.051  1.00  0.00     0.001 A 
ATOM     77  C   UNL A   1      40.830  25.691  26.261  1.00  0.00     0.000 A 
ENDBRANCH  58  72
BRANCH  59  78
ATOM     78  C   UNL A   1      43.299  34.712  28.841  1.00  0.00    -0.014 A 
ATOM     79  C   UNL A   1      43.305  34.642  27.438  1.00  0.00     0.009 A 
ATOM     80  C   UNL A   1      43.918  35.825  29.440  1.00  0.00     0.009 A 
ATOM     81  C   UNL A   1      43.878  35.665  26.666  1.00  0.00     0.001 A 
ATOM     82  C   UNL A   1      44.490  36.844  28.671  1.00  0.00     0.001 A 
ATOM     83  C   UNL A   1      44.458  36.771  27.283  1.00  0.00     0.000 A 
ENDBRANCH  59  78
BRANCH  71  84
ATOM     84  C   UNL A   1      41.656  31.089  33.632  1.00  0.00    -0.014 A 
ATOM     85  C   UNL A   1      42.556  30.978  34.709  1.00  0.00     0.009 A 
ATOM     86  C   UNL A   1      40.704  32.116  33.672  1.00  0.00     0.009 A 
ATOM     87  C   UNL A   1      42.483  31.848  35.802  1.00  0.00     0.001 A 
ATOM     88  C   UNL A   1      40.644  32.998  34.752  1.00  0.00     0.001 A 
ATOM     89  C   UNL A   1      41.530  32.861  35.820  1.00  0.00     0.000 A 
ENDBRANCH  71  84
ENDBRANCH  45  46
ENDBRANCH  37  40
ENDBRANCH  35  36
ENDBRANCH  34  35
ENDBRANCH  33  34
ENDBRANCH   1  33
TORSDOF 17
ENDMDL
MODEL 3
REMARK VINA RESULT:     -12.6      2.405      5.725
REMARK SMILES NS(=O)(=O)c1ccc(-n2nc(C(=O)NCCCCCCNC(=O)c3ccc(-c4c5nc(c(-c6ccccc6)c6ccc([nH]6)c(-c6ccccc6)c6nc(c(-c7ccccc7)c7ccc4[nH]7)C=C6)C=C5)cc3)c(Cl)c2-c2ccc(Cl)cc2)cc1
REMARK SMILES IDX 17 1 16 2 15 3 14 4 12 5 13 6 11 8 9 9 10 10 74 11 72 12
REMARK SMILES IDX 73 13 8 14 5 15 6 16 83 17 7 18 82 19 2 20 3 21 4 22 1 23
REMARK SMILES IDX 75 26 76 27 81 28 77 29 80 30 78 31 79 32 18 33 19 34 20 35
REMARK SMILES IDX 21 36 22 37 23 39 24 40 25 41 71 42 26 43 70 44 27 45 28 46
REMARK SMILES IDX 29 47 64 48 30 49 69 50 63 51 65 52 31 53 68 54 62 55 61 56
REMARK SMILES IDX 32 58 54 59 39 60 53 61 40 62 43 63 52 64 66 65 41 66 42 67
REMARK SMILES IDX 51 69 67 70 44 71 33 72 34 73 38 74 35 75 37 76 36 77 55 78
REMARK SMILES IDX 56 79 60 80 57 81 59 82 58 83 45 84 46 85 50 86 47 87 49 88
REMARK SMILES IDX 48 89
REMARK H PARENT 14 7 1 24 1 25 21 38 65 57 43 68
REMARK Flexibility Score: inf
ROOT
ATOM      1  C   UNL A   1      36.506  23.686  24.731  1.00  0.00     0.002 C 
ENDROOT
BRANCH   1   2
ATOM      2  C   UNL A   1      35.818  22.536  23.993  1.00  0.00     0.021 C 
BRANCH   2   3
ATOM      3  C   UNL A   1      34.966  21.610  24.874  1.00  0.00     0.116 C 
BRANCH   3   4
ATOM      4  N   UNL A   1      33.753  21.204  24.184  1.00  0.00    -0.351 N 
ATOM      5  C   UNL A   1      32.598  21.875  23.840  1.00  0.00     0.273 C 
ATOM      6  O   UNL A   1      31.782  21.231  23.177  1.00  0.00    -0.267 OA
ATOM      7  H   UNL A   1      33.757  20.259  23.907  1.00  0.00     0.163 HD
BRANCH   5   8
ATOM      8  C   UNL A   1      32.382  23.297  24.173  1.00  0.00     0.169 A 
ATOM      9  N   UNL A   1      31.748  25.338  23.857  1.00  0.00    -0.231 N 
ATOM     10  N   UNL A   1      31.723  24.099  23.306  1.00  0.00    -0.160 NA
ATOM     11  C   UNL A   1      32.533  25.372  24.995  1.00  0.00     0.094 A 
ATOM     12  C   UNL A   1      32.660  24.038  25.342  1.00  0.00     0.100 A 
ATOM     13  Cl  UNL A   1      33.014  23.490  26.913  1.00  0.00    -0.079 Cl
BRANCH   9  14
ATOM     14  C   UNL A   1      30.888  26.359  23.380  1.00  0.00     0.065 A 
ATOM     15  C   UNL A   1      29.232  28.514  22.776  1.00  0.00     0.082 A 
ATOM     16  C   UNL A   1      28.722  27.440  23.510  1.00  0.00     0.024 A 
ATOM     17  C   UNL A   1      30.550  28.499  22.305  1.00  0.00     0.024 A 
ATOM     18  C   UNL A   1      29.544  26.344  23.788  1.00  0.00     0.030 A 
ATOM     19  C   UNL A   1      31.388  27.428  22.627  1.00  0.00     0.030 A 
BRANCH  15  20
ATOM     20  S   UNL A   1      28.221  29.930  22.454  1.00  0.00     0.238 S 
ATOM     21  O   UNL A   1      27.034  29.867  23.291  1.00  0.00    -0.207 OA
ATOM     22  O   UNL A   1      28.169  30.154  21.040  1.00  0.00    -0.207 OA
BRANCH  20  23
ATOM     23  N   UNL A   1      29.133  31.187  23.105  1.00  0.00    -0.225 NA
ATOM     24  H   UNL A   1      29.211  31.064  24.114  1.00  0.00     0.137 HD
ATOM     25  H   UNL A   1      28.677  32.077  22.905  1.00  0.00     0.137 HD
ENDBRANCH  20  23
ENDBRANCH  15  20
ENDBRANCH   9  14
BRANCH  11  26
ATOM     26  C   UNL A   1      32.850  26.503  25.856  1.00  0.00     0.002 A 
ATOM     27  C   UNL A   1      31.864  26.962  26.743  1.00  0.00     0.012 A 
ATOM     28  C   UNL A   1      33.991  27.279  25.624  1.00  0.00     0.012 A 
ATOM     29  C   UNL A   1      31.988  28.214  27.344  1.00  0.00     0.021 A 
ATOM     30  C   UNL A   1      34.113  28.531  26.227  1.00  0.00     0.021 A 
ATOM     31  C   UNL A   1      33.101  29.003  27.064  1.00  0.00     0.041 A 
ATOM     32  Cl  UNL A   1      33.202  30.594  27.709  1.00  0.00    -0.084 Cl
ENDBRANCH  11  26
ENDBRANCH   5   8
ENDBRANCH   3   4
ENDBRANCH   2   3
ENDBRANCH   1   2
BRANCH   1  33
ATOM     33  C   UNL A   1      37.410  23.282  25.907  1.00  0.00     0.002 C 
BRANCH  33  34
ATOM     34  C   UNL A   1      38.509  22.245  25.621  1.00  0.00     0.021 C 
BRANCH  34  35
ATOM     35  C   UNL A   1      39.550  22.124  26.723  1.00  0.00     0.116 C 
BRANCH  35  36
ATOM     36  N   UNL A   1      40.926  22.038  26.205  1.00  0.00    -0.352 N 
ATOM     37  C   UNL A   1      41.843  23.041  25.932  1.00  0.00     0.251 C 
ATOM     38  H   UNL A   1      41.244  21.124  26.025  1.00  0.00     0.163 HD
ATOM     39  O   UNL A   1      42.802  22.832  25.199  1.00  0.00    -0.269 OA
BRANCH  37  40
ATOM     40  C   UNL A   1      41.664  24.366  26.552  1.00  0.00     0.039 A 
ATOM     41  C   UNL A   1      40.737  25.319  26.110  1.00  0.00     0.014 A 
ATOM     42  C   UNL A   1      42.474  24.642  27.638  1.00  0.00     0.014 A 
ATOM     43  C   UNL A   1      40.649  26.533  26.794  1.00  0.00     0.010 A 
ATOM     44  C   UNL A   1      42.135  25.641  28.489  1.00  0.00     0.010 A 
ATOM     45  C   UNL A   1      41.376  26.679  27.980  1.00  0.00    -0.014 A 
BRANCH  45  46
ATOM     46  C   UNL A   1      41.437  27.888  28.781  1.00  0.00     0.031 A 
ATOM     47  C   UNL A   1      42.498  28.836  28.379  1.00  0.00     0.074 A 
ATOM     48  C   UNL A   1      40.363  28.278  29.509  1.00  0.00     0.049 A 
ATOM     49  N   UNL A   1      43.542  29.187  29.049  1.00  0.00    -0.248 NA
ATOM     50  C   UNL A   1      42.470  29.345  26.995  1.00  0.00     0.031 C 
ATOM     51  C   UNL A   1      39.059  27.601  29.637  1.00  0.00     0.029 A 
ATOM     52  N   UNL A   1      40.144  29.453  30.154  1.00  0.00    -0.354 N 
ATOM     53  C   UNL A   1      44.191  30.123  28.253  1.00  0.00     0.074 A 
ATOM     54  C   UNL A   1      43.642  29.977  26.930  1.00  0.00     0.031 C 
ATOM     55  C   UNL A   1      38.139  28.472  30.109  1.00  0.00     0.029 A 
ATOM     56  C   UNL A   1      38.810  29.712  30.455  1.00  0.00     0.049 A 
ATOM     57  H   UNL A   1      40.871  30.074  30.388  1.00  0.00     0.167 HD
ATOM     58  C   UNL A   1      44.894  31.156  28.793  1.00  0.00     0.031 A 
ATOM     59  C   UNL A   1      38.292  30.880  30.910  1.00  0.00     0.031 A 
ATOM     60  C   UNL A   1      45.086  30.979  30.211  1.00  0.00     0.049 A 
ATOM     61  C   UNL A   1      39.422  31.695  31.416  1.00  0.00     0.074 A 
ATOM     62  C   UNL A   1      45.666  30.008  31.004  1.00  0.00     0.029 A 
ATOM     63  N   UNL A   1      44.256  31.699  31.041  1.00  0.00    -0.354 N 
ATOM     64  N   UNL A   1      40.126  31.371  32.464  1.00  0.00    -0.248 NA
ATOM     65  C   UNL A   1      40.067  32.618  30.496  1.00  0.00     0.031 C 
ATOM     66  C   UNL A   1      44.802  29.893  32.133  1.00  0.00     0.029 A 
ATOM     67  C   UNL A   1      43.791  30.849  32.010  1.00  0.00     0.049 A 
ATOM     68  H   UNL A   1      44.037  32.654  30.954  1.00  0.00     0.167 HD
ATOM     69  C   UNL A   1      41.436  31.671  32.114  1.00  0.00     0.074 A 
ATOM     70  C   UNL A   1      41.324  32.542  30.945  1.00  0.00     0.031 C 
ATOM     71  C   UNL A   1      42.479  30.945  32.615  1.00  0.00     0.031 A 
BRANCH  58  72
ATOM     72  C   UNL A   1      45.025  32.512  28.141  1.00  0.00    -0.014 A 
ATOM     73  C   UNL A   1      43.926  33.386  28.190  1.00  0.00     0.009 A 
ATOM     74  C   UNL A   1      46.070  32.867  27.266  1.00  0.00     0.009 A 
ATOM     75  C   UNL A   1      43.850  34.510  27.359  1.00  0.00     0.001 A 
ATOM     76  C   UNL A   1      46.021  34.013  26.470  1.00  0.00     0.001 A 
ATOM     77  C   UNL A   1      44.895  34.820  26.496  1.00  0.00     0.000 A 
ENDBRANCH  58  72
BRANCH  59  78
ATOM     78  C   UNL A   1      36.939  31.446  30.710  1.00  0.00    -0.014 A 
ATOM     79  C   UNL A   1      36.039  31.574  31.780  1.00  0.00     0.009 A 
ATOM     80  C   UNL A   1      36.619  32.106  29.509  1.00  0.00     0.009 A 
ATOM     81  C   UNL A   1      34.882  32.360  31.663  1.00  0.00     0.001 A 
ATOM     82  C   UNL A   1      35.466  32.890  29.390  1.00  0.00     0.001 A 
ATOM     83  C   UNL A   1      34.604  33.028  30.473  1.00  0.00     0.000 A 
ENDBRANCH  59  78
BRANCH  71  84
ATOM     84  C   UNL A   1      42.182  29.964  33.727  1.00  0.00    -0.014 A 
ATOM     85  C   UNL A   1      41.788  28.632  33.493  1.00  0.00     0.009 A 
ATOM     86  C   UNL A   1      42.456  30.349  35.046  1.00  0.00     0.009 A 
ATOM     87  C   UNL A   1      41.644  27.728  34.550  1.00  0.00     0.001 A 
ATOM     88  C   UNL A   1      42.334  29.441  36.099  1.00  0.00     0.001 A 
ATOM     89  C   UNL A   1      41.923  28.131  35.852  1.00  0.00     0.000 A 
ENDBRANCH  71  84
ENDBRANCH  45  46
ENDBRANCH  37  40
ENDBRANCH  35  36
ENDBRANCH  34  35
ENDBRANCH  33  34
ENDBRANCH   1  33
TORSDOF 17
ENDMDL
