MODEL 1
REMARK VINA RESULT:     -11.9      0.000      0.000
REMARK SMILES Nn1c(S[C@@H](C(=O)NCCCCCCNC(=O)c2ccc(-c3c4nc(c(-c5ccccc5)c5ccc([nH]5)c(-c5ccccc5)c5nc(c(-c6ccccc6)c6ccc3[nH]6)C=C5)C=C4)cc2)c2ccccc2)nc2ccc(Br)cc2c1=O
REMARK SMILES IDX 11 1 10 2 9 3 8 4 6 5 7 6 5 8 4 9 3 10 2 11 80 12 72 13
REMARK SMILES IDX 79 14 81 15 73 16 78 17 74 18 76 19 75 20 77 21 1 22 66 25
REMARK SMILES IDX 67 26 71 27 68 28 70 29 69 30 12 31 13 32 14 33 15 34 16 35
REMARK SMILES IDX 17 37 18 38 19 39 65 40 20 41 64 42 21 43 22 44 23 45 58 46
REMARK SMILES IDX 24 47 63 48 57 49 59 50 25 51 62 52 56 53 55 54 26 56 48 57
REMARK SMILES IDX 33 58 47 59 34 60 37 61 46 62 60 63 35 64 36 65 45 67 61 68
REMARK SMILES IDX 38 69 27 70 28 71 32 72 29 73 31 74 30 75 49 76 50 77 54 78
REMARK SMILES IDX 51 79 53 80 52 81 39 82 40 83 44 84 41 85 43 86 42 87
REMARK H PARENT 8 7 1 23 1 24 15 36 59 55 37 66
REMARK Flexibility Score: inf
ROOT
ATOM      1  C   UNL A   1      38.314  22.076  25.763  1.00  0.00     0.002 C 
ENDROOT
BRANCH   1   2
ATOM      2  C   UNL A   1      37.504  23.372  25.890  1.00  0.00     0.021 C 
BRANCH   2   3
ATOM      3  C   UNL A   1      36.035  23.284  25.455  1.00  0.00     0.116 C 
BRANCH   3   4
ATOM      4  N   UNL A   1      35.219  22.548  26.404  1.00  0.00    -0.355 N 
ATOM      5  C   UNL A   1      34.334  21.522  26.239  1.00  0.00     0.238 C 
ATOM      6  O   UNL A   1      33.794  21.136  27.283  1.00  0.00    -0.273 OA
ATOM      7  H   UNL A   1      35.324  22.843  27.337  1.00  0.00     0.163 HD
BRANCH   5   8
ATOM      8  C   UNL A   1      34.019  20.885  24.859  1.00  0.00     0.174 C 
BRANCH   8   9
ATOM      9  S   UNL A   1      32.748  21.826  24.010  1.00  0.00    -0.068 SA
BRANCH   9  10
ATOM     10  C   UNL A   1      32.206  23.247  24.858  1.00  0.00     0.191 A 
ATOM     11  N   UNL A   1      31.074  23.381  25.664  1.00  0.00    -0.202 N 
ATOM     12  C   UNL A   1      30.714  24.627  26.209  1.00  0.00     0.280 A 
ATOM     13  N   UNL A   1      33.033  24.226  24.654  1.00  0.00    -0.222 NA
ATOM     14  C   UNL A   1      31.658  25.731  25.987  1.00  0.00     0.069 A 
ATOM     15  O   UNL A   1      29.686  24.858  26.844  1.00  0.00    -0.267 OA
ATOM     16  C   UNL A   1      32.797  25.467  25.238  1.00  0.00     0.079 A 
ATOM     17  C   UNL A   1      31.426  27.001  26.526  1.00  0.00     0.031 A 
ATOM     18  C   UNL A   1      33.735  26.483  25.046  1.00  0.00     0.030 A 
ATOM     19  C   UNL A   1      32.363  28.008  26.315  1.00  0.00     0.018 A 
ATOM     20  C   UNL A   1      33.522  27.755  25.583  1.00  0.00     0.018 A 
ATOM     21  Br  UNL A   1      32.061  29.734  27.022  1.00  0.00    -0.051 Br
BRANCH  11  22
ATOM     22  N   UNL A   1      30.214  22.338  26.028  1.00  0.00    -0.334 N 
ATOM     23  H   UNL A   1      29.244  22.498  26.086  1.00  0.00     0.178 HD
ATOM     24  H   UNL A   1      30.579  21.446  26.227  1.00  0.00     0.178 HD
ENDBRANCH  11  22
ENDBRANCH   9  10
ENDBRANCH   8   9
BRANCH   8  25
ATOM     25  C   UNL A   1      33.889  19.354  24.859  1.00  0.00    -0.025 A 
ATOM     26  C   UNL A   1      34.950  18.469  24.590  1.00  0.00     0.005 A 
ATOM     27  C   UNL A   1      32.638  18.776  25.154  1.00  0.00     0.005 A 
ATOM     28  C   UNL A   1      34.743  17.090  24.488  1.00  0.00     0.000 A 
ATOM     29  C   UNL A   1      32.434  17.394  25.073  1.00  0.00     0.000 A 
ATOM     30  C   UNL A   1      33.481  16.555  24.716  1.00  0.00     0.000 A 
ENDBRANCH   8  25
ENDBRANCH   5   8
ENDBRANCH   3   4
ENDBRANCH   2   3
ENDBRANCH   1   2
BRANCH   1  31
ATOM     31  C   UNL A   1      37.755  21.029  24.796  1.00  0.00     0.002 C 
BRANCH  31  32
ATOM     32  C   UNL A   1      38.453  19.670  24.825  1.00  0.00     0.021 C 
BRANCH  32  33
ATOM     33  C   UNL A   1      39.297  19.401  26.065  1.00  0.00     0.116 C 
BRANCH  33  34
ATOM     34  N   UNL A   1      40.628  18.906  25.748  1.00  0.00    -0.352 N 
ATOM     35  C   UNL A   1      41.844  19.545  25.836  1.00  0.00     0.251 C 
ATOM     36  H   UNL A   1      40.664  17.978  25.422  1.00  0.00     0.163 HD
ATOM     37  O   UNL A   1      42.853  19.011  25.383  1.00  0.00    -0.269 OA
BRANCH  35  38
ATOM     38  C   UNL A   1      41.936  20.891  26.444  1.00  0.00     0.039 A 
ATOM     39  C   UNL A   1      42.097  22.028  25.651  1.00  0.00     0.014 A 
ATOM     40  C   UNL A   1      41.870  21.019  27.836  1.00  0.00     0.014 A 
ATOM     41  C   UNL A   1      42.376  23.252  26.248  1.00  0.00     0.010 A 
ATOM     42  C   UNL A   1      42.051  22.271  28.432  1.00  0.00     0.010 A 
ATOM     43  C   UNL A   1      42.356  23.392  27.646  1.00  0.00    -0.014 A 
BRANCH  43  44
ATOM     44  C   UNL A   1      42.644  24.723  28.246  1.00  0.00     0.031 A 
ATOM     45  C   UNL A   1      44.051  25.135  28.590  1.00  0.00     0.074 A 
ATOM     46  C   UNL A   1      41.631  25.596  28.416  1.00  0.00     0.049 A 
ATOM     47  N   UNL A   1      44.482  26.289  29.036  1.00  0.00    -0.248 NA
ATOM     48  C   UNL A   1      45.113  24.131  28.415  1.00  0.00     0.031 C 
ATOM     49  C   UNL A   1      40.225  25.318  28.116  1.00  0.00     0.029 A 
ATOM     50  N   UNL A   1      41.628  26.901  28.843  1.00  0.00    -0.354 N 
ATOM     51  C   UNL A   1      45.854  26.147  29.205  1.00  0.00     0.074 A 
ATOM     52  C   UNL A   1      46.182  24.784  28.848  1.00  0.00     0.031 C 
ATOM     53  C   UNL A   1      39.509  26.437  28.295  1.00  0.00     0.029 A 
ATOM     54  C   UNL A   1      40.387  27.490  28.790  1.00  0.00     0.049 A 
ATOM     55  H   UNL A   1      42.435  27.368  29.156  1.00  0.00     0.167 HD
ATOM     56  C   UNL A   1      46.760  27.072  29.604  1.00  0.00     0.031 A 
ATOM     57  C   UNL A   1      39.992  28.740  29.104  1.00  0.00     0.031 A 
ATOM     58  C   UNL A   1      46.432  28.430  29.953  1.00  0.00     0.049 A 
ATOM     59  C   UNL A   1      41.011  29.732  29.584  1.00  0.00     0.074 A 
ATOM     60  C   UNL A   1      47.290  29.444  30.346  1.00  0.00     0.029 A 
ATOM     61  N   UNL A   1      45.154  28.966  29.952  1.00  0.00    -0.354 N 
ATOM     62  N   UNL A   1      42.307  29.587  29.709  1.00  0.00    -0.248 NA
ATOM     63  C   UNL A   1      40.513  31.062  29.963  1.00  0.00     0.031 C 
ATOM     64  C   UNL A   1      46.523  30.571  30.649  1.00  0.00     0.029 A 
ATOM     65  C   UNL A   1      45.197  30.286  30.369  1.00  0.00     0.049 A 
ATOM     66  H   UNL A   1      44.337  28.481  29.695  1.00  0.00     0.167 HD
ATOM     67  C   UNL A   1      42.783  30.807  30.168  1.00  0.00     0.074 A 
ATOM     68  C   UNL A   1      41.640  31.691  30.273  1.00  0.00     0.031 C 
ATOM     69  C   UNL A   1      44.055  31.158  30.479  1.00  0.00     0.031 A 
BRANCH  56  70
ATOM     70  C   UNL A   1      48.205  26.659  29.696  1.00  0.00    -0.014 A 
ATOM     71  C   UNL A   1      49.045  26.798  28.578  1.00  0.00     0.009 A 
ATOM     72  C   UNL A   1      48.710  26.034  30.847  1.00  0.00     0.009 A 
ATOM     73  C   UNL A   1      50.351  26.306  28.605  1.00  0.00     0.001 A 
ATOM     74  C   UNL A   1      50.028  25.571  30.882  1.00  0.00     0.001 A 
ATOM     75  C   UNL A   1      50.843  25.697  29.758  1.00  0.00     0.000 A 
ENDBRANCH  56  70
BRANCH  57  76
ATOM     76  C   UNL A   1      38.560  29.111  28.948  1.00  0.00    -0.014 A 
ATOM     77  C   UNL A   1      38.082  29.611  27.724  1.00  0.00     0.009 A 
ATOM     78  C   UNL A   1      37.676  29.023  30.033  1.00  0.00     0.009 A 
ATOM     79  C   UNL A   1      36.761  30.049  27.602  1.00  0.00     0.001 A 
ATOM     80  C   UNL A   1      36.346  29.427  29.897  1.00  0.00     0.001 A 
ATOM     81  C   UNL A   1      35.893  29.951  28.687  1.00  0.00     0.000 A 
ENDBRANCH  57  76
BRANCH  69  82
ATOM     82  C   UNL A   1      44.296  32.564  30.961  1.00  0.00    -0.014 A 
ATOM     83  C   UNL A   1      44.201  32.859  32.331  1.00  0.00     0.009 A 
ATOM     84  C   UNL A   1      44.524  33.612  30.056  1.00  0.00     0.009 A 
ATOM     85  C   UNL A   1      44.315  34.174  32.783  1.00  0.00     0.001 A 
ATOM     86  C   UNL A   1      44.672  34.922  30.515  1.00  0.00     0.001 A 
ATOM     87  C   UNL A   1      44.556  35.204  31.876  1.00  0.00     0.000 A 
ENDBRANCH  69  82
ENDBRANCH  43  44
ENDBRANCH  35  38
ENDBRANCH  33  34
ENDBRANCH  32  33
ENDBRANCH  31  32
ENDBRANCH   1  31
TORSDOF 17
ENDMDL
MODEL 2
REMARK VINA RESULT:     -11.7      0.354      5.712
REMARK SMILES Nn1c(S[C@@H](C(=O)NCCCCCCNC(=O)c2ccc(-c3c4nc(c(-c5ccccc5)c5ccc([nH]5)c(-c5ccccc5)c5nc(c(-c6ccccc6)c6ccc3[nH]6)C=C5)C=C4)cc2)c2ccccc2)nc2ccc(Br)cc2c1=O
REMARK SMILES IDX 11 1 10 2 9 3 8 4 6 5 7 6 5 8 4 9 3 10 2 11 80 12 72 13
REMARK SMILES IDX 79 14 81 15 73 16 78 17 74 18 76 19 75 20 77 21 1 22 66 25
REMARK SMILES IDX 67 26 71 27 68 28 70 29 69 30 12 31 13 32 14 33 15 34 16 35
REMARK SMILES IDX 17 37 18 38 19 39 65 40 20 41 64 42 21 43 22 44 23 45 58 46
REMARK SMILES IDX 24 47 63 48 57 49 59 50 25 51 62 52 56 53 55 54 26 56 48 57
REMARK SMILES IDX 33 58 47 59 34 60 37 61 46 62 60 63 35 64 36 65 45 67 61 68
REMARK SMILES IDX 38 69 27 70 28 71 32 72 29 73 31 74 30 75 49 76 50 77 54 78
REMARK SMILES IDX 51 79 53 80 52 81 39 82 40 83 44 84 41 85 43 86 42 87
REMARK H PARENT 8 7 1 23 1 24 15 36 59 55 37 66
REMARK Flexibility Score: inf
ROOT
ATOM      1  C   UNL A   1      38.209  22.089  25.732  1.00  0.00     0.002 C 
ENDROOT
BRANCH   1   2
ATOM      2  C   UNL A   1      37.392  23.387  25.780  1.00  0.00     0.021 C 
BRANCH   2   3
ATOM      3  C   UNL A   1      35.922  23.263  25.355  1.00  0.00     0.116 C 
BRANCH   3   4
ATOM      4  N   UNL A   1      35.124  22.538  26.327  1.00  0.00    -0.355 N 
ATOM      5  C   UNL A   1      34.242  21.505  26.191  1.00  0.00     0.238 C 
ATOM      6  O   UNL A   1      33.719  21.132  27.248  1.00  0.00    -0.273 OA
ATOM      7  H   UNL A   1      35.241  22.848  27.254  1.00  0.00     0.163 HD
BRANCH   5   8
ATOM      8  C   UNL A   1      33.911  20.845  24.825  1.00  0.00     0.174 C 
BRANCH   8   9
ATOM      9  S   UNL A   1      32.609  21.755  23.989  1.00  0.00    -0.068 SA
BRANCH   9  10
ATOM     10  C   UNL A   1      32.084  23.197  24.813  1.00  0.00     0.191 A 
ATOM     11  N   UNL A   1      30.987  23.343  25.664  1.00  0.00    -0.202 N 
ATOM     12  C   UNL A   1      30.633  24.601  26.183  1.00  0.00     0.280 A 
ATOM     13  N   UNL A   1      32.887  24.179  24.541  1.00  0.00    -0.222 NA
ATOM     14  C   UNL A   1      31.550  25.710  25.884  1.00  0.00     0.069 A 
ATOM     15  O   UNL A   1      29.631  24.841  26.855  1.00  0.00    -0.267 OA
ATOM     16  C   UNL A   1      32.660  25.435  25.094  1.00  0.00     0.079 A 
ATOM     17  C   UNL A   1      31.324  26.994  26.390  1.00  0.00     0.031 A 
ATOM     18  C   UNL A   1      33.574  26.457  24.828  1.00  0.00     0.030 A 
ATOM     19  C   UNL A   1      32.237  28.006  26.105  1.00  0.00     0.018 A 
ATOM     20  C   UNL A   1      33.366  27.743  25.332  1.00  0.00     0.018 A 
ATOM     21  Br  UNL A   1      31.941  29.750  26.768  1.00  0.00    -0.051 Br
BRANCH  11  22
ATOM     22  N   UNL A   1      30.158  22.302  26.099  1.00  0.00    -0.334 N 
ATOM     23  H   UNL A   1      29.715  22.359  26.977  1.00  0.00     0.178 HD
ATOM     24  H   UNL A   1      30.020  21.512  25.528  1.00  0.00     0.178 HD
ENDBRANCH  11  22
ENDBRANCH   9  10
ENDBRANCH   8   9
BRANCH   8  25
ATOM     25  C   UNL A   1      33.806  19.313  24.847  1.00  0.00    -0.025 A 
ATOM     26  C   UNL A   1      34.849  18.442  24.480  1.00  0.00     0.005 A 
ATOM     27  C   UNL A   1      32.598  18.719  25.265  1.00  0.00     0.005 A 
ATOM     28  C   UNL A   1      34.654  17.059  24.408  1.00  0.00     0.000 A 
ATOM     29  C   UNL A   1      32.408  17.333  25.213  1.00  0.00     0.000 A 
ATOM     30  C   UNL A   1      33.429  16.507  24.760  1.00  0.00     0.000 A 
ENDBRANCH   8  25
ENDBRANCH   5   8
ENDBRANCH   3   4
ENDBRANCH   2   3
ENDBRANCH   1   2
BRANCH   1  31
ATOM     31  C   UNL A   1      37.730  21.032  24.735  1.00  0.00     0.002 C 
BRANCH  31  32
ATOM     32  C   UNL A   1      38.389  19.660  24.865  1.00  0.00     0.021 C 
BRANCH  32  33
ATOM     33  C   UNL A   1      39.230  19.462  26.120  1.00  0.00     0.116 C 
BRANCH  33  34
ATOM     34  N   UNL A   1      40.546  18.909  25.839  1.00  0.00    -0.352 N 
ATOM     35  C   UNL A   1      41.779  19.518  25.883  1.00  0.00     0.251 C 
ATOM     36  H   UNL A   1      40.556  17.960  25.578  1.00  0.00     0.163 HD
ATOM     37  O   UNL A   1      42.773  18.926  25.468  1.00  0.00    -0.269 OA
BRANCH  35  38
ATOM     38  C   UNL A   1      41.910  20.900  26.396  1.00  0.00     0.039 A 
ATOM     39  C   UNL A   1      42.097  21.975  25.527  1.00  0.00     0.014 A 
ATOM     40  C   UNL A   1      41.856  21.125  27.776  1.00  0.00     0.014 A 
ATOM     41  C   UNL A   1      42.411  23.230  26.036  1.00  0.00     0.010 A 
ATOM     42  C   UNL A   1      42.072  22.410  28.284  1.00  0.00     0.010 A 
ATOM     43  C   UNL A   1      42.402  23.466  27.421  1.00  0.00    -0.014 A 
BRANCH  43  44
ATOM     44  C   UNL A   1      42.729  24.827  27.927  1.00  0.00     0.031 A 
ATOM     45  C   UNL A   1      41.652  25.855  28.149  1.00  0.00     0.074 A 
ATOM     46  C   UNL A   1      44.005  25.112  28.256  1.00  0.00     0.049 A 
ATOM     47  N   UNL A   1      41.757  27.055  28.667  1.00  0.00    -0.248 NA
ATOM     48  C   UNL A   1      40.283  25.501  27.741  1.00  0.00     0.031 C 
ATOM     49  C   UNL A   1      45.138  24.199  28.093  1.00  0.00     0.029 A 
ATOM     50  N   UNL A   1      44.558  26.230  28.830  1.00  0.00    -0.354 N 
ATOM     51  C   UNL A   1      40.479  27.599  28.635  1.00  0.00     0.074 A 
ATOM     52  C   UNL A   1      39.618  26.615  28.016  1.00  0.00     0.031 C 
ATOM     53  C   UNL A   1      46.234  24.761  28.622  1.00  0.00     0.029 A 
ATOM     54  C   UNL A   1      45.900  26.098  29.098  1.00  0.00     0.049 A 
ATOM     55  H   UNL A   1      44.045  27.045  29.030  1.00  0.00     0.167 HD
ATOM     56  C   UNL A   1      40.057  28.801  29.097  1.00  0.00     0.031 A 
ATOM     57  C   UNL A   1      46.773  26.956  29.662  1.00  0.00     0.031 A 
ATOM     58  C   UNL A   1      40.915  29.777  29.719  1.00  0.00     0.049 A 
ATOM     59  C   UNL A   1      46.288  28.298  30.126  1.00  0.00     0.074 A 
ATOM     60  C   UNL A   1      40.569  31.013  30.237  1.00  0.00     0.029 A 
ATOM     61  N   UNL A   1      42.280  29.632  29.907  1.00  0.00    -0.354 N 
ATOM     62  N   UNL A   1      45.070  28.782  30.114  1.00  0.00    -0.248 NA
ATOM     63  C   UNL A   1      47.295  29.212  30.684  1.00  0.00     0.031 C 
ATOM     64  C   UNL A   1      41.735  31.644  30.676  1.00  0.00     0.029 A 
ATOM     65  C   UNL A   1      42.796  30.770  30.505  1.00  0.00     0.049 A 
ATOM     66  H   UNL A   1      42.806  28.839  29.653  1.00  0.00     0.167 HD
ATOM     67  C   UNL A   1      45.160  30.050  30.673  1.00  0.00     0.074 A 
ATOM     68  C   UNL A   1      46.547  30.249  31.039  1.00  0.00     0.031 C 
ATOM     69  C   UNL A   1      44.179  30.966  30.859  1.00  0.00     0.031 A 
BRANCH  56  70
ATOM     70  C   UNL A   1      38.600  29.149  28.947  1.00  0.00    -0.014 A 
ATOM     71  C   UNL A   1      38.138  29.724  27.751  1.00  0.00     0.009 A 
ATOM     72  C   UNL A   1      37.706  29.010  30.020  1.00  0.00     0.009 A 
ATOM     73  C   UNL A   1      36.820  30.169  27.639  1.00  0.00     0.001 A 
ATOM     74  C   UNL A   1      36.378  29.427  29.894  1.00  0.00     0.001 A 
ATOM     75  C   UNL A   1      35.939  30.016  28.709  1.00  0.00     0.000 A 
ENDBRANCH  56  70
BRANCH  57  76
ATOM     76  C   UNL A   1      48.193  26.543  29.830  1.00  0.00    -0.014 A 
ATOM     77  C   UNL A   1      48.611  25.886  31.001  1.00  0.00     0.009 A 
ATOM     78  C   UNL A   1      49.149  26.854  28.853  1.00  0.00     0.009 A 
ATOM     79  C   UNL A   1      49.959  25.582  31.203  1.00  0.00     0.001 A 
ATOM     80  C   UNL A   1      50.491  26.515  29.042  1.00  0.00     0.001 A 
ATOM     81  C   UNL A   1      50.897  25.892  30.221  1.00  0.00     0.000 A 
ENDBRANCH  57  76
BRANCH  69  82
ATOM     82  C   UNL A   1      44.556  32.277  31.495  1.00  0.00    -0.014 A 
ATOM     83  C   UNL A   1      44.997  33.342  30.692  1.00  0.00     0.009 A 
ATOM     84  C   UNL A   1      44.565  32.431  32.890  1.00  0.00     0.009 A 
ATOM     85  C   UNL A   1      45.452  34.527  31.271  1.00  0.00     0.001 A 
ATOM     86  C   UNL A   1      44.989  33.631  33.465  1.00  0.00     0.001 A 
ATOM     87  C   UNL A   1      45.442  34.673  32.657  1.00  0.00     0.000 A 
ENDBRANCH  69  82
ENDBRANCH  43  44
ENDBRANCH  35  38
ENDBRANCH  33  34
ENDBRANCH  32  33
ENDBRANCH  31  32
ENDBRANCH   1  31
TORSDOF 17
ENDMDL
MODEL 3
REMARK VINA RESULT:     -11.5      4.160      8.931
REMARK SMILES Nn1c(S[C@@H](C(=O)NCCCCCCNC(=O)c2ccc(-c3c4nc(c(-c5ccccc5)c5ccc([nH]5)c(-c5ccccc5)c5nc(c(-c6ccccc6)c6ccc3[nH]6)C=C5)C=C4)cc2)c2ccccc2)nc2ccc(Br)cc2c1=O
REMARK SMILES IDX 11 1 10 2 9 3 8 4 6 5 7 6 5 8 4 9 3 10 2 11 80 12 72 13
REMARK SMILES IDX 79 14 81 15 73 16 78 17 74 18 76 19 75 20 77 21 1 22 66 25
REMARK SMILES IDX 67 26 71 27 68 28 70 29 69 30 12 31 13 32 14 33 15 34 16 35
REMARK SMILES IDX 17 37 18 38 19 39 65 40 20 41 64 42 21 43 22 44 23 45 58 46
REMARK SMILES IDX 24 47 63 48 57 49 59 50 25 51 62 52 56 53 55 54 26 56 48 57
REMARK SMILES IDX 33 58 47 59 34 60 37 61 46 62 60 63 35 64 36 65 45 67 61 68
REMARK SMILES IDX 38 69 27 70 28 71 32 72 29 73 31 74 30 75 49 76 50 77 54 78
REMARK SMILES IDX 51 79 53 80 52 81 39 82 40 83 44 84 41 85 43 86 42 87
REMARK H PARENT 8 7 1 23 1 24 15 36 59 55 37 66
REMARK Flexibility Score: inf
ROOT
ATOM      1  C   UNL A   1      32.174  29.335  26.750  1.00  0.00     0.002 C 
ENDROOT
BRANCH   1   2
ATOM      2  C   UNL A   1      31.482  27.988  26.508  1.00  0.00     0.021 C 
BRANCH   2   3
ATOM      3  C   UNL A   1      32.404  26.761  26.488  1.00  0.00     0.116 C 
BRANCH   3   4
ATOM      4  N   UNL A   1      31.767  25.579  27.040  1.00  0.00    -0.355 N 
ATOM      5  C   UNL A   1      31.588  24.322  26.538  1.00  0.00     0.238 C 
ATOM      6  O   UNL A   1      30.977  23.551  27.287  1.00  0.00    -0.273 OA
ATOM      7  H   UNL A   1      31.396  25.708  27.943  1.00  0.00     0.163 HD
BRANCH   5   8
ATOM      8  C   UNL A   1      32.102  23.886  25.139  1.00  0.00     0.174 C 
BRANCH   8   9
ATOM      9  S   UNL A   1      30.887  24.274  23.876  1.00  0.00    -0.068 SA
BRANCH   9  10
ATOM     10  C   UNL A   1      30.822  25.954  23.420  1.00  0.00     0.191 A 
ATOM     11  N   UNL A   1      31.876  26.765  22.997  1.00  0.00    -0.202 N 
ATOM     12  C   UNL A   1      31.684  28.136  22.752  1.00  0.00     0.280 A 
ATOM     13  N   UNL A   1      29.603  26.389  23.509  1.00  0.00    -0.222 NA
ATOM     14  C   UNL A   1      30.302  28.626  22.842  1.00  0.00     0.069 A 
ATOM     15  O   UNL A   1      32.570  28.943  22.475  1.00  0.00    -0.267 OA
ATOM     16  C   UNL A   1      29.315  27.713  23.191  1.00  0.00     0.079 A 
ATOM     17  C   UNL A   1      29.987  29.961  22.569  1.00  0.00     0.031 A 
ATOM     18  C   UNL A   1      27.985  28.136  23.242  1.00  0.00     0.030 A 
ATOM     19  C   UNL A   1      28.659  30.372  22.638  1.00  0.00     0.018 A 
ATOM     20  C   UNL A   1      27.653  29.465  22.966  1.00  0.00     0.018 A 
ATOM     21  Br  UNL A   1      28.216  32.175  22.287  1.00  0.00    -0.051 Br
BRANCH  11  22
ATOM     22  N   UNL A   1      33.185  26.328  22.757  1.00  0.00    -0.334 N 
ATOM     23  H   UNL A   1      33.344  25.430  22.386  1.00  0.00     0.178 HD
ATOM     24  H   UNL A   1      33.946  26.920  22.959  1.00  0.00     0.178 HD
ENDBRANCH  11  22
ENDBRANCH   9  10
ENDBRANCH   8   9
BRANCH   8  25
ATOM     25  C   UNL A   1      32.762  22.499  25.089  1.00  0.00    -0.025 A 
ATOM     26  C   UNL A   1      34.145  22.275  25.222  1.00  0.00     0.005 A 
ATOM     27  C   UNL A   1      31.948  21.364  24.905  1.00  0.00     0.005 A 
ATOM     28  C   UNL A   1      34.698  21.003  25.049  1.00  0.00     0.000 A 
ATOM     29  C   UNL A   1      32.499  20.087  24.751  1.00  0.00     0.000 A 
ATOM     30  C   UNL A   1      33.876  19.911  24.799  1.00  0.00     0.000 A 
ENDBRANCH   8  25
ENDBRANCH   5   8
ENDBRANCH   3   4
ENDBRANCH   2   3
ENDBRANCH   1   2
BRANCH   1  31
ATOM     31  C   UNL A   1      31.726  30.489  25.850  1.00  0.00     0.002 C 
BRANCH  31  32
ATOM     32  C   UNL A   1      31.408  31.798  26.570  1.00  0.00     0.021 C 
BRANCH  32  33
ATOM     33  C   UNL A   1      32.600  32.479  27.233  1.00  0.00     0.116 C 
BRANCH  33  34
ATOM     34  N   UNL A   1      32.348  33.875  27.556  1.00  0.00    -0.352 N 
ATOM     35  C   UNL A   1      33.008  34.705  28.432  1.00  0.00     0.251 C 
ATOM     36  H   UNL A   1      31.592  34.287  27.077  1.00  0.00     0.163 HD
ATOM     37  O   UNL A   1      32.558  35.820  28.682  1.00  0.00    -0.269 OA
BRANCH  35  38
ATOM     38  C   UNL A   1      34.245  34.245  29.104  1.00  0.00     0.039 A 
ATOM     39  C   UNL A   1      35.502  34.574  28.597  1.00  0.00     0.014 A 
ATOM     40  C   UNL A   1      34.145  33.462  30.259  1.00  0.00     0.014 A 
ATOM     41  C   UNL A   1      36.640  33.975  29.128  1.00  0.00     0.010 A 
ATOM     42  C   UNL A   1      35.300  32.940  30.852  1.00  0.00     0.010 A 
ATOM     43  C   UNL A   1      36.555  33.151  30.262  1.00  0.00    -0.014 A 
BRANCH  43  44
ATOM     44  C   UNL A   1      37.797  32.540  30.809  1.00  0.00     0.031 A 
ATOM     45  C   UNL A   1      38.405  33.029  32.096  1.00  0.00     0.074 A 
ATOM     46  C   UNL A   1      38.341  31.484  30.171  1.00  0.00     0.049 A 
ATOM     47  N   UNL A   1      39.432  32.548  32.754  1.00  0.00    -0.248 NA
ATOM     48  C   UNL A   1      37.790  34.205  32.732  1.00  0.00     0.031 C 
ATOM     49  C   UNL A   1      37.842  30.913  28.918  1.00  0.00     0.029 A 
ATOM     50  N   UNL A   1      39.403  30.680  30.503  1.00  0.00    -0.354 N 
ATOM     51  C   UNL A   1      39.592  33.366  33.866  1.00  0.00     0.074 A 
ATOM     52  C   UNL A   1      38.579  34.396  33.780  1.00  0.00     0.031 C 
ATOM     53  C   UNL A   1      38.547  29.810  28.628  1.00  0.00     0.029 A 
ATOM     54  C   UNL A   1      39.591  29.634  29.631  1.00  0.00     0.049 A 
ATOM     55  H   UNL A   1      39.974  30.837  31.289  1.00  0.00     0.167 HD
ATOM     56  C   UNL A   1      40.488  33.258  34.876  1.00  0.00     0.031 A 
ATOM     57  C   UNL A   1      40.501  28.641  29.630  1.00  0.00     0.031 A 
ATOM     58  C   UNL A   1      41.492  32.228  34.963  1.00  0.00     0.049 A 
ATOM     59  C   UNL A   1      41.511  28.570  30.739  1.00  0.00     0.074 A 
ATOM     60  C   UNL A   1      42.428  32.028  35.963  1.00  0.00     0.029 A 
ATOM     61  N   UNL A   1      41.692  31.230  34.022  1.00  0.00    -0.354 N 
ATOM     62  N   UNL A   1      41.626  29.335  31.796  1.00  0.00    -0.248 NA
ATOM     63  C   UNL A   1      42.512  27.498  30.657  1.00  0.00     0.031 C 
ATOM     64  C   UNL A   1      43.238  30.952  35.594  1.00  0.00     0.029 A 
ATOM     65  C   UNL A   1      42.757  30.431  34.404  1.00  0.00     0.049 A 
ATOM     66  H   UNL A   1      41.158  31.108  33.204  1.00  0.00     0.167 HD
ATOM     67  C   UNL A   1      42.703  28.831  32.513  1.00  0.00     0.074 A 
ATOM     68  C   UNL A   1      43.189  27.678  31.784  1.00  0.00     0.031 C 
ATOM     69  C   UNL A   1      43.242  29.290  33.669  1.00  0.00     0.031 A 
BRANCH  56  70
ATOM     70  C   UNL A   1      40.443  34.281  35.980  1.00  0.00    -0.014 A 
ATOM     71  C   UNL A   1      39.633  34.057  37.107  1.00  0.00     0.009 A 
ATOM     72  C   UNL A   1      41.111  35.509  35.861  1.00  0.00     0.009 A 
ATOM     73  C   UNL A   1      39.480  35.047  38.080  1.00  0.00     0.001 A 
ATOM     74  C   UNL A   1      40.982  36.485  36.852  1.00  0.00     0.001 A 
ATOM     75  C   UNL A   1      40.158  36.258  37.954  1.00  0.00     0.000 A 
ENDBRANCH  56  70
BRANCH  57  76
ATOM     76  C   UNL A   1      40.472  27.628  28.541  1.00  0.00    -0.014 A 
ATOM     77  C   UNL A   1      41.155  27.858  27.334  1.00  0.00     0.009 A 
ATOM     78  C   UNL A   1      39.716  26.455  28.676  1.00  0.00     0.009 A 
ATOM     79  C   UNL A   1      41.052  26.953  26.275  1.00  0.00     0.001 A 
ATOM     80  C   UNL A   1      39.645  25.534  27.628  1.00  0.00     0.001 A 
ATOM     81  C   UNL A   1      40.301  25.789  26.425  1.00  0.00     0.000 A 
ENDBRANCH  57  76
BRANCH  69  82
ATOM     82  C   UNL A   1      44.421  28.546  34.237  1.00  0.00    -0.014 A 
ATOM     83  C   UNL A   1      45.723  28.892  33.837  1.00  0.00     0.009 A 
ATOM     84  C   UNL A   1      44.243  27.447  35.091  1.00  0.00     0.009 A 
ATOM     85  C   UNL A   1      46.819  28.145  34.269  1.00  0.00     0.001 A 
ATOM     86  C   UNL A   1      45.346  26.723  35.549  1.00  0.00     0.001 A 
ATOM     87  C   UNL A   1      46.631  27.065  35.129  1.00  0.00     0.000 A 
ENDBRANCH  69  82
ENDBRANCH  43  44
ENDBRANCH  35  38
ENDBRANCH  33  34
ENDBRANCH  32  33
ENDBRANCH  31  32
ENDBRANCH   1  31
TORSDOF 17
ENDMDL
