MODEL 1
REMARK VINA RESULT:      -9.0      0.000      0.000
REMARK SMILES O=C(CCc1nc(-c2ccccc2)c(-c2ccccc2)o1)NCCCCCCNC(=O)c1ccc(-c2c3nc(c(-c4ccccc4)c4ccc([nH]4)c(-c4ccccc4)c4nc(c(-c5ccccc5)c5ccc2[nH]5)C=C4)C=C3)cc1
REMARK SMILES IDX 25 1 24 2 23 3 22 4 1 5 2 6 3 8 4 9 5 10 6 11 21 12 7 13
REMARK SMILES IDX 14 14 8 15 9 16 13 17 10 18 12 19 11 20 15 21 16 22 20 23
REMARK SMILES IDX 17 24 19 25 18 26 26 27 27 28 28 29 29 30 30 31 31 33 32 34
REMARK SMILES IDX 33 35 79 36 34 37 78 38 35 39 36 40 37 41 72 42 38 43 77 44
REMARK SMILES IDX 71 45 73 46 39 47 76 48 70 49 69 50 40 52 62 53 47 54 61 55
REMARK SMILES IDX 48 56 51 57 60 58 74 59 49 60 50 61 59 63 75 64 52 65 41 66
REMARK SMILES IDX 42 67 46 68 43 69 45 70 44 71 63 72 64 73 68 74 65 75 67 76
REMARK SMILES IDX 66 77 53 78 54 79 58 80 55 81 57 82 56 83
REMARK H PARENT 22 7 29 32 73 51 51 62
REMARK Flexibility Score: inf
ROOT
ATOM      1  C   UNL A   1      35.602  35.069  33.136  1.00  0.00     0.002 C 
ENDROOT
BRANCH   1   2
ATOM      2  C   UNL A   1      36.099  34.287  34.359  1.00  0.00     0.021 C 
BRANCH   2   3
ATOM      3  C   UNL A   1      36.138  32.771  34.160  1.00  0.00     0.116 C 
BRANCH   3   4
ATOM      4  N   UNL A   1      37.484  32.268  34.324  1.00  0.00    -0.356 N 
ATOM      5  O   UNL A   1      37.388  31.902  36.586  1.00  0.00    -0.275 OA
ATOM      6  C   UNL A   1      38.014  31.898  35.532  1.00  0.00     0.220 C 
ATOM      7  H   UNL A   1      38.051  32.187  33.523  1.00  0.00     0.163 HD
BRANCH   6   8
ATOM      8  C   UNL A   1      39.479  31.522  35.465  1.00  0.00     0.110 C 
BRANCH   8   9
ATOM      9  C   UNL A   1      39.785  30.516  34.364  1.00  0.00     0.107 C 
BRANCH   9  10
ATOM     10  C   UNL A   1      40.751  29.441  34.734  1.00  0.00     0.196 A 
ATOM     11  N   UNL A   1      40.780  28.201  34.290  1.00  0.00    -0.213 NA
ATOM     12  O   UNL A   1      41.747  29.746  35.632  1.00  0.00    -0.440 OA
ATOM     13  C   UNL A   1      41.834  27.634  34.962  1.00  0.00     0.117 A 
ATOM     14  C   UNL A   1      42.460  28.575  35.759  1.00  0.00     0.162 A 
BRANCH  13  15
ATOM     15  C   UNL A   1      42.262  26.264  34.793  1.00  0.00     0.004 A 
ATOM     16  C   UNL A   1      41.668  25.236  35.539  1.00  0.00     0.010 A 
ATOM     17  C   UNL A   1      43.350  25.973  33.963  1.00  0.00     0.010 A 
ATOM     18  C   UNL A   1      42.188  23.943  35.495  1.00  0.00     0.001 A 
ATOM     19  C   UNL A   1      43.870  24.678  33.921  1.00  0.00     0.001 A 
ATOM     20  C   UNL A   1      43.296  23.668  34.696  1.00  0.00     0.000 A 
ENDBRANCH  13  15
BRANCH  14  21
ATOM     21  C   UNL A   1      43.669  28.605  36.579  1.00  0.00     0.020 A 
ATOM     22  C   UNL A   1      44.236  27.438  37.101  1.00  0.00     0.012 A 
ATOM     23  C   UNL A   1      44.302  29.829  36.860  1.00  0.00     0.012 A 
ATOM     24  C   UNL A   1      45.398  27.501  37.882  1.00  0.00     0.001 A 
ATOM     25  C   UNL A   1      45.446  29.897  37.656  1.00  0.00     0.001 A 
ATOM     26  C   UNL A   1      45.996  28.728  38.165  1.00  0.00     0.000 A 
ENDBRANCH  14  21
ENDBRANCH   9  10
ENDBRANCH   8   9
ENDBRANCH   6   8
ENDBRANCH   3   4
ENDBRANCH   2   3
ENDBRANCH   1   2
BRANCH   1  27
ATOM     27  C   UNL A   1      34.288  35.820  33.356  1.00  0.00     0.002 C 
BRANCH  27  28
ATOM     28  C   UNL A   1      33.216  35.569  32.302  1.00  0.00     0.021 C 
BRANCH  28  29
ATOM     29  C   UNL A   1      33.550  36.143  30.929  1.00  0.00     0.116 C 
BRANCH  29  30
ATOM     30  N   UNL A   1      32.791  35.518  29.851  1.00  0.00    -0.352 N 
ATOM     31  C   UNL A   1      33.177  34.532  28.976  1.00  0.00     0.251 C 
ATOM     32  H   UNL A   1      31.872  35.850  29.734  1.00  0.00     0.163 HD
ATOM     33  O   UNL A   1      32.467  34.229  28.021  1.00  0.00    -0.269 OA
BRANCH  31  34
ATOM     34  C   UNL A   1      34.473  33.855  29.185  1.00  0.00     0.039 A 
ATOM     35  C   UNL A   1      35.581  34.250  28.433  1.00  0.00     0.014 A 
ATOM     36  C   UNL A   1      34.597  32.864  30.161  1.00  0.00     0.014 A 
ATOM     37  C   UNL A   1      36.836  33.705  28.720  1.00  0.00     0.010 A 
ATOM     38  C   UNL A   1      35.857  32.391  30.505  1.00  0.00     0.010 A 
ATOM     39  C   UNL A   1      36.990  32.807  29.788  1.00  0.00    -0.014 A 
BRANCH  39  40
ATOM     40  C   UNL A   1      38.322  32.289  30.187  1.00  0.00     0.031 A 
ATOM     41  C   UNL A   1      38.803  30.966  29.656  1.00  0.00     0.074 A 
ATOM     42  C   UNL A   1      39.057  32.960  31.095  1.00  0.00     0.049 A 
ATOM     43  N   UNL A   1      39.887  30.298  29.961  1.00  0.00    -0.248 NA
ATOM     44  C   UNL A   1      37.933  30.286  28.681  1.00  0.00     0.031 C 
ATOM     45  C   UNL A   1      38.681  34.227  31.726  1.00  0.00     0.029 A 
ATOM     46  N   UNL A   1      40.273  32.659  31.658  1.00  0.00    -0.354 N 
ATOM     47  C   UNL A   1      39.814  29.114  29.239  1.00  0.00     0.074 A 
ATOM     48  C   UNL A   1      38.559  29.130  28.521  1.00  0.00     0.031 C 
ATOM     49  C   UNL A   1      39.657  34.607  32.567  1.00  0.00     0.029 A 
ATOM     50  C   UNL A   1      40.705  33.593  32.568  1.00  0.00     0.049 A 
ATOM     51  H   UNL A   1      40.785  31.850  31.431  1.00  0.00     0.167 HD
ATOM     52  C   UNL A   1      40.719  28.109  29.164  1.00  0.00     0.031 A 
ATOM     53  C   UNL A   1      41.817  33.625  33.325  1.00  0.00     0.031 A 
ATOM     54  C   UNL A   1      41.977  28.103  29.861  1.00  0.00     0.049 A 
ATOM     55  C   UNL A   1      42.809  32.500  33.219  1.00  0.00     0.074 A 
ATOM     56  C   UNL A   1      42.994  27.167  29.795  1.00  0.00     0.029 A 
ATOM     57  N   UNL A   1      42.388  29.081  30.752  1.00  0.00    -0.354 N 
ATOM     58  N   UNL A   1      42.762  31.424  32.473  1.00  0.00    -0.248 NA
ATOM     59  C   UNL A   1      44.015  32.601  34.055  1.00  0.00     0.031 C 
ATOM     60  C   UNL A   1      44.002  27.555  30.684  1.00  0.00     0.029 A 
ATOM     61  C   UNL A   1      43.635  28.760  31.261  1.00  0.00     0.049 A 
ATOM     62  H   UNL A   1      41.871  29.885  30.989  1.00  0.00     0.167 HD
ATOM     63  C   UNL A   1      43.941  30.736  32.726  1.00  0.00     0.074 A 
ATOM     64  C   UNL A   1      44.690  31.524  33.683  1.00  0.00     0.031 C 
ATOM     65  C   UNL A   1      44.367  29.557  32.211  1.00  0.00     0.031 A 
BRANCH  52  66
ATOM     66  C   UNL A   1      40.375  26.930  28.298  1.00  0.00    -0.014 A 
ATOM     67  C   UNL A   1      39.525  25.911  28.756  1.00  0.00     0.009 A 
ATOM     68  C   UNL A   1      40.884  26.852  26.992  1.00  0.00     0.009 A 
ATOM     69  C   UNL A   1      39.223  24.819  27.939  1.00  0.00     0.001 A 
ATOM     70  C   UNL A   1      40.555  25.775  26.166  1.00  0.00     0.001 A 
ATOM     71  C   UNL A   1      39.735  24.755  26.644  1.00  0.00     0.000 A 
ENDBRANCH  52  66
BRANCH  53  72
ATOM     72  C   UNL A   1      42.067  34.772  34.239  1.00  0.00    -0.014 A 
ATOM     73  C   UNL A   1      41.667  34.709  35.583  1.00  0.00     0.009 A 
ATOM     74  C   UNL A   1      42.695  35.937  33.772  1.00  0.00     0.009 A 
ATOM     75  C   UNL A   1      41.866  35.798  36.433  1.00  0.00     0.001 A 
ATOM     76  C   UNL A   1      42.918  37.015  34.631  1.00  0.00     0.001 A 
ATOM     77  C   UNL A   1      42.494  36.948  35.959  1.00  0.00     0.000 A 
ENDBRANCH  53  72
BRANCH  65  78
ATOM     78  C   UNL A   1      45.720  29.068  32.642  1.00  0.00    -0.014 A 
ATOM     79  C   UNL A   1      45.879  28.287  33.798  1.00  0.00     0.009 A 
ATOM     80  C   UNL A   1      46.844  29.358  31.855  1.00  0.00     0.009 A 
ATOM     81  C   UNL A   1      47.146  27.835  34.173  1.00  0.00     0.001 A 
ATOM     82  C   UNL A   1      48.105  28.880  32.216  1.00  0.00     0.001 A 
ATOM     83  C   UNL A   1      48.256  28.127  33.380  1.00  0.00     0.000 A 
ENDBRANCH  65  78
ENDBRANCH  39  40
ENDBRANCH  31  34
ENDBRANCH  29  30
ENDBRANCH  28  29
ENDBRANCH  27  28
ENDBRANCH   1  27
TORSDOF 17
ENDMDL
MODEL 2
REMARK VINA RESULT:      -8.9      0.445      2.238
REMARK SMILES O=C(CCc1nc(-c2ccccc2)c(-c2ccccc2)o1)NCCCCCCNC(=O)c1ccc(-c2c3nc(c(-c4ccccc4)c4ccc([nH]4)c(-c4ccccc4)c4nc(c(-c5ccccc5)c5ccc2[nH]5)C=C4)C=C3)cc1
REMARK SMILES IDX 25 1 24 2 23 3 22 4 1 5 2 6 3 8 4 9 5 10 6 11 21 12 7 13
REMARK SMILES IDX 14 14 8 15 9 16 13 17 10 18 12 19 11 20 15 21 16 22 20 23
REMARK SMILES IDX 17 24 19 25 18 26 26 27 27 28 28 29 29 30 30 31 31 33 32 34
REMARK SMILES IDX 33 35 79 36 34 37 78 38 35 39 36 40 37 41 72 42 38 43 77 44
REMARK SMILES IDX 71 45 73 46 39 47 76 48 70 49 69 50 40 52 62 53 47 54 61 55
REMARK SMILES IDX 48 56 51 57 60 58 74 59 49 60 50 61 59 63 75 64 52 65 41 66
REMARK SMILES IDX 42 67 46 68 43 69 45 70 44 71 63 72 64 73 68 74 65 75 67 76
REMARK SMILES IDX 66 77 53 78 54 79 58 80 55 81 57 82 56 83
REMARK H PARENT 22 7 29 32 73 51 51 62
REMARK Flexibility Score: inf
ROOT
ATOM      1  C   UNL A   1      35.651  35.230  33.065  1.00  0.00     0.002 C 
ENDROOT
BRANCH   1   2
ATOM      2  C   UNL A   1      35.696  34.290  34.276  1.00  0.00     0.021 C 
BRANCH   2   3
ATOM      3  C   UNL A   1      35.814  32.808  33.914  1.00  0.00     0.116 C 
BRANCH   3   4
ATOM      4  N   UNL A   1      37.193  32.375  33.977  1.00  0.00    -0.356 N 
ATOM      5  O   UNL A   1      37.268  31.961  36.232  1.00  0.00    -0.275 OA
ATOM      6  C   UNL A   1      37.821  32.011  35.139  1.00  0.00     0.220 C 
ATOM      7  H   UNL A   1      37.708  32.338  33.139  1.00  0.00     0.163 HD
BRANCH   6   8
ATOM      8  C   UNL A   1      39.295  31.714  34.967  1.00  0.00     0.110 C 
BRANCH   8   9
ATOM      9  C   UNL A   1      39.557  30.388  34.266  1.00  0.00     0.107 C 
BRANCH   9  10
ATOM     10  C   UNL A   1      40.720  29.611  34.787  1.00  0.00     0.196 A 
ATOM     11  N   UNL A   1      41.655  30.025  35.616  1.00  0.00    -0.213 NA
ATOM     12  O   UNL A   1      40.856  28.302  34.384  1.00  0.00    -0.440 OA
ATOM     13  C   UNL A   1      42.488  28.942  35.743  1.00  0.00     0.117 A 
ATOM     14  C   UNL A   1      41.994  27.866  35.026  1.00  0.00     0.162 A 
BRANCH  13  15
ATOM     15  C   UNL A   1      43.671  28.919  36.573  1.00  0.00     0.004 A 
ATOM     16  C   UNL A   1      44.441  30.079  36.744  1.00  0.00     0.010 A 
ATOM     17  C   UNL A   1      44.113  27.711  37.121  1.00  0.00     0.010 A 
ATOM     18  C   UNL A   1      45.665  30.019  37.410  1.00  0.00     0.001 A 
ATOM     19  C   UNL A   1      45.339  27.653  37.786  1.00  0.00     0.001 A 
ATOM     20  C   UNL A   1      46.118  28.803  37.920  1.00  0.00     0.000 A 
ENDBRANCH  13  15
BRANCH  14  21
ATOM     21  C   UNL A   1      42.355  26.458  34.883  1.00  0.00     0.020 A 
ATOM     22  C   UNL A   1      43.426  26.048  34.084  1.00  0.00     0.012 A 
ATOM     23  C   UNL A   1      41.622  25.469  35.563  1.00  0.00     0.012 A 
ATOM     24  C   UNL A   1      43.747  24.689  33.970  1.00  0.00     0.001 A 
ATOM     25  C   UNL A   1      41.924  24.113  35.434  1.00  0.00     0.001 A 
ATOM     26  C   UNL A   1      42.993  23.723  34.637  1.00  0.00     0.000 A 
ENDBRANCH  14  21
ENDBRANCH   9  10
ENDBRANCH   8   9
ENDBRANCH   6   8
ENDBRANCH   3   4
ENDBRANCH   2   3
ENDBRANCH   1   2
BRANCH   1  27
ATOM     27  C   UNL A   1      34.385  36.085  32.974  1.00  0.00     0.002 C 
BRANCH  27  28
ATOM     28  C   UNL A   1      33.355  35.607  31.957  1.00  0.00     0.021 C 
BRANCH  28  29
ATOM     29  C   UNL A   1      33.563  36.165  30.554  1.00  0.00     0.116 C 
BRANCH  29  30
ATOM     30  N   UNL A   1      32.772  35.471  29.542  1.00  0.00    -0.352 N 
ATOM     31  C   UNL A   1      33.126  34.418  28.736  1.00  0.00     0.251 C 
ATOM     32  H   UNL A   1      31.855  35.806  29.421  1.00  0.00     0.163 HD
ATOM     33  O   UNL A   1      32.392  34.055  27.821  1.00  0.00    -0.269 OA
BRANCH  31  34
ATOM     34  C   UNL A   1      34.419  33.742  28.966  1.00  0.00     0.039 A 
ATOM     35  C   UNL A   1      35.526  34.097  28.192  1.00  0.00     0.014 A 
ATOM     36  C   UNL A   1      34.542  32.790  29.982  1.00  0.00     0.014 A 
ATOM     37  C   UNL A   1      36.779  33.556  28.496  1.00  0.00     0.010 A 
ATOM     38  C   UNL A   1      35.801  32.324  30.338  1.00  0.00     0.010 A 
ATOM     39  C   UNL A   1      36.932  32.702  29.600  1.00  0.00    -0.014 A 
BRANCH  39  40
ATOM     40  C   UNL A   1      38.263  32.191  30.013  1.00  0.00     0.031 A 
ATOM     41  C   UNL A   1      38.743  30.856  29.515  1.00  0.00     0.074 A 
ATOM     42  C   UNL A   1      38.996  32.882  30.908  1.00  0.00     0.049 A 
ATOM     43  N   UNL A   1      39.826  30.194  29.837  1.00  0.00    -0.248 NA
ATOM     44  C   UNL A   1      37.875  30.155  28.553  1.00  0.00     0.031 C 
ATOM     45  C   UNL A   1      38.621  34.164  31.508  1.00  0.00     0.029 A 
ATOM     46  N   UNL A   1      40.211  32.593  31.480  1.00  0.00    -0.354 N 
ATOM     47  C   UNL A   1      39.753  28.994  29.142  1.00  0.00     0.074 A 
ATOM     48  C   UNL A   1      38.499  28.995  28.421  1.00  0.00     0.031 C 
ATOM     49  C   UNL A   1      39.596  34.563  32.342  1.00  0.00     0.029 A 
ATOM     50  C   UNL A   1      40.643  33.548  32.369  1.00  0.00     0.049 A 
ATOM     51  H   UNL A   1      40.723  31.778  31.272  1.00  0.00     0.167 HD
ATOM     52  C   UNL A   1      40.656  27.987  29.093  1.00  0.00     0.031 A 
ATOM     53  C   UNL A   1      41.753  33.596  33.127  1.00  0.00     0.031 A 
ATOM     54  C   UNL A   1      41.913  27.994  29.792  1.00  0.00     0.049 A 
ATOM     55  C   UNL A   1      42.744  32.467  33.049  1.00  0.00     0.074 A 
ATOM     56  C   UNL A   1      42.929  27.056  29.749  1.00  0.00     0.029 A 
ATOM     57  N   UNL A   1      42.324  28.992  30.661  1.00  0.00    -0.354 N 
ATOM     58  N   UNL A   1      42.697  31.375  32.328  1.00  0.00    -0.248 NA
ATOM     59  C   UNL A   1      43.948  32.586  33.885  1.00  0.00     0.031 C 
ATOM     60  C   UNL A   1      43.935  27.463  30.631  1.00  0.00     0.029 A 
ATOM     61  C   UNL A   1      43.569  28.682  31.180  1.00  0.00     0.049 A 
ATOM     62  H   UNL A   1      41.807  29.803  30.878  1.00  0.00     0.167 HD
ATOM     63  C   UNL A   1      43.875  30.691  32.599  1.00  0.00     0.074 A 
ATOM     64  C   UNL A   1      44.622  31.500  33.539  1.00  0.00     0.031 C 
ATOM     65  C   UNL A   1      44.300  29.499  32.113  1.00  0.00     0.031 A 
BRANCH  52  66
ATOM     66  C   UNL A   1      40.313  26.788  28.253  1.00  0.00    -0.014 A 
ATOM     67  C   UNL A   1      39.485  25.766  28.744  1.00  0.00     0.009 A 
ATOM     68  C   UNL A   1      40.799  26.694  26.939  1.00  0.00     0.009 A 
ATOM     69  C   UNL A   1      39.183  24.656  27.952  1.00  0.00     0.001 A 
ATOM     70  C   UNL A   1      40.471  25.598  26.139  1.00  0.00     0.001 A 
ATOM     71  C   UNL A   1      39.673  24.576  26.649  1.00  0.00     0.000 A 
ENDBRANCH  52  66
BRANCH  53  72
ATOM     72  C   UNL A   1      42.003  34.763  34.015  1.00  0.00    -0.014 A 
ATOM     73  C   UNL A   1      41.370  34.852  35.264  1.00  0.00     0.009 A 
ATOM     74  C   UNL A   1      42.864  35.796  33.614  1.00  0.00     0.009 A 
ATOM     75  C   UNL A   1      41.572  35.966  36.083  1.00  0.00     0.001 A 
ATOM     76  C   UNL A   1      43.086  36.895  34.447  1.00  0.00     0.001 A 
ATOM     77  C   UNL A   1      42.433  36.983  35.676  1.00  0.00     0.000 A 
ENDBRANCH  53  72
BRANCH  65  78
ATOM     78  C   UNL A   1      45.651  29.019  32.558  1.00  0.00    -0.014 A 
ATOM     79  C   UNL A   1      46.808  29.306  31.817  1.00  0.00     0.009 A 
ATOM     80  C   UNL A   1      45.772  28.306  33.760  1.00  0.00     0.009 A 
ATOM     81  C   UNL A   1      48.055  28.858  32.256  1.00  0.00     0.001 A 
ATOM     82  C   UNL A   1      47.023  27.884  34.212  1.00  0.00     0.001 A 
ATOM     83  C   UNL A   1      48.162  28.153  33.455  1.00  0.00     0.000 A 
ENDBRANCH  65  78
ENDBRANCH  39  40
ENDBRANCH  31  34
ENDBRANCH  29  30
ENDBRANCH  28  29
ENDBRANCH  27  28
ENDBRANCH   1  27
TORSDOF 17
ENDMDL
MODEL 3
REMARK VINA RESULT:      -8.5      4.994     11.556
REMARK SMILES O=C(CCc1nc(-c2ccccc2)c(-c2ccccc2)o1)NCCCCCCNC(=O)c1ccc(-c2c3nc(c(-c4ccccc4)c4ccc([nH]4)c(-c4ccccc4)c4nc(c(-c5ccccc5)c5ccc2[nH]5)C=C4)C=C3)cc1
REMARK SMILES IDX 25 1 24 2 23 3 22 4 1 5 2 6 3 8 4 9 5 10 6 11 21 12 7 13
REMARK SMILES IDX 14 14 8 15 9 16 13 17 10 18 12 19 11 20 15 21 16 22 20 23
REMARK SMILES IDX 17 24 19 25 18 26 26 27 27 28 28 29 29 30 30 31 31 33 32 34
REMARK SMILES IDX 33 35 79 36 34 37 78 38 35 39 36 40 37 41 72 42 38 43 77 44
REMARK SMILES IDX 71 45 73 46 39 47 76 48 70 49 69 50 40 52 62 53 47 54 61 55
REMARK SMILES IDX 48 56 51 57 60 58 74 59 49 60 50 61 59 63 75 64 52 65 41 66
REMARK SMILES IDX 42 67 46 68 43 69 45 70 44 71 63 72 64 73 68 74 65 75 67 76
REMARK SMILES IDX 66 77 53 78 54 79 58 80 55 81 57 82 56 83
REMARK H PARENT 22 7 29 32 73 51 51 62
REMARK Flexibility Score: inf
ROOT
ATOM      1  C   UNL A   1      35.736  20.098  25.035  1.00  0.00     0.002 C 
ENDROOT
BRANCH   1   2
ATOM      2  C   UNL A   1      34.280  20.004  24.561  1.00  0.00     0.021 C 
BRANCH   2   3
ATOM      3  C   UNL A   1      33.273  19.747  25.683  1.00  0.00     0.116 C 
BRANCH   3   4
ATOM      4  N   UNL A   1      32.540  20.955  25.999  1.00  0.00    -0.356 N 
ATOM      5  O   UNL A   1      34.000  21.787  27.558  1.00  0.00    -0.275 OA
ATOM      6  C   UNL A   1      32.949  21.868  26.934  1.00  0.00     0.220 C 
ATOM      7  H   UNL A   1      31.701  21.129  25.513  1.00  0.00     0.163 HD
BRANCH   6   8
ATOM      8  C   UNL A   1      31.954  22.983  27.172  1.00  0.00     0.110 C 
BRANCH   8   9
ATOM      9  C   UNL A   1      31.357  23.533  25.884  1.00  0.00     0.107 C 
BRANCH   9  10
ATOM     10  C   UNL A   1      31.473  25.010  25.707  1.00  0.00     0.196 A 
ATOM     11  N   UNL A   1      32.280  25.833  26.344  1.00  0.00    -0.213 NA
ATOM     12  O   UNL A   1      30.668  25.616  24.771  1.00  0.00    -0.440 OA
ATOM     13  C   UNL A   1      31.967  27.067  25.831  1.00  0.00     0.117 A 
ATOM     14  C   UNL A   1      31.008  26.948  24.841  1.00  0.00     0.162 A 
BRANCH  13  15
ATOM     15  C   UNL A   1      32.610  28.299  26.228  1.00  0.00     0.004 A 
ATOM     16  C   UNL A   1      34.008  28.381  26.298  1.00  0.00     0.010 A 
ATOM     17  C   UNL A   1      31.834  29.383  26.651  1.00  0.00     0.010 A 
ATOM     18  C   UNL A   1      34.621  29.513  26.833  1.00  0.00     0.001 A 
ATOM     19  C   UNL A   1      32.449  30.516  27.187  1.00  0.00     0.001 A 
ATOM     20  C   UNL A   1      33.840  30.574  27.288  1.00  0.00     0.000 A 
ENDBRANCH  13  15
BRANCH  14  21
ATOM     21  C   UNL A   1      30.390  27.856  23.877  1.00  0.00     0.020 A 
ATOM     22  C   UNL A   1      29.006  27.900  23.688  1.00  0.00     0.012 A 
ATOM     23  C   UNL A   1      31.190  28.724  23.112  1.00  0.00     0.012 A 
ATOM     24  C   UNL A   1      28.444  28.784  22.757  1.00  0.00     0.001 A 
ATOM     25  C   UNL A   1      30.636  29.590  22.168  1.00  0.00     0.001 A 
ATOM     26  C   UNL A   1      29.258  29.621  21.993  1.00  0.00     0.000 A 
ENDBRANCH  14  21
ENDBRANCH   9  10
ENDBRANCH   8   9
ENDBRANCH   6   8
ENDBRANCH   3   4
ENDBRANCH   2   3
ENDBRANCH   1   2
BRANCH   1  27
ATOM     27  C   UNL A   1      36.553  21.197  24.354  1.00  0.00     0.002 C 
BRANCH  27  28
ATOM     28  C   UNL A   1      36.149  22.622  24.717  1.00  0.00     0.021 C 
BRANCH  28  29
ATOM     29  C   UNL A   1      37.230  23.406  25.450  1.00  0.00     0.116 C 
BRANCH  29  30
ATOM     30  N   UNL A   1      38.436  22.622  25.695  1.00  0.00    -0.352 N 
ATOM     31  C   UNL A   1      39.617  23.006  26.281  1.00  0.00     0.251 C 
ATOM     32  H   UNL A   1      38.398  21.685  25.398  1.00  0.00     0.163 HD
ATOM     33  O   UNL A   1      40.595  22.263  26.265  1.00  0.00    -0.269 OA
BRANCH  31  34
ATOM     34  C   UNL A   1      39.706  24.340  26.910  1.00  0.00     0.039 A 
ATOM     35  C   UNL A   1      39.176  24.531  28.187  1.00  0.00     0.014 A 
ATOM     36  C   UNL A   1      40.357  25.385  26.249  1.00  0.00     0.014 A 
ATOM     37  C   UNL A   1      39.376  25.753  28.837  1.00  0.00     0.010 A 
ATOM     38  C   UNL A   1      40.631  26.563  26.931  1.00  0.00     0.010 A 
ATOM     39  C   UNL A   1      40.144  26.760  28.232  1.00  0.00    -0.014 A 
BRANCH  39  40
ATOM     40  C   UNL A   1      40.462  28.028  28.934  1.00  0.00     0.031 A 
ATOM     41  C   UNL A   1      41.774  28.181  29.652  1.00  0.00     0.074 A 
ATOM     42  C   UNL A   1      39.535  29.004  29.004  1.00  0.00     0.049 A 
ATOM     43  N   UNL A   1      42.195  29.168  30.402  1.00  0.00    -0.248 NA
ATOM     44  C   UNL A   1      42.725  27.062  29.541  1.00  0.00     0.031 C 
ATOM     45  C   UNL A   1      38.203  28.959  28.395  1.00  0.00     0.029 A 
ATOM     46  N   UNL A   1      39.569  30.223  29.635  1.00  0.00    -0.354 N 
ATOM     47  C   UNL A   1      43.442  28.776  30.873  1.00  0.00     0.074 A 
ATOM     48  C   UNL A   1      43.689  27.444  30.365  1.00  0.00     0.031 C 
ATOM     49  C   UNL A   1      37.560  30.108  28.660  1.00  0.00     0.029 A 
ATOM     50  C   UNL A   1      38.412  30.951  29.490  1.00  0.00     0.049 A 
ATOM     51  H   UNL A   1      40.348  30.545  30.143  1.00  0.00     0.167 HD
ATOM     52  C   UNL A   1      44.314  29.469  31.643  1.00  0.00     0.031 A 
ATOM     53  C   UNL A   1      38.074  32.158  29.978  1.00  0.00     0.031 A 
ATOM     54  C   UNL A   1      44.079  30.802  32.129  1.00  0.00     0.049 A 
ATOM     55  C   UNL A   1      39.062  32.911  30.826  1.00  0.00     0.074 A 
ATOM     56  C   UNL A   1      44.929  31.617  32.855  1.00  0.00     0.029 A 
ATOM     57  N   UNL A   1      42.905  31.514  31.937  1.00  0.00    -0.354 N 
ATOM     58  N   UNL A   1      40.268  32.559  31.198  1.00  0.00    -0.248 NA
ATOM     59  C   UNL A   1      38.643  34.233  31.313  1.00  0.00     0.031 C 
ATOM     60  C   UNL A   1      44.251  32.806  33.144  1.00  0.00     0.029 A 
ATOM     61  C   UNL A   1      43.000  32.751  32.551  1.00  0.00     0.049 A 
ATOM     62  H   UNL A   1      42.120  31.189  31.439  1.00  0.00     0.167 HD
ATOM     63  C   UNL A   1      40.764  33.626  31.936  1.00  0.00     0.074 A 
ATOM     64  C   UNL A   1      39.733  34.643  31.945  1.00  0.00     0.031 C 
ATOM     65  C   UNL A   1      41.965  33.752  32.550  1.00  0.00     0.031 A 
BRANCH  52  66
ATOM     66  C   UNL A   1      45.605  28.792  32.009  1.00  0.00    -0.014 A 
ATOM     67  C   UNL A   1      46.768  28.976  31.243  1.00  0.00     0.009 A 
ATOM     68  C   UNL A   1      45.668  27.982  33.153  1.00  0.00     0.009 A 
ATOM     69  C   UNL A   1      47.957  28.332  31.594  1.00  0.00     0.001 A 
ATOM     70  C   UNL A   1      46.865  27.364  33.519  1.00  0.00     0.001 A 
ATOM     71  C   UNL A   1      48.004  27.530  32.734  1.00  0.00     0.000 A 
ENDBRANCH  52  66
BRANCH  53  72
ATOM     72  C   UNL A   1      36.744  32.746  29.664  1.00  0.00    -0.014 A 
ATOM     73  C   UNL A   1      36.538  33.432  28.457  1.00  0.00     0.009 A 
ATOM     74  C   UNL A   1      35.679  32.636  30.571  1.00  0.00     0.009 A 
ATOM     75  C   UNL A   1      35.302  34.018  28.176  1.00  0.00     0.001 A 
ATOM     76  C   UNL A   1      34.436  33.199  30.276  1.00  0.00     0.001 A 
ATOM     77  C   UNL A   1      34.251  33.898  29.083  1.00  0.00     0.000 A 
ENDBRANCH  53  72
BRANCH  65  78
ATOM     78  C   UNL A   1      42.245  35.051  33.250  1.00  0.00    -0.014 A 
ATOM     79  C   UNL A   1      41.743  35.310  34.534  1.00  0.00     0.009 A 
ATOM     80  C   UNL A   1      43.059  36.011  32.630  1.00  0.00     0.009 A 
ATOM     81  C   UNL A   1      42.025  36.521  35.170  1.00  0.00     0.001 A 
ATOM     82  C   UNL A   1      43.363  37.208  33.279  1.00  0.00     0.001 A 
ATOM     83  C   UNL A   1      42.838  37.466  34.544  1.00  0.00     0.000 A 
ENDBRANCH  65  78
ENDBRANCH  39  40
ENDBRANCH  31  34
ENDBRANCH  29  30
ENDBRANCH  28  29
ENDBRANCH  27  28
ENDBRANCH   1  27
TORSDOF 17
ENDMDL
