MODEL 1
REMARK VINA RESULT:     -11.8      0.000      0.000
REMARK SMILES Cc1cccc2c1[C@H]1c3c(C)cccc3[C@H](CC(=O)NCCCCCCNC(=O)c3ccc(-c4c5nc(c(-c6ccccc6)c6ccc([nH]6)c(-c6ccccc6)c6nc(c(-c7ccccc7)c7ccc4[nH]7)C=C6)C=C5)cc3)C[C@H]1CC2
REMARK SMILES IDX 24 1 23 2 22 3 21 4 20 5 18 6 19 7 17 9 16 10 1 11 2 12 3 13
REMARK SMILES IDX 7 14 4 15 6 16 8 17 5 18 81 19 9 20 79 21 80 22 10 23 15 24
REMARK SMILES IDX 78 25 12 26 11 27 14 28 13 29 25 30 26 31 27 32 28 33 29 35
REMARK SMILES IDX 30 36 31 37 77 38 32 39 76 40 33 41 34 42 35 43 70 44 36 45
REMARK SMILES IDX 75 46 69 47 71 48 37 49 74 50 68 51 67 52 38 54 60 55 45 56
REMARK SMILES IDX 59 57 46 58 49 59 58 60 72 61 47 62 48 63 57 65 73 66 50 67
REMARK SMILES IDX 39 68 40 69 44 70 41 71 43 72 42 73 61 74 62 75 66 76 63 77
REMARK SMILES IDX 65 78 64 79 51 80 52 81 56 82 53 83 55 84 54 85
REMARK H PARENT 20 8 27 34 71 53 49 64
REMARK Flexibility Score: inf
ROOT
ATOM      1  C   UNL A   1      34.938  34.935  28.349  1.00  0.00     0.002 C 
ENDROOT
BRANCH   1   2
ATOM      2  C   UNL A   1      35.162  33.564  28.992  1.00  0.00     0.002 C 
BRANCH   2   3
ATOM      3  C   UNL A   1      35.852  32.544  28.075  1.00  0.00     0.021 C 
BRANCH   3   4
ATOM      4  C   UNL A   1      35.204  31.158  28.105  1.00  0.00     0.116 C 
BRANCH   4   5
ATOM      5  N   UNL A   1      33.765  31.275  27.989  1.00  0.00    -0.356 N 
ATOM      6  C   UNL A   1      32.920  30.867  27.010  1.00  0.00     0.220 C 
ATOM      7  O   UNL A   1      31.752  31.259  27.055  1.00  0.00    -0.275 OA
ATOM      8  H   UNL A   1      33.328  31.726  28.747  1.00  0.00     0.163 HD
BRANCH   6   9
ATOM      9  C   UNL A   1      33.373  29.888  25.950  1.00  0.00     0.108 C 
BRANCH   9  10
ATOM     10  C   UNL A   1      32.559  28.591  25.759  1.00  0.00     0.029 C 
ATOM     11  C   UNL A   1      35.066  23.315  26.370  1.00  0.00     0.044 C 
ATOM     12  C   UNL A   1      33.626  23.103  25.974  1.00  0.00    -0.047 A 
ATOM     13  C   UNL A   1      33.224  21.773  25.755  1.00  0.00     0.004 A 
ATOM     14  C   UNL A   1      32.685  24.150  25.797  1.00  0.00    -0.034 A 
ATOM     15  C   UNL A   1      31.903  21.461  25.453  1.00  0.00     0.001 A 
ATOM     16  C   UNL A   1      31.321  23.808  25.636  1.00  0.00    -0.044 A 
ATOM     17  C   UNL A   1      33.079  25.625  25.822  1.00  0.00     0.053 C 
ATOM     18  C   UNL A   1      30.949  22.470  25.430  1.00  0.00     0.004 A 
ATOM     19  C   UNL A   1      30.207  24.814  25.825  1.00  0.00     0.036 C 
ATOM     20  C   UNL A   1      33.237  26.405  24.488  1.00  0.00    -0.034 A 
ATOM     21  C   UNL A   1      32.054  26.316  26.746  1.00  0.00     0.002 C 
ATOM     22  C   UNL A   1      30.643  26.247  26.130  1.00  0.00     0.009 C 
ATOM     23  C   UNL A   1      33.674  25.827  23.263  1.00  0.00    -0.047 A 
ATOM     24  C   UNL A   1      33.013  27.823  24.505  1.00  0.00    -0.040 A 
ATOM     25  C   UNL A   1      32.554  27.730  27.020  1.00  0.00     0.013 C 
ATOM     26  C   UNL A   1      33.840  26.633  22.117  1.00  0.00     0.004 A 
ATOM     27  C   UNL A   1      34.009  24.375  23.061  1.00  0.00     0.044 C 
ATOM     28  C   UNL A   1      33.142  28.572  23.315  1.00  0.00     0.004 A 
ATOM     29  C   UNL A   1      33.567  27.989  22.136  1.00  0.00     0.001 A 
ENDBRANCH   9  10
ENDBRANCH   6   9
ENDBRANCH   4   5
ENDBRANCH   3   4
ENDBRANCH   2   3
ENDBRANCH   1   2
BRANCH   1  30
ATOM     30  C   UNL A   1      33.695  35.669  28.857  1.00  0.00     0.021 C 
BRANCH  30  31
ATOM     31  C   UNL A   1      32.934  34.913  29.939  1.00  0.00     0.116 C 
BRANCH  31  32
ATOM     32  N   UNL A   1      32.444  35.811  30.970  1.00  0.00    -0.352 N 
ATOM     33  C   UNL A   1      32.834  35.876  32.285  1.00  0.00     0.251 C 
ATOM     34  H   UNL A   1      31.749  36.451  30.694  1.00  0.00     0.163 HD
ATOM     35  O   UNL A   1      32.207  36.519  33.110  1.00  0.00    -0.269 OA
BRANCH  33  36
ATOM     36  C   UNL A   1      34.045  35.133  32.678  1.00  0.00     0.039 A 
ATOM     37  C   UNL A   1      33.913  33.872  33.258  1.00  0.00     0.014 A 
ATOM     38  C   UNL A   1      35.305  35.683  32.418  1.00  0.00     0.014 A 
ATOM     39  C   UNL A   1      35.061  33.136  33.551  1.00  0.00     0.010 A 
ATOM     40  C   UNL A   1      36.444  34.929  32.668  1.00  0.00     0.010 A 
ATOM     41  C   UNL A   1      36.329  33.656  33.247  1.00  0.00    -0.014 A 
BRANCH  41  42
ATOM     42  C   UNL A   1      37.558  32.907  33.589  1.00  0.00     0.031 A 
ATOM     43  C   UNL A   1      38.078  31.876  32.630  1.00  0.00     0.074 A 
ATOM     44  C   UNL A   1      38.188  33.138  34.756  1.00  0.00     0.049 A 
ATOM     45  N   UNL A   1      39.117  31.092  32.752  1.00  0.00    -0.248 NA
ATOM     46  C   UNL A   1      37.331  31.695  31.373  1.00  0.00     0.031 C 
ATOM     47  C   UNL A   1      37.778  34.117  35.763  1.00  0.00     0.029 A 
ATOM     48  N   UNL A   1      39.318  32.568  35.284  1.00  0.00    -0.354 N 
ATOM     49  C   UNL A   1      39.147  30.330  31.592  1.00  0.00     0.074 A 
ATOM     50  C   UNL A   1      38.002  30.709  30.797  1.00  0.00     0.031 C 
ATOM     51  C   UNL A   1      38.667  34.107  36.771  1.00  0.00     0.029 A 
ATOM     52  C   UNL A   1      39.689  33.100  36.495  1.00  0.00     0.049 A 
ATOM     53  H   UNL A   1      39.817  31.847  34.838  1.00  0.00     0.167 HD
ATOM     54  C   UNL A   1      40.065  29.415  31.213  1.00  0.00     0.031 A 
ATOM     55  C   UNL A   1      40.739  32.812  37.288  1.00  0.00     0.031 A 
ATOM     56  C   UNL A   1      41.216  29.052  31.991  1.00  0.00     0.049 A 
ATOM     57  C   UNL A   1      41.713  31.749  36.865  1.00  0.00     0.074 A 
ATOM     58  C   UNL A   1      42.214  28.150  31.671  1.00  0.00     0.029 A 
ATOM     59  N   UNL A   1      41.525  29.579  33.233  1.00  0.00    -0.354 N 
ATOM     60  N   UNL A   1      41.734  31.046  35.759  1.00  0.00    -0.248 NA
ATOM     61  C   UNL A   1      42.809  31.440  37.797  1.00  0.00     0.031 C 
ATOM     62  C   UNL A   1      43.113  28.105  32.739  1.00  0.00     0.029 A 
ATOM     63  C   UNL A   1      42.694  29.011  33.701  1.00  0.00     0.049 A 
ATOM     64  H   UNL A   1      40.992  30.255  33.710  1.00  0.00     0.167 HD
ATOM     65  C   UNL A   1      42.855  30.231  35.850  1.00  0.00     0.074 A 
ATOM     66  C   UNL A   1      43.490  30.527  37.118  1.00  0.00     0.031 C 
ATOM     67  C   UNL A   1      43.316  29.323  34.960  1.00  0.00     0.031 A 
BRANCH  54  68
ATOM     68  C   UNL A   1      39.886  28.750  29.882  1.00  0.00    -0.014 A 
ATOM     69  C   UNL A   1      40.362  29.361  28.712  1.00  0.00     0.009 A 
ATOM     70  C   UNL A   1      39.337  27.462  29.808  1.00  0.00     0.009 A 
ATOM     71  C   UNL A   1      40.290  28.693  27.490  1.00  0.00     0.001 A 
ATOM     72  C   UNL A   1      39.283  26.789  28.587  1.00  0.00     0.001 A 
ATOM     73  C   UNL A   1      39.760  27.404  27.431  1.00  0.00     0.000 A 
ENDBRANCH  54  68
BRANCH  55  74
ATOM     74  C   UNL A   1      40.947  33.574  38.544  1.00  0.00    -0.014 A 
ATOM     75  C   UNL A   1      40.374  33.122  39.742  1.00  0.00     0.009 A 
ATOM     76  C   UNL A   1      41.727  34.740  38.560  1.00  0.00     0.009 A 
ATOM     77  C   UNL A   1      40.569  33.829  40.930  1.00  0.00     0.001 A 
ATOM     78  C   UNL A   1      41.936  35.435  39.753  1.00  0.00     0.001 A 
ATOM     79  C   UNL A   1      41.354  34.981  40.937  1.00  0.00     0.000 A 
ENDBRANCH  55  74
BRANCH  67  80
ATOM     80  C   UNL A   1      44.579  28.587  35.292  1.00  0.00    -0.014 A 
ATOM     81  C   UNL A   1      44.536  27.337  35.924  1.00  0.00     0.009 A 
ATOM     82  C   UNL A   1      45.812  29.090  34.846  1.00  0.00     0.009 A 
ATOM     83  C   UNL A   1      45.708  26.602  36.106  1.00  0.00     0.001 A 
ATOM     84  C   UNL A   1      46.978  28.344  35.012  1.00  0.00     0.001 A 
ATOM     85  C   UNL A   1      46.926  27.101  35.642  1.00  0.00     0.000 A 
ENDBRANCH  67  80
ENDBRANCH  41  42
ENDBRANCH  33  36
ENDBRANCH  31  32
ENDBRANCH  30  31
ENDBRANCH   1  30
TORSDOF 14
ENDMDL
MODEL 2
REMARK VINA RESULT:     -11.8      2.407      6.743
REMARK SMILES Cc1cccc2c1[C@H]1c3c(C)cccc3[C@H](CC(=O)NCCCCCCNC(=O)c3ccc(-c4c5nc(c(-c6ccccc6)c6ccc([nH]6)c(-c6ccccc6)c6nc(c(-c7ccccc7)c7ccc4[nH]7)C=C6)C=C5)cc3)C[C@H]1CC2
REMARK SMILES IDX 24 1 23 2 22 3 21 4 20 5 18 6 19 7 17 9 16 10 1 11 2 12 3 13
REMARK SMILES IDX 7 14 4 15 6 16 8 17 5 18 81 19 9 20 79 21 80 22 10 23 15 24
REMARK SMILES IDX 78 25 12 26 11 27 14 28 13 29 25 30 26 31 27 32 28 33 29 35
REMARK SMILES IDX 30 36 31 37 77 38 32 39 76 40 33 41 34 42 35 43 70 44 36 45
REMARK SMILES IDX 75 46 69 47 71 48 37 49 74 50 68 51 67 52 38 54 60 55 45 56
REMARK SMILES IDX 59 57 46 58 49 59 58 60 72 61 47 62 48 63 57 65 73 66 50 67
REMARK SMILES IDX 39 68 40 69 44 70 41 71 43 72 42 73 61 74 62 75 66 76 63 77
REMARK SMILES IDX 65 78 64 79 51 80 52 81 56 82 53 83 55 84 54 85
REMARK H PARENT 20 8 27 34 71 53 49 64
REMARK Flexibility Score: inf
ROOT
ATOM      1  C   UNL A   1      31.911  30.424  26.949  1.00  0.00     0.002 C 
ENDROOT
BRANCH   1   2
ATOM      2  C   UNL A   1      31.812  29.727  25.589  1.00  0.00     0.002 C 
BRANCH   2   3
ATOM      3  C   UNL A   1      33.168  29.364  24.967  1.00  0.00     0.021 C 
BRANCH   3   4
ATOM      4  C   UNL A   1      33.073  28.942  23.498  1.00  0.00     0.116 C 
BRANCH   4   5
ATOM      5  N   UNL A   1      31.832  29.415  22.920  1.00  0.00    -0.356 N 
ATOM      6  C   UNL A   1      30.868  28.754  22.233  1.00  0.00     0.220 C 
ATOM      7  O   UNL A   1      29.995  29.422  21.675  1.00  0.00    -0.275 OA
ATOM      8  H   UNL A   1      31.660  30.376  23.047  1.00  0.00     0.163 HD
BRANCH   6   9
ATOM      9  C   UNL A   1      30.811  27.243  22.231  1.00  0.00     0.108 C 
BRANCH   9  10
ATOM     10  C   UNL A   1      31.888  26.471  23.023  1.00  0.00     0.029 C 
ATOM     11  C   UNL A   1      32.133  20.604  22.886  1.00  0.00     0.044 C 
ATOM     12  C   UNL A   1      33.214  21.094  23.817  1.00  0.00    -0.047 A 
ATOM     13  C   UNL A   1      33.956  20.108  24.492  1.00  0.00     0.004 A 
ATOM     14  C   UNL A   1      33.503  22.463  24.055  1.00  0.00    -0.034 A 
ATOM     15  C   UNL A   1      35.019  20.448  25.321  1.00  0.00     0.001 A 
ATOM     16  C   UNL A   1      34.674  22.787  24.780  1.00  0.00    -0.044 A 
ATOM     17  C   UNL A   1      32.628  23.594  23.520  1.00  0.00     0.053 C 
ATOM     18  C   UNL A   1      35.399  21.778  25.435  1.00  0.00     0.004 A 
ATOM     19  C   UNL A   1      35.278  24.173  24.762  1.00  0.00     0.036 C 
ATOM     20  C   UNL A   1      31.619  24.303  24.465  1.00  0.00    -0.034 A 
ATOM     21  C   UNL A   1      33.601  24.612  22.890  1.00  0.00     0.002 C 
ATOM     22  C   UNL A   1      34.507  25.231  23.972  1.00  0.00     0.009 C 
ATOM     23  C   UNL A   1      30.950  23.670  25.551  1.00  0.00    -0.047 A 
ATOM     24  C   UNL A   1      31.265  25.663  24.176  1.00  0.00    -0.040 A 
ATOM     25  C   UNL A   1      32.771  25.625  22.108  1.00  0.00     0.013 C 
ATOM     26  C   UNL A   1      30.006  24.386  26.318  1.00  0.00     0.004 A 
ATOM     27  C   UNL A   1      31.145  22.240  25.974  1.00  0.00     0.044 C 
ATOM     28  C   UNL A   1      30.355  26.349  25.010  1.00  0.00     0.004 A 
ATOM     29  C   UNL A   1      29.718  25.714  26.060  1.00  0.00     0.001 A 
ENDBRANCH   9  10
ENDBRANCH   6   9
ENDBRANCH   4   5
ENDBRANCH   3   4
ENDBRANCH   2   3
ENDBRANCH   1   2
BRANCH   1  30
ATOM     30  C   UNL A   1      31.585  31.918  26.911  1.00  0.00     0.021 C 
BRANCH  30  31
ATOM     31  C   UNL A   1      32.810  32.818  27.020  1.00  0.00     0.116 C 
BRANCH  31  32
ATOM     32  N   UNL A   1      32.496  34.061  27.705  1.00  0.00    -0.352 N 
ATOM     33  C   UNL A   1      33.125  34.600  28.800  1.00  0.00     0.251 C 
ATOM     34  H   UNL A   1      31.743  34.579  27.340  1.00  0.00     0.163 HD
ATOM     35  O   UNL A   1      32.645  35.535  29.420  1.00  0.00    -0.269 OA
BRANCH  33  36
ATOM     36  C   UNL A   1      34.409  34.008  29.215  1.00  0.00     0.039 A 
ATOM     37  C   UNL A   1      34.444  33.164  30.325  1.00  0.00     0.014 A 
ATOM     38  C   UNL A   1      35.560  34.261  28.460  1.00  0.00     0.014 A 
ATOM     39  C   UNL A   1      35.643  32.539  30.664  1.00  0.00     0.010 A 
ATOM     40  C   UNL A   1      36.740  33.600  28.773  1.00  0.00     0.010 A 
ATOM     41  C   UNL A   1      36.792  32.745  29.884  1.00  0.00    -0.014 A 
BRANCH  41  42
ATOM     42  C   UNL A   1      38.082  32.122  30.254  1.00  0.00     0.031 A 
ATOM     43  C   UNL A   1      38.961  32.801  31.264  1.00  0.00     0.074 A 
ATOM     44  C   UNL A   1      38.467  30.969  29.674  1.00  0.00     0.049 A 
ATOM     45  N   UNL A   1      40.137  32.439  31.703  1.00  0.00    -0.248 NA
ATOM     46  C   UNL A   1      38.457  34.054  31.853  1.00  0.00     0.031 C 
ATOM     47  C   UNL A   1      37.694  30.218  28.684  1.00  0.00     0.029 A 
ATOM     48  N   UNL A   1      39.605  30.224  29.848  1.00  0.00    -0.354 N 
ATOM     49  C   UNL A   1      40.511  33.415  32.616  1.00  0.00     0.074 A 
ATOM     50  C   UNL A   1      39.463  34.408  32.639  1.00  0.00     0.031 C 
ATOM     51  C   UNL A   1      38.364  29.097  28.367  1.00  0.00     0.029 A 
ATOM     52  C   UNL A   1      39.624  29.068  29.106  1.00  0.00     0.049 A 
ATOM     53  H   UNL A   1      40.337  30.490  30.448  1.00  0.00     0.167 HD
ATOM     54  C   UNL A   1      41.619  33.463  33.387  1.00  0.00     0.031 A 
ATOM     55  C   UNL A   1      40.550  28.093  29.036  1.00  0.00     0.031 A 
ATOM     56  C   UNL A   1      42.653  32.466  33.382  1.00  0.00     0.049 A 
ATOM     57  C   UNL A   1      41.799  28.202  29.865  1.00  0.00     0.074 A 
ATOM     58  C   UNL A   1      43.801  32.421  34.151  1.00  0.00     0.029 A 
ATOM     59  N   UNL A   1      42.656  31.339  32.579  1.00  0.00    -0.354 N 
ATOM     60  N   UNL A   1      42.132  29.126  30.733  1.00  0.00    -0.248 NA
ATOM     61  C   UNL A   1      42.799  27.135  29.706  1.00  0.00     0.031 C 
ATOM     62  C   UNL A   1      44.519  31.280  33.788  1.00  0.00     0.029 A 
ATOM     63  C   UNL A   1      43.795  30.597  32.824  1.00  0.00     0.049 A 
ATOM     64  H   UNL A   1      41.953  31.102  31.931  1.00  0.00     0.167 HD
ATOM     65  C   UNL A   1      43.365  28.740  31.242  1.00  0.00     0.074 A 
ATOM     66  C   UNL A   1      43.722  27.498  30.588  1.00  0.00     0.031 C 
ATOM     67  C   UNL A   1      44.130  29.360  32.170  1.00  0.00     0.031 A 
BRANCH  54  68
ATOM     68  C   UNL A   1      41.771  34.619  34.328  1.00  0.00    -0.014 A 
ATOM     69  C   UNL A   1      41.330  34.517  35.656  1.00  0.00     0.009 A 
ATOM     70  C   UNL A   1      42.454  35.773  33.918  1.00  0.00     0.009 A 
ATOM     71  C   UNL A   1      41.569  35.555  36.557  1.00  0.00     0.001 A 
ATOM     72  C   UNL A   1      42.707  36.801  34.827  1.00  0.00     0.001 A 
ATOM     73  C   UNL A   1      42.266  36.690  36.144  1.00  0.00     0.000 A 
ENDBRANCH  54  68
BRANCH  55  74
ATOM     74  C   UNL A   1      40.311  26.905  28.180  1.00  0.00    -0.014 A 
ATOM     75  C   UNL A   1      39.563  25.825  28.671  1.00  0.00     0.009 A 
ATOM     76  C   UNL A   1      40.810  26.847  26.870  1.00  0.00     0.009 A 
ATOM     77  C   UNL A   1      39.328  24.705  27.872  1.00  0.00     0.001 A 
ATOM     78  C   UNL A   1      40.556  25.734  26.065  1.00  0.00     0.001 A 
ATOM     79  C   UNL A   1      39.819  24.662  26.568  1.00  0.00     0.000 A 
ENDBRANCH  55  74
BRANCH  67  80
ATOM     80  C   UNL A   1      45.421  28.711  32.569  1.00  0.00    -0.014 A 
ATOM     81  C   UNL A   1      46.629  29.091  31.968  1.00  0.00     0.009 A 
ATOM     82  C   UNL A   1      45.441  27.811  33.647  1.00  0.00     0.009 A 
ATOM     83  C   UNL A   1      47.839  28.578  32.440  1.00  0.00     0.001 A 
ATOM     84  C   UNL A   1      46.653  27.317  34.128  1.00  0.00     0.001 A 
ATOM     85  C   UNL A   1      47.850  27.700  33.525  1.00  0.00     0.000 A 
ENDBRANCH  67  80
ENDBRANCH  41  42
ENDBRANCH  33  36
ENDBRANCH  31  32
ENDBRANCH  30  31
ENDBRANCH   1  30
TORSDOF 14
ENDMDL
MODEL 3
REMARK VINA RESULT:     -11.7      2.298      3.893
REMARK SMILES Cc1cccc2c1[C@H]1c3c(C)cccc3[C@H](CC(=O)NCCCCCCNC(=O)c3ccc(-c4c5nc(c(-c6ccccc6)c6ccc([nH]6)c(-c6ccccc6)c6nc(c(-c7ccccc7)c7ccc4[nH]7)C=C6)C=C5)cc3)C[C@H]1CC2
REMARK SMILES IDX 24 1 23 2 22 3 21 4 20 5 18 6 19 7 17 9 16 10 1 11 2 12 3 13
REMARK SMILES IDX 7 14 4 15 6 16 8 17 5 18 81 19 9 20 79 21 80 22 10 23 15 24
REMARK SMILES IDX 78 25 12 26 11 27 14 28 13 29 25 30 26 31 27 32 28 33 29 35
REMARK SMILES IDX 30 36 31 37 77 38 32 39 76 40 33 41 34 42 35 43 70 44 36 45
REMARK SMILES IDX 75 46 69 47 71 48 37 49 74 50 68 51 67 52 38 54 60 55 45 56
REMARK SMILES IDX 59 57 46 58 49 59 58 60 72 61 47 62 48 63 57 65 73 66 50 67
REMARK SMILES IDX 39 68 40 69 44 70 41 71 43 72 42 73 61 74 62 75 66 76 63 77
REMARK SMILES IDX 65 78 64 79 51 80 52 81 56 82 53 83 55 84 54 85
REMARK H PARENT 20 8 27 34 71 53 49 64
REMARK Flexibility Score: inf
ROOT
ATOM      1  C   UNL A   1      31.975  30.378  26.926  1.00  0.00     0.002 C 
ENDROOT
BRANCH   1   2
ATOM      2  C   UNL A   1      31.815  29.707  25.559  1.00  0.00     0.002 C 
BRANCH   2   3
ATOM      3  C   UNL A   1      33.131  29.212  24.943  1.00  0.00     0.021 C 
BRANCH   3   4
ATOM      4  C   UNL A   1      33.055  28.997  23.429  1.00  0.00     0.116 C 
BRANCH   4   5
ATOM      5  N   UNL A   1      31.768  29.430  22.926  1.00  0.00    -0.356 N 
ATOM      6  C   UNL A   1      30.809  28.752  22.249  1.00  0.00     0.220 C 
ATOM      7  O   UNL A   1      29.880  29.399  21.760  1.00  0.00    -0.275 OA
ATOM      8  H   UNL A   1      31.554  30.375  23.105  1.00  0.00     0.163 HD
BRANCH   6   9
ATOM      9  C   UNL A   1      30.827  27.242  22.178  1.00  0.00     0.108 C 
BRANCH   9  10
ATOM     10  C   UNL A   1      31.907  26.486  22.981  1.00  0.00     0.029 C 
ATOM     11  C   UNL A   1      32.172  20.619  22.937  1.00  0.00     0.044 C 
ATOM     12  C   UNL A   1      33.252  21.127  23.860  1.00  0.00    -0.047 A 
ATOM     13  C   UNL A   1      33.997  20.154  24.550  1.00  0.00     0.004 A 
ATOM     14  C   UNL A   1      33.536  22.501  24.075  1.00  0.00    -0.034 A 
ATOM     15  C   UNL A   1      35.060  20.511  25.372  1.00  0.00     0.001 A 
ATOM     16  C   UNL A   1      34.707  22.840  24.794  1.00  0.00    -0.044 A 
ATOM     17  C   UNL A   1      32.657  23.620  23.523  1.00  0.00     0.053 C 
ATOM     18  C   UNL A   1      35.436  21.844  25.465  1.00  0.00     0.004 A 
ATOM     19  C   UNL A   1      35.307  24.228  24.754  1.00  0.00     0.036 C 
ATOM     20  C   UNL A   1      31.646  24.341  24.457  1.00  0.00    -0.034 A 
ATOM     21  C   UNL A   1      33.626  24.632  22.876  1.00  0.00     0.002 C 
ATOM     22  C   UNL A   1      34.531  25.270  23.947  1.00  0.00     0.009 C 
ATOM     23  C   UNL A   1      30.980  23.723  25.554  1.00  0.00    -0.047 A 
ATOM     24  C   UNL A   1      31.288  25.695  24.147  1.00  0.00    -0.040 A 
ATOM     25  C   UNL A   1      32.792  25.629  22.079  1.00  0.00     0.013 C 
ATOM     26  C   UNL A   1      30.035  24.449  26.310  1.00  0.00     0.004 A 
ATOM     27  C   UNL A   1      31.181  22.301  26.000  1.00  0.00     0.044 C 
ATOM     28  C   UNL A   1      30.376  26.391  24.971  1.00  0.00     0.004 A 
ATOM     29  C   UNL A   1      29.742  25.771  26.032  1.00  0.00     0.001 A 
ENDBRANCH   9  10
ENDBRANCH   6   9
ENDBRANCH   4   5
ENDBRANCH   3   4
ENDBRANCH   2   3
ENDBRANCH   1   2
BRANCH   1  30
ATOM     30  C   UNL A   1      31.648  31.873  26.931  1.00  0.00     0.021 C 
BRANCH  30  31
ATOM     31  C   UNL A   1      32.876  32.771  27.019  1.00  0.00     0.116 C 
BRANCH  31  32
ATOM     32  N   UNL A   1      32.581  34.006  27.726  1.00  0.00    -0.352 N 
ATOM     33  C   UNL A   1      33.214  34.513  28.833  1.00  0.00     0.251 C 
ATOM     34  H   UNL A   1      31.839  34.544  27.367  1.00  0.00     0.163 HD
ATOM     35  O   UNL A   1      32.748  35.445  29.468  1.00  0.00    -0.269 OA
BRANCH  33  36
ATOM     36  C   UNL A   1      34.486  33.891  29.242  1.00  0.00     0.039 A 
ATOM     37  C   UNL A   1      35.664  34.252  28.588  1.00  0.00     0.014 A 
ATOM     38  C   UNL A   1      34.498  32.986  30.310  1.00  0.00     0.014 A 
ATOM     39  C   UNL A   1      36.876  33.725  29.033  1.00  0.00     0.010 A 
ATOM     40  C   UNL A   1      35.710  32.501  30.780  1.00  0.00     0.010 A 
ATOM     41  C   UNL A   1      36.905  32.856  30.137  1.00  0.00    -0.014 A 
BRANCH  41  42
ATOM     42  C   UNL A   1      38.177  32.256  30.596  1.00  0.00     0.031 A 
ATOM     43  C   UNL A   1      38.630  30.954  30.001  1.00  0.00     0.074 A 
ATOM     44  C   UNL A   1      38.907  32.866  31.548  1.00  0.00     0.049 A 
ATOM     45  N   UNL A   1      39.693  30.249  30.284  1.00  0.00    -0.248 NA
ATOM     46  C   UNL A   1      37.773  30.363  28.958  1.00  0.00     0.031 C 
ATOM     47  C   UNL A   1      38.569  34.134  32.195  1.00  0.00     0.029 A 
ATOM     48  N   UNL A   1      40.094  32.499  32.129  1.00  0.00    -0.354 N 
ATOM     49  C   UNL A   1      39.633  29.136  29.456  1.00  0.00     0.074 A 
ATOM     50  C   UNL A   1      38.411  29.232  28.692  1.00  0.00     0.031 C 
ATOM     51  C   UNL A   1      39.549  34.460  33.056  1.00  0.00     0.029 A 
ATOM     52  C   UNL A   1      40.563  33.409  33.045  1.00  0.00     0.049 A 
ATOM     53  H   UNL A   1      40.565  31.663  31.911  1.00  0.00     0.167 HD
ATOM     54  C   UNL A   1      40.532  28.137  29.327  1.00  0.00     0.031 A 
ATOM     55  C   UNL A   1      41.688  33.399  33.786  1.00  0.00     0.031 A 
ATOM     56  C   UNL A   1      41.758  28.050  30.069  1.00  0.00     0.049 A 
ATOM     57  C   UNL A   1      42.643  32.245  33.660  1.00  0.00     0.074 A 
ATOM     58  C   UNL A   1      42.743  27.083  29.983  1.00  0.00     0.029 A 
ATOM     59  N   UNL A   1      42.169  28.966  31.022  1.00  0.00    -0.354 N 
ATOM     60  N   UNL A   1      42.577  31.206  32.864  1.00  0.00    -0.248 NA
ATOM     61  C   UNL A   1      43.827  32.262  34.533  1.00  0.00     0.031 C 
ATOM     62  C   UNL A   1      43.738  27.397  30.911  1.00  0.00     0.029 A 
ATOM     63  C   UNL A   1      43.389  28.580  31.542  1.00  0.00     0.049 A 
ATOM     64  H   UNL A   1      41.667  29.771  31.287  1.00  0.00     0.167 HD
ATOM     65  C   UNL A   1      43.720  30.460  33.121  1.00  0.00     0.074 A 
ATOM     66  C   UNL A   1      44.463  31.164  34.145  1.00  0.00     0.031 C 
ATOM     67  C   UNL A   1      44.117  29.297  32.554  1.00  0.00     0.031 A 
BRANCH  54  68
ATOM     68  C   UNL A   1      40.247  27.059  28.326  1.00  0.00    -0.014 A 
ATOM     69  C   UNL A   1      40.779  27.133  27.029  1.00  0.00     0.009 A 
ATOM     70  C   UNL A   1      39.533  25.915  28.710  1.00  0.00     0.009 A 
ATOM     71  C   UNL A   1      40.600  26.079  26.134  1.00  0.00     0.001 A 
ATOM     72  C   UNL A   1      39.371  24.854  27.818  1.00  0.00     0.001 A 
ATOM     73  C   UNL A   1      39.906  24.937  26.533  1.00  0.00     0.000 A 
ENDBRANCH  54  68
BRANCH  55  74
ATOM     74  C   UNL A   1      41.994  34.541  34.681  1.00  0.00    -0.014 A 
ATOM     75  C   UNL A   1      42.702  35.648  34.189  1.00  0.00     0.009 A 
ATOM     76  C   UNL A   1      41.572  34.543  36.019  1.00  0.00     0.009 A 
ATOM     77  C   UNL A   1      42.991  36.730  35.022  1.00  0.00     0.001 A 
ATOM     78  C   UNL A   1      41.845  35.636  36.845  1.00  0.00     0.001 A 
ATOM     79  C   UNL A   1      42.558  36.727  36.347  1.00  0.00     0.000 A 
ENDBRANCH  55  74
BRANCH  67  80
ATOM     80  C   UNL A   1      45.422  28.706  32.996  1.00  0.00    -0.014 A 
ATOM     81  C   UNL A   1      46.616  29.030  32.338  1.00  0.00     0.009 A 
ATOM     82  C   UNL A   1      45.470  27.926  34.163  1.00  0.00     0.009 A 
ATOM     83  C   UNL A   1      47.838  28.581  32.840  1.00  0.00     0.001 A 
ATOM     84  C   UNL A   1      46.694  27.496  34.673  1.00  0.00     0.001 A 
ATOM     85  C   UNL A   1      47.877  27.823  34.012  1.00  0.00     0.000 A 
ENDBRANCH  67  80
ENDBRANCH  41  42
ENDBRANCH  33  36
ENDBRANCH  31  32
ENDBRANCH  30  31
ENDBRANCH   1  30
TORSDOF 14
ENDMDL
