MODEL 1
REMARK VINA RESULT:     -10.0      0.000      0.000
REMARK SMILES CC(C)C[C@H](NC(=O)Cc1ccccc1)C(=O)NCCCCCCNC(=O)c1ccc(-c2c3nc(c(-c4ccccc4)c4ccc([nH]4)c(-c4ccccc4)c4nc(c(-c5ccccc5)c5ccc2[nH]5)C=C4)C=C3)cc1
REMARK SMILES IDX 21 1 20 2 19 3 18 4 16 5 17 6 5 8 4 9 2 10 1 11 3 12 6 13
REMARK SMILES IDX 7 14 8 16 9 17 10 18 11 19 15 20 12 21 14 22 13 23 22 24
REMARK SMILES IDX 23 25 24 26 25 27 26 28 27 30 28 31 29 32 75 33 30 34 74 35
REMARK SMILES IDX 31 36 32 37 33 38 68 39 34 40 73 41 67 42 69 43 35 44 72 45
REMARK SMILES IDX 66 46 65 47 36 49 58 50 43 51 57 52 44 53 47 54 56 55 70 56
REMARK SMILES IDX 45 57 46 58 55 60 71 61 48 62 37 63 38 64 42 65 39 66 41 67
REMARK SMILES IDX 40 68 59 69 60 70 64 71 61 72 63 73 62 74 49 75 50 76 54 77
REMARK SMILES IDX 51 78 53 79 52 80
REMARK H PARENT 18 7 6 15 25 29 69 48 47 59
REMARK Flexibility Score: inf
ROOT
ATOM      1  C   UNL A   1      32.239  27.245  24.375  1.00  0.00     0.002 C 
ENDROOT
BRANCH   1   2
ATOM      2  C   UNL A   1      30.925  27.295  25.161  1.00  0.00     0.021 C 
BRANCH   2   3
ATOM      3  C   UNL A   1      29.914  26.249  24.714  1.00  0.00     0.116 C 
BRANCH   3   4
ATOM      4  N   UNL A   1      29.543  25.387  25.828  1.00  0.00    -0.354 N 
ATOM      5  C   UNL A   1      30.134  24.246  26.293  1.00  0.00     0.242 C 
ATOM      6  O   UNL A   1      29.688  23.735  27.321  1.00  0.00    -0.273 OA
ATOM      7  H   UNL A   1      28.741  25.672  26.323  1.00  0.00     0.163 HD
BRANCH   5   8
ATOM      8  C   UNL A   1      31.395  23.697  25.602  1.00  0.00     0.171 C 
BRANCH   8   9
ATOM      9  C   UNL A   1      30.994  22.917  24.340  1.00  0.00     0.038 C 
BRANCH   9  10
ATOM     10  C   UNL A   1      32.066  22.681  23.252  1.00  0.00    -0.015 C 
ATOM     11  C   UNL A   1      33.084  23.818  23.212  1.00  0.00     0.007 C 
ATOM     12  C   UNL A   1      32.782  21.349  23.506  1.00  0.00     0.007 C 
ENDBRANCH   9  10
ENDBRANCH   8   9
BRANCH   8  13
ATOM     13  N   UNL A   1      32.128  22.924  26.630  1.00  0.00    -0.344 N 
ATOM     14  C   UNL A   1      33.419  22.846  27.041  1.00  0.00     0.225 C 
ATOM     15  H   UNL A   1      31.537  22.321  27.137  1.00  0.00     0.164 HD
ATOM     16  O   UNL A   1      33.669  22.047  27.949  1.00  0.00    -0.275 OA
BRANCH  14  17
ATOM     17  C   UNL A   1      34.523  23.672  26.412  1.00  0.00     0.135 C 
BRANCH  17  18
ATOM     18  C   UNL A   1      35.786  22.893  26.120  1.00  0.00    -0.039 A 
ATOM     19  C   UNL A   1      37.033  23.512  26.296  1.00  0.00     0.004 A 
ATOM     20  C   UNL A   1      35.746  21.590  25.602  1.00  0.00     0.004 A 
ATOM     21  C   UNL A   1      38.194  22.916  25.806  1.00  0.00     0.000 A 
ATOM     22  C   UNL A   1      36.913  20.986  25.133  1.00  0.00     0.000 A 
ATOM     23  C   UNL A   1      38.130  21.663  25.202  1.00  0.00     0.000 A 
ENDBRANCH  17  18
ENDBRANCH  14  17
ENDBRANCH   8  13
ENDBRANCH   5   8
ENDBRANCH   3   4
ENDBRANCH   2   3
ENDBRANCH   1   2
BRANCH   1  24
ATOM     24  C   UNL A   1      33.497  27.162  25.245  1.00  0.00     0.002 C 
BRANCH  24  25
ATOM     25  C   UNL A   1      33.959  28.498  25.831  1.00  0.00     0.021 C 
BRANCH  25  26
ATOM     26  C   UNL A   1      33.584  28.705  27.293  1.00  0.00     0.116 C 
BRANCH  26  27
ATOM     27  N   UNL A   1      33.592  30.110  27.668  1.00  0.00    -0.352 N 
ATOM     28  C   UNL A   1      34.575  30.829  28.295  1.00  0.00     0.251 C 
ATOM     29  H   UNL A   1      32.777  30.613  27.440  1.00  0.00     0.163 HD
ATOM     30  O   UNL A   1      34.351  31.964  28.709  1.00  0.00    -0.269 OA
BRANCH  28  31
ATOM     31  C   UNL A   1      35.903  30.219  28.491  1.00  0.00     0.039 A 
ATOM     32  C   UNL A   1      36.828  30.265  27.446  1.00  0.00     0.014 A 
ATOM     33  C   UNL A   1      36.238  29.620  29.709  1.00  0.00     0.014 A 
ATOM     34  C   UNL A   1      38.111  29.756  27.643  1.00  0.00     0.010 A 
ATOM     35  C   UNL A   1      37.540  29.188  29.929  1.00  0.00     0.010 A 
ATOM     36  C   UNL A   1      38.488  29.245  28.897  1.00  0.00    -0.014 A 
BRANCH  36  37
ATOM     37  C   UNL A   1      39.869  28.766  29.144  1.00  0.00     0.031 A 
ATOM     38  C   UNL A   1      40.882  29.677  29.781  1.00  0.00     0.074 A 
ATOM     39  C   UNL A   1      40.228  27.533  28.741  1.00  0.00     0.049 A 
ATOM     40  N   UNL A   1      42.146  29.451  30.040  1.00  0.00    -0.248 NA
ATOM     41  C   UNL A   1      40.424  31.025  30.149  1.00  0.00     0.031 C 
ATOM     42  C   UNL A   1      39.349  26.570  28.074  1.00  0.00     0.029 A 
ATOM     43  N   UNL A   1      41.431  26.879  28.830  1.00  0.00    -0.354 N 
ATOM     44  C   UNL A   1      42.633  30.632  30.586  1.00  0.00     0.074 A 
ATOM     45  C   UNL A   1      41.548  31.587  30.566  1.00  0.00     0.031 C 
ATOM     46  C   UNL A   1      40.034  25.439  27.842  1.00  0.00     0.029 A 
ATOM     47  C   UNL A   1      41.408  25.612  28.301  1.00  0.00     0.049 A 
ATOM     48  H   UNL A   1      42.234  27.281  29.233  1.00  0.00     0.167 HD
ATOM     49  C   UNL A   1      43.867  30.893  31.079  1.00  0.00     0.031 A 
ATOM     50  C   UNL A   1      42.385  24.692  28.193  1.00  0.00     0.031 A 
ATOM     51  C   UNL A   1      44.946  29.942  31.093  1.00  0.00     0.049 A 
ATOM     52  C   UNL A   1      43.754  25.011  28.724  1.00  0.00     0.074 A 
ATOM     53  C   UNL A   1      46.218  30.089  31.619  1.00  0.00     0.029 A 
ATOM     54  N   UNL A   1      44.884  28.669  30.547  1.00  0.00    -0.354 N 
ATOM     55  N   UNL A   1      44.180  26.106  29.307  1.00  0.00    -0.248 NA
ATOM     56  C   UNL A   1      44.773  23.962  28.592  1.00  0.00     0.031 C 
ATOM     57  C   UNL A   1      46.945  28.929  31.333  1.00  0.00     0.029 A 
ATOM     58  C   UNL A   1      46.105  28.031  30.693  1.00  0.00     0.049 A 
ATOM     59  H   UNL A   1      44.089  28.276  30.118  1.00  0.00     0.167 HD
ATOM     60  C   UNL A   1      45.508  25.868  29.637  1.00  0.00     0.074 A 
ATOM     61  C   UNL A   1      45.811  24.519  29.203  1.00  0.00     0.031 C 
ATOM     62  C   UNL A   1      46.396  26.691  30.247  1.00  0.00     0.031 A 
BRANCH  49  63
ATOM     63  C   UNL A   1      44.114  32.275  31.624  1.00  0.00    -0.014 A 
ATOM     64  C   UNL A   1      44.588  33.311  30.801  1.00  0.00     0.009 A 
ATOM     65  C   UNL A   1      43.861  32.547  32.976  1.00  0.00     0.009 A 
ATOM     66  C   UNL A   1      44.850  34.575  31.334  1.00  0.00     0.001 A 
ATOM     67  C   UNL A   1      44.090  33.821  33.498  1.00  0.00     0.001 A 
ATOM     68  C   UNL A   1      44.597  34.830  32.681  1.00  0.00     0.000 A 
ENDBRANCH  49  63
BRANCH  50  69
ATOM     69  C   UNL A   1      42.093  23.376  27.568  1.00  0.00    -0.014 A 
ATOM     70  C   UNL A   1      42.409  23.139  26.222  1.00  0.00     0.009 A 
ATOM     71  C   UNL A   1      41.510  22.343  28.319  1.00  0.00     0.009 A 
ATOM     72  C   UNL A   1      42.130  21.903  25.635  1.00  0.00     0.001 A 
ATOM     73  C   UNL A   1      41.260  21.098  27.739  1.00  0.00     0.001 A 
ATOM     74  C   UNL A   1      41.561  20.881  26.396  1.00  0.00     0.000 A 
ENDBRANCH  50  69
BRANCH  62  75
ATOM     75  C   UNL A   1      47.771  26.145  30.513  1.00  0.00    -0.014 A 
ATOM     76  C   UNL A   1      48.752  26.108  29.509  1.00  0.00     0.009 A 
ATOM     77  C   UNL A   1      48.102  25.699  31.803  1.00  0.00     0.009 A 
ATOM     78  C   UNL A   1      50.025  25.603  29.786  1.00  0.00     0.001 A 
ATOM     79  C   UNL A   1      49.384  25.227  32.084  1.00  0.00     0.001 A 
ATOM     80  C   UNL A   1      50.341  25.169  31.072  1.00  0.00     0.000 A 
ENDBRANCH  62  75
ENDBRANCH  36  37
ENDBRANCH  28  31
ENDBRANCH  26  27
ENDBRANCH  25  26
ENDBRANCH  24  25
ENDBRANCH   1  24
TORSDOF 18
ENDMDL
MODEL 2
REMARK VINA RESULT:      -9.7      3.591      7.809
REMARK SMILES CC(C)C[C@H](NC(=O)Cc1ccccc1)C(=O)NCCCCCCNC(=O)c1ccc(-c2c3nc(c(-c4ccccc4)c4ccc([nH]4)c(-c4ccccc4)c4nc(c(-c5ccccc5)c5ccc2[nH]5)C=C4)C=C3)cc1
REMARK SMILES IDX 21 1 20 2 19 3 18 4 16 5 17 6 5 8 4 9 2 10 1 11 3 12 6 13
REMARK SMILES IDX 7 14 8 16 9 17 10 18 11 19 15 20 12 21 14 22 13 23 22 24
REMARK SMILES IDX 23 25 24 26 25 27 26 28 27 30 28 31 29 32 75 33 30 34 74 35
REMARK SMILES IDX 31 36 32 37 33 38 68 39 34 40 73 41 67 42 69 43 35 44 72 45
REMARK SMILES IDX 66 46 65 47 36 49 58 50 43 51 57 52 44 53 47 54 56 55 70 56
REMARK SMILES IDX 45 57 46 58 55 60 71 61 48 62 37 63 38 64 42 65 39 66 41 67
REMARK SMILES IDX 40 68 59 69 60 70 64 71 61 72 63 73 62 74 49 75 50 76 54 77
REMARK SMILES IDX 51 78 53 79 52 80
REMARK H PARENT 18 7 6 15 25 29 69 48 47 59
REMARK Flexibility Score: inf
ROOT
ATOM      1  C   UNL A   1      32.220  29.525  27.103  1.00  0.00     0.002 C 
ENDROOT
BRANCH   1   2
ATOM      2  C   UNL A   1      31.482  28.186  27.008  1.00  0.00     0.021 C 
BRANCH   2   3
ATOM      3  C   UNL A   1      31.989  27.296  25.882  1.00  0.00     0.116 C 
BRANCH   3   4
ATOM      4  N   UNL A   1      30.874  26.681  25.175  1.00  0.00    -0.354 N 
ATOM      5  C   UNL A   1      30.447  26.850  23.887  1.00  0.00     0.242 C 
ATOM      6  O   UNL A   1      29.525  26.142  23.480  1.00  0.00    -0.273 OA
ATOM      7  H   UNL A   1      30.346  26.043  25.708  1.00  0.00     0.163 HD
BRANCH   5   8
ATOM      8  C   UNL A   1      31.189  27.822  22.953  1.00  0.00     0.171 C 
BRANCH   8   9
ATOM      9  C   UNL A   1      30.214  28.894  22.442  1.00  0.00     0.038 C 
BRANCH   9  10
ATOM     10  C   UNL A   1      29.123  29.414  23.406  1.00  0.00    -0.015 C 
ATOM     11  C   UNL A   1      29.209  30.927  23.586  1.00  0.00     0.007 C 
ATOM     12  C   UNL A   1      27.735  29.029  22.878  1.00  0.00     0.007 C 
ENDBRANCH   9  10
ENDBRANCH   8   9
BRANCH   8  13
ATOM     13  N   UNL A   1      31.831  26.988  21.911  1.00  0.00    -0.344 N 
ATOM     14  C   UNL A   1      32.882  26.130  21.873  1.00  0.00     0.225 C 
ATOM     15  H   UNL A   1      31.390  27.078  21.036  1.00  0.00     0.164 HD
ATOM     16  O   UNL A   1      33.141  25.612  20.782  1.00  0.00    -0.275 OA
BRANCH  14  17
ATOM     17  C   UNL A   1      33.728  25.827  23.094  1.00  0.00     0.135 C 
BRANCH  17  18
ATOM     18  C   UNL A   1      33.849  24.354  23.409  1.00  0.00    -0.039 A 
ATOM     19  C   UNL A   1      32.700  23.629  23.766  1.00  0.00     0.004 A 
ATOM     20  C   UNL A   1      35.091  23.704  23.434  1.00  0.00     0.004 A 
ATOM     21  C   UNL A   1      32.811  22.346  24.298  1.00  0.00     0.000 A 
ATOM     22  C   UNL A   1      35.197  22.410  23.946  1.00  0.00     0.000 A 
ATOM     23  C   UNL A   1      34.062  21.746  24.411  1.00  0.00     0.000 A 
ENDBRANCH  17  18
ENDBRANCH  14  17
ENDBRANCH   8  13
ENDBRANCH   5   8
ENDBRANCH   3   4
ENDBRANCH   2   3
ENDBRANCH   1   2
BRANCH   1  24
ATOM     24  C   UNL A   1      31.771  30.572  26.078  1.00  0.00     0.002 C 
BRANCH  24  25
ATOM     25  C   UNL A   1      31.470  31.953  26.663  1.00  0.00     0.021 C 
BRANCH  25  26
ATOM     26  C   UNL A   1      32.684  32.666  27.245  1.00  0.00     0.116 C 
BRANCH  26  27
ATOM     27  N   UNL A   1      32.397  34.051  27.582  1.00  0.00    -0.352 N 
ATOM     28  C   UNL A   1      32.982  34.847  28.532  1.00  0.00     0.251 C 
ATOM     29  H   UNL A   1      31.682  34.477  27.055  1.00  0.00     0.163 HD
ATOM     30  O   UNL A   1      32.497  35.938  28.818  1.00  0.00    -0.269 OA
BRANCH  28  31
ATOM     31  C   UNL A   1      34.192  34.369  29.228  1.00  0.00     0.039 A 
ATOM     32  C   UNL A   1      34.053  33.731  30.462  1.00  0.00     0.014 A 
ATOM     33  C   UNL A   1      35.455  34.536  28.653  1.00  0.00     0.014 A 
ATOM     34  C   UNL A   1      35.181  33.210  31.095  1.00  0.00     0.010 A 
ATOM     35  C   UNL A   1      36.565  33.945  29.245  1.00  0.00     0.010 A 
ATOM     36  C   UNL A   1      36.441  33.283  30.476  1.00  0.00    -0.014 A 
BRANCH  36  37
ATOM     37  C   UNL A   1      37.638  32.671  31.101  1.00  0.00     0.031 A 
ATOM     38  C   UNL A   1      38.276  31.457  30.485  1.00  0.00     0.074 A 
ATOM     39  C   UNL A   1      38.114  33.173  32.256  1.00  0.00     0.049 A 
ATOM     40  N   UNL A   1      39.301  30.761  30.907  1.00  0.00    -0.248 NA
ATOM     41  C   UNL A   1      37.667  30.943  29.249  1.00  0.00     0.031 C 
ATOM     42  C   UNL A   1      37.557  34.321  32.975  1.00  0.00     0.029 A 
ATOM     43  N   UNL A   1      39.174  32.776  33.032  1.00  0.00    -0.354 N 
ATOM     44  C   UNL A   1      39.448  29.720  29.998  1.00  0.00     0.074 A 
ATOM     45  C   UNL A   1      38.374  29.843  29.037  1.00  0.00     0.031 C 
ATOM     46  C   UNL A   1      38.299  34.554  34.069  1.00  0.00     0.029 A 
ATOM     47  C   UNL A   1      39.353  33.547  34.154  1.00  0.00     0.049 A 
ATOM     48  H   UNL A   1      39.749  32.009  32.807  1.00  0.00     0.167 HD
ATOM     49  C   UNL A   1      40.402  28.761  29.954  1.00  0.00     0.031 A 
ATOM     50  C   UNL A   1      40.260  33.453  35.144  1.00  0.00     0.031 A 
ATOM     51  C   UNL A   1      41.467  28.639  30.914  1.00  0.00     0.049 A 
ATOM     52  C   UNL A   1      41.295  32.365  35.089  1.00  0.00     0.074 A 
ATOM     53  C   UNL A   1      42.515  27.735  30.928  1.00  0.00     0.029 A 
ATOM     54  N   UNL A   1      41.612  29.439  32.037  1.00  0.00    -0.354 N 
ATOM     55  N   UNL A   1      41.468  31.434  34.181  1.00  0.00    -0.248 NA
ATOM     56  C   UNL A   1      42.268  32.324  36.188  1.00  0.00     0.031 C 
ATOM     57  C   UNL A   1      43.258  27.947  32.094  1.00  0.00     0.029 A 
ATOM     58  C   UNL A   1      42.714  29.029  32.769  1.00  0.00     0.049 A 
ATOM     59  H   UNL A   1      41.020  30.188  32.278  1.00  0.00     0.167 HD
ATOM     60  C   UNL A   1      42.584  30.714  34.585  1.00  0.00     0.074 A 
ATOM     61  C   UNL A   1      43.056  31.326  35.810  1.00  0.00     0.031 C 
ATOM     62  C   UNL A   1      43.167  29.642  33.993  1.00  0.00     0.031 A 
BRANCH  49  63
ATOM     63  C   UNL A   1      40.318  27.755  28.836  1.00  0.00    -0.014 A 
ATOM     64  C   UNL A   1      40.947  27.981  27.600  1.00  0.00     0.009 A 
ATOM     65  C   UNL A   1      39.606  26.561  29.025  1.00  0.00     0.009 A 
ATOM     66  C   UNL A   1      40.823  27.055  26.563  1.00  0.00     0.001 A 
ATOM     67  C   UNL A   1      39.514  25.620  27.998  1.00  0.00     0.001 A 
ATOM     68  C   UNL A   1      40.109  25.873  26.763  1.00  0.00     0.000 A 
ENDBRANCH  49  63
BRANCH  50  69
ATOM     69  C   UNL A   1      40.235  34.430  36.263  1.00  0.00    -0.014 A 
ATOM     70  C   UNL A   1      39.489  34.170  37.423  1.00  0.00     0.009 A 
ATOM     71  C   UNL A   1      40.969  35.624  36.184  1.00  0.00     0.009 A 
ATOM     72  C   UNL A   1      39.463  35.092  38.471  1.00  0.00     0.001 A 
ATOM     73  C   UNL A   1      40.967  36.530  37.246  1.00  0.00     0.001 A 
ATOM     74  C   UNL A   1      40.207  36.269  38.384  1.00  0.00     0.000 A 
ENDBRANCH  50  69
BRANCH  62  75
ATOM     75  C   UNL A   1      44.403  29.084  34.643  1.00  0.00    -0.014 A 
ATOM     76  C   UNL A   1      45.681  29.577  34.334  1.00  0.00     0.009 A 
ATOM     77  C   UNL A   1      44.281  28.076  35.614  1.00  0.00     0.009 A 
ATOM     78  C   UNL A   1      46.812  29.046  34.959  1.00  0.00     0.001 A 
ATOM     79  C   UNL A   1      45.409  27.572  36.260  1.00  0.00     0.001 A 
ATOM     80  C   UNL A   1      46.675  28.050  35.924  1.00  0.00     0.000 A 
ENDBRANCH  62  75
ENDBRANCH  36  37
ENDBRANCH  28  31
ENDBRANCH  26  27
ENDBRANCH  25  26
ENDBRANCH  24  25
ENDBRANCH   1  24
TORSDOF 18
ENDMDL
MODEL 3
REMARK VINA RESULT:      -9.6      2.654      4.147
REMARK SMILES CC(C)C[C@H](NC(=O)Cc1ccccc1)C(=O)NCCCCCCNC(=O)c1ccc(-c2c3nc(c(-c4ccccc4)c4ccc([nH]4)c(-c4ccccc4)c4nc(c(-c5ccccc5)c5ccc2[nH]5)C=C4)C=C3)cc1
REMARK SMILES IDX 21 1 20 2 19 3 18 4 16 5 17 6 5 8 4 9 2 10 1 11 3 12 6 13
REMARK SMILES IDX 7 14 8 16 9 17 10 18 11 19 15 20 12 21 14 22 13 23 22 24
REMARK SMILES IDX 23 25 24 26 25 27 26 28 27 30 28 31 29 32 75 33 30 34 74 35
REMARK SMILES IDX 31 36 32 37 33 38 68 39 34 40 73 41 67 42 69 43 35 44 72 45
REMARK SMILES IDX 66 46 65 47 36 49 58 50 43 51 57 52 44 53 47 54 56 55 70 56
REMARK SMILES IDX 45 57 46 58 55 60 71 61 48 62 37 63 38 64 42 65 39 66 41 67
REMARK SMILES IDX 40 68 59 69 60 70 64 71 61 72 63 73 62 74 49 75 50 76 54 77
REMARK SMILES IDX 51 78 53 79 52 80
REMARK H PARENT 18 7 6 15 25 29 69 48 47 59
REMARK Flexibility Score: inf
ROOT
ATOM      1  C   UNL A   1      32.640  29.581  26.535  1.00  0.00     0.002 C 
ENDROOT
BRANCH   1   2
ATOM      2  C   UNL A   1      32.074  28.363  27.270  1.00  0.00     0.021 C 
BRANCH   2   3
ATOM      3  C   UNL A   1      32.227  27.063  26.492  1.00  0.00     0.116 C 
BRANCH   3   4
ATOM      4  N   UNL A   1      31.182  26.119  26.862  1.00  0.00    -0.354 N 
ATOM      5  C   UNL A   1      30.622  25.099  26.144  1.00  0.00     0.242 C 
ATOM      6  O   UNL A   1      29.808  24.366  26.708  1.00  0.00    -0.273 OA
ATOM      7  H   UNL A   1      30.823  26.233  27.771  1.00  0.00     0.163 HD
BRANCH   5   8
ATOM      8  C   UNL A   1      31.097  24.819  24.707  1.00  0.00     0.171 C 
BRANCH   8   9
ATOM      9  C   UNL A   1      30.123  25.461  23.706  1.00  0.00     0.038 C 
BRANCH   9  10
ATOM     10  C   UNL A   1      30.558  26.756  22.985  1.00  0.00    -0.015 C 
ATOM     11  C   UNL A   1      30.055  28.000  23.715  1.00  0.00     0.007 C 
ATOM     12  C   UNL A   1      32.087  26.802  22.872  1.00  0.00     0.007 C 
ENDBRANCH   9  10
ENDBRANCH   8   9
BRANCH   8  13
ATOM     13  N   UNL A   1      31.255  23.351  24.600  1.00  0.00    -0.344 N 
ATOM     14  C   UNL A   1      32.122  22.517  23.973  1.00  0.00     0.225 C 
ATOM     15  H   UNL A   1      30.564  22.863  25.104  1.00  0.00     0.164 HD
ATOM     16  O   UNL A   1      31.923  21.304  24.103  1.00  0.00    -0.275 OA
BRANCH  14  17
ATOM     17  C   UNL A   1      33.271  23.026  23.126  1.00  0.00     0.135 C 
BRANCH  17  18
ATOM     18  C   UNL A   1      34.589  23.109  23.862  1.00  0.00    -0.039 A 
ATOM     19  C   UNL A   1      34.659  23.823  25.069  1.00  0.00     0.004 A 
ATOM     20  C   UNL A   1      35.766  22.559  23.334  1.00  0.00     0.004 A 
ATOM     21  C   UNL A   1      35.894  24.128  25.639  1.00  0.00     0.000 A 
ATOM     22  C   UNL A   1      37.000  22.846  23.920  1.00  0.00     0.000 A 
ATOM     23  C   UNL A   1      37.066  23.659  25.050  1.00  0.00     0.000 A 
ENDBRANCH  17  18
ENDBRANCH  14  17
ENDBRANCH   8  13
ENDBRANCH   5   8
ENDBRANCH   3   4
ENDBRANCH   2   3
ENDBRANCH   1   2
BRANCH   1  24
ATOM     24  C   UNL A   1      31.581  30.492  25.906  1.00  0.00     0.002 C 
BRANCH  24  25
ATOM     25  C   UNL A   1      31.362  31.819  26.637  1.00  0.00     0.021 C 
BRANCH  25  26
ATOM     26  C   UNL A   1      32.640  32.465  27.157  1.00  0.00     0.116 C 
BRANCH  26  27
ATOM     27  N   UNL A   1      32.425  33.839  27.585  1.00  0.00    -0.352 N 
ATOM     28  C   UNL A   1      33.118  34.572  28.512  1.00  0.00     0.251 C 
ATOM     29  H   UNL A   1      31.676  34.306  27.147  1.00  0.00     0.163 HD
ATOM     30  O   UNL A   1      32.693  35.659  28.893  1.00  0.00    -0.269 OA
BRANCH  28  31
ATOM     31  C   UNL A   1      34.373  34.031  29.067  1.00  0.00     0.039 A 
ATOM     32  C   UNL A   1      34.318  33.247  30.220  1.00  0.00     0.014 A 
ATOM     33  C   UNL A   1      35.596  34.285  28.439  1.00  0.00     0.014 A 
ATOM     34  C   UNL A   1      35.488  32.670  30.714  1.00  0.00     0.010 A 
ATOM     35  C   UNL A   1      36.745  33.644  28.885  1.00  0.00     0.010 A 
ATOM     36  C   UNL A   1      36.705  32.836  30.031  1.00  0.00    -0.014 A 
BRANCH  36  37
ATOM     37  C   UNL A   1      37.943  32.171  30.502  1.00  0.00     0.031 A 
ATOM     38  C   UNL A   1      38.782  32.807  31.575  1.00  0.00     0.074 A 
ATOM     39  C   UNL A   1      38.345  31.025  29.921  1.00  0.00     0.049 A 
ATOM     40  N   UNL A   1      39.915  32.398  32.087  1.00  0.00    -0.248 NA
ATOM     41  C   UNL A   1      38.299  34.083  32.125  1.00  0.00     0.031 C 
ATOM     42  C   UNL A   1      37.641  30.331  28.840  1.00  0.00     0.029 A 
ATOM     43  N   UNL A   1      39.448  30.244  30.155  1.00  0.00    -0.354 N 
ATOM     44  C   UNL A   1      40.285  33.372  33.006  1.00  0.00     0.074 A 
ATOM     45  C   UNL A   1      39.289  34.418  32.939  1.00  0.00     0.031 C 
ATOM     46  C   UNL A   1      38.314  29.212  28.527  1.00  0.00     0.029 A 
ATOM     47  C   UNL A   1      39.516  29.134  29.350  1.00  0.00     0.049 A 
ATOM     48  H   UNL A   1      40.128  30.461  30.834  1.00  0.00     0.167 HD
ATOM     49  C   UNL A   1      41.348  33.386  33.846  1.00  0.00     0.031 A 
ATOM     50  C   UNL A   1      40.445  28.161  29.278  1.00  0.00     0.031 A 
ATOM     51  C   UNL A   1      42.340  32.346  33.908  1.00  0.00     0.049 A 
ATOM     52  C   UNL A   1      41.629  28.209  30.202  1.00  0.00     0.074 A 
ATOM     53  C   UNL A   1      43.424  32.238  34.760  1.00  0.00     0.029 A 
ATOM     54  N   UNL A   1      42.374  31.237  33.075  1.00  0.00    -0.354 N 
ATOM     55  N   UNL A   1      41.926  29.098  31.120  1.00  0.00    -0.248 NA
ATOM     56  C   UNL A   1      42.599  27.112  30.088  1.00  0.00     0.031 C 
ATOM     57  C   UNL A   1      44.151  31.099  34.401  1.00  0.00     0.029 A 
ATOM     58  C   UNL A   1      43.480  30.458  33.371  1.00  0.00     0.049 A 
ATOM     59  H   UNL A   1      41.710  31.035  32.376  1.00  0.00     0.167 HD
ATOM     60  C   UNL A   1      43.101  28.654  31.711  1.00  0.00     0.074 A 
ATOM     61  C   UNL A   1      43.453  27.409  31.059  1.00  0.00     0.031 C 
ATOM     62  C   UNL A   1      43.823  29.225  32.707  1.00  0.00     0.031 A 
BRANCH  49  63
ATOM     63  C   UNL A   1      41.496  34.581  34.750  1.00  0.00    -0.014 A 
ATOM     64  C   UNL A   1      42.171  35.739  34.328  1.00  0.00     0.009 A 
ATOM     65  C   UNL A   1      40.945  34.552  36.041  1.00  0.00     0.009 A 
ATOM     66  C   UNL A   1      42.333  36.820  35.195  1.00  0.00     0.001 A 
ATOM     67  C   UNL A   1      41.078  35.649  36.893  1.00  0.00     0.001 A 
ATOM     68  C   UNL A   1      41.783  36.777  36.476  1.00  0.00     0.000 A 
ENDBRANCH  49  63
BRANCH  50  69
ATOM     69  C   UNL A   1      40.278  27.053  28.303  1.00  0.00    -0.014 A 
ATOM     70  C   UNL A   1      39.537  25.910  28.639  1.00  0.00     0.009 A 
ATOM     71  C   UNL A   1      40.848  27.138  27.022  1.00  0.00     0.009 A 
ATOM     72  C   UNL A   1      39.386  24.868  27.723  1.00  0.00     0.001 A 
ATOM     73  C   UNL A   1      40.668  26.109  26.096  1.00  0.00     0.001 A 
ATOM     74  C   UNL A   1      39.946  24.970  26.450  1.00  0.00     0.000 A 
ENDBRANCH  50  69
BRANCH  62  75
ATOM     75  C   UNL A   1      45.048  28.491  33.177  1.00  0.00    -0.014 A 
ATOM     76  C   UNL A   1      44.975  27.505  34.174  1.00  0.00     0.009 A 
ATOM     77  C   UNL A   1      46.291  28.762  32.581  1.00  0.00     0.009 A 
ATOM     78  C   UNL A   1      46.127  26.832  34.587  1.00  0.00     0.001 A 
ATOM     79  C   UNL A   1      47.433  28.065  32.972  1.00  0.00     0.001 A 
ATOM     80  C   UNL A   1      47.353  27.108  33.983  1.00  0.00     0.000 A 
ENDBRANCH  62  75
ENDBRANCH  36  37
ENDBRANCH  28  31
ENDBRANCH  26  27
ENDBRANCH  25  26
ENDBRANCH  24  25
ENDBRANCH   1  24
TORSDOF 18
ENDMDL
