MODEL 1
REMARK VINA RESULT:      -9.8      0.000      0.000
REMARK SMILES CC[C@](C)(C(=O)NCCCCCCNC(=O)c1ccc(-c2c3nc(c(-c4ccccc4)c4ccc([nH]4)c(-c4ccccc4)c4nc(c(-c5ccccc5)c5ccc2[nH]5)C=C4)C=C3)cc1)[C@H]1CCC[C@H](OC)C1
REMARK SMILES IDX 10 1 9 2 8 3 7 4 5 5 6 6 3 8 4 9 2 10 1 11 65 12 66 13 72 14
REMARK SMILES IDX 67 15 69 16 68 17 70 18 71 19 11 20 12 21 13 22 14 23 15 24
REMARK SMILES IDX 16 26 17 27 18 28 64 29 19 30 63 31 20 32 21 33 22 34 57 35
REMARK SMILES IDX 23 36 62 37 56 38 58 39 24 40 61 41 55 42 54 43 25 45 47 46
REMARK SMILES IDX 32 47 46 48 33 49 36 50 45 51 59 52 34 53 35 54 44 56 60 57
REMARK SMILES IDX 37 58 26 59 27 60 31 61 28 62 30 63 29 64 48 65 49 66 53 67
REMARK SMILES IDX 50 68 52 69 51 70 38 71 39 72 43 73 40 74 42 75 41 76
REMARK H PARENT 7 7 14 25 58 44 36 55
REMARK Flexibility Score: inf
ROOT
ATOM      1  C   UNL A   1      32.784  29.674  26.233  1.00  0.00     0.002 C 
ENDROOT
BRANCH   1   2
ATOM      2  C   UNL A   1      33.436  28.866  25.106  1.00  0.00     0.021 C 
BRANCH   2   3
ATOM      3  C   UNL A   1      32.484  27.890  24.422  1.00  0.00     0.116 C 
BRANCH   3   4
ATOM      4  N   UNL A   1      33.086  27.315  23.234  1.00  0.00    -0.356 N 
ATOM      5  C   UNL A   1      33.310  26.030  22.840  1.00  0.00     0.226 C 
ATOM      6  O   UNL A   1      33.850  25.914  21.735  1.00  0.00    -0.274 OA
ATOM      7  H   UNL A   1      33.394  27.987  22.583  1.00  0.00     0.163 HD
BRANCH   5   8
ATOM      8  C   UNL A   1      32.908  24.781  23.713  1.00  0.00     0.049 C 
ATOM      9  C   UNL A   1      31.360  24.807  23.808  1.00  0.00     0.022 C 
BRANCH   8  10
ATOM     10  C   UNL A   1      33.345  23.511  22.889  1.00  0.00     0.013 C 
ATOM     11  C   UNL A   1      32.606  22.192  22.955  1.00  0.00     0.005 C 
ENDBRANCH   8  10
BRANCH   8  12
ATOM     12  C   UNL A   1      33.581  25.012  25.160  1.00  0.00     0.007 C 
ATOM     13  C   UNL A   1      32.618  24.730  26.358  1.00  0.00     0.005 C 
ATOM     14  C   UNL A   1      34.918  24.355  25.542  1.00  0.00     0.036 C 
ATOM     15  C   UNL A   1      32.547  23.266  26.831  1.00  0.00     0.003 C 
ATOM     16  C   UNL A   1      34.814  22.849  25.737  1.00  0.00     0.118 C 
ATOM     17  C   UNL A   1      33.896  22.550  26.923  1.00  0.00     0.032 C 
BRANCH  16  18
ATOM     18  O   UNL A   1      36.084  22.200  25.837  1.00  0.00    -0.381 OA
ATOM     19  C   UNL A   1      37.188  22.843  25.222  1.00  0.00     0.195 C 
ENDBRANCH  16  18
ENDBRANCH   8  12
ENDBRANCH   5   8
ENDBRANCH   3   4
ENDBRANCH   2   3
ENDBRANCH   1   2
BRANCH   1  20
ATOM     20  C   UNL A   1      31.504  30.422  25.840  1.00  0.00     0.002 C 
BRANCH  20  21
ATOM     21  C   UNL A   1      31.351  31.823  26.440  1.00  0.00     0.021 C 
BRANCH  21  22
ATOM     22  C   UNL A   1      32.605  32.368  27.118  1.00  0.00     0.116 C 
BRANCH  22  23
ATOM     23  N   UNL A   1      32.430  33.740  27.561  1.00  0.00    -0.352 N 
ATOM     24  C   UNL A   1      33.135  34.449  28.495  1.00  0.00     0.251 C 
ATOM     25  H   UNL A   1      31.696  34.232  27.126  1.00  0.00     0.163 HD
ATOM     26  O   UNL A   1      32.720  35.542  28.877  1.00  0.00    -0.269 OA
BRANCH  24  27
ATOM     27  C   UNL A   1      34.392  33.909  29.054  1.00  0.00     0.039 A 
ATOM     28  C   UNL A   1      35.600  34.246  28.435  1.00  0.00     0.014 A 
ATOM     29  C   UNL A   1      34.384  33.031  30.143  1.00  0.00     0.014 A 
ATOM     30  C   UNL A   1      36.799  33.724  28.921  1.00  0.00     0.010 A 
ATOM     31  C   UNL A   1      35.586  32.560  30.665  1.00  0.00     0.010 A 
ATOM     32  C   UNL A   1      36.802  32.884  30.045  1.00  0.00    -0.014 A 
BRANCH  32  33
ATOM     33  C   UNL A   1      38.067  32.301  30.555  1.00  0.00     0.031 A 
ATOM     34  C   UNL A   1      38.604  31.029  29.958  1.00  0.00     0.074 A 
ATOM     35  C   UNL A   1      38.714  32.893  31.575  1.00  0.00     0.049 A 
ATOM     36  N   UNL A   1      39.683  30.359  30.274  1.00  0.00    -0.248 NA
ATOM     37  C   UNL A   1      37.812  30.417  28.878  1.00  0.00     0.031 C 
ATOM     38  C   UNL A   1      38.280  34.110  32.263  1.00  0.00     0.029 A 
ATOM     39  N   UNL A   1      39.879  32.548  32.211  1.00  0.00    -0.354 N 
ATOM     40  C   UNL A   1      39.685  29.237  29.454  1.00  0.00     0.074 A 
ATOM     41  C   UNL A   1      38.481  29.296  28.655  1.00  0.00     0.031 C 
ATOM     42  C   UNL A   1      39.185  34.428  33.203  1.00  0.00     0.029 A 
ATOM     43  C   UNL A   1      40.245  33.424  33.203  1.00  0.00     0.049 A 
ATOM     44  H   UNL A   1      40.404  31.748  31.979  1.00  0.00     0.167 HD
ATOM     45  C   UNL A   1      40.613  28.256  29.360  1.00  0.00     0.031 A 
ATOM     46  C   UNL A   1      41.318  33.423  34.015  1.00  0.00     0.031 A 
ATOM     47  C   UNL A   1      41.824  28.211  30.134  1.00  0.00     0.049 A 
ATOM     48  C   UNL A   1      42.342  32.332  33.881  1.00  0.00     0.074 A 
ATOM     49  C   UNL A   1      42.861  27.296  30.063  1.00  0.00     0.029 A 
ATOM     50  N   UNL A   1      42.161  29.124  31.121  1.00  0.00    -0.354 N 
ATOM     51  N   UNL A   1      42.364  31.316  33.052  1.00  0.00    -0.248 NA
ATOM     52  C   UNL A   1      43.497  32.397  34.788  1.00  0.00     0.031 C 
ATOM     53  C   UNL A   1      43.808  27.634  31.036  1.00  0.00     0.029 A 
ATOM     54  C   UNL A   1      43.382  28.784  31.679  1.00  0.00     0.049 A 
ATOM     55  H   UNL A   1      41.615  29.899  31.385  1.00  0.00     0.167 HD
ATOM     56  C   UNL A   1      43.548  30.640  33.315  1.00  0.00     0.074 A 
ATOM     57  C   UNL A   1      44.220  31.365  34.373  1.00  0.00     0.031 C 
ATOM     58  C   UNL A   1      44.037  29.520  32.729  1.00  0.00     0.031 A 
BRANCH  45  59
ATOM     59  C   UNL A   1      40.343  27.143  28.388  1.00  0.00    -0.014 A 
ATOM     60  C   UNL A   1      39.532  26.050  28.737  1.00  0.00     0.009 A 
ATOM     61  C   UNL A   1      40.891  27.198  27.097  1.00  0.00     0.009 A 
ATOM     62  C   UNL A   1      39.310  25.016  27.825  1.00  0.00     0.001 A 
ATOM     63  C   UNL A   1      40.644  26.175  26.178  1.00  0.00     0.001 A 
ATOM     64  C   UNL A   1      39.863  25.081  26.546  1.00  0.00     0.000 A 
ENDBRANCH  45  59
BRANCH  46  65
ATOM     65  C   UNL A   1      41.504  34.517  35.001  1.00  0.00    -0.014 A 
ATOM     66  C   UNL A   1      40.997  34.387  36.304  1.00  0.00     0.009 A 
ATOM     67  C   UNL A   1      42.180  35.694  34.648  1.00  0.00     0.009 A 
ATOM     68  C   UNL A   1      41.145  35.424  37.226  1.00  0.00     0.001 A 
ATOM     69  C   UNL A   1      42.348  36.719  35.581  1.00  0.00     0.001 A 
ATOM     70  C   UNL A   1      41.823  36.588  36.866  1.00  0.00     0.000 A 
ENDBRANCH  46  65
BRANCH  58  71
ATOM     71  C   UNL A   1      45.380  29.037  33.194  1.00  0.00    -0.014 A 
ATOM     72  C   UNL A   1      45.500  28.109  34.239  1.00  0.00     0.009 A 
ATOM     73  C   UNL A   1      46.542  29.497  32.552  1.00  0.00     0.009 A 
ATOM     74  C   UNL A   1      46.759  27.676  34.656  1.00  0.00     0.001 A 
ATOM     75  C   UNL A   1      47.797  29.043  32.954  1.00  0.00     0.001 A 
ATOM     76  C   UNL A   1      47.906  28.140  34.011  1.00  0.00     0.000 A 
ENDBRANCH  58  71
ENDBRANCH  32  33
ENDBRANCH  24  27
ENDBRANCH  22  23
ENDBRANCH  21  22
ENDBRANCH  20  21
ENDBRANCH   1  20
TORSDOF 16
ENDMDL
MODEL 2
REMARK VINA RESULT:      -9.8      1.269      6.220
REMARK SMILES CC[C@](C)(C(=O)NCCCCCCNC(=O)c1ccc(-c2c3nc(c(-c4ccccc4)c4ccc([nH]4)c(-c4ccccc4)c4nc(c(-c5ccccc5)c5ccc2[nH]5)C=C4)C=C3)cc1)[C@H]1CCC[C@H](OC)C1
REMARK SMILES IDX 10 1 9 2 8 3 7 4 5 5 6 6 3 8 4 9 2 10 1 11 65 12 66 13 72 14
REMARK SMILES IDX 67 15 69 16 68 17 70 18 71 19 11 20 12 21 13 22 14 23 15 24
REMARK SMILES IDX 16 26 17 27 18 28 64 29 19 30 63 31 20 32 21 33 22 34 57 35
REMARK SMILES IDX 23 36 62 37 56 38 58 39 24 40 61 41 55 42 54 43 25 45 47 46
REMARK SMILES IDX 32 47 46 48 33 49 36 50 45 51 59 52 34 53 35 54 44 56 60 57
REMARK SMILES IDX 37 58 26 59 27 60 31 61 28 62 30 63 29 64 48 65 49 66 53 67
REMARK SMILES IDX 50 68 52 69 51 70 38 71 39 72 43 73 40 74 42 75 41 76
REMARK H PARENT 7 7 14 25 58 44 36 55
REMARK Flexibility Score: inf
ROOT
ATOM      1  C   UNL A   1      32.296  29.699  25.997  1.00  0.00     0.002 C 
ENDROOT
BRANCH   1   2
ATOM      2  C   UNL A   1      31.869  28.743  27.115  1.00  0.00     0.021 C 
BRANCH   2   3
ATOM      3  C   UNL A   1      32.333  27.305  26.903  1.00  0.00     0.116 C 
BRANCH   3   4
ATOM      4  N   UNL A   1      31.226  26.375  27.005  1.00  0.00    -0.356 N 
ATOM      5  C   UNL A   1      30.874  25.271  26.288  1.00  0.00     0.226 C 
ATOM      6  O   UNL A   1      29.846  24.707  26.676  1.00  0.00    -0.274 OA
ATOM      7  H   UNL A   1      30.603  26.582  27.740  1.00  0.00     0.163 HD
BRANCH   5   8
ATOM      8  C   UNL A   1      31.711  24.742  25.062  1.00  0.00     0.049 C 
ATOM      9  C   UNL A   1      31.045  23.407  24.635  1.00  0.00     0.022 C 
BRANCH   8  10
ATOM     10  C   UNL A   1      31.517  25.798  23.909  1.00  0.00     0.013 C 
ATOM     11  C   UNL A   1      30.310  26.708  23.821  1.00  0.00     0.005 C 
ENDBRANCH   8  10
BRANCH   8  12
ATOM     12  C   UNL A   1      33.205  24.492  25.615  1.00  0.00     0.007 C 
ATOM     13  C   UNL A   1      33.336  23.243  26.543  1.00  0.00     0.005 C 
ATOM     14  C   UNL A   1      34.417  24.432  24.668  1.00  0.00     0.036 C 
ATOM     15  C   UNL A   1      33.576  21.899  25.829  1.00  0.00     0.003 C 
ATOM     16  C   UNL A   1      34.438  23.183  23.799  1.00  0.00     0.118 C 
ATOM     17  C   UNL A   1      34.593  21.947  24.687  1.00  0.00     0.032 C 
BRANCH  16  18
ATOM     18  O   UNL A   1      35.405  23.239  22.748  1.00  0.00    -0.381 OA
ATOM     19  C   UNL A   1      36.736  22.875  23.075  1.00  0.00     0.195 C 
ENDBRANCH  16  18
ENDBRANCH   8  12
ENDBRANCH   5   8
ENDBRANCH   3   4
ENDBRANCH   2   3
ENDBRANCH   1   2
BRANCH   1  20
ATOM     20  C   UNL A   1      31.268  30.779  25.637  1.00  0.00     0.002 C 
BRANCH  20  21
ATOM     21  C   UNL A   1      31.176  31.951  26.619  1.00  0.00     0.021 C 
BRANCH  21  22
ATOM     22  C   UNL A   1      32.521  32.511  27.074  1.00  0.00     0.116 C 
BRANCH  22  23
ATOM     23  N   UNL A   1      32.402  33.869  27.576  1.00  0.00    -0.352 N 
ATOM     24  C   UNL A   1      33.147  34.513  28.525  1.00  0.00     0.251 C 
ATOM     25  H   UNL A   1      31.678  34.404  27.174  1.00  0.00     0.163 HD
ATOM     26  O   UNL A   1      32.777  35.603  28.959  1.00  0.00    -0.269 OA
BRANCH  24  27
ATOM     27  C   UNL A   1      34.393  33.907  29.040  1.00  0.00     0.039 A 
ATOM     28  C   UNL A   1      35.604  34.247  28.428  1.00  0.00     0.014 A 
ATOM     29  C   UNL A   1      34.369  32.968  30.075  1.00  0.00     0.014 A 
ATOM     30  C   UNL A   1      36.792  33.665  28.871  1.00  0.00     0.010 A 
ATOM     31  C   UNL A   1      35.562  32.434  30.557  1.00  0.00     0.010 A 
ATOM     32  C   UNL A   1      36.781  32.761  29.945  1.00  0.00    -0.014 A 
BRANCH  32  33
ATOM     33  C   UNL A   1      38.034  32.114  30.407  1.00  0.00     0.031 A 
ATOM     34  C   UNL A   1      38.844  32.742  31.507  1.00  0.00     0.074 A 
ATOM     35  C   UNL A   1      38.461  30.985  29.814  1.00  0.00     0.049 A 
ATOM     36  N   UNL A   1      39.970  32.337  32.039  1.00  0.00    -0.248 NA
ATOM     37  C   UNL A   1      38.334  34.003  32.070  1.00  0.00     0.031 C 
ATOM     38  C   UNL A   1      37.786  30.295  28.713  1.00  0.00     0.029 A 
ATOM     39  N   UNL A   1      39.571  30.216  30.058  1.00  0.00    -0.354 N 
ATOM     40  C   UNL A   1      40.315  33.304  32.975  1.00  0.00     0.074 A 
ATOM     41  C   UNL A   1      39.302  34.334  32.912  1.00  0.00     0.031 C 
ATOM     42  C   UNL A   1      38.478  29.187  28.400  1.00  0.00     0.029 A 
ATOM     43  C   UNL A   1      39.657  29.105  29.256  1.00  0.00     0.049 A 
ATOM     44  H   UNL A   1      40.242  30.439  30.743  1.00  0.00     0.167 HD
ATOM     45  C   UNL A   1      41.369  33.324  33.824  1.00  0.00     0.031 A 
ATOM     46  C   UNL A   1      40.579  28.125  29.221  1.00  0.00     0.031 A 
ATOM     47  C   UNL A   1      42.362  32.288  33.908  1.00  0.00     0.049 A 
ATOM     48  C   UNL A   1      41.731  28.162  30.183  1.00  0.00     0.074 A 
ATOM     49  C   UNL A   1      43.429  32.183  34.783  1.00  0.00     0.029 A 
ATOM     50  N   UNL A   1      42.407  31.174  33.085  1.00  0.00    -0.354 N 
ATOM     51  N   UNL A   1      42.005  29.048  31.111  1.00  0.00    -0.248 NA
ATOM     52  C   UNL A   1      42.694  27.055  30.103  1.00  0.00     0.031 C 
ATOM     53  C   UNL A   1      44.144  31.023  34.463  1.00  0.00     0.029 A 
ATOM     54  C   UNL A   1      43.494  30.385  33.419  1.00  0.00     0.049 A 
ATOM     55  H   UNL A   1      41.761  30.973  32.369  1.00  0.00     0.167 HD
ATOM     56  C   UNL A   1      43.152  28.588  31.745  1.00  0.00     0.074 A 
ATOM     57  C   UNL A   1      43.517  27.342  31.102  1.00  0.00     0.031 C 
ATOM     58  C   UNL A   1      43.839  29.146  32.771  1.00  0.00     0.031 A 
BRANCH  45  59
ATOM     59  C   UNL A   1      41.503  34.519  34.726  1.00  0.00    -0.014 A 
ATOM     60  C   UNL A   1      40.888  34.553  35.988  1.00  0.00     0.009 A 
ATOM     61  C   UNL A   1      42.273  35.619  34.316  1.00  0.00     0.009 A 
ATOM     62  C   UNL A   1      41.007  35.681  36.803  1.00  0.00     0.001 A 
ATOM     63  C   UNL A   1      42.413  36.734  35.144  1.00  0.00     0.001 A 
ATOM     64  C   UNL A   1      41.772  36.769  36.381  1.00  0.00     0.000 A 
ENDBRANCH  45  59
BRANCH  46  65
ATOM     65  C   UNL A   1      40.428  26.998  28.265  1.00  0.00    -0.014 A 
ATOM     66  C   UNL A   1      40.938  27.104  26.962  1.00  0.00     0.009 A 
ATOM     67  C   UNL A   1      39.773  25.818  28.647  1.00  0.00     0.009 A 
ATOM     68  C   UNL A   1      40.774  26.058  26.052  1.00  0.00     0.001 A 
ATOM     69  C   UNL A   1      39.633  24.764  27.741  1.00  0.00     0.001 A 
ATOM     70  C   UNL A   1      40.126  24.888  26.442  1.00  0.00     0.000 A 
ENDBRANCH  46  65
BRANCH  58  71
ATOM     71  C   UNL A   1      45.031  28.392  33.285  1.00  0.00    -0.014 A 
ATOM     72  C   UNL A   1      44.897  27.397  34.264  1.00  0.00     0.009 A 
ATOM     73  C   UNL A   1      46.303  28.664  32.755  1.00  0.00     0.009 A 
ATOM     74  C   UNL A   1      46.020  26.711  34.729  1.00  0.00     0.001 A 
ATOM     75  C   UNL A   1      47.420  27.958  33.204  1.00  0.00     0.001 A 
ATOM     76  C   UNL A   1      47.280  26.989  34.196  1.00  0.00     0.000 A 
ENDBRANCH  58  71
ENDBRANCH  32  33
ENDBRANCH  24  27
ENDBRANCH  22  23
ENDBRANCH  21  22
ENDBRANCH  20  21
ENDBRANCH   1  20
TORSDOF 16
ENDMDL
MODEL 3
REMARK VINA RESULT:      -9.8      1.246      6.303
REMARK SMILES CC[C@](C)(C(=O)NCCCCCCNC(=O)c1ccc(-c2c3nc(c(-c4ccccc4)c4ccc([nH]4)c(-c4ccccc4)c4nc(c(-c5ccccc5)c5ccc2[nH]5)C=C4)C=C3)cc1)[C@H]1CCC[C@H](OC)C1
REMARK SMILES IDX 10 1 9 2 8 3 7 4 5 5 6 6 3 8 4 9 2 10 1 11 65 12 66 13 72 14
REMARK SMILES IDX 67 15 69 16 68 17 70 18 71 19 11 20 12 21 13 22 14 23 15 24
REMARK SMILES IDX 16 26 17 27 18 28 64 29 19 30 63 31 20 32 21 33 22 34 57 35
REMARK SMILES IDX 23 36 62 37 56 38 58 39 24 40 61 41 55 42 54 43 25 45 47 46
REMARK SMILES IDX 32 47 46 48 33 49 36 50 45 51 59 52 34 53 35 54 44 56 60 57
REMARK SMILES IDX 37 58 26 59 27 60 31 61 28 62 30 63 29 64 48 65 49 66 53 67
REMARK SMILES IDX 50 68 52 69 51 70 38 71 39 72 43 73 40 74 42 75 41 76
REMARK H PARENT 7 7 14 25 58 44 36 55
REMARK Flexibility Score: inf
ROOT
ATOM      1  C   UNL A   1      32.380  29.399  25.967  1.00  0.00     0.002 C 
ENDROOT
BRANCH   1   2
ATOM      2  C   UNL A   1      31.861  28.007  26.340  1.00  0.00     0.021 C 
BRANCH   2   3
ATOM      3  C   UNL A   1      32.874  26.891  26.102  1.00  0.00     0.116 C 
BRANCH   3   4
ATOM      4  N   UNL A   1      32.818  26.414  24.734  1.00  0.00    -0.356 N 
ATOM      5  C   UNL A   1      33.137  25.223  24.154  1.00  0.00     0.226 C 
ATOM      6  O   UNL A   1      32.947  25.172  22.935  1.00  0.00    -0.274 OA
ATOM      7  H   UNL A   1      32.483  27.086  24.096  1.00  0.00     0.163 HD
BRANCH   5   8
ATOM      8  C   UNL A   1      33.697  23.995  24.969  1.00  0.00     0.049 C 
ATOM      9  C   UNL A   1      34.997  24.494  25.653  1.00  0.00     0.022 C 
BRANCH   8  10
ATOM     10  C   UNL A   1      32.626  23.681  26.080  1.00  0.00     0.013 C 
ATOM     11  C   UNL A   1      32.974  23.019  27.396  1.00  0.00     0.005 C 
ENDBRANCH   8  10
BRANCH   8  12
ATOM     12  C   UNL A   1      34.019  22.847  23.882  1.00  0.00     0.007 C 
ATOM     13  C   UNL A   1      35.469  22.274  23.978  1.00  0.00     0.005 C 
ATOM     14  C   UNL A   1      33.101  21.625  23.705  1.00  0.00     0.036 C 
ATOM     15  C   UNL A   1      35.669  21.121  24.979  1.00  0.00     0.003 C 
ATOM     16  C   UNL A   1      33.162  20.654  24.875  1.00  0.00     0.118 C 
ATOM     17  C   UNL A   1      34.568  20.058  24.971  1.00  0.00     0.032 C 
BRANCH  16  18
ATOM     18  O   UNL A   1      32.137  19.659  24.841  1.00  0.00    -0.381 OA
ATOM     19  C   UNL A   1      32.365  18.524  24.022  1.00  0.00     0.195 C 
ENDBRANCH  16  18
ENDBRANCH   8  12
ENDBRANCH   5   8
ENDBRANCH   3   4
ENDBRANCH   2   3
ENDBRANCH   1   2
BRANCH   1  20
ATOM     20  C   UNL A   1      31.317  30.366  25.428  1.00  0.00     0.002 C 
BRANCH  20  21
ATOM     21  C   UNL A   1      31.135  31.656  26.233  1.00  0.00     0.021 C 
BRANCH  21  22
ATOM     22  C   UNL A   1      32.377  32.117  26.991  1.00  0.00     0.116 C 
BRANCH  22  23
ATOM     23  N   UNL A   1      32.267  33.498  27.425  1.00  0.00    -0.352 N 
ATOM     24  C   UNL A   1      33.061  34.206  28.286  1.00  0.00     0.251 C 
ATOM     25  H   UNL A   1      31.509  34.000  27.044  1.00  0.00     0.163 HD
ATOM     26  O   UNL A   1      32.701  35.313  28.684  1.00  0.00    -0.269 OA
BRANCH  24  27
ATOM     27  C   UNL A   1      34.349  33.647  28.748  1.00  0.00     0.039 A 
ATOM     28  C   UNL A   1      35.490  33.866  27.969  1.00  0.00     0.014 A 
ATOM     29  C   UNL A   1      34.428  32.866  29.905  1.00  0.00     0.014 A 
ATOM     30  C   UNL A   1      36.714  33.322  28.364  1.00  0.00     0.010 A 
ATOM     31  C   UNL A   1      35.661  32.376  30.330  1.00  0.00     0.010 A 
ATOM     32  C   UNL A   1      36.810  32.581  29.552  1.00  0.00    -0.014 A 
BRANCH  32  33
ATOM     33  C   UNL A   1      38.098  31.975  29.967  1.00  0.00     0.031 A 
ATOM     34  C   UNL A   1      38.989  32.694  30.943  1.00  0.00     0.074 A 
ATOM     35  C   UNL A   1      38.484  30.798  29.441  1.00  0.00     0.049 A 
ATOM     36  N   UNL A   1      40.155  32.334  31.416  1.00  0.00    -0.248 NA
ATOM     37  C   UNL A   1      38.518  33.999  31.434  1.00  0.00     0.031 C 
ATOM     38  C   UNL A   1      37.728  30.018  28.461  1.00  0.00     0.029 A 
ATOM     39  N   UNL A   1      39.614  30.051  29.662  1.00  0.00    -0.354 N 
ATOM     40  C   UNL A   1      40.567  33.377  32.237  1.00  0.00     0.074 A 
ATOM     41  C   UNL A   1      39.546  34.400  32.166  1.00  0.00     0.031 C 
ATOM     42  C   UNL A   1      38.399  28.886  28.190  1.00  0.00     0.029 A 
ATOM     43  C   UNL A   1      39.642  28.875  28.955  1.00  0.00     0.049 A 
ATOM     44  H   UNL A   1      40.335  30.332  30.271  1.00  0.00     0.167 HD
ATOM     45  C   UNL A   1      41.685  33.470  32.995  1.00  0.00     0.031 A 
ATOM     46  C   UNL A   1      40.564  27.895  28.931  1.00  0.00     0.031 A 
ATOM     47  C   UNL A   1      42.687  32.443  33.089  1.00  0.00     0.049 A 
ATOM     48  C   UNL A   1      41.788  28.013  29.793  1.00  0.00     0.074 A 
ATOM     49  C   UNL A   1      43.820  32.412  33.883  1.00  0.00     0.029 A 
ATOM     50  N   UNL A   1      42.673  31.263  32.363  1.00  0.00    -0.354 N 
ATOM     51  N   UNL A   1      42.129  28.975  30.617  1.00  0.00    -0.248 NA
ATOM     52  C   UNL A   1      42.748  26.902  29.732  1.00  0.00     0.031 C 
ATOM     53  C   UNL A   1      44.514  31.228  33.608  1.00  0.00     0.029 A 
ATOM     54  C   UNL A   1      43.787  30.503  32.677  1.00  0.00     0.049 A 
ATOM     55  H   UNL A   1      41.974  31.002  31.720  1.00  0.00     0.167 HD
ATOM     56  C   UNL A   1      43.325  28.570  31.196  1.00  0.00     0.074 A 
ATOM     57  C   UNL A   1      43.645  27.274  30.635  1.00  0.00     0.031 C 
ATOM     58  C   UNL A   1      44.088  29.213  32.112  1.00  0.00     0.031 A 
BRANCH  45  59
ATOM     59  C   UNL A   1      41.883  34.737  33.778  1.00  0.00    -0.014 A 
ATOM     60  C   UNL A   1      42.622  35.810  33.254  1.00  0.00     0.009 A 
ATOM     61  C   UNL A   1      41.305  34.868  35.050  1.00  0.00     0.009 A 
ATOM     62  C   UNL A   1      42.812  36.972  34.006  1.00  0.00     0.001 A 
ATOM     63  C   UNL A   1      41.473  36.041  35.789  1.00  0.00     0.001 A 
ATOM     64  C   UNL A   1      42.235  37.087  35.270  1.00  0.00     0.000 A 
ENDBRANCH  45  59
BRANCH  46  65
ATOM     65  C   UNL A   1      40.345  26.690  28.090  1.00  0.00    -0.014 A 
ATOM     66  C   UNL A   1      39.596  25.612  28.585  1.00  0.00     0.009 A 
ATOM     67  C   UNL A   1      40.884  26.610  26.798  1.00  0.00     0.009 A 
ATOM     68  C   UNL A   1      39.410  24.465  27.810  1.00  0.00     0.001 A 
ATOM     69  C   UNL A   1      40.675  25.471  26.016  1.00  0.00     0.001 A 
ATOM     70  C   UNL A   1      39.946  24.397  26.525  1.00  0.00     0.000 A 
ENDBRANCH  46  65
BRANCH  58  71
ATOM     71  C   UNL A   1      45.320  28.505  32.594  1.00  0.00    -0.014 A 
ATOM     72  C   UNL A   1      46.566  28.715  31.985  1.00  0.00     0.009 A 
ATOM     73  C   UNL A   1      45.235  27.637  33.695  1.00  0.00     0.009 A 
ATOM     74  C   UNL A   1      47.698  28.042  32.448  1.00  0.00     0.001 A 
ATOM     75  C   UNL A   1      46.373  26.987  34.171  1.00  0.00     0.001 A 
ATOM     76  C   UNL A   1      47.602  27.182  33.543  1.00  0.00     0.000 A 
ENDBRANCH  58  71
ENDBRANCH  32  33
ENDBRANCH  24  27
ENDBRANCH  22  23
ENDBRANCH  21  22
ENDBRANCH  20  21
ENDBRANCH   1  20
TORSDOF 16
ENDMDL
