MODEL 1
REMARK VINA RESULT:     -10.0      0.000      0.000
REMARK SMILES CC[C@H](C)[C@@H](NC(=S)Nc1ccccc1)C(=O)NCCCCCCNC(=O)c1ccc(-c2c3nc(c(-c4ccccc4)c4ccc([nH]4)c(-c4ccccc4)c4nc(c(-c5ccccc5)c5ccc2[nH]5)C=C4)C=C3)cc1
REMARK SMILES IDX 20 1 19 2 18 3 16 4 17 5 5 7 3 8 4 9 2 10 1 11 6 12 7 14
REMARK SMILES IDX 8 15 9 16 10 18 11 19 15 20 12 21 14 22 13 23 21 24 22 25
REMARK SMILES IDX 23 26 24 27 25 28 26 29 27 31 28 32 29 33 75 34 30 35 74 36
REMARK SMILES IDX 31 37 32 38 33 39 68 40 34 41 73 42 67 43 69 44 35 45 72 46
REMARK SMILES IDX 66 47 65 48 36 50 58 51 43 52 57 53 44 54 47 55 56 56 70 57
REMARK SMILES IDX 45 58 46 59 55 61 71 62 48 63 37 64 38 65 42 66 39 67 41 68
REMARK SMILES IDX 40 69 59 70 60 71 64 72 61 73 63 74 62 75 49 76 50 77 54 78
REMARK SMILES IDX 51 79 53 80 52 81
REMARK H PARENT 18 6 6 13 9 17 25 30 69 49 47 60
REMARK Flexibility Score: inf
ROOT
ATOM      1  C   UNL A   1      30.526  26.938  25.175  1.00  0.00     0.021 C 
ENDROOT
BRANCH   1   2
ATOM      2  C   UNL A   1      30.274  25.502  25.645  1.00  0.00     0.116 C 
BRANCH   2   3
ATOM      3  N   UNL A   1      31.304  25.151  26.589  1.00  0.00    -0.354 N 
ATOM      4  C   UNL A   1      31.908  23.930  26.646  1.00  0.00     0.242 C 
ATOM      5  O   UNL A   1      31.729  23.239  27.650  1.00  0.00    -0.273 OA
ATOM      6  H   UNL A   1      31.590  25.837  27.235  1.00  0.00     0.163 HD
BRANCH   4   7
ATOM      7  C   UNL A   1      32.706  23.445  25.416  1.00  0.00     0.173 C 
BRANCH   7   8
ATOM      8  C   UNL A   1      33.535  24.669  24.900  1.00  0.00     0.018 C 
ATOM      9  C   UNL A   1      34.869  24.901  25.611  1.00  0.00     0.010 C 
BRANCH   8  10
ATOM     10  C   UNL A   1      33.738  24.599  23.364  1.00  0.00     0.002 C 
ATOM     11  C   UNL A   1      32.956  25.628  22.560  1.00  0.00     0.004 C 
ENDBRANCH   8  10
ENDBRANCH   7   8
BRANCH   7  12
ATOM     12  N   UNL A   1      33.499  22.227  25.715  1.00  0.00    -0.350 N 
ATOM     13  H   UNL A   1      33.553  22.024  26.677  1.00  0.00     0.163 HD
BRANCH  12  14
ATOM     14  C   UNL A   1      34.165  21.335  24.944  1.00  0.00     0.171 C 
ATOM     15  S   UNL A   1      35.835  21.465  24.922  1.00  0.00    -0.041 S 
BRANCH  14  16
ATOM     16  N   UNL A   1      33.611  20.254  24.353  1.00  0.00    -0.333 N 
ATOM     17  H   UNL A   1      33.102  20.460  23.537  1.00  0.00     0.169 HD
BRANCH  16  18
ATOM     18  C   UNL A   1      33.626  18.894  24.690  1.00  0.00     0.040 A 
ATOM     19  C   UNL A   1      32.687  18.435  25.622  1.00  0.00     0.026 A 
ATOM     20  C   UNL A   1      34.502  17.994  24.087  1.00  0.00     0.026 A 
ATOM     21  C   UNL A   1      32.508  17.064  25.806  1.00  0.00     0.002 A 
ATOM     22  C   UNL A   1      34.344  16.625  24.297  1.00  0.00     0.002 A 
ATOM     23  C   UNL A   1      33.324  16.158  25.127  1.00  0.00     0.000 A 
ENDBRANCH  16  18
ENDBRANCH  14  16
ENDBRANCH  12  14
ENDBRANCH   7  12
ENDBRANCH   4   7
ENDBRANCH   2   3
ENDBRANCH   1   2
BRANCH   1  24
ATOM     24  C   UNL A   1      31.603  27.673  25.998  1.00  0.00     0.002 C 
BRANCH  24  25
ATOM     25  C   UNL A   1      32.742  28.276  25.168  1.00  0.00     0.002 C 
BRANCH  25  26
ATOM     26  C   UNL A   1      34.005  28.580  25.968  1.00  0.00     0.021 C 
BRANCH  26  27
ATOM     27  C   UNL A   1      33.749  28.802  27.450  1.00  0.00     0.116 C 
BRANCH  27  28
ATOM     28  N   UNL A   1      33.794  30.208  27.813  1.00  0.00    -0.352 N 
ATOM     29  C   UNL A   1      34.841  30.891  28.385  1.00  0.00     0.251 C 
ATOM     30  H   UNL A   1      32.981  30.730  27.630  1.00  0.00     0.163 HD
ATOM     31  O   UNL A   1      34.717  32.035  28.782  1.00  0.00    -0.269 OA
BRANCH  29  32
ATOM     32  C   UNL A   1      36.121  30.170  28.538  1.00  0.00     0.039 A 
ATOM     33  C   UNL A   1      37.023  30.171  27.475  1.00  0.00     0.014 A 
ATOM     34  C   UNL A   1      36.455  29.599  29.769  1.00  0.00     0.014 A 
ATOM     35  C   UNL A   1      38.301  29.649  27.669  1.00  0.00     0.010 A 
ATOM     36  C   UNL A   1      37.749  29.143  29.980  1.00  0.00     0.010 A 
ATOM     37  C   UNL A   1      38.686  29.168  28.933  1.00  0.00    -0.014 A 
BRANCH  37  38
ATOM     38  C   UNL A   1      40.069  28.704  29.190  1.00  0.00     0.031 A 
ATOM     39  C   UNL A   1      41.075  29.646  29.788  1.00  0.00     0.074 A 
ATOM     40  C   UNL A   1      40.438  27.465  28.807  1.00  0.00     0.049 A 
ATOM     41  N   UNL A   1      42.350  29.453  30.012  1.00  0.00    -0.248 NA
ATOM     42  C   UNL A   1      40.595  30.986  30.159  1.00  0.00     0.031 C 
ATOM     43  C   UNL A   1      39.562  26.477  28.171  1.00  0.00     0.029 A 
ATOM     44  N   UNL A   1      41.652  26.832  28.880  1.00  0.00    -0.354 N 
ATOM     45  C   UNL A   1      42.826  30.653  30.526  1.00  0.00     0.074 A 
ATOM     46  C   UNL A   1      41.716  31.578  30.547  1.00  0.00     0.031 C 
ATOM     47  C   UNL A   1      40.265  25.359  27.928  1.00  0.00     0.029 A 
ATOM     48  C   UNL A   1      41.647  25.565  28.346  1.00  0.00     0.049 A 
ATOM     49  H   UNL A   1      42.452  27.246  29.279  1.00  0.00     0.167 HD
ATOM     50  C   UNL A   1      44.075  30.950  30.954  1.00  0.00     0.031 A 
ATOM     51  C   UNL A   1      42.649  24.678  28.194  1.00  0.00     0.031 A 
ATOM     52  C   UNL A   1      45.170  30.018  30.954  1.00  0.00     0.049 A 
ATOM     53  C   UNL A   1      44.030  25.043  28.665  1.00  0.00     0.074 A 
ATOM     54  C   UNL A   1      46.446  30.196  31.457  1.00  0.00     0.029 A 
ATOM     55  N   UNL A   1      45.120  28.743  30.417  1.00  0.00    -0.354 N 
ATOM     56  N   UNL A   1      44.438  26.145  29.246  1.00  0.00    -0.248 NA
ATOM     57  C   UNL A   1      45.087  24.042  28.462  1.00  0.00     0.031 C 
ATOM     58  C   UNL A   1      47.190  29.049  31.167  1.00  0.00     0.029 A 
ATOM     59  C   UNL A   1      46.359  28.137  30.535  1.00  0.00     0.049 A 
ATOM     60  H   UNL A   1      44.324  28.328  30.014  1.00  0.00     0.167 HD
ATOM     61  C   UNL A   1      45.792  25.962  29.494  1.00  0.00     0.074 A 
ATOM     62  C   UNL A   1      46.131  24.636  29.022  1.00  0.00     0.031 C 
ATOM     63  C   UNL A   1      46.679  26.817  30.058  1.00  0.00     0.031 A 
BRANCH  50  64
ATOM     64  C   UNL A   1      44.334  32.343  31.449  1.00  0.00    -0.014 A 
ATOM     65  C   UNL A   1      44.219  32.668  32.810  1.00  0.00     0.009 A 
ATOM     66  C   UNL A   1      44.767  33.329  30.548  1.00  0.00     0.009 A 
ATOM     67  C   UNL A   1      44.512  33.959  33.254  1.00  0.00     0.001 A 
ATOM     68  C   UNL A   1      45.084  34.611  31.000  1.00  0.00     0.001 A 
ATOM     69  C   UNL A   1      44.950  34.926  32.350  1.00  0.00     0.000 A 
ENDBRANCH  50  64
BRANCH  51  70
ATOM     70  C   UNL A   1      42.396  23.365  27.543  1.00  0.00    -0.014 A 
ATOM     71  C   UNL A   1      42.654  23.182  26.175  1.00  0.00     0.009 A 
ATOM     72  C   UNL A   1      41.868  22.293  28.281  1.00  0.00     0.009 A 
ATOM     73  C   UNL A   1      42.354  21.966  25.554  1.00  0.00     0.001 A 
ATOM     74  C   UNL A   1      41.600  21.070  27.665  1.00  0.00     0.001 A 
ATOM     75  C   UNL A   1      41.831  20.911  26.300  1.00  0.00     0.000 A 
ENDBRANCH  51  70
BRANCH  63  76
ATOM     76  C   UNL A   1      48.095  26.344  30.209  1.00  0.00    -0.014 A 
ATOM     77  C   UNL A   1      49.029  26.514  29.176  1.00  0.00     0.009 A 
ATOM     78  C   UNL A   1      48.515  25.778  31.424  1.00  0.00     0.009 A 
ATOM     79  C   UNL A   1      50.352  26.104  29.348  1.00  0.00     0.001 A 
ATOM     80  C   UNL A   1      49.845  25.397  31.602  1.00  0.00     0.001 A 
ATOM     81  C   UNL A   1      50.760  25.554  30.564  1.00  0.00     0.000 A 
ENDBRANCH  63  76
ENDBRANCH  37  38
ENDBRANCH  29  32
ENDBRANCH  27  28
ENDBRANCH  26  27
ENDBRANCH  25  26
ENDBRANCH  24  25
ENDBRANCH   1  24
TORSDOF 19
ENDMDL
MODEL 2
REMARK VINA RESULT:      -9.6      1.279      2.023
REMARK SMILES CC[C@H](C)[C@@H](NC(=S)Nc1ccccc1)C(=O)NCCCCCCNC(=O)c1ccc(-c2c3nc(c(-c4ccccc4)c4ccc([nH]4)c(-c4ccccc4)c4nc(c(-c5ccccc5)c5ccc2[nH]5)C=C4)C=C3)cc1
REMARK SMILES IDX 20 1 19 2 18 3 16 4 17 5 5 7 3 8 4 9 2 10 1 11 6 12 7 14
REMARK SMILES IDX 8 15 9 16 10 18 11 19 15 20 12 21 14 22 13 23 21 24 22 25
REMARK SMILES IDX 23 26 24 27 25 28 26 29 27 31 28 32 29 33 75 34 30 35 74 36
REMARK SMILES IDX 31 37 32 38 33 39 68 40 34 41 73 42 67 43 69 44 35 45 72 46
REMARK SMILES IDX 66 47 65 48 36 50 58 51 43 52 57 53 44 54 47 55 56 56 70 57
REMARK SMILES IDX 45 58 46 59 55 61 71 62 48 63 37 64 38 65 42 66 39 67 41 68
REMARK SMILES IDX 40 69 59 70 60 71 64 72 61 73 63 74 62 75 49 76 50 77 54 78
REMARK SMILES IDX 51 79 53 80 52 81
REMARK H PARENT 18 6 6 13 9 17 25 30 69 49 47 60
REMARK Flexibility Score: inf
ROOT
ATOM      1  C   UNL A   1      30.292  27.053  25.204  1.00  0.00     0.021 C 
ENDROOT
BRANCH   1   2
ATOM      2  C   UNL A   1      29.928  25.570  25.309  1.00  0.00     0.116 C 
BRANCH   2   3
ATOM      3  N   UNL A   1      30.555  25.035  26.490  1.00  0.00    -0.354 N 
ATOM      4  C   UNL A   1      30.848  23.716  26.674  1.00  0.00     0.242 C 
ATOM      5  O   UNL A   1      30.255  23.107  27.565  1.00  0.00    -0.273 OA
ATOM      6  H   UNL A   1      30.788  25.663  27.212  1.00  0.00     0.163 HD
BRANCH   4   7
ATOM      7  C   UNL A   1      31.836  23.039  25.699  1.00  0.00     0.173 C 
BRANCH   7   8
ATOM      8  C   UNL A   1      32.719  24.176  25.084  1.00  0.00     0.018 C 
ATOM      9  C   UNL A   1      33.923  24.598  25.928  1.00  0.00     0.010 C 
BRANCH   8  10
ATOM     10  C   UNL A   1      33.161  23.821  23.640  1.00  0.00     0.002 C 
ATOM     11  C   UNL A   1      33.623  25.001  22.796  1.00  0.00     0.004 C 
ENDBRANCH   8  10
ENDBRANCH   7   8
BRANCH   7  12
ATOM     12  N   UNL A   1      32.588  21.938  26.349  1.00  0.00    -0.350 N 
ATOM     13  H   UNL A   1      32.565  21.979  27.333  1.00  0.00     0.163 HD
BRANCH  12  14
ATOM     14  C   UNL A   1      33.300  20.888  25.876  1.00  0.00     0.171 C 
ATOM     15  S   UNL A   1      32.468  19.786  24.927  1.00  0.00    -0.041 S 
BRANCH  14  16
ATOM     16  N   UNL A   1      34.644  20.763  25.951  1.00  0.00    -0.333 N 
ATOM     17  H   UNL A   1      34.945  19.938  26.395  1.00  0.00     0.169 HD
BRANCH  16  18
ATOM     18  C   UNL A   1      35.686  21.592  25.516  1.00  0.00     0.040 A 
ATOM     19  C   UNL A   1      35.853  21.771  24.137  1.00  0.00     0.026 A 
ATOM     20  C   UNL A   1      36.509  22.273  26.409  1.00  0.00     0.026 A 
ATOM     21  C   UNL A   1      36.714  22.764  23.669  1.00  0.00     0.002 A 
ATOM     22  C   UNL A   1      37.394  23.243  25.938  1.00  0.00     0.002 A 
ATOM     23  C   UNL A   1      37.469  23.514  24.571  1.00  0.00     0.000 A 
ENDBRANCH  16  18
ENDBRANCH  14  16
ENDBRANCH  12  14
ENDBRANCH   7  12
ENDBRANCH   4   7
ENDBRANCH   2   3
ENDBRANCH   1   2
BRANCH   1  24
ATOM     24  C   UNL A   1      31.664  27.394  25.819  1.00  0.00     0.002 C 
BRANCH  24  25
ATOM     25  C   UNL A   1      32.463  28.455  25.053  1.00  0.00     0.002 C 
BRANCH  25  26
ATOM     26  C   UNL A   1      33.727  28.923  25.769  1.00  0.00     0.021 C 
BRANCH  26  27
ATOM     27  C   UNL A   1      33.581  28.997  27.279  1.00  0.00     0.116 C 
BRANCH  27  28
ATOM     28  N   UNL A   1      33.615  30.363  27.771  1.00  0.00    -0.352 N 
ATOM     29  C   UNL A   1      34.643  30.986  28.438  1.00  0.00     0.251 C 
ATOM     30  H   UNL A   1      32.810  30.905  27.607  1.00  0.00     0.163 HD
ATOM     31  O   UNL A   1      34.508  32.091  28.933  1.00  0.00    -0.269 OA
BRANCH  29  32
ATOM     32  C   UNL A   1      35.916  30.248  28.569  1.00  0.00     0.039 A 
ATOM     33  C   UNL A   1      36.806  30.249  27.496  1.00  0.00     0.014 A 
ATOM     34  C   UNL A   1      36.256  29.660  29.790  1.00  0.00     0.014 A 
ATOM     35  C   UNL A   1      38.079  29.709  27.670  1.00  0.00     0.010 A 
ATOM     36  C   UNL A   1      37.547  29.186  29.981  1.00  0.00     0.010 A 
ATOM     37  C   UNL A   1      38.472  29.210  28.924  1.00  0.00    -0.014 A 
BRANCH  37  38
ATOM     38  C   UNL A   1      39.852  28.727  29.161  1.00  0.00     0.031 A 
ATOM     39  C   UNL A   1      40.895  29.669  29.690  1.00  0.00     0.074 A 
ATOM     40  C   UNL A   1      40.183  27.465  28.819  1.00  0.00     0.049 A 
ATOM     41  N   UNL A   1      42.171  29.457  29.886  1.00  0.00    -0.248 NA
ATOM     42  C   UNL A   1      40.454  31.034  30.019  1.00  0.00     0.031 C 
ATOM     43  C   UNL A   1      39.268  26.471  28.251  1.00  0.00     0.029 A 
ATOM     44  N   UNL A   1      41.385  26.808  28.885  1.00  0.00    -0.354 N 
ATOM     45  C   UNL A   1      42.687  30.667  30.335  1.00  0.00     0.074 A 
ATOM     46  C   UNL A   1      41.598  31.616  30.349  1.00  0.00     0.031 C 
ATOM     47  C   UNL A   1      39.939  25.329  28.034  1.00  0.00     0.029 A 
ATOM     48  C   UNL A   1      41.338  25.521  28.405  1.00  0.00     0.049 A 
ATOM     49  H   UNL A   1      42.205  27.220  29.242  1.00  0.00     0.167 HD
ATOM     50  C   UNL A   1      43.954  30.952  30.714  1.00  0.00     0.031 A 
ATOM     51  C   UNL A   1      42.316  24.606  28.260  1.00  0.00     0.031 A 
ATOM     52  C   UNL A   1      45.029  29.998  30.723  1.00  0.00     0.049 A 
ATOM     53  C   UNL A   1      43.717  24.959  28.677  1.00  0.00     0.074 A 
ATOM     54  C   UNL A   1      46.323  30.167  31.181  1.00  0.00     0.029 A 
ATOM     55  N   UNL A   1      44.937  28.703  30.241  1.00  0.00    -0.354 N 
ATOM     56  N   UNL A   1      44.166  26.075  29.199  1.00  0.00    -0.248 NA
ATOM     57  C   UNL A   1      44.746  23.927  28.485  1.00  0.00     0.031 C 
ATOM     58  C   UNL A   1      47.034  28.993  30.918  1.00  0.00     0.029 A 
ATOM     59  C   UNL A   1      46.166  28.075  30.348  1.00  0.00     0.049 A 
ATOM     60  H   UNL A   1      44.120  28.289  29.878  1.00  0.00     0.167 HD
ATOM     61  C   UNL A   1      45.522  25.872  29.416  1.00  0.00     0.074 A 
ATOM     62  C   UNL A   1      45.819  24.520  28.990  1.00  0.00     0.031 C 
ATOM     63  C   UNL A   1      46.443  26.730  29.918  1.00  0.00     0.031 A 
BRANCH  50  64
ATOM     64  C   UNL A   1      44.257  32.359  31.144  1.00  0.00    -0.014 A 
ATOM     65  C   UNL A   1      44.081  32.771  32.474  1.00  0.00     0.009 A 
ATOM     66  C   UNL A   1      44.793  33.266  30.216  1.00  0.00     0.009 A 
ATOM     67  C   UNL A   1      44.415  34.071  32.860  1.00  0.00     0.001 A 
ATOM     68  C   UNL A   1      45.150  34.556  30.611  1.00  0.00     0.001 A 
ATOM     69  C   UNL A   1      44.955  34.959  31.930  1.00  0.00     0.000 A 
ENDBRANCH  50  64
BRANCH  51  70
ATOM     70  C   UNL A   1      42.016  23.273  27.673  1.00  0.00    -0.014 A 
ATOM     71  C   UNL A   1      41.650  23.152  26.322  1.00  0.00     0.009 A 
ATOM     72  C   UNL A   1      42.065  22.116  28.467  1.00  0.00     0.009 A 
ATOM     73  C   UNL A   1      41.308  21.905  25.791  1.00  0.00     0.001 A 
ATOM     74  C   UNL A   1      41.753  20.869  27.925  1.00  0.00     0.001 A 
ATOM     75  C   UNL A   1      41.362  20.765  26.591  1.00  0.00     0.000 A 
ENDBRANCH  51  70
BRANCH  63  76
ATOM     76  C   UNL A   1      47.853  26.231  30.048  1.00  0.00    -0.014 A 
ATOM     77  C   UNL A   1      48.355  25.800  31.285  1.00  0.00     0.009 A 
ATOM     78  C   UNL A   1      48.666  26.135  28.908  1.00  0.00     0.009 A 
ATOM     79  C   UNL A   1      49.656  25.301  31.381  1.00  0.00     0.001 A 
ATOM     80  C   UNL A   1      49.955  25.609  29.003  1.00  0.00     0.001 A 
ATOM     81  C   UNL A   1      50.451  25.199  30.239  1.00  0.00     0.000 A 
ENDBRANCH  63  76
ENDBRANCH  37  38
ENDBRANCH  29  32
ENDBRANCH  27  28
ENDBRANCH  26  27
ENDBRANCH  25  26
ENDBRANCH  24  25
ENDBRANCH   1  24
TORSDOF 19
ENDMDL
MODEL 3
REMARK VINA RESULT:      -9.6      3.156      7.562
REMARK SMILES CC[C@H](C)[C@@H](NC(=S)Nc1ccccc1)C(=O)NCCCCCCNC(=O)c1ccc(-c2c3nc(c(-c4ccccc4)c4ccc([nH]4)c(-c4ccccc4)c4nc(c(-c5ccccc5)c5ccc2[nH]5)C=C4)C=C3)cc1
REMARK SMILES IDX 20 1 19 2 18 3 16 4 17 5 5 7 3 8 4 9 2 10 1 11 6 12 7 14
REMARK SMILES IDX 8 15 9 16 10 18 11 19 15 20 12 21 14 22 13 23 21 24 22 25
REMARK SMILES IDX 23 26 24 27 25 28 26 29 27 31 28 32 29 33 75 34 30 35 74 36
REMARK SMILES IDX 31 37 32 38 33 39 68 40 34 41 73 42 67 43 69 44 35 45 72 46
REMARK SMILES IDX 66 47 65 48 36 50 58 51 43 52 57 53 44 54 47 55 56 56 70 57
REMARK SMILES IDX 45 58 46 59 55 61 71 62 48 63 37 64 38 65 42 66 39 67 41 68
REMARK SMILES IDX 40 69 59 70 60 71 64 72 61 73 63 74 62 75 49 76 50 77 54 78
REMARK SMILES IDX 51 79 53 80 52 81
REMARK H PARENT 18 6 6 13 9 17 25 30 69 49 47 60
REMARK Flexibility Score: inf
ROOT
ATOM      1  C   UNL A   1      33.160  28.626  26.347  1.00  0.00     0.021 C 
ENDROOT
BRANCH   1   2
ATOM      2  C   UNL A   1      32.905  27.270  25.684  1.00  0.00     0.116 C 
BRANCH   2   3
ATOM      3  N   UNL A   1      32.517  26.334  26.709  1.00  0.00    -0.354 N 
ATOM      4  C   UNL A   1      32.047  25.078  26.462  1.00  0.00     0.242 C 
ATOM      5  O   UNL A   1      30.882  24.822  26.770  1.00  0.00    -0.273 OA
ATOM      6  H   UNL A   1      32.597  26.620  27.648  1.00  0.00     0.163 HD
BRANCH   4   7
ATOM      7  C   UNL A   1      32.969  24.077  25.731  1.00  0.00     0.173 C 
BRANCH   7   8
ATOM      8  C   UNL A   1      33.940  23.485  26.806  1.00  0.00     0.018 C 
ATOM      9  C   UNL A   1      33.402  22.280  27.581  1.00  0.00     0.010 C 
BRANCH   8  10
ATOM     10  C   UNL A   1      35.327  23.164  26.190  1.00  0.00     0.002 C 
ATOM     11  C   UNL A   1      35.726  24.032  25.005  1.00  0.00     0.004 C 
ENDBRANCH   8  10
ENDBRANCH   7   8
BRANCH   7  12
ATOM     12  N   UNL A   1      32.195  23.074  24.959  1.00  0.00    -0.350 N 
ATOM     13  H   UNL A   1      31.947  22.282  25.490  1.00  0.00     0.163 HD
BRANCH  12  14
ATOM     14  C   UNL A   1      31.758  23.016  23.680  1.00  0.00     0.171 C 
ATOM     15  S   UNL A   1      32.317  21.736  22.754  1.00  0.00    -0.041 S 
BRANCH  14  16
ATOM     16  N   UNL A   1      30.779  23.788  23.157  1.00  0.00    -0.333 N 
ATOM     17  H   UNL A   1      30.007  23.281  22.819  1.00  0.00     0.169 HD
BRANCH  16  18
ATOM     18  C   UNL A   1      30.663  25.176  23.007  1.00  0.00     0.040 A 
ATOM     19  C   UNL A   1      29.659  25.834  23.728  1.00  0.00     0.026 A 
ATOM     20  C   UNL A   1      31.543  25.909  22.214  1.00  0.00     0.026 A 
ATOM     21  C   UNL A   1      29.658  27.228  23.796  1.00  0.00     0.002 A 
ATOM     22  C   UNL A   1      31.519  27.303  22.257  1.00  0.00     0.002 A 
ATOM     23  C   UNL A   1      30.602  27.961  23.076  1.00  0.00     0.000 A 
ENDBRANCH  16  18
ENDBRANCH  14  16
ENDBRANCH  12  14
ENDBRANCH   7  12
ENDBRANCH   4   7
ENDBRANCH   2   3
ENDBRANCH   1   2
BRANCH   1  24
ATOM     24  C   UNL A   1      31.873  29.330  26.821  1.00  0.00     0.002 C 
BRANCH  24  25
ATOM     25  C   UNL A   1      31.470  30.554  25.991  1.00  0.00     0.002 C 
BRANCH  25  26
ATOM     26  C   UNL A   1      31.298  31.833  26.806  1.00  0.00     0.021 C 
BRANCH  26  27
ATOM     27  C   UNL A   1      32.514  32.744  26.776  1.00  0.00     0.116 C 
BRANCH  27  28
ATOM     28  N   UNL A   1      32.317  33.954  27.554  1.00  0.00    -0.352 N 
ATOM     29  C   UNL A   1      33.101  34.425  28.581  1.00  0.00     0.251 C 
ATOM     30  H   UNL A   1      31.532  34.499  27.320  1.00  0.00     0.163 HD
ATOM     31  O   UNL A   1      32.760  35.375  29.262  1.00  0.00    -0.269 OA
BRANCH  29  32
ATOM     32  C   UNL A   1      34.362  33.707  28.857  1.00  0.00     0.039 A 
ATOM     33  C   UNL A   1      35.540  34.171  28.274  1.00  0.00     0.014 A 
ATOM     34  C   UNL A   1      34.377  32.655  29.778  1.00  0.00     0.014 A 
ATOM     35  C   UNL A   1      36.757  33.614  28.666  1.00  0.00     0.010 A 
ATOM     36  C   UNL A   1      35.593  32.152  30.217  1.00  0.00     0.010 A 
ATOM     37  C   UNL A   1      36.795  32.630  29.668  1.00  0.00    -0.014 A 
BRANCH  37  38
ATOM     38  C   UNL A   1      38.082  32.099  30.174  1.00  0.00     0.031 A 
ATOM     39  C   UNL A   1      38.622  30.805  29.633  1.00  0.00     0.074 A 
ATOM     40  C   UNL A   1      38.719  32.737  31.176  1.00  0.00     0.049 A 
ATOM     41  N   UNL A   1      39.685  30.139  30.004  1.00  0.00    -0.248 NA
ATOM     42  C   UNL A   1      37.855  30.163  28.554  1.00  0.00     0.031 C 
ATOM     43  C   UNL A   1      38.267  33.976  31.816  1.00  0.00     0.029 A 
ATOM     44  N   UNL A   1      39.873  32.422  31.845  1.00  0.00    -0.354 N 
ATOM     45  C   UNL A   1      39.700  28.990  29.222  1.00  0.00     0.074 A 
ATOM     46  C   UNL A   1      38.523  29.030  28.384  1.00  0.00     0.031 C 
ATOM     47  C   UNL A   1      39.143  34.321  32.773  1.00  0.00     0.029 A 
ATOM     48  C   UNL A   1      40.191  33.308  32.846  1.00  0.00     0.049 A 
ATOM     49  H   UNL A   1      40.424  31.634  31.628  1.00  0.00     0.167 HD
ATOM     50  C   UNL A   1      40.621  27.999  29.198  1.00  0.00     0.031 A 
ATOM     51  C   UNL A   1      41.203  33.297  33.736  1.00  0.00     0.031 A 
ATOM     52  C   UNL A   1      41.802  27.976  30.017  1.00  0.00     0.049 A 
ATOM     53  C   UNL A   1      42.202  32.173  33.694  1.00  0.00     0.074 A 
ATOM     54  C   UNL A   1      42.843  27.064  29.995  1.00  0.00     0.029 A 
ATOM     55  N   UNL A   1      42.093  28.898  31.008  1.00  0.00    -0.354 N 
ATOM     56  N   UNL A   1      42.258  31.149  32.876  1.00  0.00    -0.248 NA
ATOM     57  C   UNL A   1      43.277  32.203  34.696  1.00  0.00     0.031 C 
ATOM     58  C   UNL A   1      43.734  27.399  31.019  1.00  0.00     0.029 A 
ATOM     59  C   UNL A   1      43.276  28.551  31.638  1.00  0.00     0.049 A 
ATOM     60  H   UNL A   1      41.543  29.684  31.230  1.00  0.00     0.167 HD
ATOM     61  C   UNL A   1      43.383  30.427  33.252  1.00  0.00     0.074 A 
ATOM     62  C   UNL A   1      43.991  31.140  34.356  1.00  0.00     0.031 C 
ATOM     63  C   UNL A   1      43.866  29.272  32.735  1.00  0.00     0.031 A 
BRANCH  50  64
ATOM     64  C   UNL A   1      40.386  26.847  28.265  1.00  0.00    -0.014 A 
ATOM     65  C   UNL A   1      39.646  25.723  28.664  1.00  0.00     0.009 A 
ATOM     66  C   UNL A   1      40.856  26.919  26.944  1.00  0.00     0.009 A 
ATOM     67  C   UNL A   1      39.400  24.684  27.763  1.00  0.00     0.001 A 
ATOM     68  C   UNL A   1      40.586  25.891  26.039  1.00  0.00     0.001 A 
ATOM     69  C   UNL A   1      39.864  24.772  26.451  1.00  0.00     0.000 A 
ENDBRANCH  50  64
BRANCH  51  70
ATOM     70  C   UNL A   1      41.314  34.367  34.761  1.00  0.00    -0.014 A 
ATOM     71  C   UNL A   1      40.707  34.220  36.019  1.00  0.00     0.009 A 
ATOM     72  C   UNL A   1      42.003  35.557  34.478  1.00  0.00     0.009 A 
ATOM     73  C   UNL A   1      40.759  35.255  36.957  1.00  0.00     0.001 A 
ATOM     74  C   UNL A   1      42.081  36.577  35.428  1.00  0.00     0.001 A 
ATOM     75  C   UNL A   1      41.448  36.430  36.662  1.00  0.00     0.000 A 
ENDBRANCH  51  70
BRANCH  63  76
ATOM     76  C   UNL A   1      45.120  28.714  33.343  1.00  0.00    -0.014 A 
ATOM     77  C   UNL A   1      45.063  27.782  34.390  1.00  0.00     0.009 A 
ATOM     78  C   UNL A   1      46.371  29.078  32.819  1.00  0.00     0.009 A 
ATOM     79  C   UNL A   1      46.237  27.242  34.917  1.00  0.00     0.001 A 
ATOM     80  C   UNL A   1      47.540  28.515  33.329  1.00  0.00     0.001 A 
ATOM     81  C   UNL A   1      47.474  27.603  34.381  1.00  0.00     0.000 A 
ENDBRANCH  63  76
ENDBRANCH  37  38
ENDBRANCH  29  32
ENDBRANCH  27  28
ENDBRANCH  26  27
ENDBRANCH  25  26
ENDBRANCH  24  25
ENDBRANCH   1  24
TORSDOF 19
ENDMDL
