MODEL 1
REMARK VINA RESULT:     -11.8      0.000      0.000
REMARK SMILES O=C(NCCCCCCNC(=O)[C@@H]1C[C@@H]1C(=O)N1CCN(c2ncc(C(F)(F)F)cc2Cl)CC1)c1ccc(-c2c3nc(c(-c4ccccc4)c4ccc([nH]4)c(-c4ccccc4)c4nc(c(-c5ccccc5)c5ccc2[nH]5)C=C4)C=C3)cc1
REMARK SMILES IDX 7 1 6 2 5 3 4 4 3 5 1 6 2 7 35 9 36 10 82 11 37 12 81 13
REMARK SMILES IDX 38 14 39 15 40 16 75 17 41 18 80 19 74 20 76 21 42 22 79 23
REMARK SMILES IDX 73 24 72 25 43 27 65 28 50 29 64 30 51 31 54 32 63 33 77 34
REMARK SMILES IDX 52 35 53 36 62 38 78 39 55 40 44 41 45 42 49 43 46 44 48 45
REMARK SMILES IDX 47 46 66 47 67 48 71 49 68 50 70 51 69 52 56 53 57 54 61 55
REMARK SMILES IDX 58 56 60 57 59 58 8 59 9 60 10 61 11 62 12 64 13 65 14 66
REMARK SMILES IDX 15 67 16 68 17 69 18 70 19 71 34 72 20 73 33 74 21 75 22 76
REMARK SMILES IDX 23 77 31 78 24 79 30 80 32 81 25 82 26 83 27 84 28 85 29 86
REMARK H PARENT 3 8 76 26 54 37 10 63
REMARK Flexibility Score: inf
ROOT
ATOM      1  C   UNL A   1      34.111  28.868  27.240  1.00  0.00     0.002 C 
ENDROOT
BRANCH   1   2
ATOM      2  C   UNL A   1      34.266  30.395  27.298  1.00  0.00     0.002 C 
BRANCH   2   3
ATOM      3  C   UNL A   1      33.006  31.190  27.655  1.00  0.00     0.021 C 
BRANCH   3   4
ATOM      4  C   UNL A   1      32.667  32.338  26.711  1.00  0.00     0.116 C 
BRANCH   4   5
ATOM      5  N   UNL A   1      32.391  33.578  27.411  1.00  0.00    -0.352 N 
ATOM      6  O   UNL A   1      32.581  35.185  28.970  1.00  0.00    -0.269 OA
ATOM      7  C   UNL A   1      33.068  34.195  28.431  1.00  0.00     0.251 C 
ATOM      8  H   UNL A   1      31.584  34.054  27.105  1.00  0.00     0.163 HD
BRANCH   7   9
ATOM      9  C   UNL A   1      34.371  33.676  28.907  1.00  0.00     0.039 A 
ATOM     10  C   UNL A   1      34.488  32.959  30.101  1.00  0.00     0.014 A 
ATOM     11  C   UNL A   1      35.494  33.857  28.092  1.00  0.00     0.014 A 
ATOM     12  C   UNL A   1      35.739  32.512  30.526  1.00  0.00     0.010 A 
ATOM     13  C   UNL A   1      36.736  33.349  28.485  1.00  0.00     0.010 A 
ATOM     14  C   UNL A   1      36.872  32.685  29.713  1.00  0.00    -0.014 A 
BRANCH  14  15
ATOM     15  C   UNL A   1      38.175  32.095  30.113  1.00  0.00     0.031 A 
ATOM     16  C   UNL A   1      39.119  32.835  31.020  1.00  0.00     0.074 A 
ATOM     17  C   UNL A   1      38.516  30.886  29.627  1.00  0.00     0.049 A 
ATOM     18  N   UNL A   1      40.307  32.475  31.439  1.00  0.00    -0.248 NA
ATOM     19  C   UNL A   1      38.679  34.147  31.518  1.00  0.00     0.031 C 
ATOM     20  C   UNL A   1      37.696  30.074  28.724  1.00  0.00     0.029 A 
ATOM     21  N   UNL A   1      39.644  30.129  29.821  1.00  0.00    -0.354 N 
ATOM     22  C   UNL A   1      40.764  33.519  32.234  1.00  0.00     0.074 A 
ATOM     23  C   UNL A   1      39.732  34.536  32.225  1.00  0.00     0.031 C 
ATOM     24  C   UNL A   1      38.336  28.924  28.462  1.00  0.00     0.029 A 
ATOM     25  C   UNL A   1      39.632  28.941  29.129  1.00  0.00     0.049 A 
ATOM     26  H   UNL A   1      40.389  30.408  30.400  1.00  0.00     0.167 HD
ATOM     27  C   UNL A   1      41.932  33.619  32.911  1.00  0.00     0.031 A 
ATOM     28  C   UNL A   1      40.569  27.981  29.022  1.00  0.00     0.031 A 
ATOM     29  C   UNL A   1      42.958  32.608  32.921  1.00  0.00     0.049 A 
ATOM     30  C   UNL A   1      41.870  28.140  29.754  1.00  0.00     0.074 A 
ATOM     31  C   UNL A   1      44.155  32.603  33.618  1.00  0.00     0.029 A 
ATOM     32  N   UNL A   1      42.915  31.429  32.194  1.00  0.00    -0.354 N 
ATOM     33  N   UNL A   1      42.259  29.108  30.545  1.00  0.00    -0.248 NA
ATOM     34  C   UNL A   1      42.860  27.068  29.578  1.00  0.00     0.031 C 
ATOM     35  C   UNL A   1      44.858  31.444  33.273  1.00  0.00     0.029 A 
ATOM     36  C   UNL A   1      44.075  30.703  32.404  1.00  0.00     0.049 A 
ATOM     37  H   UNL A   1      42.170  31.150  31.615  1.00  0.00     0.167 HD
ATOM     38  C   UNL A   1      43.530  28.753  30.979  1.00  0.00     0.074 A 
ATOM     39  C   UNL A   1      43.836  27.471  30.379  1.00  0.00     0.031 C 
ATOM     40  C   UNL A   1      44.368  29.431  31.799  1.00  0.00     0.031 A 
BRANCH  27  41
ATOM     41  C   UNL A   1      42.185  34.877  33.695  1.00  0.00    -0.014 A 
ATOM     42  C   UNL A   1      41.649  35.053  34.981  1.00  0.00     0.009 A 
ATOM     43  C   UNL A   1      43.036  35.863  33.173  1.00  0.00     0.009 A 
ATOM     44  C   UNL A   1      41.948  36.201  35.719  1.00  0.00     0.001 A 
ATOM     45  C   UNL A   1      43.351  36.999  33.922  1.00  0.00     0.001 A 
ATOM     46  C   UNL A   1      42.803  37.169  35.192  1.00  0.00     0.000 A 
ENDBRANCH  27  41
BRANCH  28  47
ATOM     47  C   UNL A   1      40.321  26.794  28.165  1.00  0.00    -0.014 A 
ATOM     48  C   UNL A   1      40.827  26.738  26.857  1.00  0.00     0.009 A 
ATOM     49  C   UNL A   1      39.563  25.716  28.647  1.00  0.00     0.009 A 
ATOM     50  C   UNL A   1      40.555  25.637  26.041  1.00  0.00     0.001 A 
ATOM     51  C   UNL A   1      39.319  24.603  27.840  1.00  0.00     0.001 A 
ATOM     52  C   UNL A   1      39.806  24.570  26.535  1.00  0.00     0.000 A 
ENDBRANCH  28  47
BRANCH  40  53
ATOM     53  C   UNL A   1      45.683  28.779  32.119  1.00  0.00    -0.014 A 
ATOM     54  C   UNL A   1      46.862  29.158  31.460  1.00  0.00     0.009 A 
ATOM     55  C   UNL A   1      45.745  27.789  33.112  1.00  0.00     0.009 A 
ATOM     56  C   UNL A   1      48.073  28.532  31.764  1.00  0.00     0.001 A 
ATOM     57  C   UNL A   1      46.961  27.184  33.433  1.00  0.00     0.001 A 
ATOM     58  C   UNL A   1      48.122  27.549  32.753  1.00  0.00     0.000 A 
ENDBRANCH  40  53
ENDBRANCH  14  15
ENDBRANCH   7   9
ENDBRANCH   4   5
ENDBRANCH   3   4
ENDBRANCH   2   3
ENDBRANCH   1   2
BRANCH   1  59
ATOM     59  C   UNL A   1      33.031  28.339  26.293  1.00  0.00     0.021 C 
BRANCH  59  60
ATOM     60  C   UNL A   1      33.100  28.869  24.861  1.00  0.00     0.116 C 
BRANCH  60  61
ATOM     61  N   UNL A   1      31.941  29.632  24.490  1.00  0.00    -0.356 N 
ATOM     62  C   UNL A   1      30.772  29.267  23.896  1.00  0.00     0.223 C 
ATOM     63  H   UNL A   1      32.003  30.592  24.704  1.00  0.00     0.163 HD
ATOM     64  O   UNL A   1      29.882  30.116  23.841  1.00  0.00    -0.275 OA
BRANCH  62  65
ATOM     65  C   UNL A   1      30.511  27.972  23.213  1.00  0.00     0.091 C 
ATOM     66  C   UNL A   1      29.076  27.492  23.430  1.00  0.00     0.028 C 
ATOM     67  C   UNL A   1      30.212  26.532  23.541  1.00  0.00     0.092 C 
BRANCH  67  68
ATOM     68  C   UNL A   1      30.488  25.785  24.785  1.00  0.00     0.226 C 
ATOM     69  O   UNL A   1      30.307  26.319  25.880  1.00  0.00    -0.275 OA
ATOM     70  N   UNL A   1      30.874  24.453  24.637  1.00  0.00    -0.339 N 
ATOM     71  C   UNL A   1      31.027  23.652  25.864  1.00  0.00     0.141 C 
ATOM     72  C   UNL A   1      31.549  23.967  23.418  1.00  0.00     0.141 C 
ATOM     73  C   UNL A   1      31.072  22.129  25.630  1.00  0.00     0.139 C 
ATOM     74  C   UNL A   1      31.617  22.439  23.272  1.00  0.00     0.139 C 
ATOM     75  N   UNL A   1      32.025  21.856  24.552  1.00  0.00    -0.352 N 
BRANCH  75  76
ATOM     76  C   UNL A   1      32.694  20.646  24.545  1.00  0.00     0.147 A 
ATOM     77  N   UNL A   1      31.951  19.514  24.509  1.00  0.00    -0.237 NA
ATOM     78  C   UNL A   1      34.096  20.571  24.640  1.00  0.00     0.084 A 
ATOM     79  C   UNL A   1      32.583  18.313  24.553  1.00  0.00     0.126 A 
ATOM     80  C   UNL A   1      34.721  19.326  24.712  1.00  0.00     0.039 A 
ATOM     81  Cl  UNL A   1      35.108  21.969  24.764  1.00  0.00    -0.080 Cl
ATOM     82  C   UNL A   1      33.953  18.162  24.673  1.00  0.00     0.075 A 
BRANCH  82  83
ATOM     83  C   UNL A   1      34.583  16.805  24.730  1.00  0.00     0.417 C 
ATOM     84  F   UNL A   1      34.550  16.142  23.545  1.00  0.00    -0.166 F 
ATOM     85  F   UNL A   1      35.892  16.863  25.096  1.00  0.00    -0.166 F 
ATOM     86  F   UNL A   1      33.976  15.989  25.636  1.00  0.00    -0.166 F 
ENDBRANCH  82  83
ENDBRANCH  75  76
ENDBRANCH  67  68
ENDBRANCH  62  65
ENDBRANCH  60  61
ENDBRANCH  59  60
ENDBRANCH   1  59
TORSDOF 16
ENDMDL
MODEL 2
REMARK VINA RESULT:     -11.8      0.343      5.721
REMARK SMILES O=C(NCCCCCCNC(=O)[C@@H]1C[C@@H]1C(=O)N1CCN(c2ncc(C(F)(F)F)cc2Cl)CC1)c1ccc(-c2c3nc(c(-c4ccccc4)c4ccc([nH]4)c(-c4ccccc4)c4nc(c(-c5ccccc5)c5ccc2[nH]5)C=C4)C=C3)cc1
REMARK SMILES IDX 7 1 6 2 5 3 4 4 3 5 1 6 2 7 35 9 36 10 82 11 37 12 81 13
REMARK SMILES IDX 38 14 39 15 40 16 75 17 41 18 80 19 74 20 76 21 42 22 79 23
REMARK SMILES IDX 73 24 72 25 43 27 65 28 50 29 64 30 51 31 54 32 63 33 77 34
REMARK SMILES IDX 52 35 53 36 62 38 78 39 55 40 44 41 45 42 49 43 46 44 48 45
REMARK SMILES IDX 47 46 66 47 67 48 71 49 68 50 70 51 69 52 56 53 57 54 61 55
REMARK SMILES IDX 58 56 60 57 59 58 8 59 9 60 10 61 11 62 12 64 13 65 14 66
REMARK SMILES IDX 15 67 16 68 17 69 18 70 19 71 34 72 20 73 33 74 21 75 22 76
REMARK SMILES IDX 23 77 31 78 24 79 30 80 32 81 25 82 26 83 27 84 28 85 29 86
REMARK H PARENT 3 8 76 26 54 37 10 63
REMARK Flexibility Score: inf
ROOT
ATOM      1  C   UNL A   1      33.912  29.088  27.296  1.00  0.00     0.002 C 
ENDROOT
BRANCH   1   2
ATOM      2  C   UNL A   1      33.990  30.618  27.179  1.00  0.00     0.002 C 
BRANCH   2   3
ATOM      3  C   UNL A   1      32.743  31.395  27.613  1.00  0.00     0.021 C 
BRANCH   3   4
ATOM      4  C   UNL A   1      32.398  32.608  26.757  1.00  0.00     0.116 C 
BRANCH   4   5
ATOM      5  N   UNL A   1      32.270  33.826  27.534  1.00  0.00    -0.352 N 
ATOM      6  O   UNL A   1      32.706  35.334  29.142  1.00  0.00    -0.269 OA
ATOM      7  C   UNL A   1      33.073  34.343  28.517  1.00  0.00     0.251 C 
ATOM      8  H   UNL A   1      31.476  34.369  27.323  1.00  0.00     0.163 HD
BRANCH   7   9
ATOM      9  C   UNL A   1      34.373  33.716  28.852  1.00  0.00     0.039 A 
ATOM     10  C   UNL A   1      35.499  33.872  28.039  1.00  0.00     0.014 A 
ATOM     11  C   UNL A   1      34.478  33.010  30.055  1.00  0.00     0.014 A 
ATOM     12  C   UNL A   1      36.696  33.241  28.377  1.00  0.00     0.010 A 
ATOM     13  C   UNL A   1      35.696  32.436  30.429  1.00  0.00     0.010 A 
ATOM     14  C   UNL A   1      36.812  32.533  29.585  1.00  0.00    -0.014 A 
BRANCH  14  15
ATOM     15  C   UNL A   1      38.124  31.973  29.999  1.00  0.00     0.031 A 
ATOM     16  C   UNL A   1      38.603  30.646  29.479  1.00  0.00     0.074 A 
ATOM     17  C   UNL A   1      38.877  32.665  30.876  1.00  0.00     0.049 A 
ATOM     18  N   UNL A   1      39.707  30.002  29.765  1.00  0.00    -0.248 NA
ATOM     19  C   UNL A   1      37.733  29.950  28.519  1.00  0.00     0.031 C 
ATOM     20  C   UNL A   1      38.517  33.955  31.468  1.00  0.00     0.029 A 
ATOM     21  N   UNL A   1      40.101  32.379  31.425  1.00  0.00    -0.354 N 
ATOM     22  C   UNL A   1      39.658  28.819  29.036  1.00  0.00     0.074 A 
ATOM     23  C   UNL A   1      38.406  28.826  28.309  1.00  0.00     0.031 C 
ATOM     24  C   UNL A   1      39.507  34.360  32.279  1.00  0.00     0.029 A 
ATOM     25  C   UNL A   1      40.543  33.335  32.309  1.00  0.00     0.049 A 
ATOM     26  H   UNL A   1      40.615  31.567  31.208  1.00  0.00     0.167 HD
ATOM     27  C   UNL A   1      40.574  27.823  28.977  1.00  0.00     0.031 A 
ATOM     28  C   UNL A   1      41.646  33.374  33.077  1.00  0.00     0.031 A 
ATOM     29  C   UNL A   1      41.820  27.816  29.701  1.00  0.00     0.049 A 
ATOM     30  C   UNL A   1      42.623  32.235  33.019  1.00  0.00     0.074 A 
ATOM     31  C   UNL A   1      42.831  26.870  29.665  1.00  0.00     0.029 A 
ATOM     32  N   UNL A   1      42.220  28.794  30.596  1.00  0.00    -0.354 N 
ATOM     33  N   UNL A   1      42.586  31.153  32.281  1.00  0.00    -0.248 NA
ATOM     34  C   UNL A   1      43.797  32.328  33.898  1.00  0.00     0.031 C 
ATOM     35  C   UNL A   1      43.820  27.251  30.577  1.00  0.00     0.029 A 
ATOM     36  C   UNL A   1      43.449  28.461  31.140  1.00  0.00     0.049 A 
ATOM     37  H   UNL A   1      41.707  29.606  30.814  1.00  0.00     0.167 HD
ATOM     38  C   UNL A   1      43.740  30.446  32.592  1.00  0.00     0.074 A 
ATOM     39  C   UNL A   1      44.465  31.231  33.568  1.00  0.00     0.031 C 
ATOM     40  C   UNL A   1      44.158  29.250  32.112  1.00  0.00     0.031 A 
BRANCH  27  41
ATOM     41  C   UNL A   1      40.265  26.634  28.110  1.00  0.00    -0.014 A 
ATOM     42  C   UNL A   1      40.736  26.555  26.790  1.00  0.00     0.009 A 
ATOM     43  C   UNL A   1      39.561  25.545  28.647  1.00  0.00     0.009 A 
ATOM     44  C   UNL A   1      40.491  25.414  26.021  1.00  0.00     0.001 A 
ATOM     45  C   UNL A   1      39.338  24.397  27.884  1.00  0.00     0.001 A 
ATOM     46  C   UNL A   1      39.799  24.335  26.570  1.00  0.00     0.000 A 
ENDBRANCH  27  41
BRANCH  28  47
ATOM     47  C   UNL A   1      41.875  34.523  33.991  1.00  0.00    -0.014 A 
ATOM     48  C   UNL A   1      41.436  34.474  35.323  1.00  0.00     0.009 A 
ATOM     49  C   UNL A   1      42.521  35.680  33.529  1.00  0.00     0.009 A 
ATOM     50  C   UNL A   1      41.617  35.574  36.165  1.00  0.00     0.001 A 
ATOM     51  C   UNL A   1      42.728  36.765  34.383  1.00  0.00     0.001 A 
ATOM     52  C   UNL A   1      42.266  36.715  35.696  1.00  0.00     0.000 A 
ENDBRANCH  28  47
BRANCH  40  53
ATOM     53  C   UNL A   1      45.478  28.738  32.615  1.00  0.00    -0.014 A 
ATOM     54  C   UNL A   1      45.548  27.833  33.684  1.00  0.00     0.009 A 
ATOM     55  C   UNL A   1      46.667  29.152  31.992  1.00  0.00     0.009 A 
ATOM     56  C   UNL A   1      46.785  27.377  34.143  1.00  0.00     0.001 A 
ATOM     57  C   UNL A   1      47.901  28.674  32.436  1.00  0.00     0.001 A 
ATOM     58  C   UNL A   1      47.960  27.795  33.517  1.00  0.00     0.000 A 
ENDBRANCH  40  53
ENDBRANCH  14  15
ENDBRANCH   7   9
ENDBRANCH   4   5
ENDBRANCH   3   4
ENDBRANCH   2   3
ENDBRANCH   1   2
BRANCH   1  59
ATOM     59  C   UNL A   1      33.002  28.385  26.285  1.00  0.00     0.021 C 
BRANCH  59  60
ATOM     60  C   UNL A   1      33.066  28.929  24.858  1.00  0.00     0.116 C 
BRANCH  60  61
ATOM     61  N   UNL A   1      31.900  29.684  24.493  1.00  0.00    -0.356 N 
ATOM     62  C   UNL A   1      30.725  29.309  23.916  1.00  0.00     0.223 C 
ATOM     63  H   UNL A   1      31.960  30.646  24.698  1.00  0.00     0.163 HD
ATOM     64  O   UNL A   1      29.831  30.154  23.864  1.00  0.00    -0.275 OA
BRANCH  62  65
ATOM     65  C   UNL A   1      30.463  28.007  23.247  1.00  0.00     0.091 C 
ATOM     66  C   UNL A   1      29.038  27.514  23.501  1.00  0.00     0.028 C 
ATOM     67  C   UNL A   1      30.187  26.566  23.590  1.00  0.00     0.092 C 
BRANCH  67  68
ATOM     68  C   UNL A   1      30.499  25.830  24.832  1.00  0.00     0.226 C 
ATOM     69  O   UNL A   1      30.358  26.376  25.927  1.00  0.00    -0.275 OA
ATOM     70  N   UNL A   1      30.872  24.495  24.685  1.00  0.00    -0.339 N 
ATOM     71  C   UNL A   1      31.061  23.704  25.914  1.00  0.00     0.141 C 
ATOM     72  C   UNL A   1      31.504  23.992  23.449  1.00  0.00     0.141 C 
ATOM     73  C   UNL A   1      31.091  22.179  25.694  1.00  0.00     0.139 C 
ATOM     74  C   UNL A   1      31.559  22.463  23.316  1.00  0.00     0.139 C 
ATOM     75  N   UNL A   1      32.006  21.890  24.587  1.00  0.00    -0.352 N 
BRANCH  75  76
ATOM     76  C   UNL A   1      32.667  20.675  24.570  1.00  0.00     0.147 A 
ATOM     77  N   UNL A   1      31.916  19.547  24.582  1.00  0.00    -0.237 NA
ATOM     78  C   UNL A   1      34.071  20.594  24.609  1.00  0.00     0.084 A 
ATOM     79  C   UNL A   1      32.543  18.344  24.618  1.00  0.00     0.126 A 
ATOM     80  C   UNL A   1      34.692  19.346  24.673  1.00  0.00     0.039 A 
ATOM     81  Cl  UNL A   1      35.095  21.987  24.671  1.00  0.00    -0.080 Cl
ATOM     82  C   UNL A   1      33.917  18.186  24.683  1.00  0.00     0.075 A 
BRANCH  82  83
ATOM     83  C   UNL A   1      34.541  16.826  24.734  1.00  0.00     0.417 C 
ATOM     84  F   UNL A   1      34.551  16.190  23.534  1.00  0.00    -0.166 F 
ATOM     85  F   UNL A   1      35.835  16.872  25.150  1.00  0.00    -0.166 F 
ATOM     86  F   UNL A   1      33.898  15.993  25.598  1.00  0.00    -0.166 F 
ENDBRANCH  82  83
ENDBRANCH  75  76
ENDBRANCH  67  68
ENDBRANCH  62  65
ENDBRANCH  60  61
ENDBRANCH  59  60
ENDBRANCH   1  59
TORSDOF 16
ENDMDL
MODEL 3
REMARK VINA RESULT:     -11.3      5.766     10.536
REMARK SMILES O=C(NCCCCCCNC(=O)[C@@H]1C[C@@H]1C(=O)N1CCN(c2ncc(C(F)(F)F)cc2Cl)CC1)c1ccc(-c2c3nc(c(-c4ccccc4)c4ccc([nH]4)c(-c4ccccc4)c4nc(c(-c5ccccc5)c5ccc2[nH]5)C=C4)C=C3)cc1
REMARK SMILES IDX 7 1 6 2 5 3 4 4 3 5 1 6 2 7 35 9 36 10 82 11 37 12 81 13
REMARK SMILES IDX 38 14 39 15 40 16 75 17 41 18 80 19 74 20 76 21 42 22 79 23
REMARK SMILES IDX 73 24 72 25 43 27 65 28 50 29 64 30 51 31 54 32 63 33 77 34
REMARK SMILES IDX 52 35 53 36 62 38 78 39 55 40 44 41 45 42 49 43 46 44 48 45
REMARK SMILES IDX 47 46 66 47 67 48 71 49 68 50 70 51 69 52 56 53 57 54 61 55
REMARK SMILES IDX 58 56 60 57 59 58 8 59 9 60 10 61 11 62 12 64 13 65 14 66
REMARK SMILES IDX 15 67 16 68 17 69 18 70 19 71 34 72 20 73 33 74 21 75 22 76
REMARK SMILES IDX 23 77 31 78 24 79 30 80 32 81 25 82 26 83 27 84 28 85 29 86
REMARK H PARENT 3 8 76 26 54 37 10 63
REMARK Flexibility Score: inf
ROOT
ATOM      1  C   UNL A   1      33.144  36.107  28.714  1.00  0.00     0.002 C 
ENDROOT
BRANCH   1   2
ATOM      2  C   UNL A   1      33.135  34.574  28.807  1.00  0.00     0.002 C 
BRANCH   2   3
ATOM      3  C   UNL A   1      34.466  33.870  28.525  1.00  0.00     0.021 C 
BRANCH   3   4
ATOM      4  C   UNL A   1      34.663  32.534  29.231  1.00  0.00     0.116 C 
BRANCH   4   5
ATOM      5  N   UNL A   1      34.059  31.425  28.514  1.00  0.00    -0.352 N 
ATOM      6  O   UNL A   1      33.941  29.514  27.339  1.00  0.00    -0.269 OA
ATOM      7  C   UNL A   1      34.613  30.265  28.040  1.00  0.00     0.251 C 
ATOM      8  H   UNL A   1      33.095  31.524  28.337  1.00  0.00     0.163 HD
BRANCH   7   9
ATOM      9  C   UNL A   1      36.018  29.907  28.346  1.00  0.00     0.039 A 
ATOM     10  C   UNL A   1      36.384  29.329  29.564  1.00  0.00     0.014 A 
ATOM     11  C   UNL A   1      36.982  30.095  27.349  1.00  0.00     0.014 A 
ATOM     12  C   UNL A   1      37.723  29.033  29.821  1.00  0.00     0.010 A 
ATOM     13  C   UNL A   1      38.312  29.734  27.581  1.00  0.00     0.010 A 
ATOM     14  C   UNL A   1      38.697  29.214  28.826  1.00  0.00    -0.014 A 
BRANCH  14  15
ATOM     15  C   UNL A   1      40.097  28.778  29.062  1.00  0.00     0.031 A 
ATOM     16  C   UNL A   1      40.561  27.403  28.666  1.00  0.00     0.074 A 
ATOM     17  C   UNL A   1      40.949  29.630  29.665  1.00  0.00     0.049 A 
ATOM     18  N   UNL A   1      41.739  26.856  28.830  1.00  0.00    -0.248 NA
ATOM     19  C   UNL A   1      39.579  26.529  28.006  1.00  0.00     0.031 C 
ATOM     20  C   UNL A   1      40.617  30.984  30.113  1.00  0.00     0.029 A 
ATOM     21  N   UNL A   1      42.269  29.481  30.007  1.00  0.00    -0.354 N 
ATOM     22  C   UNL A   1      41.638  25.570  28.312  1.00  0.00     0.074 A 
ATOM     23  C   UNL A   1      40.277  25.413  27.843  1.00  0.00     0.031 C 
ATOM     24  C   UNL A   1      41.708  31.551  30.649  1.00  0.00     0.029 A 
ATOM     25  C   UNL A   1      42.799  30.583  30.636  1.00  0.00     0.049 A 
ATOM     26  H   UNL A   1      42.788  28.666  29.821  1.00  0.00     0.167 HD
ATOM     27  C   UNL A   1      42.592  24.613  28.230  1.00  0.00     0.031 A 
ATOM     28  C   UNL A   1      44.019  30.787  31.165  1.00  0.00     0.031 A 
ATOM     29  C   UNL A   1      43.947  24.769  28.695  1.00  0.00     0.049 A 
ATOM     30  C   UNL A   1      45.044  29.691  31.093  1.00  0.00     0.074 A 
ATOM     31  C   UNL A   1      44.996  23.868  28.610  1.00  0.00     0.029 A 
ATOM     32  N   UNL A   1      44.437  25.893  29.340  1.00  0.00    -0.354 N 
ATOM     33  N   UNL A   1      44.945  28.504  30.548  1.00  0.00    -0.248 NA
ATOM     34  C   UNL A   1      46.349  29.968  31.709  1.00  0.00     0.031 C 
ATOM     35  C   UNL A   1      46.107  24.428  29.249  1.00  0.00     0.029 A 
ATOM     36  C   UNL A   1      45.765  25.698  29.683  1.00  0.00     0.049 A 
ATOM     37  H   UNL A   1      43.919  26.709  29.526  1.00  0.00     0.167 HD
ATOM     38  C   UNL A   1      46.181  27.900  30.736  1.00  0.00     0.074 A 
ATOM     39  C   UNL A   1      47.018  28.859  31.427  1.00  0.00     0.031 C 
ATOM     40  C   UNL A   1      46.584  26.659  30.372  1.00  0.00     0.031 A 
BRANCH  27  41
ATOM     41  C   UNL A   1      42.211  23.289  27.627  1.00  0.00    -0.014 A 
ATOM     42  C   UNL A   1      41.520  22.322  28.373  1.00  0.00     0.009 A 
ATOM     43  C   UNL A   1      42.477  23.040  26.271  1.00  0.00     0.009 A 
ATOM     44  C   UNL A   1      41.119  21.124  27.776  1.00  0.00     0.001 A 
ATOM     45  C   UNL A   1      42.055  21.851  25.672  1.00  0.00     0.001 A 
ATOM     46  C   UNL A   1      41.381  20.892  26.426  1.00  0.00     0.000 A 
ENDBRANCH  27  41
BRANCH  28  47
ATOM     47  C   UNL A   1      44.333  32.075  31.834  1.00  0.00    -0.014 A 
ATOM     48  C   UNL A   1      44.903  33.135  31.112  1.00  0.00     0.009 A 
ATOM     49  C   UNL A   1      44.078  32.245  33.203  1.00  0.00     0.009 A 
ATOM     50  C   UNL A   1      45.236  34.330  31.756  1.00  0.00     0.001 A 
ATOM     51  C   UNL A   1      44.383  33.451  33.838  1.00  0.00     0.001 A 
ATOM     52  C   UNL A   1      44.972  34.487  33.116  1.00  0.00     0.000 A 
ENDBRANCH  28  47
BRANCH  40  53
ATOM     53  C   UNL A   1      48.005  26.285  30.685  1.00  0.00    -0.014 A 
ATOM     54  C   UNL A   1      48.342  25.651  31.891  1.00  0.00     0.009 A 
ATOM     55  C   UNL A   1      49.017  26.550  29.748  1.00  0.00     0.009 A 
ATOM     56  C   UNL A   1      49.670  25.322  32.167  1.00  0.00     0.001 A 
ATOM     57  C   UNL A   1      50.339  26.195  30.015  1.00  0.00     0.001 A 
ATOM     58  C   UNL A   1      50.666  25.590  31.228  1.00  0.00     0.000 A 
ENDBRANCH  40  53
ENDBRANCH  14  15
ENDBRANCH   7   9
ENDBRANCH   4   5
ENDBRANCH   3   4
ENDBRANCH   2   3
ENDBRANCH   1   2
BRANCH   1  59
ATOM     59  C   UNL A   1      33.276  36.858  30.042  1.00  0.00     0.021 C 
BRANCH  59  60
ATOM     60  C   UNL A   1      32.521  36.243  31.219  1.00  0.00     0.116 C 
BRANCH  60  61
ATOM     61  N   UNL A   1      33.222  36.377  32.466  1.00  0.00    -0.356 N 
ATOM     62  C   UNL A   1      34.281  35.696  32.984  1.00  0.00     0.223 C 
ATOM     63  H   UNL A   1      32.876  37.091  33.050  1.00  0.00     0.163 HD
ATOM     64  O   UNL A   1      34.779  36.137  34.021  1.00  0.00    -0.275 OA
BRANCH  62  65
ATOM     65  C   UNL A   1      34.822  34.410  32.472  1.00  0.00     0.091 C 
ATOM     66  C   UNL A   1      34.041  33.210  33.008  1.00  0.00     0.028 C 
ATOM     67  C   UNL A   1      35.532  33.176  32.966  1.00  0.00     0.092 C 
BRANCH  67  68
ATOM     68  C   UNL A   1      36.347  32.997  34.185  1.00  0.00     0.226 C 
ATOM     69  O   UNL A   1      36.089  33.644  35.202  1.00  0.00    -0.275 OA
ATOM     70  N   UNL A   1      37.338  32.018  34.132  1.00  0.00    -0.339 N 
ATOM     71  C   UNL A   1      38.074  31.731  35.376  1.00  0.00     0.141 C 
ATOM     72  C   UNL A   1      37.967  31.613  32.860  1.00  0.00     0.141 C 
ATOM     73  C   UNL A   1      38.866  30.408  35.358  1.00  0.00     0.139 C 
ATOM     74  C   UNL A   1      38.793  30.319  32.920  1.00  0.00     0.139 C 
ATOM     75  N   UNL A   1      39.639  30.350  34.115  1.00  0.00    -0.352 N 
BRANCH  75  76
ATOM     76  C   UNL A   1      40.828  29.643  34.104  1.00  0.00     0.147 A 
ATOM     77  N   UNL A   1      40.916  28.569  33.283  1.00  0.00    -0.237 NA
ATOM     78  C   UNL A   1      41.896  29.973  34.958  1.00  0.00     0.084 A 
ATOM     79  C   UNL A   1      42.054  27.829  33.291  1.00  0.00     0.126 A 
ATOM     80  C   UNL A   1      43.045  29.181  34.969  1.00  0.00     0.039 A 
ATOM     81  Cl  UNL A   1      41.832  31.284  36.086  1.00  0.00    -0.080 Cl
ATOM     82  C   UNL A   1      43.134  28.077  34.121  1.00  0.00     0.075 A 
BRANCH  82  83
ATOM     83  C   UNL A   1      44.354  27.210  34.088  1.00  0.00     0.417 C 
ATOM     84  F   UNL A   1      44.409  26.394  33.004  1.00  0.00    -0.166 F 
ATOM     85  F   UNL A   1      45.501  27.940  34.073  1.00  0.00    -0.166 F 
ATOM     86  F   UNL A   1      44.442  26.397  35.177  1.00  0.00    -0.166 F 
ENDBRANCH  82  83
ENDBRANCH  75  76
ENDBRANCH  67  68
ENDBRANCH  62  65
ENDBRANCH  60  61
ENDBRANCH  59  60
ENDBRANCH   1  59
TORSDOF 16
ENDMDL
