MODEL 1
REMARK VINA RESULT:     -12.2      0.000      0.000
REMARK SMILES CC(=O)Nc1cccc(-c2ccc(F)c(C(=O)NCCCCCCNC(=O)c3ccc(-c4c5nc(c(-c6ccccc6)c6ccc([nH]6)c(-c6ccccc6)c6nc(c(-c7ccccc7)c7ccc4[nH]7)C=C6)C=C5)cc3)c2)c1
REMARK SMILES IDX 21 1 20 2 19 3 18 4 16 5 17 6 15 8 10 9 11 10 76 11 12 12
REMARK SMILES IDX 13 13 14 14 9 15 5 16 6 17 77 18 7 19 8 20 4 21 1 22 2 23
REMARK SMILES IDX 3 24 22 26 23 27 24 28 25 29 26 30 27 32 28 33 29 34 75 35
REMARK SMILES IDX 30 36 74 37 31 38 32 39 33 40 68 41 34 42 73 43 67 44 69 45
REMARK SMILES IDX 35 46 72 47 66 48 65 49 36 51 58 52 43 53 57 54 44 55 47 56
REMARK SMILES IDX 56 57 70 58 45 59 46 60 55 62 71 63 48 64 37 65 38 66 42 67
REMARK SMILES IDX 39 68 41 69 40 70 59 71 60 72 64 73 61 74 63 75 62 76 49 77
REMARK SMILES IDX 50 78 54 79 51 80 53 81 52 82
REMARK H PARENT 18 7 4 25 25 31 69 50 47 61
REMARK Flexibility Score: inf
ROOT
ATOM      1  C   UNL A   1      31.023  27.579  25.101  1.00  0.00     0.002 C 
ENDROOT
BRANCH   1   2
ATOM      2  C   UNL A   1      30.086  26.668  24.311  1.00  0.00     0.021 C 
BRANCH   2   3
ATOM      3  C   UNL A   1      30.725  25.498  23.574  1.00  0.00     0.116 C 
BRANCH   3   4
ATOM      4  N   UNL A   1      31.807  25.860  22.671  1.00  0.00    -0.352 N 
ATOM      5  C   UNL A   1      33.124  25.445  22.593  1.00  0.00     0.254 C 
ATOM      6  O   UNL A   1      33.810  25.890  21.675  1.00  0.00    -0.269 OA
ATOM      7  H   UNL A   1      31.554  26.522  21.989  1.00  0.00     0.163 HD
BRANCH   5   8
ATOM      8  C   UNL A   1      33.728  24.515  23.585  1.00  0.00     0.076 A 
ATOM      9  C   UNL A   1      34.026  22.235  24.435  1.00  0.00    -0.017 A 
ATOM     10  C   UNL A   1      34.572  22.760  25.613  1.00  0.00     0.012 A 
ATOM     11  C   UNL A   1      33.723  23.132  23.394  1.00  0.00     0.025 A 
ATOM     12  C   UNL A   1      34.737  24.140  25.759  1.00  0.00     0.041 A 
ATOM     13  C   UNL A   1      34.283  25.010  24.765  1.00  0.00     0.135 A 
ATOM     14  F   UNL A   1      34.367  26.326  25.002  1.00  0.00    -0.206 F 
BRANCH   9  15
ATOM     15  C   UNL A   1      33.614  20.823  24.301  1.00  0.00    -0.016 A 
ATOM     16  C   UNL A   1      34.208  18.447  24.359  1.00  0.00     0.041 A 
ATOM     17  C   UNL A   1      33.057  18.148  23.627  1.00  0.00     0.026 A 
ATOM     18  C   UNL A   1      34.476  19.780  24.681  1.00  0.00     0.034 A 
ATOM     19  C   UNL A   1      32.158  19.158  23.283  1.00  0.00     0.003 A 
ATOM     20  C   UNL A   1      32.433  20.484  23.621  1.00  0.00     0.009 A 
BRANCH  16  21
ATOM     21  N   UNL A   1      35.086  17.390  24.649  1.00  0.00    -0.326 N 
ATOM     22  C   UNL A   1      33.488  15.654  25.456  1.00  0.00     0.114 C 
ATOM     23  C   UNL A   1      34.883  16.189  25.265  1.00  0.00     0.221 C 
ATOM     24  O   UNL A   1      35.862  15.524  25.610  1.00  0.00    -0.275 OA
ATOM     25  H   UNL A   1      36.013  17.544  24.356  1.00  0.00     0.169 HD
ENDBRANCH  16  21
ENDBRANCH   9  15
ENDBRANCH   5   8
ENDBRANCH   3   4
ENDBRANCH   2   3
ENDBRANCH   1   2
BRANCH   1  26
ATOM     26  C   UNL A   1      31.603  27.006  26.396  1.00  0.00     0.002 C 
BRANCH  26  27
ATOM     27  C   UNL A   1      32.004  28.019  27.472  1.00  0.00     0.021 C 
BRANCH  27  28
ATOM     28  C   UNL A   1      33.398  28.622  27.333  1.00  0.00     0.116 C 
BRANCH  28  29
ATOM     29  N   UNL A   1      33.425  30.051  27.594  1.00  0.00    -0.352 N 
ATOM     30  C   UNL A   1      34.420  30.827  28.134  1.00  0.00     0.251 C 
ATOM     31  H   UNL A   1      32.605  30.536  27.344  1.00  0.00     0.163 HD
ATOM     32  O   UNL A   1      34.199  31.999  28.418  1.00  0.00    -0.269 OA
BRANCH  30  33
ATOM     33  C   UNL A   1      35.757  30.249  28.400  1.00  0.00     0.039 A 
ATOM     34  C   UNL A   1      36.706  30.253  27.373  1.00  0.00     0.014 A 
ATOM     35  C   UNL A   1      36.072  29.689  29.640  1.00  0.00     0.014 A 
ATOM     36  C   UNL A   1      37.988  29.750  27.609  1.00  0.00     0.010 A 
ATOM     37  C   UNL A   1      37.371  29.257  29.897  1.00  0.00     0.010 A 
ATOM     38  C   UNL A   1      38.342  29.279  28.883  1.00  0.00    -0.014 A 
BRANCH  38  39
ATOM     39  C   UNL A   1      39.722  28.815  29.171  1.00  0.00     0.031 A 
ATOM     40  C   UNL A   1      40.719  29.738  29.815  1.00  0.00     0.074 A 
ATOM     41  C   UNL A   1      40.102  27.580  28.789  1.00  0.00     0.049 A 
ATOM     42  N   UNL A   1      41.979  29.523  30.100  1.00  0.00    -0.248 NA
ATOM     43  C   UNL A   1      40.249  31.089  30.152  1.00  0.00     0.031 C 
ATOM     44  C   UNL A   1      39.247  26.607  28.105  1.00  0.00     0.029 A 
ATOM     45  N   UNL A   1      41.309  26.937  28.908  1.00  0.00    -0.354 N 
ATOM     46  C   UNL A   1      42.455  30.715  30.632  1.00  0.00     0.074 A 
ATOM     47  C   UNL A   1      41.363  31.663  30.580  1.00  0.00     0.031 C 
ATOM     48  C   UNL A   1      39.949  25.485  27.884  1.00  0.00     0.029 A 
ATOM     49  C   UNL A   1      41.312  25.673  28.372  1.00  0.00     0.049 A 
ATOM     50  H   UNL A   1      42.095  27.344  29.338  1.00  0.00     0.167 HD
ATOM     51  C   UNL A   1      43.683  30.992  31.132  1.00  0.00     0.031 A 
ATOM     52  C   UNL A   1      42.303  24.768  28.271  1.00  0.00     0.031 A 
ATOM     53  C   UNL A   1      44.767  30.046  31.184  1.00  0.00     0.049 A 
ATOM     54  C   UNL A   1      43.657  25.093  28.834  1.00  0.00     0.074 A 
ATOM     55  C   UNL A   1      46.025  30.206  31.739  1.00  0.00     0.029 A 
ATOM     56  N   UNL A   1      44.725  28.767  30.649  1.00  0.00    -0.354 N 
ATOM     57  N   UNL A   1      44.066  26.194  29.417  1.00  0.00    -0.248 NA
ATOM     58  C   UNL A   1      44.683  24.044  28.738  1.00  0.00     0.031 C 
ATOM     59  C   UNL A   1      46.767  29.048  31.480  1.00  0.00     0.029 A 
ATOM     60  C   UNL A   1      45.948  28.140  30.827  1.00  0.00     0.049 A 
ATOM     61  H   UNL A   1      43.942  28.364  30.209  1.00  0.00     0.167 HD
ATOM     62  C   UNL A   1      45.388  25.965  29.776  1.00  0.00     0.074 A 
ATOM     63  C   UNL A   1      45.706  24.613  29.362  1.00  0.00     0.031 C 
ATOM     64  C   UNL A   1      46.258  26.800  30.395  1.00  0.00     0.031 A 
BRANCH  51  65
ATOM     65  C   UNL A   1      43.923  32.391  31.636  1.00  0.00    -0.014 A 
ATOM     66  C   UNL A   1      43.636  32.753  32.962  1.00  0.00     0.009 A 
ATOM     67  C   UNL A   1      44.453  33.360  30.771  1.00  0.00     0.009 A 
ATOM     68  C   UNL A   1      43.824  34.068  33.395  1.00  0.00     0.001 A 
ATOM     69  C   UNL A   1      44.673  34.666  31.215  1.00  0.00     0.001 A 
ATOM     70  C   UNL A   1      44.345  35.022  32.522  1.00  0.00     0.000 A 
ENDBRANCH  51  65
BRANCH  52  71
ATOM     71  C   UNL A   1      42.037  23.463  27.611  1.00  0.00    -0.014 A 
ATOM     72  C   UNL A   1      42.394  23.250  26.270  1.00  0.00     0.009 A 
ATOM     73  C   UNL A   1      41.453  22.409  28.332  1.00  0.00     0.009 A 
ATOM     74  C   UNL A   1      42.157  22.014  25.663  1.00  0.00     0.001 A 
ATOM     75  C   UNL A   1      41.246  21.166  27.732  1.00  0.00     0.001 A 
ATOM     76  C   UNL A   1      41.592  20.972  26.395  1.00  0.00     0.000 A 
ENDBRANCH  52  71
BRANCH  64  77
ATOM     77  C   UNL A   1      47.636  26.268  30.683  1.00  0.00    -0.014 A 
ATOM     78  C   UNL A   1      48.655  26.319  29.717  1.00  0.00     0.009 A 
ATOM     79  C   UNL A   1      47.929  25.747  31.953  1.00  0.00     0.009 A 
ATOM     80  C   UNL A   1      49.929  25.826  30.010  1.00  0.00     0.001 A 
ATOM     81  C   UNL A   1      49.211  25.285  32.252  1.00  0.00     0.001 A 
ATOM     82  C   UNL A   1      50.207  25.316  31.278  1.00  0.00     0.000 A 
ENDBRANCH  64  77
ENDBRANCH  38  39
ENDBRANCH  30  33
ENDBRANCH  28  29
ENDBRANCH  27  28
ENDBRANCH  26  27
ENDBRANCH   1  26
TORSDOF 15
ENDMDL
MODEL 2
REMARK VINA RESULT:     -11.7      2.561      6.990
REMARK SMILES CC(=O)Nc1cccc(-c2ccc(F)c(C(=O)NCCCCCCNC(=O)c3ccc(-c4c5nc(c(-c6ccccc6)c6ccc([nH]6)c(-c6ccccc6)c6nc(c(-c7ccccc7)c7ccc4[nH]7)C=C6)C=C5)cc3)c2)c1
REMARK SMILES IDX 21 1 20 2 19 3 18 4 16 5 17 6 15 8 10 9 11 10 76 11 12 12
REMARK SMILES IDX 13 13 14 14 9 15 5 16 6 17 77 18 7 19 8 20 4 21 1 22 2 23
REMARK SMILES IDX 3 24 22 26 23 27 24 28 25 29 26 30 27 32 28 33 29 34 75 35
REMARK SMILES IDX 30 36 74 37 31 38 32 39 33 40 68 41 34 42 73 43 67 44 69 45
REMARK SMILES IDX 35 46 72 47 66 48 65 49 36 51 58 52 43 53 57 54 44 55 47 56
REMARK SMILES IDX 56 57 70 58 45 59 46 60 55 62 71 63 48 64 37 65 38 66 42 67
REMARK SMILES IDX 39 68 41 69 40 70 59 71 60 72 64 73 61 74 63 75 62 76 49 77
REMARK SMILES IDX 50 78 54 79 51 80 53 81 52 82
REMARK H PARENT 18 7 4 25 25 31 69 50 47 61
REMARK Flexibility Score: inf
ROOT
ATOM      1  C   UNL A   1      36.540  22.043  25.838  1.00  0.00     0.002 C 
ENDROOT
BRANCH   1   2
ATOM      2  C   UNL A   1      35.232  22.744  26.197  1.00  0.00     0.021 C 
BRANCH   2   3
ATOM      3  C   UNL A   1      34.498  22.238  27.432  1.00  0.00     0.116 C 
BRANCH   3   4
ATOM      4  N   UNL A   1      33.267  22.948  27.747  1.00  0.00    -0.352 N 
ATOM      5  C   UNL A   1      32.123  23.187  27.007  1.00  0.00     0.254 C 
ATOM      6  O   UNL A   1      31.201  23.784  27.559  1.00  0.00    -0.269 OA
ATOM      7  H   UNL A   1      33.245  23.326  28.655  1.00  0.00     0.163 HD
BRANCH   5   8
ATOM      8  C   UNL A   1      31.993  22.775  25.584  1.00  0.00     0.076 A 
ATOM      9  C   UNL A   1      32.138  21.031  23.867  1.00  0.00    -0.017 A 
ATOM     10  C   UNL A   1      32.078  22.019  22.877  1.00  0.00     0.012 A 
ATOM     11  C   UNL A   1      31.974  21.431  25.206  1.00  0.00     0.025 A 
ATOM     12  C   UNL A   1      31.931  23.363  23.231  1.00  0.00     0.041 A 
ATOM     13  C   UNL A   1      31.926  23.738  24.577  1.00  0.00     0.135 A 
ATOM     14  F   UNL A   1      31.891  25.047  24.860  1.00  0.00    -0.206 F 
BRANCH   9  15
ATOM     15  C   UNL A   1      32.518  19.632  23.584  1.00  0.00    -0.016 A 
ATOM     16  C   UNL A   1      34.068  17.766  23.925  1.00  0.00     0.041 A 
ATOM     17  C   UNL A   1      33.579  17.157  22.768  1.00  0.00     0.026 A 
ATOM     18  C   UNL A   1      33.538  18.998  24.315  1.00  0.00     0.034 A 
ATOM     19  C   UNL A   1      32.533  17.739  22.052  1.00  0.00     0.003 A 
ATOM     20  C   UNL A   1      32.004  18.965  22.460  1.00  0.00     0.009 A 
BRANCH  16  21
ATOM     21  N   UNL A   1      35.141  17.144  24.583  1.00  0.00    -0.326 N 
ATOM     22  C   UNL A   1      34.061  15.038  25.368  1.00  0.00     0.114 C 
ATOM     23  C   UNL A   1      35.198  16.025  25.363  1.00  0.00     0.221 C 
ATOM     24  O   UNL A   1      36.218  15.808  26.020  1.00  0.00    -0.275 OA
ATOM     25  H   UNL A   1      36.007  17.595  24.459  1.00  0.00     0.169 HD
ENDBRANCH  16  21
ENDBRANCH   9  15
ENDBRANCH   5   8
ENDBRANCH   3   4
ENDBRANCH   2   3
ENDBRANCH   1   2
BRANCH   1  26
ATOM     26  C   UNL A   1      36.427  20.778  24.984  1.00  0.00     0.002 C 
BRANCH  26  27
ATOM     27  C   UNL A   1      37.693  19.928  24.850  1.00  0.00     0.021 C 
BRANCH  27  28
ATOM     28  C   UNL A   1      38.862  20.328  25.744  1.00  0.00     0.116 C 
BRANCH  28  29
ATOM     29  N   UNL A   1      39.894  19.307  25.816  1.00  0.00    -0.352 N 
ATOM     30  C   UNL A   1      41.233  19.430  26.090  1.00  0.00     0.251 C 
ATOM     31  H   UNL A   1      39.585  18.389  25.643  1.00  0.00     0.163 HD
ATOM     32  O   UNL A   1      41.979  18.466  25.955  1.00  0.00    -0.269 OA
BRANCH  30  33
ATOM     33  C   UNL A   1      41.791  20.731  26.525  1.00  0.00     0.039 A 
ATOM     34  C   UNL A   1      42.151  21.667  25.551  1.00  0.00     0.014 A 
ATOM     35  C   UNL A   1      41.978  21.023  27.878  1.00  0.00     0.014 A 
ATOM     36  C   UNL A   1      42.643  22.916  25.936  1.00  0.00     0.010 A 
ATOM     37  C   UNL A   1      42.397  22.295  28.263  1.00  0.00     0.010 A 
ATOM     38  C   UNL A   1      42.738  23.254  27.295  1.00  0.00    -0.014 A 
BRANCH  38  39
ATOM     39  C   UNL A   1      43.183  24.605  27.719  1.00  0.00     0.031 A 
ATOM     40  C   UNL A   1      42.178  25.663  28.078  1.00  0.00     0.074 A 
ATOM     41  C   UNL A   1      44.497  24.904  27.714  1.00  0.00     0.049 A 
ATOM     42  N   UNL A   1      42.378  26.910  28.426  1.00  0.00    -0.248 NA
ATOM     43  C   UNL A   1      40.759  25.280  28.006  1.00  0.00     0.031 C 
ATOM     44  C   UNL A   1      45.572  23.984  27.332  1.00  0.00     0.029 A 
ATOM     45  N   UNL A   1      45.151  26.069  28.026  1.00  0.00    -0.354 N 
ATOM     46  C   UNL A   1      41.115  27.463  28.595  1.00  0.00     0.074 A 
ATOM     47  C   UNL A   1      40.157  26.432  28.260  1.00  0.00     0.031 C 
ATOM     48  C   UNL A   1      46.750  24.614  27.452  1.00  0.00     0.029 A 
ATOM     49  C   UNL A   1      46.515  25.990  27.878  1.00  0.00     0.049 A 
ATOM     50  H   UNL A   1      44.687  26.883  28.328  1.00  0.00     0.167 HD
ATOM     51  C   UNL A   1      40.782  28.710  29.006  1.00  0.00     0.031 A 
ATOM     52  C   UNL A   1      47.470  26.921  28.054  1.00  0.00     0.031 A 
ATOM     53  C   UNL A   1      41.738  29.733  29.340  1.00  0.00     0.049 A 
ATOM     54  C   UNL A   1      47.081  28.298  28.512  1.00  0.00     0.074 A 
ATOM     55  C   UNL A   1      41.502  31.003  29.838  1.00  0.00     0.029 A 
ATOM     56  N   UNL A   1      43.111  29.607  29.198  1.00  0.00    -0.354 N 
ATOM     57  N   UNL A   1      45.886  28.780  28.756  1.00  0.00    -0.248 NA
ATOM     58  C   UNL A   1      48.173  29.255  28.734  1.00  0.00     0.031 C 
ATOM     59  C   UNL A   1      42.730  31.669  29.933  1.00  0.00     0.029 A 
ATOM     60  C   UNL A   1      43.735  30.790  29.562  1.00  0.00     0.049 A 
ATOM     61  H   UNL A   1      43.575  28.797  28.885  1.00  0.00     0.167 HD
ATOM     62  C   UNL A   1      46.082  30.087  29.179  1.00  0.00     0.074 A 
ATOM     63  C   UNL A   1      47.513  30.317  29.177  1.00  0.00     0.031 C 
ATOM     64  C   UNL A   1      45.160  31.013  29.539  1.00  0.00     0.031 A 
BRANCH  51  65
ATOM     65  C   UNL A   1      39.315  29.040  29.086  1.00  0.00    -0.014 A 
ATOM     66  C   UNL A   1      38.579  28.834  30.265  1.00  0.00     0.009 A 
ATOM     67  C   UNL A   1      38.660  29.576  27.966  1.00  0.00     0.009 A 
ATOM     68  C   UNL A   1      37.209  29.106  30.301  1.00  0.00     0.001 A 
ATOM     69  C   UNL A   1      37.298  29.879  28.016  1.00  0.00     0.001 A 
ATOM     70  C   UNL A   1      36.571  29.631  29.179  1.00  0.00     0.000 A 
ENDBRANCH  51  65
BRANCH  52  71
ATOM     71  C   UNL A   1      48.891  26.570  27.797  1.00  0.00    -0.014 A 
ATOM     72  C   UNL A   1      49.725  26.143  28.842  1.00  0.00     0.009 A 
ATOM     73  C   UNL A   1      49.411  26.627  26.494  1.00  0.00     0.009 A 
ATOM     74  C   UNL A   1      51.055  25.797  28.588  1.00  0.00     0.001 A 
ATOM     75  C   UNL A   1      50.732  26.251  26.239  1.00  0.00     0.001 A 
ATOM     76  C   UNL A   1      51.554  25.843  27.288  1.00  0.00     0.000 A 
ENDBRANCH  52  71
BRANCH  64  77
ATOM     77  C   UNL A   1      45.669  32.358  29.982  1.00  0.00    -0.014 A 
ATOM     78  C   UNL A   1      46.195  32.553  31.269  1.00  0.00     0.009 A 
ATOM     79  C   UNL A   1      45.660  33.435  29.081  1.00  0.00     0.009 A 
ATOM     80  C   UNL A   1      46.669  33.809  31.654  1.00  0.00     0.001 A 
ATOM     81  C   UNL A   1      46.164  34.680  29.458  1.00  0.00     0.001 A 
ATOM     82  C   UNL A   1      46.659  34.869  30.748  1.00  0.00     0.000 A 
ENDBRANCH  64  77
ENDBRANCH  38  39
ENDBRANCH  30  33
ENDBRANCH  28  29
ENDBRANCH  27  28
ENDBRANCH  26  27
ENDBRANCH   1  26
TORSDOF 15
ENDMDL
MODEL 3
REMARK VINA RESULT:     -11.6      1.788      2.210
REMARK SMILES CC(=O)Nc1cccc(-c2ccc(F)c(C(=O)NCCCCCCNC(=O)c3ccc(-c4c5nc(c(-c6ccccc6)c6ccc([nH]6)c(-c6ccccc6)c6nc(c(-c7ccccc7)c7ccc4[nH]7)C=C6)C=C5)cc3)c2)c1
REMARK SMILES IDX 21 1 20 2 19 3 18 4 16 5 17 6 15 8 10 9 11 10 76 11 12 12
REMARK SMILES IDX 13 13 14 14 9 15 5 16 6 17 77 18 7 19 8 20 4 21 1 22 2 23
REMARK SMILES IDX 3 24 22 26 23 27 24 28 25 29 26 30 27 32 28 33 29 34 75 35
REMARK SMILES IDX 30 36 74 37 31 38 32 39 33 40 68 41 34 42 73 43 67 44 69 45
REMARK SMILES IDX 35 46 72 47 66 48 65 49 36 51 58 52 43 53 57 54 44 55 47 56
REMARK SMILES IDX 56 57 70 58 45 59 46 60 55 62 71 63 48 64 37 65 38 66 42 67
REMARK SMILES IDX 39 68 41 69 40 70 59 71 60 72 64 73 61 74 63 75 62 76 49 77
REMARK SMILES IDX 50 78 54 79 51 80 53 81 52 82
REMARK H PARENT 18 7 4 25 25 31 69 50 47 61
REMARK Flexibility Score: inf
ROOT
ATOM      1  C   UNL A   1      31.445  27.038  26.578  1.00  0.00     0.002 C 
ENDROOT
BRANCH   1   2
ATOM      2  C   UNL A   1      31.196  27.370  25.108  1.00  0.00     0.021 C 
BRANCH   2   3
ATOM      3  C   UNL A   1      31.175  26.200  24.133  1.00  0.00     0.116 C 
BRANCH   3   4
ATOM      4  N   UNL A   1      32.193  26.248  23.096  1.00  0.00    -0.352 N 
ATOM      5  C   UNL A   1      33.352  25.518  22.903  1.00  0.00     0.254 C 
ATOM      6  O   UNL A   1      34.008  25.744  21.888  1.00  0.00    -0.269 OA
ATOM      7  H   UNL A   1      32.026  26.926  22.402  1.00  0.00     0.163 HD
BRANCH   5   8
ATOM      8  C   UNL A   1      33.830  24.507  23.884  1.00  0.00     0.076 A 
ATOM      9  C   UNL A   1      33.975  22.170  24.609  1.00  0.00    -0.017 A 
ATOM     10  C   UNL A   1      34.425  22.600  25.863  1.00  0.00     0.012 A 
ATOM     11  C   UNL A   1      33.800  23.140  23.604  1.00  0.00     0.025 A 
ATOM     12  C   UNL A   1      34.620  23.962  26.112  1.00  0.00     0.041 A 
ATOM     13  C   UNL A   1      34.288  24.907  25.139  1.00  0.00     0.135 A 
ATOM     14  F   UNL A   1      34.392  26.203  25.467  1.00  0.00    -0.206 F 
BRANCH   9  15
ATOM     15  C   UNL A   1      33.533  20.785  24.346  1.00  0.00    -0.016 A 
ATOM     16  C   UNL A   1      34.054  18.392  24.271  1.00  0.00     0.041 A 
ATOM     17  C   UNL A   1      32.947  18.184  23.447  1.00  0.00     0.026 A 
ATOM     18  C   UNL A   1      34.338  19.690  24.705  1.00  0.00     0.034 A 
ATOM     19  C   UNL A   1      32.102  19.245  23.118  1.00  0.00     0.003 A 
ATOM     20  C   UNL A   1      32.391  20.534  23.569  1.00  0.00     0.009 A 
BRANCH  16  21
ATOM     21  N   UNL A   1      34.880  17.289  24.540  1.00  0.00    -0.326 N 
ATOM     22  C   UNL A   1      33.203  15.623  25.334  1.00  0.00     0.114 C 
ATOM     23  C   UNL A   1      34.622  16.091  25.140  1.00  0.00     0.221 C 
ATOM     24  O   UNL A   1      35.568  15.373  25.470  1.00  0.00    -0.275 OA
ATOM     25  H   UNL A   1      35.812  17.401  24.243  1.00  0.00     0.169 HD
ENDBRANCH  16  21
ENDBRANCH   9  15
ENDBRANCH   5   8
ENDBRANCH   3   4
ENDBRANCH   2   3
ENDBRANCH   1   2
BRANCH   1  26
ATOM     26  C   UNL A   1      31.743  28.219  27.505  1.00  0.00     0.002 C 
BRANCH  26  27
ATOM     27  C   UNL A   1      32.151  29.531  26.830  1.00  0.00     0.021 C 
BRANCH  27  28
ATOM     28  C   UNL A   1      33.568  30.017  27.117  1.00  0.00     0.116 C 
BRANCH  28  29
ATOM     29  N   UNL A   1      33.607  31.378  27.624  1.00  0.00    -0.352 N 
ATOM     30  C   UNL A   1      34.505  31.972  28.476  1.00  0.00     0.251 C 
ATOM     31  H   UNL A   1      32.881  31.962  27.307  1.00  0.00     0.163 HD
ATOM     32  O   UNL A   1      34.286  33.096  28.912  1.00  0.00    -0.269 OA
BRANCH  30  33
ATOM     33  C   UNL A   1      35.729  31.250  28.893  1.00  0.00     0.039 A 
ATOM     34  C   UNL A   1      36.962  31.674  28.388  1.00  0.00     0.014 A 
ATOM     35  C   UNL A   1      35.667  30.155  29.758  1.00  0.00     0.014 A 
ATOM     36  C   UNL A   1      38.136  31.036  28.796  1.00  0.00     0.010 A 
ATOM     37  C   UNL A   1      36.842  29.569  30.222  1.00  0.00     0.010 A 
ATOM     38  C   UNL A   1      38.089  30.000  29.742  1.00  0.00    -0.014 A 
BRANCH  38  39
ATOM     39  C   UNL A   1      39.334  29.366  30.246  1.00  0.00     0.031 A 
ATOM     40  C   UNL A   1      40.011  29.888  31.482  1.00  0.00     0.074 A 
ATOM     41  C   UNL A   1      39.896  28.361  29.547  1.00  0.00     0.049 A 
ATOM     42  N   UNL A   1      41.126  29.491  32.044  1.00  0.00    -0.248 NA
ATOM     43  C   UNL A   1      39.368  31.025  32.159  1.00  0.00     0.031 C 
ATOM     44  C   UNL A   1      39.370  27.799  28.301  1.00  0.00     0.029 A 
ATOM     45  N   UNL A   1      41.042  27.642  29.779  1.00  0.00    -0.354 N 
ATOM     46  C   UNL A   1      41.327  30.340  33.125  1.00  0.00     0.074 A 
ATOM     47  C   UNL A   1      40.248  31.304  33.109  1.00  0.00     0.031 C 
ATOM     48  C   UNL A   1      40.179  26.811  27.890  1.00  0.00     0.029 A 
ATOM     49  C   UNL A   1      41.300  26.696  28.817  1.00  0.00     0.049 A 
ATOM     50  H   UNL A   1      41.622  27.790  30.560  1.00  0.00     0.167 HD
ATOM     51  C   UNL A   1      42.310  30.311  34.056  1.00  0.00     0.031 A 
ATOM     52  C   UNL A   1      42.329  25.838  28.687  1.00  0.00     0.031 A 
ATOM     53  C   UNL A   1      43.382  29.350  34.070  1.00  0.00     0.049 A 
ATOM     54  C   UNL A   1      43.409  25.820  29.731  1.00  0.00     0.074 A 
ATOM     55  C   UNL A   1      44.384  29.189  35.012  1.00  0.00     0.029 A 
ATOM     56  N   UNL A   1      43.597  28.393  33.090  1.00  0.00    -0.354 N 
ATOM     57  N   UNL A   1      43.537  26.569  30.799  1.00  0.00    -0.248 NA
ATOM     58  C   UNL A   1      44.479  24.827  29.559  1.00  0.00     0.031 C 
ATOM     59  C   UNL A   1      45.245  28.180  34.565  1.00  0.00     0.029 A 
ATOM     60  C   UNL A   1      44.739  27.664  33.383  1.00  0.00     0.049 A 
ATOM     61  H   UNL A   1      43.024  28.252  32.302  1.00  0.00     0.167 HD
ATOM     62  C   UNL A   1      44.688  26.126  31.438  1.00  0.00     0.074 A 
ATOM     63  C   UNL A   1      45.210  25.030  30.647  1.00  0.00     0.031 C 
ATOM     64  C   UNL A   1      45.258  26.586  32.579  1.00  0.00     0.031 A 
BRANCH  51  65
ATOM     65  C   UNL A   1      42.284  31.376  35.120  1.00  0.00    -0.014 A 
ATOM     66  C   UNL A   1      41.564  31.204  36.314  1.00  0.00     0.009 A 
ATOM     67  C   UNL A   1      43.000  32.568  34.929  1.00  0.00     0.009 A 
ATOM     68  C   UNL A   1      41.517  32.225  37.267  1.00  0.00     0.001 A 
ATOM     69  C   UNL A   1      42.980  33.573  35.899  1.00  0.00     0.001 A 
ATOM     70  C   UNL A   1      42.227  33.406  37.060  1.00  0.00     0.000 A 
ENDBRANCH  51  65
BRANCH  52  71
ATOM     71  C   UNL A   1      42.375  24.923  27.517  1.00  0.00    -0.014 A 
ATOM     72  C   UNL A   1      43.053  25.289  26.344  1.00  0.00     0.009 A 
ATOM     73  C   UNL A   1      41.765  23.659  27.581  1.00  0.00     0.009 A 
ATOM     74  C   UNL A   1      43.106  24.415  25.256  1.00  0.00     0.001 A 
ATOM     75  C   UNL A   1      41.846  22.776  26.503  1.00  0.00     0.001 A 
ATOM     76  C   UNL A   1      42.511  23.157  25.339  1.00  0.00     0.000 A 
ENDBRANCH  52  71
BRANCH  64  77
ATOM     77  C   UNL A   1      46.506  25.890  33.054  1.00  0.00    -0.014 A 
ATOM     78  C   UNL A   1      46.441  24.753  33.874  1.00  0.00     0.009 A 
ATOM     79  C   UNL A   1      47.763  26.359  32.639  1.00  0.00     0.009 A 
ATOM     80  C   UNL A   1      47.612  24.120  34.296  1.00  0.00     0.001 A 
ATOM     81  C   UNL A   1      48.930  25.706  33.037  1.00  0.00     0.001 A 
ATOM     82  C   UNL A   1      48.854  24.593  33.873  1.00  0.00     0.000 A 
ENDBRANCH  64  77
ENDBRANCH  38  39
ENDBRANCH  30  33
ENDBRANCH  28  29
ENDBRANCH  27  28
ENDBRANCH  26  27
ENDBRANCH   1  26
TORSDOF 15
ENDMDL
