MODEL 1
REMARK VINA RESULT:     -11.0      0.000      0.000
REMARK SMILES O=C(NCCCCCCNC(=O)[C@@H]1C[C@@H]2CC[C@H]1N2C(=O)c1ccncc1Cl)c1ccc(-c2c3nc(c(-c4ccccc4)c4ccc([nH]4)c(-c4ccccc4)c4nc(c(-c5ccccc5)c5ccc2[nH]5)C=C4)C=C3)cc1
REMARK SMILES IDX 6 1 5 2 4 3 3 4 1 5 2 6 29 8 30 9 76 10 31 11 75 12 32 13
REMARK SMILES IDX 33 14 34 15 69 16 35 17 74 18 68 19 70 20 36 21 73 22 67 23
REMARK SMILES IDX 66 24 37 26 59 27 44 28 58 29 45 30 48 31 57 32 71 33 46 34
REMARK SMILES IDX 47 35 56 37 72 38 49 39 38 40 39 41 43 42 40 43 42 44 41 45
REMARK SMILES IDX 60 46 61 47 65 48 62 49 64 50 63 51 50 52 51 53 55 54 52 55
REMARK SMILES IDX 54 56 53 57 7 58 8 59 9 60 10 61 11 62 12 64 13 65 14 66
REMARK SMILES IDX 18 67 15 68 17 69 19 70 16 71 20 72 21 73 22 74 23 75 27 76
REMARK SMILES IDX 24 77 26 78 28 79 25 80
REMARK H PARENT 3 7 70 25 48 36 10 63
REMARK Flexibility Score: inf
ROOT
ATOM      1  C   UNL A   1      31.137  30.982  25.637  1.00  0.00     0.002 C 
ENDROOT
BRANCH   1   2
ATOM      2  C   UNL A   1      31.053  32.231  26.514  1.00  0.00     0.021 C 
BRANCH   2   3
ATOM      3  C   UNL A   1      32.403  32.741  26.995  1.00  0.00     0.116 C 
BRANCH   3   4
ATOM      4  N   UNL A   1      32.299  34.048  27.622  1.00  0.00    -0.352 N 
ATOM      5  O   UNL A   1      32.768  35.623  29.174  1.00  0.00    -0.269 OA
ATOM      6  C   UNL A   1      33.093  34.586  28.601  1.00  0.00     0.251 C 
ATOM      7  H   UNL A   1      31.564  34.620  27.301  1.00  0.00     0.163 HD
BRANCH   6   8
ATOM      8  C   UNL A   1      34.346  33.897  28.967  1.00  0.00     0.039 A 
ATOM      9  C   UNL A   1      35.523  34.165  28.262  1.00  0.00     0.014 A 
ATOM     10  C   UNL A   1      34.345  32.988  30.026  1.00  0.00     0.014 A 
ATOM     11  C   UNL A   1      36.677  33.451  28.551  1.00  0.00     0.010 A 
ATOM     12  C   UNL A   1      35.529  32.334  30.373  1.00  0.00     0.010 A 
ATOM     13  C   UNL A   1      36.702  32.562  29.637  1.00  0.00    -0.014 A 
BRANCH  13  14
ATOM     14  C   UNL A   1      38.002  32.006  30.082  1.00  0.00     0.031 A 
ATOM     15  C   UNL A   1      38.547  30.728  29.519  1.00  0.00     0.074 A 
ATOM     16  C   UNL A   1      38.678  32.681  31.034  1.00  0.00     0.049 A 
ATOM     17  N   UNL A   1      39.652  30.103  29.837  1.00  0.00    -0.248 NA
ATOM     18  C   UNL A   1      37.756  30.060  28.473  1.00  0.00     0.031 C 
ATOM     19  C   UNL A   1      38.231  33.932  31.660  1.00  0.00     0.029 A 
ATOM     20  N   UNL A   1      39.878  32.421  31.641  1.00  0.00    -0.354 N 
ATOM     21  C   UNL A   1      39.680  28.957  29.052  1.00  0.00     0.074 A 
ATOM     22  C   UNL A   1      38.478  28.967  28.245  1.00  0.00     0.031 C 
ATOM     23  C   UNL A   1      39.155  34.340  32.540  1.00  0.00     0.029 A 
ATOM     24  C   UNL A   1      40.218  33.346  32.598  1.00  0.00     0.049 A 
ATOM     25  H   UNL A   1      40.441  31.646  31.414  1.00  0.00     0.167 HD
ATOM     26  C   UNL A   1      40.625  27.989  29.016  1.00  0.00     0.031 A 
ATOM     27  C   UNL A   1      41.247  33.373  33.463  1.00  0.00     0.031 A 
ATOM     28  C   UNL A   1      41.819  27.993  29.824  1.00  0.00     0.049 A 
ATOM     29  C   UNL A   1      42.245  32.253  33.431  1.00  0.00     0.074 A 
ATOM     30  C   UNL A   1      42.868  27.090  29.809  1.00  0.00     0.029 A 
ATOM     31  N   UNL A   1      42.113  28.930  30.801  1.00  0.00    -0.354 N 
ATOM     32  N   UNL A   1      42.300  31.223  32.624  1.00  0.00    -0.248 NA
ATOM     33  C   UNL A   1      43.317  32.297  34.433  1.00  0.00     0.031 C 
ATOM     34  C   UNL A   1      43.759  27.438  30.828  1.00  0.00     0.029 A 
ATOM     35  C   UNL A   1      43.299  28.596  31.432  1.00  0.00     0.049 A 
ATOM     36  H   UNL A   1      41.560  29.717  31.014  1.00  0.00     0.167 HD
ATOM     37  C   UNL A   1      43.419  30.501  33.014  1.00  0.00     0.074 A 
ATOM     38  C   UNL A   1      44.031  31.230  34.105  1.00  0.00     0.031 C 
ATOM     39  C   UNL A   1      43.890  29.330  32.520  1.00  0.00     0.031 A 
BRANCH  26  40
ATOM     40  C   UNL A   1      40.410  26.812  28.105  1.00  0.00    -0.014 A 
ATOM     41  C   UNL A   1      41.013  26.744  26.841  1.00  0.00     0.009 A 
ATOM     42  C   UNL A   1      39.680  25.706  28.570  1.00  0.00     0.009 A 
ATOM     43  C   UNL A   1      40.879  25.595  26.056  1.00  0.00     0.001 A 
ATOM     44  C   UNL A   1      39.568  24.551  27.795  1.00  0.00     0.001 A 
ATOM     45  C   UNL A   1      40.165  24.498  26.537  1.00  0.00     0.000 A 
ENDBRANCH  26  40
BRANCH  27  46
ATOM     46  C   UNL A   1      41.346  34.458  34.475  1.00  0.00    -0.014 A 
ATOM     47  C   UNL A   1      42.052  35.637  34.200  1.00  0.00     0.009 A 
ATOM     48  C   UNL A   1      40.750  34.303  35.737  1.00  0.00     0.009 A 
ATOM     49  C   UNL A   1      42.192  36.621  35.182  1.00  0.00     0.001 A 
ATOM     50  C   UNL A   1      40.858  35.304  36.704  1.00  0.00     0.001 A 
ATOM     51  C   UNL A   1      41.593  36.456  36.430  1.00  0.00     0.000 A 
ENDBRANCH  27  46
BRANCH  39  52
ATOM     52  C   UNL A   1      45.135  28.777  33.151  1.00  0.00    -0.014 A 
ATOM     53  C   UNL A   1      45.062  27.856  34.207  1.00  0.00     0.009 A 
ATOM     54  C   UNL A   1      46.394  29.151  32.657  1.00  0.00     0.009 A 
ATOM     55  C   UNL A   1      46.228  27.341  34.776  1.00  0.00     0.001 A 
ATOM     56  C   UNL A   1      47.558  28.610  33.206  1.00  0.00     0.001 A 
ATOM     57  C   UNL A   1      47.474  27.713  34.270  1.00  0.00     0.000 A 
ENDBRANCH  39  52
ENDBRANCH  13  14
ENDBRANCH   6   8
ENDBRANCH   3   4
ENDBRANCH   2   3
ENDBRANCH   1   2
BRANCH   1  58
ATOM     58  C   UNL A   1      32.321  30.062  25.950  1.00  0.00     0.002 C 
BRANCH  58  59
ATOM     59  C   UNL A   1      32.060  29.019  27.045  1.00  0.00     0.021 C 
BRANCH  59  60
ATOM     60  C   UNL A   1      32.333  27.581  26.609  1.00  0.00     0.116 C 
BRANCH  60  61
ATOM     61  N   UNL A   1      31.172  26.749  26.857  1.00  0.00    -0.356 N 
ATOM     62  C   UNL A   1      30.665  25.733  26.107  1.00  0.00     0.225 C 
ATOM     63  H   UNL A   1      30.683  26.945  27.689  1.00  0.00     0.163 HD
ATOM     64  O   UNL A   1      29.554  25.292  26.394  1.00  0.00    -0.275 OA
BRANCH  62  65
ATOM     65  C   UNL A   1      31.522  25.158  25.001  1.00  0.00     0.103 C 
ATOM     66  C   UNL A   1      30.764  24.220  24.020  1.00  0.00     0.040 C 
ATOM     67  C   UNL A   1      32.625  24.225  25.561  1.00  0.00     0.098 C 
ATOM     68  C   UNL A   1      31.538  22.897  24.155  1.00  0.00     0.086 C 
ATOM     69  C   UNL A   1      31.998  23.175  26.502  1.00  0.00     0.028 C 
ATOM     70  N   UNL A   1      32.875  23.393  24.399  1.00  0.00    -0.332 N 
ATOM     71  C   UNL A   1      31.209  22.275  25.524  1.00  0.00     0.027 C 
BRANCH  70  72
ATOM     72  C   UNL A   1      33.971  23.137  23.626  1.00  0.00     0.256 C 
ATOM     73  O   UNL A   1      34.048  23.449  22.441  1.00  0.00    -0.269 OA
BRANCH  72  74
ATOM     74  C   UNL A   1      35.160  22.531  24.250  1.00  0.00     0.061 A 
ATOM     75  C   UNL A   1      36.312  23.323  24.308  1.00  0.00     0.035 A 
ATOM     76  C   UNL A   1      35.209  21.207  24.676  1.00  0.00     0.072 A 
ATOM     77  C   UNL A   1      37.460  22.774  24.848  1.00  0.00     0.112 A 
ATOM     78  C   UNL A   1      36.404  20.759  25.220  1.00  0.00     0.132 A 
ATOM     79  Cl  UNL A   1      33.915  20.089  24.505  1.00  0.00    -0.082 Cl
ATOM     80  N   UNL A   1      37.524  21.515  25.331  1.00  0.00    -0.263 NA
ENDBRANCH  72  74
ENDBRANCH  70  72
ENDBRANCH  62  65
ENDBRANCH  60  61
ENDBRANCH  59  60
ENDBRANCH  58  59
ENDBRANCH   1  58
TORSDOF 15
ENDMDL
MODEL 2
REMARK VINA RESULT:     -10.9      0.512      5.932
REMARK SMILES O=C(NCCCCCCNC(=O)[C@@H]1C[C@@H]2CC[C@H]1N2C(=O)c1ccncc1Cl)c1ccc(-c2c3nc(c(-c4ccccc4)c4ccc([nH]4)c(-c4ccccc4)c4nc(c(-c5ccccc5)c5ccc2[nH]5)C=C4)C=C3)cc1
REMARK SMILES IDX 6 1 5 2 4 3 3 4 1 5 2 6 29 8 30 9 76 10 31 11 75 12 32 13
REMARK SMILES IDX 33 14 34 15 69 16 35 17 74 18 68 19 70 20 36 21 73 22 67 23
REMARK SMILES IDX 66 24 37 26 59 27 44 28 58 29 45 30 48 31 57 32 71 33 46 34
REMARK SMILES IDX 47 35 56 37 72 38 49 39 38 40 39 41 43 42 40 43 42 44 41 45
REMARK SMILES IDX 60 46 61 47 65 48 62 49 64 50 63 51 50 52 51 53 55 54 52 55
REMARK SMILES IDX 54 56 53 57 7 58 8 59 9 60 10 61 11 62 12 64 13 65 14 66
REMARK SMILES IDX 18 67 15 68 17 69 19 70 16 71 20 72 21 73 22 74 23 75 27 76
REMARK SMILES IDX 24 77 26 78 28 79 25 80
REMARK H PARENT 3 7 70 25 48 36 10 63
REMARK Flexibility Score: inf
ROOT
ATOM      1  C   UNL A   1      31.151  30.853  25.616  1.00  0.00     0.002 C 
ENDROOT
BRANCH   1   2
ATOM      2  C   UNL A   1      31.059  32.075  26.529  1.00  0.00     0.021 C 
BRANCH   2   3
ATOM      3  C   UNL A   1      32.404  32.562  27.048  1.00  0.00     0.116 C 
BRANCH   3   4
ATOM      4  N   UNL A   1      32.321  33.904  27.600  1.00  0.00    -0.352 N 
ATOM      5  O   UNL A   1      32.823  35.557  29.057  1.00  0.00    -0.269 OA
ATOM      6  C   UNL A   1      33.130  34.486  28.542  1.00  0.00     0.251 C 
ATOM      7  H   UNL A   1      31.591  34.466  27.254  1.00  0.00     0.163 HD
BRANCH   6   8
ATOM      8  C   UNL A   1      34.378  33.803  28.935  1.00  0.00     0.039 A 
ATOM      9  C   UNL A   1      35.540  33.977  28.178  1.00  0.00     0.014 A 
ATOM     10  C   UNL A   1      34.388  32.994  30.073  1.00  0.00     0.014 A 
ATOM     11  C   UNL A   1      36.686  33.265  28.499  1.00  0.00     0.010 A 
ATOM     12  C   UNL A   1      35.567  32.347  30.447  1.00  0.00     0.010 A 
ATOM     13  C   UNL A   1      36.724  32.478  29.662  1.00  0.00    -0.014 A 
BRANCH  13  14
ATOM     14  C   UNL A   1      38.023  31.934  30.121  1.00  0.00     0.031 A 
ATOM     15  C   UNL A   1      38.908  32.695  31.062  1.00  0.00     0.074 A 
ATOM     16  C   UNL A   1      38.400  30.730  29.645  1.00  0.00     0.049 A 
ATOM     17  N   UNL A   1      40.087  32.362  31.523  1.00  0.00    -0.248 NA
ATOM     18  C   UNL A   1      38.418  33.995  31.547  1.00  0.00     0.031 C 
ATOM     19  C   UNL A   1      37.618  29.909  28.712  1.00  0.00     0.029 A 
ATOM     20  N   UNL A   1      39.526  29.984  29.876  1.00  0.00    -0.354 N 
ATOM     21  C   UNL A   1      40.492  33.416  32.330  1.00  0.00     0.074 A 
ATOM     22  C   UNL A   1      39.437  34.407  32.294  1.00  0.00     0.031 C 
ATOM     23  C   UNL A   1      38.275  28.766  28.473  1.00  0.00     0.029 A 
ATOM     24  C   UNL A   1      39.554  28.806  29.170  1.00  0.00     0.049 A 
ATOM     25  H   UNL A   1      40.244  30.265  30.488  1.00  0.00     0.167 HD
ATOM     26  C   UNL A   1      41.643  33.540  33.032  1.00  0.00     0.031 A 
ATOM     27  C   UNL A   1      40.519  27.877  29.055  1.00  0.00     0.031 A 
ATOM     28  C   UNL A   1      42.685  32.544  33.061  1.00  0.00     0.049 A 
ATOM     29  C   UNL A   1      41.804  28.075  29.804  1.00  0.00     0.074 A 
ATOM     30  C   UNL A   1      43.857  32.550  33.796  1.00  0.00     0.029 A 
ATOM     31  N   UNL A   1      42.689  31.379  32.311  1.00  0.00    -0.354 N 
ATOM     32  N   UNL A   1      42.134  29.038  30.629  1.00  0.00    -0.248 NA
ATOM     33  C   UNL A   1      42.849  27.064  29.601  1.00  0.00     0.031 C 
ATOM     34  C   UNL A   1      44.607  31.427  33.434  1.00  0.00     0.029 A 
ATOM     35  C   UNL A   1      43.869  30.687  32.524  1.00  0.00     0.049 A 
ATOM     36  H   UNL A   1      41.962  31.087  31.714  1.00  0.00     0.167 HD
ATOM     37  C   UNL A   1      43.422  28.743  31.053  1.00  0.00     0.074 A 
ATOM     38  C   UNL A   1      43.797  27.495  30.421  1.00  0.00     0.031 C 
ATOM     39  C   UNL A   1      44.228  29.450  31.881  1.00  0.00     0.031 A 
BRANCH  26  40
ATOM     40  C   UNL A   1      41.876  34.807  33.807  1.00  0.00    -0.014 A 
ATOM     41  C   UNL A   1      41.492  34.927  35.150  1.00  0.00     0.009 A 
ATOM     42  C   UNL A   1      42.593  35.857  33.209  1.00  0.00     0.009 A 
ATOM     43  C   UNL A   1      41.811  36.078  35.876  1.00  0.00     0.001 A 
ATOM     44  C   UNL A   1      42.931  36.996  33.943  1.00  0.00     0.001 A 
ATOM     45  C   UNL A   1      42.537  37.106  35.275  1.00  0.00     0.000 A 
ENDBRANCH  26  40
BRANCH  27  46
ATOM     46  C   UNL A   1      40.336  26.715  28.145  1.00  0.00    -0.014 A 
ATOM     47  C   UNL A   1      39.718  25.540  28.593  1.00  0.00     0.009 A 
ATOM     48  C   UNL A   1      40.806  26.773  26.823  1.00  0.00     0.009 A 
ATOM     49  C   UNL A   1      39.610  24.433  27.747  1.00  0.00     0.001 A 
ATOM     50  C   UNL A   1      40.662  25.680  25.967  1.00  0.00     0.001 A 
ATOM     51  C   UNL A   1      40.078  24.505  26.436  1.00  0.00     0.000 A 
ENDBRANCH  27  46
BRANCH  39  52
ATOM     52  C   UNL A   1      45.589  28.879  32.159  1.00  0.00    -0.014 A 
ATOM     53  C   UNL A   1      46.687  29.200  31.346  1.00  0.00     0.009 A 
ATOM     54  C   UNL A   1      45.783  28.043  33.269  1.00  0.00     0.009 A 
ATOM     55  C   UNL A   1      47.948  28.670  31.623  1.00  0.00     0.001 A 
ATOM     56  C   UNL A   1      47.052  27.541  33.563  1.00  0.00     0.001 A 
ATOM     57  C   UNL A   1      48.131  27.848  32.734  1.00  0.00     0.000 A 
ENDBRANCH  39  52
ENDBRANCH  13  14
ENDBRANCH   6   8
ENDBRANCH   3   4
ENDBRANCH   2   3
ENDBRANCH   1   2
BRANCH   1  58
ATOM     58  C   UNL A   1      32.310  29.904  25.935  1.00  0.00     0.002 C 
BRANCH  58  59
ATOM     59  C   UNL A   1      32.043  28.917  27.080  1.00  0.00     0.021 C 
BRANCH  59  60
ATOM     60  C   UNL A   1      32.358  27.464  26.731  1.00  0.00     0.116 C 
BRANCH  60  61
ATOM     61  N   UNL A   1      31.201  26.624  26.972  1.00  0.00    -0.356 N 
ATOM     62  C   UNL A   1      30.692  25.620  26.208  1.00  0.00     0.225 C 
ATOM     63  H   UNL A   1      30.716  26.805  27.809  1.00  0.00     0.163 HD
ATOM     64  O   UNL A   1      29.584  25.170  26.494  1.00  0.00    -0.275 OA
BRANCH  62  65
ATOM     65  C   UNL A   1      31.544  25.065  25.087  1.00  0.00     0.103 C 
ATOM     66  C   UNL A   1      30.770  24.193  24.060  1.00  0.00     0.040 C 
ATOM     67  C   UNL A   1      32.613  24.077  25.619  1.00  0.00     0.098 C 
ATOM     68  C   UNL A   1      31.502  22.842  24.147  1.00  0.00     0.086 C 
ATOM     69  C   UNL A   1      31.943  23.008  26.509  1.00  0.00     0.028 C 
ATOM     70  N   UNL A   1      32.850  23.287  24.426  1.00  0.00    -0.332 N 
ATOM     71  C   UNL A   1      31.139  22.175  25.485  1.00  0.00     0.027 C 
BRANCH  70  72
ATOM     72  C   UNL A   1      33.947  23.031  23.653  1.00  0.00     0.256 C 
ATOM     73  O   UNL A   1      34.014  23.315  22.461  1.00  0.00    -0.269 OA
BRANCH  72  74
ATOM     74  C   UNL A   1      35.149  22.459  24.287  1.00  0.00     0.061 A 
ATOM     75  C   UNL A   1      36.292  23.265  24.305  1.00  0.00     0.035 A 
ATOM     76  C   UNL A   1      35.217  21.151  24.757  1.00  0.00     0.072 A 
ATOM     77  C   UNL A   1      37.452  22.747  24.852  1.00  0.00     0.112 A 
ATOM     78  C   UNL A   1      36.422  20.735  25.304  1.00  0.00     0.132 A 
ATOM     79  Cl  UNL A   1      33.933  20.015  24.638  1.00  0.00    -0.082 Cl
ATOM     80  N   UNL A   1      37.534  21.507  25.378  1.00  0.00    -0.263 NA
ENDBRANCH  72  74
ENDBRANCH  70  72
ENDBRANCH  62  65
ENDBRANCH  60  61
ENDBRANCH  59  60
ENDBRANCH  58  59
ENDBRANCH   1  58
TORSDOF 15
ENDMDL
MODEL 3
REMARK VINA RESULT:     -10.9      4.221      9.399
REMARK SMILES O=C(NCCCCCCNC(=O)[C@@H]1C[C@@H]2CC[C@H]1N2C(=O)c1ccncc1Cl)c1ccc(-c2c3nc(c(-c4ccccc4)c4ccc([nH]4)c(-c4ccccc4)c4nc(c(-c5ccccc5)c5ccc2[nH]5)C=C4)C=C3)cc1
REMARK SMILES IDX 6 1 5 2 4 3 3 4 1 5 2 6 29 8 30 9 76 10 31 11 75 12 32 13
REMARK SMILES IDX 33 14 34 15 69 16 35 17 74 18 68 19 70 20 36 21 73 22 67 23
REMARK SMILES IDX 66 24 37 26 59 27 44 28 58 29 45 30 48 31 57 32 71 33 46 34
REMARK SMILES IDX 47 35 56 37 72 38 49 39 38 40 39 41 43 42 40 43 42 44 41 45
REMARK SMILES IDX 60 46 61 47 65 48 62 49 64 50 63 51 50 52 51 53 55 54 52 55
REMARK SMILES IDX 54 56 53 57 7 58 8 59 9 60 10 61 11 62 12 64 13 65 14 66
REMARK SMILES IDX 18 67 15 68 17 69 19 70 16 71 20 72 21 73 22 74 23 75 27 76
REMARK SMILES IDX 24 77 26 78 28 79 25 80
REMARK H PARENT 3 7 70 25 48 36 10 63
REMARK Flexibility Score: inf
ROOT
ATOM      1  C   UNL A   1      36.719  20.452  25.006  1.00  0.00     0.002 C 
ENDROOT
BRANCH   1   2
ATOM      2  C   UNL A   1      38.139  19.976  24.707  1.00  0.00     0.021 C 
BRANCH   2   3
ATOM      3  C   UNL A   1      39.122  20.210  25.844  1.00  0.00     0.116 C 
BRANCH   3   4
ATOM      4  N   UNL A   1      40.131  19.166  25.914  1.00  0.00    -0.352 N 
ATOM      5  O   UNL A   1      42.238  18.347  25.935  1.00  0.00    -0.269 OA
ATOM      6  C   UNL A   1      41.484  19.304  26.093  1.00  0.00     0.251 C 
ATOM      7  H   UNL A   1      39.801  18.244  25.822  1.00  0.00     0.163 HD
BRANCH   6   8
ATOM      8  C   UNL A   1      42.026  20.623  26.473  1.00  0.00     0.039 A 
ATOM      9  C   UNL A   1      42.480  21.503  25.487  1.00  0.00     0.014 A 
ATOM     10  C   UNL A   1      42.069  20.985  27.820  1.00  0.00     0.014 A 
ATOM     11  C   UNL A   1      43.070  22.705  25.853  1.00  0.00     0.010 A 
ATOM     12  C   UNL A   1      42.582  22.232  28.182  1.00  0.00     0.010 A 
ATOM     13  C   UNL A   1      43.085  23.099  27.200  1.00  0.00    -0.014 A 
BRANCH  13  14
ATOM     14  C   UNL A   1      43.486  24.485  27.539  1.00  0.00     0.031 A 
ATOM     15  C   UNL A   1      42.478  25.523  27.933  1.00  0.00     0.074 A 
ATOM     16  C   UNL A   1      44.796  24.795  27.462  1.00  0.00     0.049 A 
ATOM     17  N   UNL A   1      42.676  26.784  28.223  1.00  0.00    -0.248 NA
ATOM     18  C   UNL A   1      41.069  25.102  28.008  1.00  0.00     0.031 C 
ATOM     19  C   UNL A   1      45.862  23.861  27.076  1.00  0.00     0.029 A 
ATOM     20  N   UNL A   1      45.459  25.969  27.703  1.00  0.00    -0.354 N 
ATOM     21  C   UNL A   1      41.421  27.315  28.490  1.00  0.00     0.074 A 
ATOM     22  C   UNL A   1      40.463  26.241  28.322  1.00  0.00     0.031 C 
ATOM     23  C   UNL A   1      47.042  24.492  27.132  1.00  0.00     0.029 A 
ATOM     24  C   UNL A   1      46.812  25.888  27.480  1.00  0.00     0.049 A 
ATOM     25  H   UNL A   1      45.009  26.791  28.006  1.00  0.00     0.167 HD
ATOM     26  C   UNL A   1      41.105  28.583  28.840  1.00  0.00     0.031 A 
ATOM     27  C   UNL A   1      47.762  26.838  27.508  1.00  0.00     0.031 A 
ATOM     28  C   UNL A   1      42.069  29.642  29.006  1.00  0.00     0.049 A 
ATOM     29  C   UNL A   1      47.366  28.245  27.846  1.00  0.00     0.074 A 
ATOM     30  C   UNL A   1      41.852  30.943  29.424  1.00  0.00     0.029 A 
ATOM     31  N   UNL A   1      43.425  29.527  28.744  1.00  0.00    -0.354 N 
ATOM     32  N   UNL A   1      46.186  28.710  28.178  1.00  0.00    -0.248 NA
ATOM     33  C   UNL A   1      48.428  29.258  27.805  1.00  0.00     0.031 C 
ATOM     34  C   UNL A   1      43.062  31.637  29.342  1.00  0.00     0.029 A 
ATOM     35  C   UNL A   1      44.046  30.749  28.938  1.00  0.00     0.049 A 
ATOM     36  H   UNL A   1      43.878  28.700  28.461  1.00  0.00     0.167 HD
ATOM     37  C   UNL A   1      46.367  30.068  28.397  1.00  0.00     0.074 A 
ATOM     38  C   UNL A   1      47.774  30.343  28.194  1.00  0.00     0.031 C 
ATOM     39  C   UNL A   1      45.446  31.006  28.725  1.00  0.00     0.031 A 
BRANCH  26  40
ATOM     40  C   UNL A   1      39.655  28.931  29.038  1.00  0.00    -0.014 A 
ATOM     41  C   UNL A   1      38.850  29.355  27.971  1.00  0.00     0.009 A 
ATOM     42  C   UNL A   1      39.063  28.723  30.295  1.00  0.00     0.009 A 
ATOM     43  C   UNL A   1      37.482  29.574  28.163  1.00  0.00     0.001 A 
ATOM     44  C   UNL A   1      37.694  28.919  30.478  1.00  0.00     0.001 A 
ATOM     45  C   UNL A   1      36.905  29.347  29.412  1.00  0.00     0.000 A 
ENDBRANCH  26  40
BRANCH  27  46
ATOM     46  C   UNL A   1      49.164  26.506  27.139  1.00  0.00    -0.014 A 
ATOM     47  C   UNL A   1      49.600  26.596  25.810  1.00  0.00     0.009 A 
ATOM     48  C   UNL A   1      50.068  26.072  28.122  1.00  0.00     0.009 A 
ATOM     49  C   UNL A   1      50.901  26.219  25.468  1.00  0.00     0.001 A 
ATOM     50  C   UNL A   1      51.380  25.733  27.784  1.00  0.00     0.001 A 
ATOM     51  C   UNL A   1      51.790  25.793  26.453  1.00  0.00     0.000 A 
ENDBRANCH  27  46
BRANCH  39  52
ATOM     52  C   UNL A   1      45.939  32.414  28.895  1.00  0.00    -0.014 A 
ATOM     53  C   UNL A   1      45.900  33.328  27.831  1.00  0.00     0.009 A 
ATOM     54  C   UNL A   1      46.412  32.842  30.146  1.00  0.00     0.009 A 
ATOM     55  C   UNL A   1      46.352  34.636  28.008  1.00  0.00     0.001 A 
ATOM     56  C   UNL A   1      46.832  34.161  30.329  1.00  0.00     0.001 A 
ATOM     57  C   UNL A   1      46.810  35.053  29.258  1.00  0.00     0.000 A 
ENDBRANCH  39  52
ENDBRANCH  13  14
ENDBRANCH   6   8
ENDBRANCH   3   4
ENDBRANCH   2   3
ENDBRANCH   1   2
BRANCH   1  58
ATOM     58  C   UNL A   1      36.324  21.760  24.310  1.00  0.00     0.002 C 
BRANCH  58  59
ATOM     59  C   UNL A   1      37.030  23.014  24.842  1.00  0.00     0.021 C 
BRANCH  59  60
ATOM     60  C   UNL A   1      36.253  23.748  25.933  1.00  0.00     0.116 C 
BRANCH  60  61
ATOM     61  N   UNL A   1      35.486  22.808  26.726  1.00  0.00    -0.356 N 
ATOM     62  C   UNL A   1      34.187  22.876  27.125  1.00  0.00     0.225 C 
ATOM     63  H   UNL A   1      35.976  22.004  27.017  1.00  0.00     0.163 HD
ATOM     64  O   UNL A   1      33.789  22.072  27.965  1.00  0.00    -0.275 OA
BRANCH  62  65
ATOM     65  C   UNL A   1      33.285  23.895  26.464  1.00  0.00     0.103 C 
ATOM     66  C   UNL A   1      31.827  23.912  27.005  1.00  0.00     0.040 C 
ATOM     67  C   UNL A   1      33.074  23.581  24.961  1.00  0.00     0.098 C 
ATOM     68  C   UNL A   1      30.998  23.611  25.744  1.00  0.00     0.086 C 
ATOM     69  C   UNL A   1      32.625  22.114  24.789  1.00  0.00     0.028 C 
ATOM     70  N   UNL A   1      31.809  24.253  24.732  1.00  0.00    -0.332 N 
ATOM     71  C   UNL A   1      31.193  22.131  25.372  1.00  0.00     0.027 C 
BRANCH  70  72
ATOM     72  C   UNL A   1      31.398  25.258  23.904  1.00  0.00     0.256 C 
ATOM     73  O   UNL A   1      30.580  25.098  23.003  1.00  0.00    -0.269 OA
BRANCH  72  74
ATOM     74  C   UNL A   1      31.890  26.627  24.144  1.00  0.00     0.061 A 
ATOM     75  C   UNL A   1      31.255  27.352  25.159  1.00  0.00     0.035 A 
ATOM     76  C   UNL A   1      32.858  27.241  23.356  1.00  0.00     0.072 A 
ATOM     77  C   UNL A   1      31.660  28.655  25.385  1.00  0.00     0.112 A 
ATOM     78  C   UNL A   1      33.205  28.545  23.678  1.00  0.00     0.132 A 
ATOM     79  Cl  UNL A   1      33.588  26.512  21.982  1.00  0.00    -0.082 Cl
ATOM     80  N   UNL A   1      32.642  29.259  24.684  1.00  0.00    -0.263 NA
ENDBRANCH  72  74
ENDBRANCH  70  72
ENDBRANCH  62  65
ENDBRANCH  60  61
ENDBRANCH  59  60
ENDBRANCH  58  59
ENDBRANCH   1  58
TORSDOF 15
ENDMDL
