MODEL 1
REMARK VINA RESULT:     -10.9      0.000      0.000
REMARK SMILES CC1=NN(c2ccc(C(=O)NCCCCCCNC(=O)c3ccc(-c4c5nc(c(-c6ccccc6)c6ccc([nH]6)c(-c6ccccc6)c6nc(c(-c7ccccc7)c7ccc4[nH]7)C=C6)C=C5)cc3)cc2)C(=O)/C1=C\c1ccc(N2CCCC2)cc1
REMARK SMILES IDX 14 1 13 2 12 3 11 4 9 5 10 6 8 8 5 9 6 10 70 11 7 12 69 13
REMARK SMILES IDX 4 14 1 15 2 16 3 17 73 18 71 19 74 20 72 21 75 22 76 23
REMARK SMILES IDX 85 24 77 25 84 26 78 27 79 28 80 29 83 30 81 31 82 32 15 33
REMARK SMILES IDX 16 34 17 35 18 36 19 37 20 39 21 40 22 41 68 42 23 43 67 44
REMARK SMILES IDX 24 45 25 46 26 47 61 48 27 49 66 50 60 51 62 52 28 53 65 54
REMARK SMILES IDX 59 55 58 56 29 58 51 59 36 60 50 61 37 62 40 63 49 64 63 65
REMARK SMILES IDX 38 66 39 67 48 69 64 70 41 71 30 72 31 73 35 74 32 75 34 76
REMARK SMILES IDX 33 77 52 78 53 79 57 80 54 81 56 82 55 83 42 84 43 85 47 86
REMARK SMILES IDX 44 87 46 88 45 89
REMARK H PARENT 11 7 18 38 62 57 40 68
REMARK Flexibility Score: inf
ROOT
ATOM      1  C   UNL A   1      40.796  27.690  27.914  1.00  0.00     0.002 C 
ENDROOT
BRANCH   1   2
ATOM      2  C   UNL A   1      41.659  28.362  28.991  1.00  0.00     0.021 C 
BRANCH   2   3
ATOM      3  C   UNL A   1      41.383  27.804  30.390  1.00  0.00     0.116 C 
BRANCH   3   4
ATOM      4  N   UNL A   1      41.310  28.895  31.342  1.00  0.00    -0.352 N 
ATOM      5  C   UNL A   1      40.419  29.921  31.524  1.00  0.00     0.251 C 
ATOM      6  O   UNL A   1      40.675  30.743  32.404  1.00  0.00    -0.269 OA
ATOM      7  H   UNL A   1      42.053  28.902  31.988  1.00  0.00     0.163 HD
BRANCH   5   8
ATOM      8  C   UNL A   1      39.137  30.039  30.771  1.00  0.00     0.039 A 
ATOM      9  C   UNL A   1      36.729  30.607  29.448  1.00  0.00     0.069 A 
ATOM     10  C   UNL A   1      37.910  31.204  29.012  1.00  0.00     0.029 A 
ATOM     11  C   UNL A   1      36.769  29.658  30.468  1.00  0.00     0.029 A 
ATOM     12  C   UNL A   1      39.102  30.949  29.701  1.00  0.00     0.016 A 
ATOM     13  C   UNL A   1      37.979  29.324  31.072  1.00  0.00     0.016 A 
BRANCH   9  14
ATOM     14  N   UNL A   1      35.495  30.960  28.893  1.00  0.00    -0.196 N 
ATOM     15  C   UNL A   1      33.314  33.662  27.999  1.00  0.00     0.069 C 
ATOM     16  C   UNL A   1      34.033  32.378  28.234  1.00  0.00     0.071 C 
ATOM     17  N   UNL A   1      35.032  32.253  29.068  1.00  0.00    -0.169 NA
ATOM     18  C   UNL A   1      33.715  31.115  27.541  1.00  0.00     0.065 C 
ATOM     19  C   UNL A   1      34.815  30.202  27.933  1.00  0.00     0.280 C 
ATOM     20  C   UNL A   1      32.633  30.841  26.800  1.00  0.00     0.024 C 
ATOM     21  O   UNL A   1      35.054  29.095  27.497  1.00  0.00    -0.267 OA
BRANCH  20  22
ATOM     22  C   UNL A   1      32.289  29.484  26.357  1.00  0.00    -0.025 A 
ATOM     23  C   UNL A   1      31.689  28.567  27.218  1.00  0.00     0.010 A 
ATOM     24  C   UNL A   1      32.564  29.092  25.043  1.00  0.00     0.010 A 
ATOM     25  C   UNL A   1      31.345  27.287  26.754  1.00  0.00     0.026 A 
ATOM     26  C   UNL A   1      32.228  27.811  24.595  1.00  0.00     0.026 A 
ATOM     27  C   UNL A   1      31.612  26.880  25.438  1.00  0.00     0.037 A 
BRANCH  27  28
ATOM     28  N   UNL A   1      31.251  25.625  25.001  1.00  0.00    -0.372 N 
ATOM     29  C   UNL A   1      31.977  24.403  25.329  1.00  0.00     0.116 C 
ATOM     30  C   UNL A   1      30.489  25.487  23.759  1.00  0.00     0.116 C 
ATOM     31  C   UNL A   1      31.969  23.618  24.023  1.00  0.00     0.023 C 
ATOM     32  C   UNL A   1      30.639  24.008  23.396  1.00  0.00     0.023 C 
ENDBRANCH  27  28
ENDBRANCH  20  22
ENDBRANCH   9  14
ENDBRANCH   5   8
ENDBRANCH   3   4
ENDBRANCH   2   3
ENDBRANCH   1   2
BRANCH   1  33
ATOM     33  C   UNL A   1      39.566  26.953  28.461  1.00  0.00     0.002 C 
BRANCH  33  34
ATOM     34  C   UNL A   1      39.538  25.454  28.157  1.00  0.00     0.021 C 
BRANCH  34  35
ATOM     35  C   UNL A   1      39.779  25.123  26.689  1.00  0.00     0.116 C 
BRANCH  35  36
ATOM     36  N   UNL A   1      40.502  23.869  26.539  1.00  0.00    -0.352 N 
ATOM     37  C   UNL A   1      41.819  23.661  26.225  1.00  0.00     0.251 C 
ATOM     38  H   UNL A   1      39.969  23.054  26.684  1.00  0.00     0.163 HD
ATOM     39  O   UNL A   1      42.208  22.551  25.875  1.00  0.00    -0.269 OA
BRANCH  37  40
ATOM     40  C   UNL A   1      42.771  24.787  26.302  1.00  0.00     0.039 A 
ATOM     41  C   UNL A   1      43.353  25.101  27.532  1.00  0.00     0.014 A 
ATOM     42  C   UNL A   1      43.080  25.533  25.162  1.00  0.00     0.014 A 
ATOM     43  C   UNL A   1      44.292  26.131  27.604  1.00  0.00     0.010 A 
ATOM     44  C   UNL A   1      44.071  26.506  25.221  1.00  0.00     0.010 A 
ATOM     45  C   UNL A   1      44.684  26.817  26.443  1.00  0.00    -0.014 A 
BRANCH  45  46
ATOM     46  C   UNL A   1      45.738  27.861  26.484  1.00  0.00     0.031 A 
ATOM     47  C   UNL A   1      45.360  29.310  26.626  1.00  0.00     0.074 A 
ATOM     48  C   UNL A   1      47.030  27.508  26.336  1.00  0.00     0.049 A 
ATOM     49  N   UNL A   1      46.130  30.368  26.606  1.00  0.00    -0.248 NA
ATOM     50  C   UNL A   1      43.928  29.611  26.794  1.00  0.00     0.031 C 
ATOM     51  C   UNL A   1      47.524  26.138  26.168  1.00  0.00     0.029 A 
ATOM     52  N   UNL A   1      48.167  28.275  26.298  1.00  0.00    -0.354 N 
ATOM     53  C   UNL A   1      45.278  31.456  26.755  1.00  0.00     0.074 A 
ATOM     54  C   UNL A   1      43.930  30.936  26.805  1.00  0.00     0.031 C 
ATOM     55  C   UNL A   1      48.863  26.162  26.075  1.00  0.00     0.029 A 
ATOM     56  C   UNL A   1      49.319  27.547  26.123  1.00  0.00     0.049 A 
ATOM     57  H   UNL A   1      48.159  29.256  26.390  1.00  0.00     0.167 HD
ATOM     58  C   UNL A   1      45.592  32.769  26.863  1.00  0.00     0.031 A 
ATOM     59  C   UNL A   1      50.597  27.950  26.001  1.00  0.00     0.031 A 
ATOM     60  C   UNL A   1      46.933  33.286  26.810  1.00  0.00     0.049 A 
ATOM     61  C   UNL A   1      50.907  29.422  26.061  1.00  0.00     0.074 A 
ATOM     62  C   UNL A   1      47.356  34.599  26.937  1.00  0.00     0.029 A 
ATOM     63  N   UNL A   1      48.069  32.517  26.614  1.00  0.00    -0.354 N 
ATOM     64  N   UNL A   1      50.096  30.433  26.255  1.00  0.00    -0.248 NA
ATOM     65  C   UNL A   1      52.316  29.806  25.892  1.00  0.00     0.031 C 
ATOM     66  C   UNL A   1      48.742  34.629  26.760  1.00  0.00     0.029 A 
ATOM     67  C   UNL A   1      49.190  33.329  26.592  1.00  0.00     0.049 A 
ATOM     68  H   UNL A   1      48.078  31.538  26.507  1.00  0.00     0.167 HD
ATOM     69  C   UNL A   1      50.899  31.566  26.268  1.00  0.00     0.074 A 
ATOM     70  C   UNL A   1      52.262  31.115  26.084  1.00  0.00     0.031 C 
ATOM     71  C   UNL A   1      50.541  32.865  26.416  1.00  0.00     0.031 A 
BRANCH  58  72
ATOM     72  C   UNL A   1      44.462  33.742  27.054  1.00  0.00    -0.014 A 
ATOM     73  C   UNL A   1      44.000  34.072  28.338  1.00  0.00     0.009 A 
ATOM     74  C   UNL A   1      43.893  34.384  25.943  1.00  0.00     0.009 A 
ATOM     75  C   UNL A   1      42.973  35.004  28.503  1.00  0.00     0.001 A 
ATOM     76  C   UNL A   1      42.887  35.337  26.113  1.00  0.00     0.001 A 
ATOM     77  C   UNL A   1      42.424  35.641  27.392  1.00  0.00     0.000 A 
ENDBRANCH  58  72
BRANCH  59  78
ATOM     78  C   UNL A   1      51.689  26.960  25.798  1.00  0.00    -0.014 A 
ATOM     79  C   UNL A   1      52.134  26.643  24.505  1.00  0.00     0.009 A 
ATOM     80  C   UNL A   1      52.258  26.289  26.893  1.00  0.00     0.009 A 
ATOM     81  C   UNL A   1      53.089  25.643  24.309  1.00  0.00     0.001 A 
ATOM     82  C   UNL A   1      53.240  25.316  26.696  1.00  0.00     0.001 A 
ATOM     83  C   UNL A   1      53.643  24.982  25.404  1.00  0.00     0.000 A 
ENDBRANCH  59  78
BRANCH  71  84
ATOM     84  C   UNL A   1      51.645  33.885  26.437  1.00  0.00    -0.014 A 
ATOM     85  C   UNL A   1      52.298  34.234  27.630  1.00  0.00     0.009 A 
ATOM     86  C   UNL A   1      52.060  34.481  25.236  1.00  0.00     0.009 A 
ATOM     87  C   UNL A   1      53.317  35.189  27.623  1.00  0.00     0.001 A 
ATOM     88  C   UNL A   1      53.101  35.409  25.227  1.00  0.00     0.001 A 
ATOM     89  C   UNL A   1      53.721  35.772  26.421  1.00  0.00     0.000 A 
ENDBRANCH  71  84
ENDBRANCH  45  46
ENDBRANCH  37  40
ENDBRANCH  35  36
ENDBRANCH  34  35
ENDBRANCH  33  34
ENDBRANCH   1  33
TORSDOF 16
ENDMDL
MODEL 2
REMARK VINA RESULT:     -10.7      0.260      5.577
REMARK SMILES CC1=NN(c2ccc(C(=O)NCCCCCCNC(=O)c3ccc(-c4c5nc(c(-c6ccccc6)c6ccc([nH]6)c(-c6ccccc6)c6nc(c(-c7ccccc7)c7ccc4[nH]7)C=C6)C=C5)cc3)cc2)C(=O)/C1=C\c1ccc(N2CCCC2)cc1
REMARK SMILES IDX 14 1 13 2 12 3 11 4 9 5 10 6 8 8 5 9 6 10 70 11 7 12 69 13
REMARK SMILES IDX 4 14 1 15 2 16 3 17 73 18 71 19 74 20 72 21 75 22 76 23
REMARK SMILES IDX 85 24 77 25 84 26 78 27 79 28 80 29 83 30 81 31 82 32 15 33
REMARK SMILES IDX 16 34 17 35 18 36 19 37 20 39 21 40 22 41 68 42 23 43 67 44
REMARK SMILES IDX 24 45 25 46 26 47 61 48 27 49 66 50 60 51 62 52 28 53 65 54
REMARK SMILES IDX 59 55 58 56 29 58 51 59 36 60 50 61 37 62 40 63 49 64 63 65
REMARK SMILES IDX 38 66 39 67 48 69 64 70 41 71 30 72 31 73 35 74 32 75 34 76
REMARK SMILES IDX 33 77 52 78 53 79 57 80 54 81 56 82 55 83 42 84 43 85 47 86
REMARK SMILES IDX 44 87 46 88 45 89
REMARK H PARENT 11 7 18 38 62 57 40 68
REMARK Flexibility Score: inf
ROOT
ATOM      1  C   UNL A   1      40.830  27.576  27.884  1.00  0.00     0.002 C 
ENDROOT
BRANCH   1   2
ATOM      2  C   UNL A   1      41.599  28.374  28.945  1.00  0.00     0.021 C 
BRANCH   2   3
ATOM      3  C   UNL A   1      41.401  27.809  30.355  1.00  0.00     0.116 C 
BRANCH   3   4
ATOM      4  N   UNL A   1      41.320  28.899  31.308  1.00  0.00    -0.352 N 
ATOM      5  C   UNL A   1      40.428  29.925  31.482  1.00  0.00     0.251 C 
ATOM      6  O   UNL A   1      40.676  30.746  32.366  1.00  0.00    -0.269 OA
ATOM      7  H   UNL A   1      42.056  28.904  31.961  1.00  0.00     0.163 HD
BRANCH   5   8
ATOM      8  C   UNL A   1      39.154  30.046  30.716  1.00  0.00     0.039 A 
ATOM      9  C   UNL A   1      36.742  30.610  29.398  1.00  0.00     0.069 A 
ATOM     10  C   UNL A   1      37.899  31.299  29.039  1.00  0.00     0.029 A 
ATOM     11  C   UNL A   1      36.814  29.579  30.334  1.00  0.00     0.029 A 
ATOM     12  C   UNL A   1      39.090  31.043  29.728  1.00  0.00     0.016 A 
ATOM     13  C   UNL A   1      38.028  29.252  30.931  1.00  0.00     0.016 A 
BRANCH   9  14
ATOM     14  N   UNL A   1      35.501  30.950  28.851  1.00  0.00    -0.196 N 
ATOM     15  C   UNL A   1      33.273  33.627  27.995  1.00  0.00     0.069 C 
ATOM     16  C   UNL A   1      34.014  32.352  28.213  1.00  0.00     0.071 C 
ATOM     17  N   UNL A   1      35.017  32.232  29.043  1.00  0.00    -0.169 NA
ATOM     18  C   UNL A   1      33.715  31.091  27.505  1.00  0.00     0.065 C 
ATOM     19  C   UNL A   1      34.830  30.192  27.883  1.00  0.00     0.280 C 
ATOM     20  C   UNL A   1      32.635  30.809  26.764  1.00  0.00     0.024 C 
ATOM     21  O   UNL A   1      35.086  29.095  27.434  1.00  0.00    -0.267 OA
BRANCH  20  22
ATOM     22  C   UNL A   1      32.312  29.453  26.305  1.00  0.00    -0.025 A 
ATOM     23  C   UNL A   1      31.688  28.530  27.143  1.00  0.00     0.010 A 
ATOM     24  C   UNL A   1      32.633  29.066  25.000  1.00  0.00     0.010 A 
ATOM     25  C   UNL A   1      31.364  27.251  26.663  1.00  0.00     0.026 A 
ATOM     26  C   UNL A   1      32.317  27.785  24.537  1.00  0.00     0.026 A 
ATOM     27  C   UNL A   1      31.678  26.849  25.356  1.00  0.00     0.037 A 
BRANCH  27  28
ATOM     28  N   UNL A   1      31.337  25.594  24.903  1.00  0.00    -0.372 N 
ATOM     29  C   UNL A   1      32.201  24.423  25.006  1.00  0.00     0.116 C 
ATOM     30  C   UNL A   1      30.370  25.460  23.813  1.00  0.00     0.116 C 
ATOM     31  C   UNL A   1      32.009  23.715  23.670  1.00  0.00     0.023 C 
ATOM     32  C   UNL A   1      30.560  24.022  23.324  1.00  0.00     0.023 C 
ENDBRANCH  27  28
ENDBRANCH  20  22
ENDBRANCH   9  14
ENDBRANCH   5   8
ENDBRANCH   3   4
ENDBRANCH   2   3
ENDBRANCH   1   2
BRANCH   1  33
ATOM     33  C   UNL A   1      39.553  26.902  28.404  1.00  0.00     0.002 C 
BRANCH  33  34
ATOM     34  C   UNL A   1      39.553  25.376  28.300  1.00  0.00     0.021 C 
BRANCH  34  35
ATOM     35  C   UNL A   1      39.908  24.857  26.912  1.00  0.00     0.116 C 
BRANCH  35  36
ATOM     36  N   UNL A   1      40.705  23.642  26.988  1.00  0.00    -0.352 N 
ATOM     37  C   UNL A   1      42.045  23.469  26.761  1.00  0.00     0.251 C 
ATOM     38  H   UNL A   1      40.210  22.828  27.236  1.00  0.00     0.163 HD
ATOM     39  O   UNL A   1      42.510  22.345  26.604  1.00  0.00    -0.269 OA
BRANCH  37  40
ATOM     40  C   UNL A   1      42.930  24.650  26.701  1.00  0.00     0.039 A 
ATOM     41  C   UNL A   1      43.538  25.105  27.873  1.00  0.00     0.014 A 
ATOM     42  C   UNL A   1      43.149  25.308  25.488  1.00  0.00     0.014 A 
ATOM     43  C   UNL A   1      44.415  26.188  27.815  1.00  0.00     0.010 A 
ATOM     44  C   UNL A   1      44.081  26.338  25.420  1.00  0.00     0.010 A 
ATOM     45  C   UNL A   1      44.721  26.790  26.583  1.00  0.00    -0.014 A 
BRANCH  45  46
ATOM     46  C   UNL A   1      45.710  27.892  26.489  1.00  0.00     0.031 A 
ATOM     47  C   UNL A   1      47.175  27.581  26.352  1.00  0.00     0.074 A 
ATOM     48  C   UNL A   1      45.293  29.170  26.584  1.00  0.00     0.049 A 
ATOM     49  N   UNL A   1      48.194  28.402  26.330  1.00  0.00    -0.248 NA
ATOM     50  C   UNL A   1      47.546  26.160  26.243  1.00  0.00     0.031 C 
ATOM     51  C   UNL A   1      43.902  29.602  26.740  1.00  0.00     0.029 A 
ATOM     52  N   UNL A   1      46.003  30.344  26.566  1.00  0.00    -0.354 N 
ATOM     53  C   UNL A   1      49.322  27.600  26.210  1.00  0.00     0.074 A 
ATOM     54  C   UNL A   1      48.870  26.227  26.222  1.00  0.00     0.031 C 
ATOM     55  C   UNL A   1      43.859  30.943  26.775  1.00  0.00     0.029 A 
ATOM     56  C   UNL A   1      45.219  31.465  26.697  1.00  0.00     0.049 A 
ATOM     57  H   UNL A   1      46.982  30.381  26.467  1.00  0.00     0.167 HD
ATOM     58  C   UNL A   1      50.617  27.974  26.078  1.00  0.00     0.031 A 
ATOM     59  C   UNL A   1      45.558  32.766  26.761  1.00  0.00     0.031 A 
ATOM     60  C   UNL A   1      51.067  29.340  26.069  1.00  0.00     0.049 A 
ATOM     61  C   UNL A   1      47.012  33.146  26.676  1.00  0.00     0.074 A 
ATOM     62  C   UNL A   1      52.356  29.822  25.914  1.00  0.00     0.029 A 
ATOM     63  N   UNL A   1      50.242  30.444  26.222  1.00  0.00    -0.354 N 
ATOM     64  N   UNL A   1      48.061  32.378  26.509  1.00  0.00    -0.248 NA
ATOM     65  C   UNL A   1      47.327  34.578  26.781  1.00  0.00     0.031 C 
ATOM     66  C   UNL A   1      52.318  31.214  26.031  1.00  0.00     0.029 A 
ATOM     67  C   UNL A   1      50.998  31.604  26.189  1.00  0.00     0.049 A 
ATOM     68  H   UNL A   1      49.265  30.408  26.336  1.00  0.00     0.167 HD
ATOM     69  C   UNL A   1      49.153  33.235  26.452  1.00  0.00     0.074 A 
ATOM     70  C   UNL A   1      48.636  34.581  26.581  1.00  0.00     0.031 C 
ATOM     71  C   UNL A   1      50.467  32.937  26.310  1.00  0.00     0.031 A 
BRANCH  58  72
ATOM     72  C   UNL A   1      51.644  26.887  25.929  1.00  0.00    -0.014 A 
ATOM     73  C   UNL A   1      52.024  26.420  24.660  1.00  0.00     0.009 A 
ATOM     74  C   UNL A   1      52.285  26.365  27.063  1.00  0.00     0.009 A 
ATOM     75  C   UNL A   1      53.005  25.433  24.534  1.00  0.00     0.001 A 
ATOM     76  C   UNL A   1      53.287  25.402  26.932  1.00  0.00     0.001 A 
ATOM     77  C   UNL A   1      53.641  24.932  25.668  1.00  0.00     0.000 A 
ENDBRANCH  58  72
BRANCH  59  78
ATOM     78  C   UNL A   1      44.516  33.815  26.923  1.00  0.00    -0.014 A 
ATOM     79  C   UNL A   1      44.104  34.218  28.204  1.00  0.00     0.009 A 
ATOM     80  C   UNL A   1      43.892  34.383  25.802  1.00  0.00     0.009 A 
ATOM     81  C   UNL A   1      43.057  35.130  28.356  1.00  0.00     0.001 A 
ATOM     82  C   UNL A   1      42.871  35.322  25.957  1.00  0.00     0.001 A 
ATOM     83  C   UNL A   1      42.443  35.683  27.234  1.00  0.00     0.000 A 
ENDBRANCH  59  78
BRANCH  71  84
ATOM     84  C   UNL A   1      51.431  34.088  26.234  1.00  0.00    -0.014 A 
ATOM     85  C   UNL A   1      52.047  34.604  27.385  1.00  0.00     0.009 A 
ATOM     86  C   UNL A   1      51.751  34.643  24.985  1.00  0.00     0.009 A 
ATOM     87  C   UNL A   1      52.934  35.679  27.288  1.00  0.00     0.001 A 
ATOM     88  C   UNL A   1      52.664  35.692  24.888  1.00  0.00     0.001 A 
ATOM     89  C   UNL A   1      53.246  36.218  26.040  1.00  0.00     0.000 A 
ENDBRANCH  71  84
ENDBRANCH  45  46
ENDBRANCH  37  40
ENDBRANCH  35  36
ENDBRANCH  34  35
ENDBRANCH  33  34
ENDBRANCH   1  33
TORSDOF 16
ENDMDL
MODEL 3
REMARK VINA RESULT:     -10.5      6.872     13.061
REMARK SMILES CC1=NN(c2ccc(C(=O)NCCCCCCNC(=O)c3ccc(-c4c5nc(c(-c6ccccc6)c6ccc([nH]6)c(-c6ccccc6)c6nc(c(-c7ccccc7)c7ccc4[nH]7)C=C6)C=C5)cc3)cc2)C(=O)/C1=C\c1ccc(N2CCCC2)cc1
REMARK SMILES IDX 14 1 13 2 12 3 11 4 9 5 10 6 8 8 5 9 6 10 70 11 7 12 69 13
REMARK SMILES IDX 4 14 1 15 2 16 3 17 73 18 71 19 74 20 72 21 75 22 76 23
REMARK SMILES IDX 85 24 77 25 84 26 78 27 79 28 80 29 83 30 81 31 82 32 15 33
REMARK SMILES IDX 16 34 17 35 18 36 19 37 20 39 21 40 22 41 68 42 23 43 67 44
REMARK SMILES IDX 24 45 25 46 26 47 61 48 27 49 66 50 60 51 62 52 28 53 65 54
REMARK SMILES IDX 59 55 58 56 29 58 51 59 36 60 50 61 37 62 40 63 49 64 63 65
REMARK SMILES IDX 38 66 39 67 48 69 64 70 41 71 30 72 31 73 35 74 32 75 34 76
REMARK SMILES IDX 33 77 52 78 53 79 57 80 54 81 56 82 55 83 42 84 43 85 47 86
REMARK SMILES IDX 44 87 46 88 45 89
REMARK H PARENT 11 7 18 38 62 57 40 68
REMARK Flexibility Score: inf
ROOT
ATOM      1  C   UNL A   1      34.050  36.129  32.851  1.00  0.00     0.002 C 
ENDROOT
BRANCH   1   2
ATOM      2  C   UNL A   1      35.205  35.119  32.881  1.00  0.00     0.021 C 
BRANCH   2   3
ATOM      3  C   UNL A   1      34.971  33.995  33.895  1.00  0.00     0.116 C 
BRANCH   3   4
ATOM      4  N   UNL A   1      35.617  32.782  33.433  1.00  0.00    -0.352 N 
ATOM      5  C   UNL A   1      36.738  32.105  33.840  1.00  0.00     0.251 C 
ATOM      6  O   UNL A   1      37.069  31.115  33.187  1.00  0.00    -0.269 OA
ATOM      7  H   UNL A   1      35.159  32.359  32.672  1.00  0.00     0.163 HD
BRANCH   5   8
ATOM      8  C   UNL A   1      37.515  32.462  35.062  1.00  0.00     0.039 A 
ATOM      9  C   UNL A   1      38.887  32.810  37.485  1.00  0.00     0.069 A 
ATOM     10  C   UNL A   1      39.308  31.827  36.591  1.00  0.00     0.029 A 
ATOM     11  C   UNL A   1      37.856  33.676  37.124  1.00  0.00     0.029 A 
ATOM     12  C   UNL A   1      38.595  31.630  35.403  1.00  0.00     0.016 A 
ATOM     13  C   UNL A   1      37.227  33.547  35.889  1.00  0.00     0.016 A 
BRANCH   9  14
ATOM     14  N   UNL A   1      39.468  32.929  38.751  1.00  0.00    -0.196 N 
ATOM     15  C   UNL A   1      42.080  34.450  40.680  1.00  0.00     0.069 C 
ATOM     16  C   UNL A   1      40.898  33.729  40.129  1.00  0.00     0.071 C 
ATOM     17  N   UNL A   1      40.730  33.488  38.854  1.00  0.00    -0.169 NA
ATOM     18  C   UNL A   1      39.780  33.226  40.950  1.00  0.00     0.065 C 
ATOM     19  C   UNL A   1      38.769  32.793  39.956  1.00  0.00     0.280 C 
ATOM     20  C   UNL A   1      39.735  33.113  42.284  1.00  0.00     0.024 C 
ATOM     21  O   UNL A   1      37.627  32.440  40.163  1.00  0.00    -0.267 OA
BRANCH  20  22
ATOM     22  C   UNL A   1      38.678  32.377  42.989  1.00  0.00    -0.025 A 
ATOM     23  C   UNL A   1      37.589  33.034  43.560  1.00  0.00     0.010 A 
ATOM     24  C   UNL A   1      38.754  30.984  43.094  1.00  0.00     0.010 A 
ATOM     25  C   UNL A   1      36.580  32.297  44.200  1.00  0.00     0.026 A 
ATOM     26  C   UNL A   1      37.749  30.262  43.745  1.00  0.00     0.026 A 
ATOM     27  C   UNL A   1      36.641  30.899  44.313  1.00  0.00     0.037 A 
BRANCH  27  28
ATOM     28  N   UNL A   1      35.632  30.196  44.932  1.00  0.00    -0.372 N 
ATOM     29  C   UNL A   1      34.219  30.549  44.851  1.00  0.00     0.116 C 
ATOM     30  C   UNL A   1      35.929  29.420  46.136  1.00  0.00     0.116 C 
ATOM     31  C   UNL A   1      33.707  30.312  46.267  1.00  0.00     0.023 C 
ATOM     32  C   UNL A   1      34.554  29.143  46.747  1.00  0.00     0.023 C 
ENDBRANCH  27  28
ENDBRANCH  20  22
ENDBRANCH   9  14
ENDBRANCH   5   8
ENDBRANCH   3   4
ENDBRANCH   2   3
ENDBRANCH   1   2
BRANCH   1  33
ATOM     33  C   UNL A   1      33.095  35.959  31.662  1.00  0.00     0.002 C 
BRANCH  33  34
ATOM     34  C   UNL A   1      33.171  37.078  30.622  1.00  0.00     0.021 C 
BRANCH  34  35
ATOM     35  C   UNL A   1      33.655  36.611  29.255  1.00  0.00     0.116 C 
BRANCH  35  36
ATOM     36  N   UNL A   1      32.758  35.616  28.686  1.00  0.00    -0.352 N 
ATOM     37  C   UNL A   1      33.032  34.340  28.268  1.00  0.00     0.251 C 
ATOM     38  H   UNL A   1      31.821  35.900  28.587  1.00  0.00     0.163 HD
ATOM     39  O   UNL A   1      32.231  33.728  27.569  1.00  0.00    -0.269 OA
BRANCH  37  40
ATOM     40  C   UNL A   1      34.307  33.706  28.659  1.00  0.00     0.039 A 
ATOM     41  C   UNL A   1      35.452  33.957  27.901  1.00  0.00     0.014 A 
ATOM     42  C   UNL A   1      34.364  32.859  29.770  1.00  0.00     0.014 A 
ATOM     43  C   UNL A   1      36.671  33.403  28.294  1.00  0.00     0.010 A 
ATOM     44  C   UNL A   1      35.593  32.371  30.203  1.00  0.00     0.010 A 
ATOM     45  C   UNL A   1      36.757  32.635  29.467  1.00  0.00    -0.014 A 
BRANCH  45  46
ATOM     46  C   UNL A   1      38.056  32.103  29.946  1.00  0.00     0.031 A 
ATOM     47  C   UNL A   1      38.550  30.767  29.461  1.00  0.00     0.074 A 
ATOM     48  C   UNL A   1      38.763  32.796  30.860  1.00  0.00     0.049 A 
ATOM     49  N   UNL A   1      39.619  30.103  29.820  1.00  0.00    -0.248 NA
ATOM     50  C   UNL A   1      37.724  30.078  28.454  1.00  0.00     0.031 C 
ATOM     51  C   UNL A   1      38.382  34.093  31.425  1.00  0.00     0.029 A 
ATOM     52  N   UNL A   1      39.953  32.503  31.478  1.00  0.00    -0.354 N 
ATOM     53  C   UNL A   1      39.592  28.922  29.089  1.00  0.00     0.074 A 
ATOM     54  C   UNL A   1      38.373  28.932  28.310  1.00  0.00     0.031 C 
ATOM     55  C   UNL A   1      39.332  34.495  32.284  1.00  0.00     0.029 A 
ATOM     56  C   UNL A   1      40.362  33.465  32.371  1.00  0.00     0.049 A 
ATOM     57  H   UNL A   1      40.466  31.682  31.300  1.00  0.00     0.167 HD
ATOM     58  C   UNL A   1      40.511  27.928  29.051  1.00  0.00     0.031 A 
ATOM     59  C   UNL A   1      41.438  33.506  33.178  1.00  0.00     0.031 A 
ATOM     60  C   UNL A   1      41.721  27.916  29.828  1.00  0.00     0.049 A 
ATOM     61  C   UNL A   1      42.408  32.356  33.161  1.00  0.00     0.074 A 
ATOM     62  C   UNL A   1      42.729  26.966  29.839  1.00  0.00     0.029 A 
ATOM     63  N   UNL A   1      42.089  28.901  30.731  1.00  0.00    -0.354 N 
ATOM     64  N   UNL A   1      42.395  31.271  32.424  1.00  0.00    -0.248 NA
ATOM     65  C   UNL A   1      43.548  32.441  34.084  1.00  0.00     0.031 C 
ATOM     66  C   UNL A   1      43.677  27.348  30.792  1.00  0.00     0.029 A 
ATOM     67  C   UNL A   1      43.296  28.569  31.324  1.00  0.00     0.049 A 
ATOM     68  H   UNL A   1      41.570  29.715  30.923  1.00  0.00     0.167 HD
ATOM     69  C   UNL A   1      43.541  30.566  32.768  1.00  0.00     0.074 A 
ATOM     70  C   UNL A   1      44.236  31.355  33.763  1.00  0.00     0.031 C 
ATOM     71  C   UNL A   1      43.979  29.370  32.306  1.00  0.00     0.031 A 
BRANCH  58  72
ATOM     72  C   UNL A   1      40.244  26.767  28.134  1.00  0.00    -0.014 A 
ATOM     73  C   UNL A   1      40.807  26.715  26.849  1.00  0.00     0.009 A 
ATOM     74  C   UNL A   1      39.472  25.683  28.580  1.00  0.00     0.009 A 
ATOM     75  C   UNL A   1      40.580  25.614  26.020  1.00  0.00     0.001 A 
ATOM     76  C   UNL A   1      39.271  24.570  27.760  1.00  0.00     0.001 A 
ATOM     77  C   UNL A   1      39.820  24.540  26.479  1.00  0.00     0.000 A 
ENDBRANCH  58  72
BRANCH  59  78
ATOM     78  C   UNL A   1      41.663  34.665  34.084  1.00  0.00    -0.014 A 
ATOM     79  C   UNL A   1      41.033  34.724  35.337  1.00  0.00     0.009 A 
ATOM     80  C   UNL A   1      42.469  35.742  33.680  1.00  0.00     0.009 A 
ATOM     81  C   UNL A   1      41.166  35.856  36.144  1.00  0.00     0.001 A 
ATOM     82  C   UNL A   1      42.630  36.856  34.506  1.00  0.00     0.001 A 
ATOM     83  C   UNL A   1      41.965  36.920  35.730  1.00  0.00     0.000 A 
ENDBRANCH  59  78
BRANCH  71  84
ATOM     84  C   UNL A   1      45.294  28.867  32.833  1.00  0.00    -0.014 A 
ATOM     85  C   UNL A   1      46.509  29.208  32.216  1.00  0.00     0.009 A 
ATOM     86  C   UNL A   1      45.318  28.066  33.985  1.00  0.00     0.009 A 
ATOM     87  C   UNL A   1      47.717  28.723  32.722  1.00  0.00     0.001 A 
ATOM     88  C   UNL A   1      46.529  27.612  34.508  1.00  0.00     0.001 A 
ATOM     89  C   UNL A   1      47.726  27.931  33.870  1.00  0.00     0.000 A 
ENDBRANCH  71  84
ENDBRANCH  45  46
ENDBRANCH  37  40
ENDBRANCH  35  36
ENDBRANCH  34  35
ENDBRANCH  33  34
ENDBRANCH   1  33
TORSDOF 16
ENDMDL
