MODEL 1
REMARK VINA RESULT:     -11.3      0.000      0.000
REMARK SMILES CC(C)CN(C)c1cc2c(cc1Cl)C=C(C(=O)NCCCCCCNC(=O)c1ccc(-c3c4nc(c(-c5ccccc5)c5ccc([nH]5)c(-c5ccccc5)c5nc(c(-c6ccccc6)c6ccc3[nH]6)C=C5)C=C4)cc1)[C@@H](C(F)(F)F)O2
REMARK SMILES IDX 21 1 20 2 19 3 18 4 16 5 17 6 15 8 7 9 8 10 12 11 9 12 11 13
REMARK SMILES IDX 13 14 10 15 81 16 14 17 76 18 5 19 6 20 4 21 2 22 1 23 3 24
REMARK SMILES IDX 77 25 78 26 79 27 80 28 22 29 23 30 24 31 25 32 26 33 27 35
REMARK SMILES IDX 28 36 29 37 75 38 30 39 74 40 31 41 32 42 33 43 68 44 34 45
REMARK SMILES IDX 73 46 67 47 69 48 35 49 72 50 66 51 65 52 36 54 58 55 43 56
REMARK SMILES IDX 57 57 44 58 47 59 56 60 70 61 45 62 46 63 55 65 71 66 48 67
REMARK SMILES IDX 37 68 38 69 42 70 39 71 41 72 40 73 59 74 60 75 64 76 61 77
REMARK SMILES IDX 63 78 62 79 49 80 50 81 54 82 51 83 53 84 52 85
REMARK H PARENT 18 7 25 34 69 53 47 64
REMARK Flexibility Score: inf
ROOT
ATOM      1  C   UNL A   1      31.653  28.859  25.585  1.00  0.00     0.002 C 
ENDROOT
BRANCH   1   2
ATOM      2  C   UNL A   1      31.003  29.602  24.414  1.00  0.00     0.021 C 
BRANCH   2   3
ATOM      3  C   UNL A   1      30.574  28.692  23.267  1.00  0.00     0.116 C 
BRANCH   3   4
ATOM      4  N   UNL A   1      29.384  27.938  23.613  1.00  0.00    -0.352 N 
ATOM      5  C   UNL A   1      29.079  26.662  23.932  1.00  0.00     0.251 C 
ATOM      6  O   UNL A   1      27.889  26.455  24.190  1.00  0.00    -0.270 OA
ATOM      7  H   UNL A   1      28.583  28.512  23.616  1.00  0.00     0.163 HD
BRANCH   5   8
ATOM      8  C   UNL A   1      30.050  25.534  23.988  1.00  0.00     0.067 C 
ATOM      9  C   UNL A   1      33.098  21.819  25.541  1.00  0.00     0.059 A 
ATOM     10  C   UNL A   1      32.339  22.051  24.383  1.00  0.00     0.074 A 
ATOM     11  C   UNL A   1      33.075  22.812  26.547  1.00  0.00     0.065 A 
ATOM     12  C   UNL A   1      31.557  23.197  24.266  1.00  0.00     0.130 A 
ATOM     13  C   UNL A   1      32.210  23.911  26.464  1.00  0.00     0.034 A 
ATOM     14  Cl  UNL A   1      34.123  22.752  27.923  1.00  0.00    -0.082 Cl
ATOM     15  C   UNL A   1      31.433  24.094  25.327  1.00  0.00     0.019 A 
ATOM     16  O   UNL A   1      30.906  23.394  23.079  1.00  0.00    -0.475 OA
ATOM     17  C   UNL A   1      30.478  25.189  25.217  1.00  0.00     0.025 C 
ATOM     18  C   UNL A   1      30.585  24.789  22.798  1.00  0.00     0.314 C 
BRANCH   9  19
ATOM     19  N   UNL A   1      33.810  20.617  25.688  1.00  0.00    -0.373 N 
ATOM     20  C   UNL A   1      35.177  20.636  25.171  1.00  0.00     0.143 C 
BRANCH  19  21
ATOM     21  C   UNL A   1      33.040  19.374  25.460  1.00  0.00     0.119 C 
BRANCH  21  22
ATOM     22  C   UNL A   1      33.515  18.598  24.214  1.00  0.00     0.002 C 
ATOM     23  C   UNL A   1      33.977  17.176  24.553  1.00  0.00     0.009 C 
ATOM     24  C   UNL A   1      32.411  18.517  23.157  1.00  0.00     0.009 C 
ENDBRANCH  21  22
ENDBRANCH  19  21
ENDBRANCH   9  19
BRANCH  18  25
ATOM     25  C   UNL A   1      31.793  25.514  22.165  1.00  0.00     0.429 C 
ATOM     26  F   UNL A   1      32.474  26.219  23.103  1.00  0.00    -0.167 F 
ATOM     27  F   UNL A   1      32.683  24.647  21.622  1.00  0.00    -0.167 F 
ATOM     28  F   UNL A   1      31.445  26.377  21.185  1.00  0.00    -0.167 F 
ENDBRANCH  18  25
ENDBRANCH   5   8
ENDBRANCH   3   4
ENDBRANCH   2   3
ENDBRANCH   1   2
BRANCH   1  29
ATOM     29  C   UNL A   1      31.837  29.686  26.864  1.00  0.00     0.002 C 
BRANCH  29  30
ATOM     30  C   UNL A   1      31.676  31.199  26.695  1.00  0.00     0.021 C 
BRANCH  30  31
ATOM     31  C   UNL A   1      32.896  32.014  27.101  1.00  0.00     0.116 C 
BRANCH  31  32
ATOM     32  N   UNL A   1      32.549  33.358  27.529  1.00  0.00    -0.352 N 
ATOM     33  C   UNL A   1      33.180  34.163  28.446  1.00  0.00     0.251 C 
ATOM     34  H   UNL A   1      31.752  33.747  27.101  1.00  0.00     0.163 HD
ATOM     35  O   UNL A   1      32.666  35.214  28.815  1.00  0.00    -0.269 OA
BRANCH  33  36
ATOM     36  C   UNL A   1      34.474  33.732  29.012  1.00  0.00     0.039 A 
ATOM     37  C   UNL A   1      35.672  34.098  28.393  1.00  0.00     0.014 A 
ATOM     38  C   UNL A   1      34.485  32.920  30.149  1.00  0.00     0.014 A 
ATOM     39  C   UNL A   1      36.864  33.520  28.812  1.00  0.00     0.010 A 
ATOM     40  C   UNL A   1      35.696  32.412  30.621  1.00  0.00     0.010 A 
ATOM     41  C   UNL A   1      36.890  32.671  29.930  1.00  0.00    -0.014 A 
BRANCH  41  42
ATOM     42  C   UNL A   1      38.177  32.072  30.363  1.00  0.00     0.031 A 
ATOM     43  C   UNL A   1      38.995  32.710  31.453  1.00  0.00     0.074 A 
ATOM     44  C   UNL A   1      38.584  30.919  29.799  1.00  0.00     0.049 A 
ATOM     45  N   UNL A   1      40.137  32.315  31.959  1.00  0.00    -0.248 NA
ATOM     46  C   UNL A   1      38.470  33.946  32.055  1.00  0.00     0.031 C 
ATOM     47  C   UNL A   1      37.859  30.193  28.754  1.00  0.00     0.029 A 
ATOM     48  N   UNL A   1      39.685  30.138  30.043  1.00  0.00    -0.354 N 
ATOM     49  C   UNL A   1      40.472  33.258  32.923  1.00  0.00     0.074 A 
ATOM     50  C   UNL A   1      39.431  34.261  32.914  1.00  0.00     0.031 C 
ATOM     51  C   UNL A   1      38.502  29.048  28.488  1.00  0.00     0.029 A 
ATOM     52  C   UNL A   1      39.724  28.993  29.285  1.00  0.00     0.049 A 
ATOM     53  H   UNL A   1      40.381  30.376  30.698  1.00  0.00     0.167 HD
ATOM     54  C   UNL A   1      41.546  33.277  33.746  1.00  0.00     0.031 A 
ATOM     55  C   UNL A   1      40.644  28.012  29.221  1.00  0.00     0.031 A 
ATOM     56  C   UNL A   1      42.575  32.270  33.756  1.00  0.00     0.049 A 
ATOM     57  C   UNL A   1      41.860  28.095  30.096  1.00  0.00     0.074 A 
ATOM     58  C   UNL A   1      43.693  32.195  34.570  1.00  0.00     0.029 A 
ATOM     59  N   UNL A   1      42.614  31.167  32.918  1.00  0.00    -0.354 N 
ATOM     60  N   UNL A   1      42.158  28.990  31.006  1.00  0.00    -0.248 NA
ATOM     61  C   UNL A   1      42.869  27.039  29.934  1.00  0.00     0.031 C 
ATOM     62  C   UNL A   1      44.441  31.084  34.180  1.00  0.00     0.029 A 
ATOM     63  C   UNL A   1      43.754  30.424  33.173  1.00  0.00     0.049 A 
ATOM     64  H   UNL A   1      41.933  30.945  32.242  1.00  0.00     0.167 HD
ATOM     65  C   UNL A   1      43.382  28.602  31.534  1.00  0.00     0.074 A 
ATOM     66  C   UNL A   1      43.761  27.377  30.857  1.00  0.00     0.031 C 
ATOM     67  C   UNL A   1      44.124  29.210  32.490  1.00  0.00     0.031 A 
BRANCH  54  68
ATOM     68  C   UNL A   1      41.687  34.427  34.706  1.00  0.00    -0.014 A 
ATOM     69  C   UNL A   1      41.070  34.360  35.967  1.00  0.00     0.009 A 
ATOM     70  C   UNL A   1      42.333  35.614  34.331  1.00  0.00     0.009 A 
ATOM     71  C   UNL A   1      41.084  35.462  36.824  1.00  0.00     0.001 A 
ATOM     72  C   UNL A   1      42.370  36.705  35.202  1.00  0.00     0.001 A 
ATOM     73  C   UNL A   1      41.737  36.632  36.443  1.00  0.00     0.000 A 
ENDBRANCH  54  68
BRANCH  55  74
ATOM     74  C   UNL A   1      40.431  26.876  28.286  1.00  0.00    -0.014 A 
ATOM     75  C   UNL A   1      40.916  26.935  26.969  1.00  0.00     0.009 A 
ATOM     76  C   UNL A   1      39.686  25.756  28.684  1.00  0.00     0.009 A 
ATOM     77  C   UNL A   1      40.630  25.916  26.059  1.00  0.00     0.001 A 
ATOM     78  C   UNL A   1      39.429  24.722  27.780  1.00  0.00     0.001 A 
ATOM     79  C   UNL A   1      39.889  24.809  26.466  1.00  0.00     0.000 A 
ENDBRANCH  55  74
BRANCH  67  80
ATOM     80  C   UNL A   1      45.426  28.571  32.882  1.00  0.00    -0.014 A 
ATOM     81  C   UNL A   1      46.597  28.883  32.173  1.00  0.00     0.009 A 
ATOM     82  C   UNL A   1      45.473  27.578  33.871  1.00  0.00     0.009 A 
ATOM     83  C   UNL A   1      47.786  28.198  32.430  1.00  0.00     0.001 A 
ATOM     84  C   UNL A   1      46.670  26.914  34.148  1.00  0.00     0.001 A 
ATOM     85  C   UNL A   1      47.822  27.216  33.420  1.00  0.00     0.000 A 
ENDBRANCH  67  80
ENDBRANCH  41  42
ENDBRANCH  33  36
ENDBRANCH  31  32
ENDBRANCH  30  31
ENDBRANCH  29  30
ENDBRANCH   1  29
TORSDOF 17
ENDMDL
MODEL 2
REMARK VINA RESULT:     -10.9      0.891      5.815
REMARK SMILES CC(C)CN(C)c1cc2c(cc1Cl)C=C(C(=O)NCCCCCCNC(=O)c1ccc(-c3c4nc(c(-c5ccccc5)c5ccc([nH]5)c(-c5ccccc5)c5nc(c(-c6ccccc6)c6ccc3[nH]6)C=C5)C=C4)cc1)[C@@H](C(F)(F)F)O2
REMARK SMILES IDX 21 1 20 2 19 3 18 4 16 5 17 6 15 8 7 9 8 10 12 11 9 12 11 13
REMARK SMILES IDX 13 14 10 15 81 16 14 17 76 18 5 19 6 20 4 21 2 22 1 23 3 24
REMARK SMILES IDX 77 25 78 26 79 27 80 28 22 29 23 30 24 31 25 32 26 33 27 35
REMARK SMILES IDX 28 36 29 37 75 38 30 39 74 40 31 41 32 42 33 43 68 44 34 45
REMARK SMILES IDX 73 46 67 47 69 48 35 49 72 50 66 51 65 52 36 54 58 55 43 56
REMARK SMILES IDX 57 57 44 58 47 59 56 60 70 61 45 62 46 63 55 65 71 66 48 67
REMARK SMILES IDX 37 68 38 69 42 70 39 71 41 72 40 73 59 74 60 75 64 76 61 77
REMARK SMILES IDX 63 78 62 79 49 80 50 81 54 82 51 83 53 84 52 85
REMARK H PARENT 18 7 25 34 69 53 47 64
REMARK Flexibility Score: inf
ROOT
ATOM      1  C   UNL A   1      33.167  29.505  27.050  1.00  0.00     0.002 C 
ENDROOT
BRANCH   1   2
ATOM      2  C   UNL A   1      31.812  29.411  26.343  1.00  0.00     0.021 C 
BRANCH   2   3
ATOM      3  C   UNL A   1      31.889  29.607  24.832  1.00  0.00     0.116 C 
BRANCH   3   4
ATOM      4  N   UNL A   1      30.690  29.117  24.178  1.00  0.00    -0.352 N 
ATOM      5  C   UNL A   1      30.220  27.931  23.734  1.00  0.00     0.251 C 
ATOM      6  O   UNL A   1      29.088  27.966  23.242  1.00  0.00    -0.270 OA
ATOM      7  H   UNL A   1      30.046  29.844  24.015  1.00  0.00     0.163 HD
BRANCH   5   8
ATOM      8  C   UNL A   1      30.955  26.636  23.796  1.00  0.00     0.067 C 
ATOM      9  C   UNL A   1      32.757  22.136  25.208  1.00  0.00     0.059 A 
ATOM     10  C   UNL A   1      32.487  22.745  23.973  1.00  0.00     0.074 A 
ATOM     11  C   UNL A   1      32.513  22.893  26.377  1.00  0.00     0.065 A 
ATOM     12  C   UNL A   1      31.952  24.029  23.918  1.00  0.00     0.130 A 
ATOM     13  C   UNL A   1      31.883  24.142  26.315  1.00  0.00     0.034 A 
ATOM     14  Cl  UNL A   1      32.997  22.345  27.946  1.00  0.00    -0.082 Cl
ATOM     15  C   UNL A   1      31.583  24.704  25.080  1.00  0.00     0.019 A 
ATOM     16  O   UNL A   1      31.788  24.588  22.679  1.00  0.00    -0.475 OA
ATOM     17  C   UNL A   1      30.878  25.974  24.966  1.00  0.00     0.025 C 
ATOM     18  C   UNL A   1      31.770  26.047  22.680  1.00  0.00     0.314 C 
BRANCH   9  19
ATOM     19  N   UNL A   1      33.210  20.807  25.255  1.00  0.00    -0.373 N 
ATOM     20  C   UNL A   1      34.662  20.645  25.294  1.00  0.00     0.143 C 
BRANCH  19  21
ATOM     21  C   UNL A   1      32.465  19.837  24.422  1.00  0.00     0.119 C 
BRANCH  21  22
ATOM     22  C   UNL A   1      33.131  18.446  24.385  1.00  0.00     0.002 C 
ATOM     23  C   UNL A   1      32.649  17.537  25.521  1.00  0.00     0.009 C 
ATOM     24  C   UNL A   1      32.873  17.743  23.049  1.00  0.00     0.009 C 
ENDBRANCH  21  22
ENDBRANCH  19  21
ENDBRANCH   9  19
BRANCH  18  25
ATOM     25  C   UNL A   1      33.206  26.614  22.660  1.00  0.00     0.429 C 
ATOM     26  F   UNL A   1      33.572  27.039  23.895  1.00  0.00    -0.167 F 
ATOM     27  F   UNL A   1      34.120  25.681  22.294  1.00  0.00    -0.167 F 
ATOM     28  F   UNL A   1      33.357  27.656  21.813  1.00  0.00    -0.167 F 
ENDBRANCH  18  25
ENDBRANCH   5   8
ENDBRANCH   3   4
ENDBRANCH   2   3
ENDBRANCH   1   2
BRANCH   1  29
ATOM     29  C   UNL A   1      33.614  30.924  27.422  1.00  0.00     0.002 C 
BRANCH  29  30
ATOM     30  C   UNL A   1      32.483  31.926  27.662  1.00  0.00     0.021 C 
BRANCH  30  31
ATOM     31  C   UNL A   1      32.736  33.315  27.089  1.00  0.00     0.116 C 
BRANCH  31  32
ATOM     32  N   UNL A   1      32.551  34.365  28.075  1.00  0.00    -0.352 N 
ATOM     33  C   UNL A   1      33.290  34.631  29.202  1.00  0.00     0.251 C 
ATOM     34  H   UNL A   1      31.792  34.970  27.914  1.00  0.00     0.163 HD
ATOM     35  O   UNL A   1      32.906  35.459  30.022  1.00  0.00    -0.269 OA
BRANCH  33  36
ATOM     36  C   UNL A   1      34.541  33.883  29.436  1.00  0.00     0.039 A 
ATOM     37  C   UNL A   1      34.612  32.926  30.451  1.00  0.00     0.014 A 
ATOM     38  C   UNL A   1      35.664  34.171  28.657  1.00  0.00     0.014 A 
ATOM     39  C   UNL A   1      35.844  32.380  30.794  1.00  0.00     0.010 A 
ATOM     40  C   UNL A   1      36.882  33.554  28.947  1.00  0.00     0.010 A 
ATOM     41  C   UNL A   1      36.992  32.688  30.047  1.00  0.00    -0.014 A 
BRANCH  41  42
ATOM     42  C   UNL A   1      38.294  32.086  30.427  1.00  0.00     0.031 A 
ATOM     43  C   UNL A   1      38.750  30.788  29.819  1.00  0.00     0.074 A 
ATOM     44  C   UNL A   1      39.090  32.744  31.292  1.00  0.00     0.049 A 
ATOM     45  N   UNL A   1      39.862  30.128  30.031  1.00  0.00    -0.248 NA
ATOM     46  C   UNL A   1      37.849  30.145  28.848  1.00  0.00     0.031 C 
ATOM     47  C   UNL A   1      38.767  34.025  31.923  1.00  0.00     0.029 A 
ATOM     48  N   UNL A   1      40.342  32.446  31.766  1.00  0.00    -0.354 N 
ATOM     49  C   UNL A   1      39.786  28.990  29.237  1.00  0.00     0.074 A 
ATOM     50  C   UNL A   1      38.509  29.031  28.559  1.00  0.00     0.031 C 
ATOM     51  C   UNL A   1      39.814  34.431  32.654  1.00  0.00     0.029 A 
ATOM     52  C   UNL A   1      40.852  33.405  32.608  1.00  0.00     0.049 A 
ATOM     53  H   UNL A   1      40.828  31.624  31.528  1.00  0.00     0.167 HD
ATOM     54  C   UNL A   1      40.704  28.008  29.083  1.00  0.00     0.031 A 
ATOM     55  C   UNL A   1      42.015  33.453  33.283  1.00  0.00     0.031 A 
ATOM     56  C   UNL A   1      41.977  27.979  29.754  1.00  0.00     0.049 A 
ATOM     57  C   UNL A   1      42.985  32.316  33.146  1.00  0.00     0.074 A 
ATOM     58  C   UNL A   1      42.982  27.032  29.644  1.00  0.00     0.029 A 
ATOM     59  N   UNL A   1      42.420  28.932  30.657  1.00  0.00    -0.354 N 
ATOM     60  N   UNL A   1      42.901  31.252  32.386  1.00  0.00    -0.248 NA
ATOM     61  C   UNL A   1      44.206  32.381  33.962  1.00  0.00     0.031 C 
ATOM     62  C   UNL A   1      44.004  27.378  30.529  1.00  0.00     0.029 A 
ATOM     63  C   UNL A   1      43.671  28.578  31.136  1.00  0.00     0.049 A 
ATOM     64  H   UNL A   1      41.922  29.739  30.918  1.00  0.00     0.167 HD
ATOM     65  C   UNL A   1      44.060  30.525  32.622  1.00  0.00     0.074 A 
ATOM     66  C   UNL A   1      44.843  31.281  33.579  1.00  0.00     0.031 C 
ATOM     67  C   UNL A   1      44.437  29.336  32.093  1.00  0.00     0.031 A 
BRANCH  54  68
ATOM     68  C   UNL A   1      40.376  26.866  28.160  1.00  0.00    -0.014 A 
ATOM     69  C   UNL A   1      39.687  25.746  28.657  1.00  0.00     0.009 A 
ATOM     70  C   UNL A   1      40.836  26.844  26.835  1.00  0.00     0.009 A 
ATOM     71  C   UNL A   1      39.480  24.624  27.852  1.00  0.00     0.001 A 
ATOM     72  C   UNL A   1      40.602  25.732  26.023  1.00  0.00     0.001 A 
ATOM     73  C   UNL A   1      39.935  24.619  26.535  1.00  0.00     0.000 A 
ENDBRANCH  54  68
BRANCH  55  74
ATOM     74  C   UNL A   1      42.307  34.628  34.145  1.00  0.00    -0.014 A 
ATOM     75  C   UNL A   1      41.865  34.664  35.478  1.00  0.00     0.009 A 
ATOM     76  C   UNL A   1      42.972  35.748  33.623  1.00  0.00     0.009 A 
ATOM     77  C   UNL A   1      42.048  35.807  36.258  1.00  0.00     0.001 A 
ATOM     78  C   UNL A   1      43.183  36.878  34.416  1.00  0.00     0.001 A 
ATOM     79  C   UNL A   1      42.709  36.912  35.727  1.00  0.00     0.000 A 
ENDBRANCH  55  74
BRANCH  67  80
ATOM     80  C   UNL A   1      45.758  28.763  32.522  1.00  0.00    -0.014 A 
ATOM     81  C   UNL A   1      45.828  27.949  33.664  1.00  0.00     0.009 A 
ATOM     82  C   UNL A   1      46.947  29.121  31.868  1.00  0.00     0.009 A 
ATOM     83  C   UNL A   1      47.062  27.523  34.158  1.00  0.00     0.001 A 
ATOM     84  C   UNL A   1      48.178  28.669  32.346  1.00  0.00     0.001 A 
ATOM     85  C   UNL A   1      48.236  27.881  33.496  1.00  0.00     0.000 A 
ENDBRANCH  67  80
ENDBRANCH  41  42
ENDBRANCH  33  36
ENDBRANCH  31  32
ENDBRANCH  30  31
ENDBRANCH  29  30
ENDBRANCH   1  29
TORSDOF 17
ENDMDL
MODEL 3
REMARK VINA RESULT:     -10.9      3.622      9.215
REMARK SMILES CC(C)CN(C)c1cc2c(cc1Cl)C=C(C(=O)NCCCCCCNC(=O)c1ccc(-c3c4nc(c(-c5ccccc5)c5ccc([nH]5)c(-c5ccccc5)c5nc(c(-c6ccccc6)c6ccc3[nH]6)C=C5)C=C4)cc1)[C@@H](C(F)(F)F)O2
REMARK SMILES IDX 21 1 20 2 19 3 18 4 16 5 17 6 15 8 7 9 8 10 12 11 9 12 11 13
REMARK SMILES IDX 13 14 10 15 81 16 14 17 76 18 5 19 6 20 4 21 2 22 1 23 3 24
REMARK SMILES IDX 77 25 78 26 79 27 80 28 22 29 23 30 24 31 25 32 26 33 27 35
REMARK SMILES IDX 28 36 29 37 75 38 30 39 74 40 31 41 32 42 33 43 68 44 34 45
REMARK SMILES IDX 73 46 67 47 69 48 35 49 72 50 66 51 65 52 36 54 58 55 43 56
REMARK SMILES IDX 57 57 44 58 47 59 56 60 70 61 45 62 46 63 55 65 71 66 48 67
REMARK SMILES IDX 37 68 38 69 42 70 39 71 41 72 40 73 59 74 60 75 64 76 61 77
REMARK SMILES IDX 63 78 62 79 49 80 50 81 54 82 51 83 53 84 52 85
REMARK H PARENT 18 7 25 34 69 53 47 64
REMARK Flexibility Score: inf
ROOT
ATOM      1  C   UNL A   1      35.656  20.510  24.971  1.00  0.00     0.002 C 
ENDROOT
BRANCH   1   2
ATOM      2  C   UNL A   1      34.396  19.639  24.988  1.00  0.00     0.021 C 
BRANCH   2   3
ATOM      3  C   UNL A   1      33.099  20.428  24.841  1.00  0.00     0.116 C 
BRANCH   3   4
ATOM      4  N   UNL A   1      32.653  20.451  23.460  1.00  0.00    -0.352 N 
ATOM      5  C   UNL A   1      32.126  21.355  22.606  1.00  0.00     0.251 C 
ATOM      6  O   UNL A   1      31.912  20.935  21.464  1.00  0.00    -0.270 OA
ATOM      7  H   UNL A   1      32.765  19.571  23.031  1.00  0.00     0.163 HD
BRANCH   5   8
ATOM      8  C   UNL A   1      31.800  22.768  22.942  1.00  0.00     0.067 C 
ATOM      9  C   UNL A   1      31.690  27.813  23.152  1.00  0.00     0.059 A 
ATOM     10  C   UNL A   1      30.734  26.799  23.321  1.00  0.00     0.074 A 
ATOM     11  C   UNL A   1      33.018  27.418  22.873  1.00  0.00     0.065 A 
ATOM     12  C   UNL A   1      31.085  25.460  23.167  1.00  0.00     0.130 A 
ATOM     13  C   UNL A   1      33.341  26.078  22.622  1.00  0.00     0.034 A 
ATOM     14  Cl  UNL A   1      34.329  28.548  22.850  1.00  0.00    -0.082 Cl
ATOM     15  C   UNL A   1      32.365  25.097  22.751  1.00  0.00     0.019 A 
ATOM     16  O   UNL A   1      30.120  24.525  23.425  1.00  0.00    -0.475 OA
ATOM     17  C   UNL A   1      32.638  23.699  22.446  1.00  0.00     0.025 C 
ATOM     18  C   UNL A   1      30.643  23.213  23.792  1.00  0.00     0.314 C 
BRANCH   9  19
ATOM     19  N   UNL A   1      31.306  29.162  23.217  1.00  0.00    -0.373 N 
ATOM     20  C   UNL A   1      31.079  29.680  24.565  1.00  0.00     0.143 C 
BRANCH  19  21
ATOM     21  C   UNL A   1      30.363  29.621  22.172  1.00  0.00     0.119 C 
BRANCH  21  22
ATOM     22  C   UNL A   1      29.079  30.243  22.758  1.00  0.00     0.002 C 
ATOM     23  C   UNL A   1      28.690  31.549  22.056  1.00  0.00     0.009 C 
ATOM     24  C   UNL A   1      27.901  29.268  22.672  1.00  0.00     0.009 C 
ENDBRANCH  21  22
ENDBRANCH  19  21
ENDBRANCH   9  19
BRANCH  18  25
ATOM     25  C   UNL A   1      30.984  23.160  25.297  1.00  0.00     0.429 C 
ATOM     26  F   UNL A   1      30.616  21.968  25.829  1.00  0.00    -0.167 F 
ATOM     27  F   UNL A   1      32.315  23.282  25.525  1.00  0.00    -0.167 F 
ATOM     28  F   UNL A   1      30.377  24.128  26.017  1.00  0.00    -0.167 F 
ENDBRANCH  18  25
ENDBRANCH   5   8
ENDBRANCH   3   4
ENDBRANCH   2   3
ENDBRANCH   1   2
BRANCH   1  29
ATOM     29  C   UNL A   1      36.978  19.745  24.829  1.00  0.00     0.002 C 
BRANCH  29  30
ATOM     30  C   UNL A   1      38.238  20.613  24.813  1.00  0.00     0.021 C 
BRANCH  30  31
ATOM     31  C   UNL A   1      39.103  20.494  26.061  1.00  0.00     0.116 C 
BRANCH  31  32
ATOM     32  N   UNL A   1      40.151  19.499  25.919  1.00  0.00    -0.352 N 
ATOM     33  C   UNL A   1      41.511  19.653  26.039  1.00  0.00     0.251 C 
ATOM     34  H   UNL A   1      39.844  18.587  25.707  1.00  0.00     0.163 HD
ATOM     35  O   UNL A   1      42.274  18.743  25.728  1.00  0.00    -0.269 OA
BRANCH  33  36
ATOM     36  C   UNL A   1      42.050  20.941  26.517  1.00  0.00     0.039 A 
ATOM     37  C   UNL A   1      42.136  21.205  27.886  1.00  0.00     0.014 A 
ATOM     38  C   UNL A   1      42.433  21.908  25.585  1.00  0.00     0.014 A 
ATOM     39  C   UNL A   1      42.449  22.488  28.318  1.00  0.00     0.010 A 
ATOM     40  C   UNL A   1      42.833  23.171  26.026  1.00  0.00     0.010 A 
ATOM     41  C   UNL A   1      42.800  23.485  27.394  1.00  0.00    -0.014 A 
BRANCH  41  42
ATOM     42  C   UNL A   1      43.138  24.847  27.880  1.00  0.00     0.031 A 
ATOM     43  C   UNL A   1      44.572  25.276  28.031  1.00  0.00     0.074 A 
ATOM     44  C   UNL A   1      42.141  25.714  28.140  1.00  0.00     0.049 A 
ATOM     45  N   UNL A   1      45.044  26.430  28.434  1.00  0.00    -0.248 NA
ATOM     46  C   UNL A   1      45.611  24.292  27.689  1.00  0.00     0.031 C 
ATOM     47  C   UNL A   1      40.713  25.418  28.001  1.00  0.00     0.029 A 
ATOM     48  N   UNL A   1      42.172  27.024  28.544  1.00  0.00    -0.354 N 
ATOM     49  C   UNL A   1      46.428  26.305  28.408  1.00  0.00     0.074 A 
ATOM     50  C   UNL A   1      46.723  24.955  27.979  1.00  0.00     0.031 C 
ATOM     51  C   UNL A   1      40.009  26.529  28.258  1.00  0.00     0.029 A 
ATOM     52  C   UNL A   1      40.926  27.593  28.654  1.00  0.00     0.049 A 
ATOM     53  H   UNL A   1      43.006  27.510  28.738  1.00  0.00     0.167 HD
ATOM     54  C   UNL A   1      47.364  27.236  28.706  1.00  0.00     0.031 A 
ATOM     55  C   UNL A   1      40.555  28.826  29.046  1.00  0.00     0.031 A 
ATOM     56  C   UNL A   1      47.063  28.579  29.124  1.00  0.00     0.049 A 
ATOM     57  C   UNL A   1      41.612  29.816  29.437  1.00  0.00     0.074 A 
ATOM     58  C   UNL A   1      47.948  29.600  29.428  1.00  0.00     0.029 A 
ATOM     59  N   UNL A   1      45.786  29.090  29.296  1.00  0.00    -0.354 N 
ATOM     60  N   UNL A   1      42.916  29.683  29.400  1.00  0.00    -0.248 NA
ATOM     61  C   UNL A   1      41.152  31.123  29.928  1.00  0.00     0.031 C 
ATOM     62  C   UNL A   1      47.208  30.707  29.848  1.00  0.00     0.029 A 
ATOM     63  C   UNL A   1      45.861  30.402  29.735  1.00  0.00     0.049 A 
ATOM     64  H   UNL A   1      44.952  28.595  29.132  1.00  0.00     0.167 HD
ATOM     65  C   UNL A   1      43.433  30.890  29.852  1.00  0.00     0.074 A 
ATOM     66  C   UNL A   1      42.302  31.751  30.136  1.00  0.00     0.031 C 
ATOM     67  C   UNL A   1      44.729  31.247  30.020  1.00  0.00     0.031 A 
BRANCH  54  68
ATOM     68  C   UNL A   1      48.813  26.844  28.607  1.00  0.00    -0.014 A 
ATOM     69  C   UNL A   1      49.479  26.948  27.375  1.00  0.00     0.009 A 
ATOM     70  C   UNL A   1      49.490  26.275  29.696  1.00  0.00     0.009 A 
ATOM     71  C   UNL A   1      50.786  26.476  27.231  1.00  0.00     0.001 A 
ATOM     72  C   UNL A   1      50.806  25.830  29.558  1.00  0.00     0.001 A 
ATOM     73  C   UNL A   1      51.449  25.920  28.323  1.00  0.00     0.000 A 
ENDBRANCH  54  68
BRANCH  55  74
ATOM     74  C   UNL A   1      39.110  29.173  29.081  1.00  0.00    -0.014 A 
ATOM     75  C   UNL A   1      38.347  28.938  30.237  1.00  0.00     0.009 A 
ATOM     76  C   UNL A   1      38.470  29.679  27.940  1.00  0.00     0.009 A 
ATOM     77  C   UNL A   1      36.970  29.167  30.240  1.00  0.00     0.001 A 
ATOM     78  C   UNL A   1      37.097  29.938  27.956  1.00  0.00     0.001 A 
ATOM     79  C   UNL A   1      36.347  29.670  29.100  1.00  0.00     0.000 A 
ENDBRANCH  55  74
BRANCH  67  80
ATOM     80  C   UNL A   1      45.016  32.631  30.528  1.00  0.00    -0.014 A 
ATOM     81  C   UNL A   1      45.220  33.680  29.616  1.00  0.00     0.009 A 
ATOM     82  C   UNL A   1      45.199  32.874  31.897  1.00  0.00     0.009 A 
ATOM     83  C   UNL A   1      45.624  34.939  30.063  1.00  0.00     0.001 A 
ATOM     84  C   UNL A   1      45.574  34.143  32.344  1.00  0.00     0.001 A 
ATOM     85  C   UNL A   1      45.798  35.170  31.427  1.00  0.00     0.000 A 
ENDBRANCH  67  80
ENDBRANCH  41  42
ENDBRANCH  33  36
ENDBRANCH  31  32
ENDBRANCH  30  31
ENDBRANCH  29  30
ENDBRANCH   1  29
TORSDOF 17
ENDMDL
