MODEL 1
REMARK VINA RESULT:     -10.3      0.000      0.000
REMARK SMILES CC1(C)C[C@@H]([NH2+]C[C@@H]2CCCC[C@@H]2C(=O)NCCCCCCNC(=O)c2ccc(-c3c4nc(c(-c5ccccc5)c5ccc([nH]5)c(-c5ccccc5)c5nc(c(-c6ccccc6)c6ccc3[nH]6)C=C5)C=C4)cc2)C(C)(C)O1
REMARK SMILES IDX 19 1 18 2 17 3 16 4 14 5 15 6 13 8 8 9 9 10 10 11 12 12
REMARK SMILES IDX 11 13 7 14 6 15 5 18 1 19 2 20 3 21 4 22 77 23 74 24 75 25
REMARK SMILES IDX 76 26 20 27 21 28 22 29 23 30 24 31 25 33 26 34 27 35 73 36
REMARK SMILES IDX 28 37 72 38 29 39 30 40 31 41 66 42 32 43 71 44 65 45 67 46
REMARK SMILES IDX 33 47 70 48 64 49 63 50 34 52 56 53 41 54 55 55 42 56 45 57
REMARK SMILES IDX 54 58 68 59 43 60 44 61 53 63 69 64 46 65 35 66 36 67 40 68
REMARK SMILES IDX 37 69 39 70 38 71 57 72 58 73 62 74 59 75 61 76 60 77 47 78
REMARK SMILES IDX 48 79 52 80 49 81 51 82 50 83
REMARK H PARENT 16 7 6 16 6 17 23 32 67 51 45 62
REMARK Flexibility Score: inf
ROOT
ATOM      1  C   UNL A   1      33.511  29.353  27.521  1.00  0.00     0.002 C 
ENDROOT
BRANCH   1   2
ATOM      2  C   UNL A   1      34.524  28.543  26.709  1.00  0.00     0.021 C 
BRANCH   2   3
ATOM      3  C   UNL A   1      33.916  27.677  25.604  1.00  0.00     0.116 C 
BRANCH   3   4
ATOM      4  N   UNL A   1      33.390  26.412  26.104  1.00  0.00    -0.356 N 
ATOM      5  C   UNL A   1      32.959  25.297  25.433  1.00  0.00     0.223 C 
ATOM      6  O   UNL A   1      32.528  24.354  26.095  1.00  0.00    -0.275 OA
ATOM      7  H   UNL A   1      33.335  26.349  27.086  1.00  0.00     0.163 HD
BRANCH   5   8
ATOM      8  C   UNL A   1      33.000  25.275  23.902  1.00  0.00     0.087 C 
ATOM      9  C   UNL A   1      31.701  24.800  23.181  1.00  0.00     0.056 C 
ATOM     10  C   UNL A   1      31.500  23.275  23.297  1.00  0.00     0.010 C 
ATOM     11  C   UNL A   1      32.721  22.497  22.820  1.00  0.00     0.001 C 
ATOM     12  C   UNL A   1      34.203  24.457  23.399  1.00  0.00     0.014 C 
ATOM     13  C   UNL A   1      33.993  22.952  23.519  1.00  0.00     0.001 C 
BRANCH   9  14
ATOM     14  C   UNL A   1      30.372  25.529  23.518  1.00  0.00     0.265 C 
BRANCH  14  15
ATOM     15  N   UNL A   1      30.104  26.765  22.822  1.00  0.00    -0.341 N 
ATOM     16  H   UNL A   1      30.960  27.003  22.321  1.00  0.00     0.346 HD
ATOM     17  H   UNL A   1      29.266  26.534  22.288  1.00  0.00     0.346 HD
BRANCH  15  18
ATOM     18  C   UNL A   1      29.694  27.974  23.527  1.00  0.00     0.217 C 
ATOM     19  C   UNL A   1      28.066  30.295  21.234  1.00  0.00     0.042 C 
ATOM     20  C   UNL A   1      28.654  30.008  22.620  1.00  0.00     0.069 C 
ATOM     21  C   UNL A   1      28.094  31.069  23.576  1.00  0.00     0.042 C 
ATOM     22  C   UNL A   1      28.359  28.587  23.098  1.00  0.00     0.103 C 
ATOM     23  O   UNL A   1      30.083  30.138  22.540  1.00  0.00    -0.363 OA
ATOM     24  C   UNL A   1      30.716  29.146  23.379  1.00  0.00     0.115 C 
ATOM     25  C   UNL A   1      32.076  28.782  22.752  1.00  0.00     0.048 C 
ATOM     26  C   UNL A   1      31.041  29.785  24.737  1.00  0.00     0.048 C 
ENDBRANCH  15  18
ENDBRANCH  14  15
ENDBRANCH   9  14
ENDBRANCH   5   8
ENDBRANCH   3   4
ENDBRANCH   2   3
ENDBRANCH   1   2
BRANCH   1  27
ATOM     27  C   UNL A   1      33.779  30.865  27.537  1.00  0.00     0.002 C 
BRANCH  27  28
ATOM     28  C   UNL A   1      32.541  31.775  27.503  1.00  0.00     0.021 C 
BRANCH  28  29
ATOM     29  C   UNL A   1      32.751  33.162  26.894  1.00  0.00     0.116 C 
BRANCH  29  30
ATOM     30  N   UNL A   1      32.492  34.226  27.850  1.00  0.00    -0.352 N 
ATOM     31  C   UNL A   1      33.145  34.565  29.009  1.00  0.00     0.251 C 
ATOM     32  H   UNL A   1      31.722  34.798  27.630  1.00  0.00     0.163 HD
ATOM     33  O   UNL A   1      32.626  35.361  29.787  1.00  0.00    -0.269 OA
BRANCH  31  34
ATOM     34  C   UNL A   1      34.461  33.977  29.351  1.00  0.00     0.039 A 
ATOM     35  C   UNL A   1      34.546  33.137  30.467  1.00  0.00     0.014 A 
ATOM     36  C   UNL A   1      35.620  34.304  28.642  1.00  0.00     0.014 A 
ATOM     37  C   UNL A   1      35.775  32.585  30.837  1.00  0.00     0.010 A 
ATOM     38  C   UNL A   1      36.840  33.711  28.981  1.00  0.00     0.010 A 
ATOM     39  C   UNL A   1      36.930  32.845  30.082  1.00  0.00    -0.014 A 
BRANCH  39  40
ATOM     40  C   UNL A   1      38.224  32.200  30.428  1.00  0.00     0.031 A 
ATOM     41  C   UNL A   1      39.180  32.850  31.390  1.00  0.00     0.074 A 
ATOM     42  C   UNL A   1      38.558  31.033  29.844  1.00  0.00     0.049 A 
ATOM     43  N   UNL A   1      40.349  32.425  31.805  1.00  0.00    -0.248 NA
ATOM     44  C   UNL A   1      38.784  34.153  31.947  1.00  0.00     0.031 C 
ATOM     45  C   UNL A   1      37.741  30.311  28.866  1.00  0.00     0.029 A 
ATOM     46  N   UNL A   1      39.675  30.248  29.988  1.00  0.00    -0.354 N 
ATOM     47  C   UNL A   1      40.831  33.410  32.657  1.00  0.00     0.074 A 
ATOM     48  C   UNL A   1      39.846  34.471  32.673  1.00  0.00     0.031 C 
ATOM     49  C   UNL A   1      38.370  29.176  28.522  1.00  0.00     0.029 A 
ATOM     50  C   UNL A   1      39.646  29.104  29.228  1.00  0.00     0.049 A 
ATOM     51  H   UNL A   1      40.426  30.483  30.579  1.00  0.00     0.167 HD
ATOM     52  C   UNL A   1      41.982  33.427  33.372  1.00  0.00     0.031 A 
ATOM     53  C   UNL A   1      40.540  28.106  29.114  1.00  0.00     0.031 A 
ATOM     54  C   UNL A   1      42.960  32.370  33.373  1.00  0.00     0.049 A 
ATOM     55  C   UNL A   1      41.810  28.151  29.914  1.00  0.00     0.074 A 
ATOM     56  C   UNL A   1      44.123  32.272  34.120  1.00  0.00     0.029 A 
ATOM     57  N   UNL A   1      42.894  31.232  32.585  1.00  0.00    -0.354 N 
ATOM     58  N   UNL A   1      42.214  29.056  30.771  1.00  0.00    -0.248 NA
ATOM     59  C   UNL A   1      42.743  27.028  29.737  1.00  0.00     0.031 C 
ATOM     60  C   UNL A   1      44.782  31.094  33.752  1.00  0.00     0.029 A 
ATOM     61  C   UNL A   1      44.007  30.439  32.809  1.00  0.00     0.049 A 
ATOM     62  H   UNL A   1      42.164  31.019  31.961  1.00  0.00     0.167 HD
ATOM     63  C   UNL A   1      43.435  28.602  31.252  1.00  0.00     0.074 A 
ATOM     64  C   UNL A   1      43.698  27.334  30.604  1.00  0.00     0.031 C 
ATOM     65  C   UNL A   1      44.263  29.184  32.152  1.00  0.00     0.031 A 
BRANCH  52  66
ATOM     66  C   UNL A   1      42.256  34.640  34.217  1.00  0.00    -0.014 A 
ATOM     67  C   UNL A   1      41.864  34.689  35.564  1.00  0.00     0.009 A 
ATOM     68  C   UNL A   1      42.955  35.727  33.672  1.00  0.00     0.009 A 
ATOM     69  C   UNL A   1      42.141  35.817  36.339  1.00  0.00     0.001 A 
ATOM     70  C   UNL A   1      43.251  36.844  34.455  1.00  0.00     0.001 A 
ATOM     71  C   UNL A   1      42.837  36.891  35.786  1.00  0.00     0.000 A 
ENDBRANCH  52  66
BRANCH  53  72
ATOM     72  C   UNL A   1      40.259  26.956  28.218  1.00  0.00    -0.014 A 
ATOM     73  C   UNL A   1      39.481  25.879  28.671  1.00  0.00     0.009 A 
ATOM     74  C   UNL A   1      40.774  26.923  26.912  1.00  0.00     0.009 A 
ATOM     75  C   UNL A   1      39.244  24.781  27.842  1.00  0.00     0.001 A 
ATOM     76  C   UNL A   1      40.514  25.834  26.078  1.00  0.00     0.001 A 
ATOM     77  C   UNL A   1      39.758  24.761  26.546  1.00  0.00     0.000 A 
ENDBRANCH  53  72
BRANCH  65  78
ATOM     78  C   UNL A   1      45.520  28.441  32.503  1.00  0.00    -0.014 A 
ATOM     79  C   UNL A   1      46.714  28.664  31.800  1.00  0.00     0.009 A 
ATOM     80  C   UNL A   1      45.514  27.521  33.563  1.00  0.00     0.009 A 
ATOM     81  C   UNL A   1      47.870  27.954  32.131  1.00  0.00     0.001 A 
ATOM     82  C   UNL A   1      46.677  26.832  33.907  1.00  0.00     0.001 A 
ATOM     83  C   UNL A   1      47.851  27.041  33.185  1.00  0.00     0.000 A 
ENDBRANCH  65  78
ENDBRANCH  39  40
ENDBRANCH  31  34
ENDBRANCH  29  30
ENDBRANCH  28  29
ENDBRANCH  27  28
ENDBRANCH   1  27
TORSDOF 16
ENDMDL
MODEL 2
REMARK VINA RESULT:     -10.3      1.700      3.856
REMARK SMILES CC1(C)C[C@@H]([NH2+]C[C@@H]2CCCC[C@@H]2C(=O)NCCCCCCNC(=O)c2ccc(-c3c4nc(c(-c5ccccc5)c5ccc([nH]5)c(-c5ccccc5)c5nc(c(-c6ccccc6)c6ccc3[nH]6)C=C5)C=C4)cc2)C(C)(C)O1
REMARK SMILES IDX 19 1 18 2 17 3 16 4 14 5 15 6 13 8 8 9 9 10 10 11 12 12
REMARK SMILES IDX 11 13 7 14 6 15 5 18 1 19 2 20 3 21 4 22 77 23 74 24 75 25
REMARK SMILES IDX 76 26 20 27 21 28 22 29 23 30 24 31 25 33 26 34 27 35 73 36
REMARK SMILES IDX 28 37 72 38 29 39 30 40 31 41 66 42 32 43 71 44 65 45 67 46
REMARK SMILES IDX 33 47 70 48 64 49 63 50 34 52 56 53 41 54 55 55 42 56 45 57
REMARK SMILES IDX 54 58 68 59 43 60 44 61 53 63 69 64 46 65 35 66 36 67 40 68
REMARK SMILES IDX 37 69 39 70 38 71 57 72 58 73 62 74 59 75 61 76 60 77 47 78
REMARK SMILES IDX 48 79 52 80 49 81 51 82 50 83
REMARK H PARENT 16 7 6 16 6 17 23 32 67 51 45 62
REMARK Flexibility Score: inf
ROOT
ATOM      1  C   UNL A   1      34.940  30.507  28.252  1.00  0.00     0.002 C 
ENDROOT
BRANCH   1   2
ATOM      2  C   UNL A   1      35.281  29.395  27.258  1.00  0.00     0.021 C 
BRANCH   2   3
ATOM      3  C   UNL A   1      34.071  28.702  26.630  1.00  0.00     0.116 C 
BRANCH   3   4
ATOM      4  N   UNL A   1      34.029  28.847  25.178  1.00  0.00    -0.356 N 
ATOM      5  C   UNL A   1      32.974  28.775  24.305  1.00  0.00     0.223 C 
ATOM      6  O   UNL A   1      33.209  28.910  23.104  1.00  0.00    -0.275 OA
ATOM      7  H   UNL A   1      34.901  29.027  24.758  1.00  0.00     0.163 HD
BRANCH   5   8
ATOM      8  C   UNL A   1      31.567  28.505  24.842  1.00  0.00     0.087 C 
ATOM      9  C   UNL A   1      30.866  27.210  24.327  1.00  0.00     0.056 C 
ATOM     10  C   UNL A   1      30.389  27.352  22.867  1.00  0.00     0.010 C 
ATOM     11  C   UNL A   1      29.511  28.580  22.666  1.00  0.00     0.001 C 
ATOM     12  C   UNL A   1      30.650  29.719  24.610  1.00  0.00     0.014 C 
ATOM     13  C   UNL A   1      30.187  29.850  23.164  1.00  0.00     0.001 C 
BRANCH   9  14
ATOM     14  C   UNL A   1      31.610  25.858  24.505  1.00  0.00     0.265 C 
BRANCH  14  15
ATOM     15  N   UNL A   1      32.006  25.497  25.845  1.00  0.00    -0.341 N 
ATOM     16  H   UNL A   1      31.954  26.351  26.400  1.00  0.00     0.346 HD
ATOM     17  H   UNL A   1      31.369  24.728  26.057  1.00  0.00     0.346 HD
BRANCH  15  18
ATOM     18  C   UNL A   1      33.306  24.903  26.131  1.00  0.00     0.217 C 
ATOM     19  C   UNL A   1      34.794  23.565  23.083  1.00  0.00     0.042 C 
ATOM     20  C   UNL A   1      34.825  23.713  24.609  1.00  0.00     0.069 C 
ATOM     21  C   UNL A   1      36.248  23.370  25.066  1.00  0.00     0.042 C 
ATOM     22  C   UNL A   1      34.391  25.103  25.070  1.00  0.00     0.103 C 
ATOM     23  O   UNL A   1      33.898  22.771  25.173  1.00  0.00    -0.363 OA
ATOM     24  C   UNL A   1      33.243  23.354  26.323  1.00  0.00     0.115 C 
ATOM     25  C   UNL A   1      31.833  22.743  26.435  1.00  0.00     0.048 C 
ATOM     26  C   UNL A   1      33.991  22.911  27.590  1.00  0.00     0.048 C 
ENDBRANCH  15  18
ENDBRANCH  14  15
ENDBRANCH   9  14
ENDBRANCH   5   8
ENDBRANCH   3   4
ENDBRANCH   2   3
ENDBRANCH   1   2
BRANCH   1  27
ATOM     27  C   UNL A   1      34.847  31.906  27.626  1.00  0.00     0.002 C 
BRANCH  27  28
ATOM     28  C   UNL A   1      33.581  32.715  27.953  1.00  0.00     0.021 C 
BRANCH  28  29
ATOM     29  C   UNL A   1      33.756  34.233  28.002  1.00  0.00     0.116 C 
BRANCH  29  30
ATOM     30  N   UNL A   1      33.312  34.795  29.268  1.00  0.00    -0.352 N 
ATOM     31  C   UNL A   1      33.709  34.526  30.554  1.00  0.00     0.251 C 
ATOM     32  H   UNL A   1      32.612  35.482  29.189  1.00  0.00     0.163 HD
ATOM     33  O   UNL A   1      33.045  34.954  31.495  1.00  0.00    -0.269 OA
BRANCH  31  34
ATOM     34  C   UNL A   1      34.917  33.715  30.833  1.00  0.00     0.039 A 
ATOM     35  C   UNL A   1      36.148  34.163  30.341  1.00  0.00     0.014 A 
ATOM     36  C   UNL A   1      34.842  32.487  31.497  1.00  0.00     0.014 A 
ATOM     37  C   UNL A   1      37.306  33.412  30.562  1.00  0.00     0.010 A 
ATOM     38  C   UNL A   1      36.008  31.762  31.762  1.00  0.00     0.010 A 
ATOM     39  C   UNL A   1      37.252  32.217  31.297  1.00  0.00    -0.014 A 
BRANCH  39  40
ATOM     40  C   UNL A   1      38.492  31.454  31.597  1.00  0.00     0.031 A 
ATOM     41  C   UNL A   1      39.331  31.783  32.801  1.00  0.00     0.074 A 
ATOM     42  C   UNL A   1      38.886  30.477  30.757  1.00  0.00     0.049 A 
ATOM     43  N   UNL A   1      40.440  31.218  33.213  1.00  0.00    -0.248 NA
ATOM     44  C   UNL A   1      38.878  32.901  33.644  1.00  0.00     0.031 C 
ATOM     45  C   UNL A   1      38.187  30.078  29.535  1.00  0.00     0.029 A 
ATOM     46  N   UNL A   1      39.974  29.641  30.807  1.00  0.00    -0.354 N 
ATOM     47  C   UNL A   1      40.823  31.918  34.350  1.00  0.00     0.074 A 
ATOM     48  C   UNL A   1      39.849  32.971  34.544  1.00  0.00     0.031 C 
ATOM     49  C   UNL A   1      38.847  29.055  28.967  1.00  0.00     0.029 A 
ATOM     50  C   UNL A   1      40.029  28.746  29.765  1.00  0.00     0.049 A 
ATOM     51  H   UNL A   1      40.651  29.679  31.520  1.00  0.00     0.167 HD
ATOM     52  C   UNL A   1      41.881  31.697  35.167  1.00  0.00     0.031 A 
ATOM     53  C   UNL A   1      40.925  27.784  29.484  1.00  0.00     0.031 A 
ATOM     54  C   UNL A   1      42.847  30.643  34.990  1.00  0.00     0.049 A 
ATOM     55  C   UNL A   1      42.092  27.563  30.404  1.00  0.00     0.074 A 
ATOM     56  C   UNL A   1      43.912  30.303  35.807  1.00  0.00     0.029 A 
ATOM     57  N   UNL A   1      42.868  29.765  33.919  1.00  0.00    -0.354 N 
ATOM     58  N   UNL A   1      42.396  28.187  31.515  1.00  0.00    -0.248 NA
ATOM     59  C   UNL A   1      43.033  26.496  30.033  1.00  0.00     0.031 C 
ATOM     60  C   UNL A   1      44.604  29.245  35.208  1.00  0.00     0.029 A 
ATOM     61  C   UNL A   1      43.943  28.899  34.042  1.00  0.00     0.049 A 
ATOM     62  H   UNL A   1      42.216  29.756  33.183  1.00  0.00     0.167 HD
ATOM     63  C   UNL A   1      43.549  27.574  31.988  1.00  0.00     0.074 A 
ATOM     64  C   UNL A   1      43.880  26.520  31.053  1.00  0.00     0.031 C 
ATOM     65  C   UNL A   1      44.268  27.860  33.100  1.00  0.00     0.031 A 
BRANCH  52  66
ATOM     66  C   UNL A   1      42.059  32.625  36.336  1.00  0.00    -0.014 A 
ATOM     67  C   UNL A   1      42.792  33.816  36.212  1.00  0.00     0.009 A 
ATOM     68  C   UNL A   1      41.446  32.328  37.563  1.00  0.00     0.009 A 
ATOM     69  C   UNL A   1      42.934  34.674  37.305  1.00  0.00     0.001 A 
ATOM     70  C   UNL A   1      41.570  33.200  38.646  1.00  0.00     0.001 A 
ATOM     71  C   UNL A   1      42.320  34.368  38.518  1.00  0.00     0.000 A 
ENDBRANCH  52  66
BRANCH  53  72
ATOM     72  C   UNL A   1      40.746  26.930  28.283  1.00  0.00    -0.014 A 
ATOM     73  C   UNL A   1      41.348  27.286  27.065  1.00  0.00     0.009 A 
ATOM     74  C   UNL A   1      39.969  25.763  28.344  1.00  0.00     0.009 A 
ATOM     75  C   UNL A   1      41.152  26.503  25.926  1.00  0.00     0.001 A 
ATOM     76  C   UNL A   1      39.796  24.970  27.208  1.00  0.00     0.001 A 
ATOM     77  C   UNL A   1      40.381  25.344  25.999  1.00  0.00     0.000 A 
ENDBRANCH  53  72
BRANCH  65  78
ATOM     78  C   UNL A   1      45.470  27.003  33.374  1.00  0.00    -0.014 A 
ATOM     79  C   UNL A   1      46.741  27.365  32.902  1.00  0.00     0.009 A 
ATOM     80  C   UNL A   1      45.333  25.829  34.131  1.00  0.00     0.009 A 
ATOM     81  C   UNL A   1      47.846  26.549  33.154  1.00  0.00     0.001 A 
ATOM     82  C   UNL A   1      46.443  25.029  34.402  1.00  0.00     0.001 A 
ATOM     83  C   UNL A   1      47.697  25.385  33.906  1.00  0.00     0.000 A 
ENDBRANCH  65  78
ENDBRANCH  39  40
ENDBRANCH  31  34
ENDBRANCH  29  30
ENDBRANCH  28  29
ENDBRANCH  27  28
ENDBRANCH   1  27
TORSDOF 16
ENDMDL
MODEL 3
REMARK VINA RESULT:     -10.2      0.401      5.843
REMARK SMILES CC1(C)C[C@@H]([NH2+]C[C@@H]2CCCC[C@@H]2C(=O)NCCCCCCNC(=O)c2ccc(-c3c4nc(c(-c5ccccc5)c5ccc([nH]5)c(-c5ccccc5)c5nc(c(-c6ccccc6)c6ccc3[nH]6)C=C5)C=C4)cc2)C(C)(C)O1
REMARK SMILES IDX 19 1 18 2 17 3 16 4 14 5 15 6 13 8 8 9 9 10 10 11 12 12
REMARK SMILES IDX 11 13 7 14 6 15 5 18 1 19 2 20 3 21 4 22 77 23 74 24 75 25
REMARK SMILES IDX 76 26 20 27 21 28 22 29 23 30 24 31 25 33 26 34 27 35 73 36
REMARK SMILES IDX 28 37 72 38 29 39 30 40 31 41 66 42 32 43 71 44 65 45 67 46
REMARK SMILES IDX 33 47 70 48 64 49 63 50 34 52 56 53 41 54 55 55 42 56 45 57
REMARK SMILES IDX 54 58 68 59 43 60 44 61 53 63 69 64 46 65 35 66 36 67 40 68
REMARK SMILES IDX 37 69 39 70 38 71 57 72 58 73 62 74 59 75 61 76 60 77 47 78
REMARK SMILES IDX 48 79 52 80 49 81 51 82 50 83
REMARK H PARENT 16 7 6 16 6 17 23 32 67 51 45 62
REMARK Flexibility Score: inf
ROOT
ATOM      1  C   UNL A   1      33.456  29.298  27.471  1.00  0.00     0.002 C 
ENDROOT
BRANCH   1   2
ATOM      2  C   UNL A   1      34.439  28.493  26.617  1.00  0.00     0.021 C 
BRANCH   2   3
ATOM      3  C   UNL A   1      33.790  27.615  25.546  1.00  0.00     0.116 C 
BRANCH   3   4
ATOM      4  N   UNL A   1      33.338  26.330  26.067  1.00  0.00    -0.356 N 
ATOM      5  C   UNL A   1      32.968  25.182  25.415  1.00  0.00     0.223 C 
ATOM      6  O   UNL A   1      32.595  24.226  26.093  1.00  0.00    -0.275 OA
ATOM      7  H   UNL A   1      33.292  26.278  27.050  1.00  0.00     0.163 HD
BRANCH   5   8
ATOM      8  C   UNL A   1      33.004  25.139  23.885  1.00  0.00     0.087 C 
ATOM      9  C   UNL A   1      31.673  24.748  23.172  1.00  0.00     0.056 C 
ATOM     10  C   UNL A   1      31.367  23.241  23.306  1.00  0.00     0.010 C 
ATOM     11  C   UNL A   1      32.529  22.375  22.836  1.00  0.00     0.001 C 
ATOM     12  C   UNL A   1      34.145  24.234  23.389  1.00  0.00     0.014 C 
ATOM     13  C   UNL A   1      33.832  22.749  23.528  1.00  0.00     0.001 C 
BRANCH   9  14
ATOM     14  C   UNL A   1      30.399  25.571  23.502  1.00  0.00     0.265 C 
BRANCH  14  15
ATOM     15  N   UNL A   1      30.243  26.840  22.831  1.00  0.00    -0.341 N 
ATOM     16  H   UNL A   1      31.158  27.076  22.449  1.00  0.00     0.346 HD
ATOM     17  H   UNL A   1      29.471  26.651  22.191  1.00  0.00     0.346 HD
BRANCH  15  18
ATOM     18  C   UNL A   1      29.773  28.030  23.531  1.00  0.00     0.217 C 
ATOM     19  C   UNL A   1      28.028  30.255  21.230  1.00  0.00     0.042 C 
ATOM     20  C   UNL A   1      28.632  30.005  22.617  1.00  0.00     0.069 C 
ATOM     21  C   UNL A   1      28.020  31.040  23.568  1.00  0.00     0.042 C 
ATOM     22  C   UNL A   1      28.409  28.573  23.102  1.00  0.00     0.103 C 
ATOM     23  O   UNL A   1      30.052  30.207  22.534  1.00  0.00    -0.363 OA
ATOM     24  C   UNL A   1      30.735  29.251  23.377  1.00  0.00     0.115 C 
ATOM     25  C   UNL A   1      32.111  28.953  22.751  1.00  0.00     0.048 C 
ATOM     26  C   UNL A   1      31.028  29.912  24.732  1.00  0.00     0.048 C 
ENDBRANCH  15  18
ENDBRANCH  14  15
ENDBRANCH   9  14
ENDBRANCH   5   8
ENDBRANCH   3   4
ENDBRANCH   2   3
ENDBRANCH   1   2
BRANCH   1  27
ATOM     27  C   UNL A   1      33.766  30.800  27.543  1.00  0.00     0.002 C 
BRANCH  27  28
ATOM     28  C   UNL A   1      32.553  31.742  27.600  1.00  0.00     0.021 C 
BRANCH  28  29
ATOM     29  C   UNL A   1      32.713  33.079  26.876  1.00  0.00     0.116 C 
BRANCH  29  30
ATOM     30  N   UNL A   1      32.485  34.212  27.758  1.00  0.00    -0.352 N 
ATOM     31  C   UNL A   1      33.110  34.577  28.924  1.00  0.00     0.251 C 
ATOM     32  H   UNL A   1      31.763  34.816  27.473  1.00  0.00     0.163 HD
ATOM     33  O   UNL A   1      32.611  35.449  29.632  1.00  0.00    -0.269 OA
BRANCH  31  34
ATOM     34  C   UNL A   1      34.370  33.930  29.358  1.00  0.00     0.039 A 
ATOM     35  C   UNL A   1      35.536  34.188  28.628  1.00  0.00     0.014 A 
ATOM     36  C   UNL A   1      34.403  33.017  30.415  1.00  0.00     0.014 A 
ATOM     37  C   UNL A   1      36.739  33.576  28.990  1.00  0.00     0.010 A 
ATOM     38  C   UNL A   1      35.617  32.444  30.809  1.00  0.00     0.010 A 
ATOM     39  C   UNL A   1      36.797  32.718  30.100  1.00  0.00    -0.014 A 
BRANCH  39  40
ATOM     40  C   UNL A   1      38.089  32.124  30.533  1.00  0.00     0.031 A 
ATOM     41  C   UNL A   1      38.593  30.841  29.929  1.00  0.00     0.074 A 
ATOM     42  C   UNL A   1      38.801  32.726  31.505  1.00  0.00     0.049 A 
ATOM     43  N   UNL A   1      39.698  30.186  30.188  1.00  0.00    -0.248 NA
ATOM     44  C   UNL A   1      37.739  30.201  28.916  1.00  0.00     0.031 C 
ATOM     45  C   UNL A   1      38.412  33.954  32.202  1.00  0.00     0.029 A 
ATOM     46  N   UNL A   1      40.002  32.386  32.076  1.00  0.00    -0.354 N 
ATOM     47  C   UNL A   1      39.667  29.055  29.384  1.00  0.00     0.074 A 
ATOM     48  C   UNL A   1      38.417  29.092  28.654  1.00  0.00     0.031 C 
ATOM     49  C   UNL A   1      39.371  34.279  33.084  1.00  0.00     0.029 A 
ATOM     50  C   UNL A   1      40.425  33.270  33.038  1.00  0.00     0.049 A 
ATOM     51  H   UNL A   1      40.512  31.584  31.821  1.00  0.00     0.167 HD
ATOM     52  C   UNL A   1      40.597  28.078  29.252  1.00  0.00     0.031 A 
ATOM     53  C   UNL A   1      41.535  33.274  33.797  1.00  0.00     0.031 A 
ATOM     54  C   UNL A   1      41.849  28.040  29.964  1.00  0.00     0.049 A 
ATOM     55  C   UNL A   1      42.549  32.178  33.635  1.00  0.00     0.074 A 
ATOM     56  C   UNL A   1      42.882  27.126  29.843  1.00  0.00     0.029 A 
ATOM     57  N   UNL A   1      42.235  28.952  30.933  1.00  0.00    -0.354 N 
ATOM     58  N   UNL A   1      42.536  31.156  32.816  1.00  0.00    -0.248 NA
ATOM     59  C   UNL A   1      43.738  32.244  34.500  1.00  0.00     0.031 C 
ATOM     60  C   UNL A   1      43.875  27.460  30.770  1.00  0.00     0.029 A 
ATOM     61  C   UNL A   1      43.478  28.608  31.436  1.00  0.00     0.049 A 
ATOM     62  H   UNL A   1      41.704  29.730  31.220  1.00  0.00     0.167 HD
ATOM     63  C   UNL A   1      43.721  30.470  33.048  1.00  0.00     0.074 A 
ATOM     64  C   UNL A   1      44.436  31.201  34.073  1.00  0.00     0.031 C 
ATOM     65  C   UNL A   1      44.177  29.337  32.462  1.00  0.00     0.031 A 
BRANCH  52  66
ATOM     66  C   UNL A   1      40.294  26.955  28.301  1.00  0.00    -0.014 A 
ATOM     67  C   UNL A   1      40.798  26.957  26.991  1.00  0.00     0.009 A 
ATOM     68  C   UNL A   1      39.535  25.858  28.736  1.00  0.00     0.009 A 
ATOM     69  C   UNL A   1      40.520  25.897  26.126  1.00  0.00     0.001 A 
ATOM     70  C   UNL A   1      39.278  24.788  27.876  1.00  0.00     0.001 A 
ATOM     71  C   UNL A   1      39.765  24.813  26.570  1.00  0.00     0.000 A 
ENDBRANCH  52  66
BRANCH  53  72
ATOM     72  C   UNL A   1      41.766  34.370  34.771  1.00  0.00    -0.014 A 
ATOM     73  C   UNL A   1      41.342  34.236  36.103  1.00  0.00     0.009 A 
ATOM     74  C   UNL A   1      42.402  35.557  34.375  1.00  0.00     0.009 A 
ATOM     75  C   UNL A   1      41.527  35.279  37.012  1.00  0.00     0.001 A 
ATOM     76  C   UNL A   1      42.608  36.589  35.294  1.00  0.00     0.001 A 
ATOM     77  C   UNL A   1      42.163  36.452  36.608  1.00  0.00     0.000 A 
ENDBRANCH  53  72
BRANCH  65  78
ATOM     78  C   UNL A   1      45.521  28.834  32.903  1.00  0.00    -0.014 A 
ATOM     79  C   UNL A   1      46.698  29.269  32.277  1.00  0.00     0.009 A 
ATOM     80  C   UNL A   1      45.611  27.928  33.971  1.00  0.00     0.009 A 
ATOM     81  C   UNL A   1      47.939  28.779  32.691  1.00  0.00     0.001 A 
ATOM     82  C   UNL A   1      46.853  27.460  34.398  1.00  0.00     0.001 A 
ATOM     83  C   UNL A   1      48.016  27.878  33.752  1.00  0.00     0.000 A 
ENDBRANCH  65  78
ENDBRANCH  39  40
ENDBRANCH  31  34
ENDBRANCH  29  30
ENDBRANCH  28  29
ENDBRANCH  27  28
ENDBRANCH   1  27
TORSDOF 16
ENDMDL
