MODEL 1
REMARK VINA RESULT:     -11.2      0.000      0.000
REMARK SMILES Cc1cc(Br)cc2c1O[C@H](C(F)(F)F)C(C(=O)NCCCCCCNC(=O)c1ccc(-c3c4nc(c(-c5ccccc5)c5ccc([nH]5)c(-c5ccccc5)c5nc(c(-c6ccccc6)c6ccc3[nH]6)C=C5)C=C4)cc1)=C2
REMARK SMILES IDX 22 1 21 2 20 3 19 4 18 5 16 6 17 7 15 9 1 10 2 11 3 12 8 13
REMARK SMILES IDX 4 14 7 15 9 16 5 17 6 18 76 19 10 20 11 21 12 22 13 23 14 24
REMARK SMILES IDX 23 25 24 26 25 27 26 28 27 30 28 31 29 32 75 33 30 34 74 35
REMARK SMILES IDX 31 36 32 37 33 38 68 39 34 40 73 41 67 42 69 43 35 44 72 45
REMARK SMILES IDX 66 46 65 47 36 49 58 50 43 51 57 52 44 53 47 54 56 55 70 56
REMARK SMILES IDX 45 57 46 58 55 60 71 61 48 62 37 63 38 64 42 65 39 66 41 67
REMARK SMILES IDX 40 68 59 69 60 70 64 71 61 72 63 73 62 74 49 75 50 76 54 77
REMARK SMILES IDX 51 78 53 79 52 80
REMARK H PARENT 18 8 25 29 69 48 47 59
REMARK Flexibility Score: inf
ROOT
ATOM      1  C   UNL A   1      35.385  22.270  26.485  1.00  0.00     0.002 C 
ENDROOT
BRANCH   1   2
ATOM      2  C   UNL A   1      34.588  21.124  25.845  1.00  0.00     0.002 C 
BRANCH   2   3
ATOM      3  C   UNL A   1      33.794  21.495  24.588  1.00  0.00     0.021 C 
BRANCH   3   4
ATOM      4  C   UNL A   1      32.294  21.238  24.700  1.00  0.00     0.116 C 
BRANCH   4   5
ATOM      5  N   UNL A   1      31.719  21.889  25.862  1.00  0.00    -0.352 N 
ATOM      6  C   UNL A   1      31.567  23.153  26.318  1.00  0.00     0.251 C 
ATOM      7  O   UNL A   1      30.966  23.251  27.394  1.00  0.00    -0.270 OA
ATOM      8  H   UNL A   1      31.336  21.232  26.489  1.00  0.00     0.163 HD
BRANCH   6   9
ATOM      9  C   UNL A   1      32.058  24.389  25.635  1.00  0.00     0.067 C 
ATOM     10  C   UNL A   1      33.902  28.015  22.447  1.00  0.00     0.048 C 
ATOM     11  C   UNL A   1      33.640  27.902  23.924  1.00  0.00    -0.007 A 
ATOM     12  C   UNL A   1      33.845  29.021  24.743  1.00  0.00     0.023 A 
ATOM     13  C   UNL A   1      33.139  26.725  24.501  1.00  0.00     0.130 A 
ATOM     14  C   UNL A   1      33.584  28.947  26.110  1.00  0.00     0.019 A 
ATOM     15  C   UNL A   1      32.883  26.650  25.874  1.00  0.00     0.019 A 
ATOM     16  O   UNL A   1      32.964  25.654  23.675  1.00  0.00    -0.475 OA
ATOM     17  Br  UNL A   1      33.881  30.462  27.201  1.00  0.00    -0.051 Br
ATOM     18  C   UNL A   1      33.109  27.767  26.682  1.00  0.00     0.027 A 
ATOM     19  C   UNL A   1      32.418  25.394  26.453  1.00  0.00     0.025 C 
ATOM     20  C   UNL A   1      32.124  24.568  24.146  1.00  0.00     0.314 C 
BRANCH  20  21
ATOM     21  C   UNL A   1      30.739  24.696  23.491  1.00  0.00     0.429 C 
ATOM     22  F   UNL A   1      30.814  25.450  22.365  1.00  0.00    -0.167 F 
ATOM     23  F   UNL A   1      30.228  23.501  23.112  1.00  0.00    -0.167 F 
ATOM     24  F   UNL A   1      29.830  25.275  24.307  1.00  0.00    -0.167 F 
ENDBRANCH  20  21
ENDBRANCH   6   9
ENDBRANCH   4   5
ENDBRANCH   3   4
ENDBRANCH   2   3
ENDBRANCH   1   2
BRANCH   1  25
ATOM     25  C   UNL A   1      35.594  23.503  25.601  1.00  0.00     0.021 C 
BRANCH  25  26
ATOM     26  C   UNL A   1      36.967  23.598  24.949  1.00  0.00     0.116 C 
BRANCH  26  27
ATOM     27  N   UNL A   1      37.885  22.591  25.454  1.00  0.00    -0.352 N 
ATOM     28  C   UNL A   1      39.019  22.755  26.208  1.00  0.00     0.251 C 
ATOM     29  H   UNL A   1      37.664  21.660  25.220  1.00  0.00     0.163 HD
ATOM     30  O   UNL A   1      39.782  21.814  26.401  1.00  0.00    -0.269 OA
BRANCH  28  31
ATOM     31  C   UNL A   1      39.330  24.083  26.774  1.00  0.00     0.039 A 
ATOM     32  C   UNL A   1      38.899  24.382  28.068  1.00  0.00     0.014 A 
ATOM     33  C   UNL A   1      40.050  25.024  26.030  1.00  0.00     0.014 A 
ATOM     34  C   UNL A   1      39.241  25.607  28.640  1.00  0.00     0.010 A 
ATOM     35  C   UNL A   1      40.446  26.218  26.627  1.00  0.00     0.010 A 
ATOM     36  C   UNL A   1      40.041  26.522  27.934  1.00  0.00    -0.014 A 
BRANCH  36  37
ATOM     37  C   UNL A   1      40.453  27.804  28.556  1.00  0.00     0.031 A 
ATOM     38  C   UNL A   1      41.875  28.009  28.992  1.00  0.00     0.074 A 
ATOM     39  C   UNL A   1      39.537  28.772  28.751  1.00  0.00     0.049 A 
ATOM     40  N   UNL A   1      42.422  29.065  29.540  1.00  0.00    -0.248 NA
ATOM     41  C   UNL A   1      42.801  26.880  28.806  1.00  0.00     0.031 C 
ATOM     42  C   UNL A   1      38.117  28.678  28.402  1.00  0.00     0.029 A 
ATOM     43  N   UNL A   1      39.666  30.031  29.282  1.00  0.00    -0.354 N 
ATOM     44  C   UNL A   1      43.750  28.726  29.763  1.00  0.00     0.074 A 
ATOM     45  C   UNL A   1      43.916  27.352  29.346  1.00  0.00     0.031 C 
ATOM     46  C   UNL A   1      37.518  29.846  28.686  1.00  0.00     0.029 A 
ATOM     47  C   UNL A   1      38.500  30.757  29.266  1.00  0.00     0.049 A 
ATOM     48  H   UNL A   1      40.514  30.381  29.640  1.00  0.00     0.167 HD
ATOM     49  C   UNL A   1      44.750  29.499  30.246  1.00  0.00     0.031 A 
ATOM     50  C   UNL A   1      38.251  32.019  29.663  1.00  0.00     0.031 A 
ATOM     51  C   UNL A   1      44.590  30.869  30.648  1.00  0.00     0.049 A 
ATOM     52  C   UNL A   1      39.373  32.849  30.221  1.00  0.00     0.074 A 
ATOM     53  C   UNL A   1      45.556  31.749  31.105  1.00  0.00     0.029 A 
ATOM     54  N   UNL A   1      43.388  31.557  30.640  1.00  0.00    -0.354 N 
ATOM     55  N   UNL A   1      40.636  32.533  30.368  1.00  0.00    -0.248 NA
ATOM     56  C   UNL A   1      39.036  34.211  30.661  1.00  0.00     0.031 C 
ATOM     57  C   UNL A   1      44.928  32.958  31.415  1.00  0.00     0.029 A 
ATOM     58  C   UNL A   1      43.582  32.845  31.106  1.00  0.00     0.049 A 
ATOM     59  H   UNL A   1      42.525  31.185  30.345  1.00  0.00     0.167 HD
ATOM     60  C   UNL A   1      41.250  33.661  30.897  1.00  0.00     0.074 A 
ATOM     61  C   UNL A   1      40.223  34.673  31.035  1.00  0.00     0.031 C 
ATOM     62  C   UNL A   1      42.549  33.839  31.235  1.00  0.00     0.031 A 
BRANCH  49  63
ATOM     63  C   UNL A   1      46.116  28.882  30.351  1.00  0.00    -0.014 A 
ATOM     64  C   UNL A   1      47.071  29.070  29.340  1.00  0.00     0.009 A 
ATOM     65  C   UNL A   1      46.470  28.150  31.495  1.00  0.00     0.009 A 
ATOM     66  C   UNL A   1      48.346  28.514  29.459  1.00  0.00     0.001 A 
ATOM     67  C   UNL A   1      47.753  27.617  31.624  1.00  0.00     0.001 A 
ATOM     68  C   UNL A   1      48.687  27.794  30.603  1.00  0.00     0.000 A 
ENDBRANCH  49  63
BRANCH  50  69
ATOM     69  C   UNL A   1      36.888  32.588  29.505  1.00  0.00    -0.014 A 
ATOM     70  C   UNL A   1      36.541  33.275  28.332  1.00  0.00     0.009 A 
ATOM     71  C   UNL A   1      35.922  32.428  30.511  1.00  0.00     0.009 A 
ATOM     72  C   UNL A   1      35.257  33.804  28.176  1.00  0.00     0.001 A 
ATOM     73  C   UNL A   1      34.632  32.938  30.341  1.00  0.00     0.001 A 
ATOM     74  C   UNL A   1      34.303  33.630  29.177  1.00  0.00     0.000 A 
ENDBRANCH  50  69
BRANCH  62  75
ATOM     75  C   UNL A   1      42.951  35.181  31.774  1.00  0.00    -0.014 A 
ATOM     76  C   UNL A   1      42.849  35.466  33.144  1.00  0.00     0.009 A 
ATOM     77  C   UNL A   1      43.533  36.128  30.919  1.00  0.00     0.009 A 
ATOM     78  C   UNL A   1      43.316  36.683  33.644  1.00  0.00     0.001 A 
ATOM     79  C   UNL A   1      44.020  37.333  31.426  1.00  0.00     0.001 A 
ATOM     80  C   UNL A   1      43.909  37.610  32.787  1.00  0.00     0.000 A 
ENDBRANCH  62  75
ENDBRANCH  36  37
ENDBRANCH  28  31
ENDBRANCH  26  27
ENDBRANCH  25  26
ENDBRANCH   1  25
TORSDOF 14
ENDMDL
MODEL 2
REMARK VINA RESULT:     -11.1      2.766      7.526
REMARK SMILES Cc1cc(Br)cc2c1O[C@H](C(F)(F)F)C(C(=O)NCCCCCCNC(=O)c1ccc(-c3c4nc(c(-c5ccccc5)c5ccc([nH]5)c(-c5ccccc5)c5nc(c(-c6ccccc6)c6ccc3[nH]6)C=C5)C=C4)cc1)=C2
REMARK SMILES IDX 22 1 21 2 20 3 19 4 18 5 16 6 17 7 15 9 1 10 2 11 3 12 8 13
REMARK SMILES IDX 4 14 7 15 9 16 5 17 6 18 76 19 10 20 11 21 12 22 13 23 14 24
REMARK SMILES IDX 23 25 24 26 25 27 26 28 27 30 28 31 29 32 75 33 30 34 74 35
REMARK SMILES IDX 31 36 32 37 33 38 68 39 34 40 73 41 67 42 69 43 35 44 72 45
REMARK SMILES IDX 66 46 65 47 36 49 58 50 43 51 57 52 44 53 47 54 56 55 70 56
REMARK SMILES IDX 45 57 46 58 55 60 71 61 48 62 37 63 38 64 42 65 39 66 41 67
REMARK SMILES IDX 40 68 59 69 60 70 64 71 61 72 63 73 62 74 49 75 50 76 54 77
REMARK SMILES IDX 51 78 53 79 52 80
REMARK H PARENT 18 8 25 29 69 48 47 59
REMARK Flexibility Score: inf
ROOT
ATOM      1  C   UNL A   1      33.823  28.686  24.482  1.00  0.00     0.002 C 
ENDROOT
BRANCH   1   2
ATOM      2  C   UNL A   1      32.722  28.928  23.440  1.00  0.00     0.002 C 
BRANCH   2   3
ATOM      3  C   UNL A   1      31.332  28.404  23.816  1.00  0.00     0.021 C 
BRANCH   3   4
ATOM      4  C   UNL A   1      30.716  27.469  22.779  1.00  0.00     0.116 C 
BRANCH   4   5
ATOM      5  N   UNL A   1      31.719  26.912  21.891  1.00  0.00    -0.352 N 
ATOM      6  C   UNL A   1      32.674  25.955  21.947  1.00  0.00     0.251 C 
ATOM      7  O   UNL A   1      33.309  25.789  20.900  1.00  0.00    -0.270 OA
ATOM      8  H   UNL A   1      31.700  27.349  21.008  1.00  0.00     0.163 HD
BRANCH   6   9
ATOM      9  C   UNL A   1      32.997  25.118  23.144  1.00  0.00     0.067 C 
ATOM     10  C   UNL A   1      33.205  22.613  27.659  1.00  0.00     0.048 C 
ATOM     11  C   UNL A   1      34.164  22.908  26.538  1.00  0.00    -0.007 A 
ATOM     12  C   UNL A   1      35.454  22.363  26.581  1.00  0.00     0.023 A 
ATOM     13  C   UNL A   1      33.787  23.666  25.420  1.00  0.00     0.130 A 
ATOM     14  C   UNL A   1      36.351  22.602  25.541  1.00  0.00     0.019 A 
ATOM     15  C   UNL A   1      34.690  23.911  24.380  1.00  0.00     0.019 A 
ATOM     16  O   UNL A   1      32.528  24.190  25.420  1.00  0.00    -0.475 OA
ATOM     17  Br  UNL A   1      38.093  21.872  25.623  1.00  0.00    -0.051 Br
ATOM     18  C   UNL A   1      35.979  23.377  24.443  1.00  0.00     0.027 A 
ATOM     19  C   UNL A   1      34.286  24.752  23.258  1.00  0.00     0.025 C 
ATOM     20  C   UNL A   1      31.989  24.654  24.154  1.00  0.00     0.314 C 
BRANCH  20  21
ATOM     21  C   UNL A   1      31.031  23.585  23.604  1.00  0.00     0.429 C 
ATOM     22  F   UNL A   1      30.538  22.825  24.615  1.00  0.00    -0.167 F 
ATOM     23  F   UNL A   1      29.958  24.119  22.975  1.00  0.00    -0.167 F 
ATOM     24  F   UNL A   1      31.631  22.752  22.726  1.00  0.00    -0.167 F 
ENDBRANCH  20  21
ENDBRANCH   6   9
ENDBRANCH   4   5
ENDBRANCH   3   4
ENDBRANCH   2   3
ENDBRANCH   1   2
BRANCH   1  25
ATOM     25  C   UNL A   1      33.479  27.681  25.585  1.00  0.00     0.021 C 
BRANCH  25  26
ATOM     26  C   UNL A   1      33.691  28.192  27.005  1.00  0.00     0.116 C 
BRANCH  26  27
ATOM     27  N   UNL A   1      33.498  29.629  27.106  1.00  0.00    -0.352 N 
ATOM     28  C   UNL A   1      34.317  30.573  27.672  1.00  0.00     0.251 C 
ATOM     29  H   UNL A   1      32.663  29.973  26.715  1.00  0.00     0.163 HD
ATOM     30  O   UNL A   1      33.923  31.724  27.832  1.00  0.00    -0.269 OA
BRANCH  28  31
ATOM     31  C   UNL A   1      35.675  30.191  28.107  1.00  0.00     0.039 A 
ATOM     32  C   UNL A   1      35.863  29.750  29.419  1.00  0.00     0.014 A 
ATOM     33  C   UNL A   1      36.755  30.262  27.221  1.00  0.00     0.014 A 
ATOM     34  C   UNL A   1      37.127  29.324  29.826  1.00  0.00     0.010 A 
ATOM     35  C   UNL A   1      38.000  29.775  27.610  1.00  0.00     0.010 A 
ATOM     36  C   UNL A   1      38.197  29.306  28.916  1.00  0.00    -0.014 A 
BRANCH  36  37
ATOM     37  C   UNL A   1      39.532  28.805  29.327  1.00  0.00     0.031 A 
ATOM     38  C   UNL A   1      40.394  29.623  30.246  1.00  0.00     0.074 A 
ATOM     39  C   UNL A   1      39.976  27.626  28.850  1.00  0.00     0.049 A 
ATOM     40  N   UNL A   1      41.581  29.343  30.723  1.00  0.00    -0.248 NA
ATOM     41  C   UNL A   1      39.867  30.930  30.671  1.00  0.00     0.031 C 
ATOM     42  C   UNL A   1      39.244  26.758  27.925  1.00  0.00     0.029 A 
ATOM     43  N   UNL A   1      41.145  26.949  29.088  1.00  0.00    -0.354 N 
ATOM     44  C   UNL A   1      41.939  30.437  31.501  1.00  0.00     0.074 A 
ATOM     45  C   UNL A   1      40.874  31.408  31.387  1.00  0.00     0.031 C 
ATOM     46  C   UNL A   1      39.962  25.644  27.709  1.00  0.00     0.029 A 
ATOM     47  C   UNL A   1      41.215  25.733  28.453  1.00  0.00     0.049 A 
ATOM     48  H   UNL A   1      41.866  27.302  29.659  1.00  0.00     0.167 HD
ATOM     49  C   UNL A   1      43.044  30.606  32.265  1.00  0.00     0.031 A 
ATOM     50  C   UNL A   1      42.176  24.790  28.475  1.00  0.00     0.031 A 
ATOM     51  C   UNL A   1      44.095  29.636  32.389  1.00  0.00     0.049 A 
ATOM     52  C   UNL A   1      43.406  25.013  29.310  1.00  0.00     0.074 A 
ATOM     53  C   UNL A   1      45.232  29.696  33.177  1.00  0.00     0.029 A 
ATOM     54  N   UNL A   1      44.139  28.429  31.709  1.00  0.00    -0.354 N 
ATOM     55  N   UNL A   1      43.700  26.026  30.087  1.00  0.00    -0.248 NA
ATOM     56  C   UNL A   1      44.431  23.960  29.276  1.00  0.00     0.031 C 
ATOM     57  C   UNL A   1      45.986  28.544  32.939  1.00  0.00     0.029 A 
ATOM     58  C   UNL A   1      45.295  27.746  32.041  1.00  0.00     0.049 A 
ATOM     59  H   UNL A   1      43.450  28.106  31.084  1.00  0.00     0.167 HD
ATOM     60  C   UNL A   1      44.933  25.725  30.651  1.00  0.00     0.074 A 
ATOM     61  C   UNL A   1      45.326  24.430  30.136  1.00  0.00     0.031 C 
ATOM     62  C   UNL A   1      45.670  26.458  31.520  1.00  0.00     0.031 A 
BRANCH  49  63
ATOM     63  C   UNL A   1      43.162  31.886  33.040  1.00  0.00    -0.014 A 
ATOM     64  C   UNL A   1      43.858  32.986  32.513  1.00  0.00     0.009 A 
ATOM     65  C   UNL A   1      42.529  32.015  34.286  1.00  0.00     0.009 A 
ATOM     66  C   UNL A   1      43.940  34.181  33.230  1.00  0.00     0.001 A 
ATOM     67  C   UNL A   1      42.591  33.218  34.989  1.00  0.00     0.001 A 
ATOM     68  C   UNL A   1      43.301  34.297  34.464  1.00  0.00     0.000 A 
ENDBRANCH  49  63
BRANCH  50  69
ATOM     69  C   UNL A   1      41.990  23.528  27.714  1.00  0.00    -0.014 A 
ATOM     70  C   UNL A   1      42.448  23.426  26.392  1.00  0.00     0.009 A 
ATOM     71  C   UNL A   1      41.376  22.415  28.308  1.00  0.00     0.009 A 
ATOM     72  C   UNL A   1      42.283  22.239  25.675  1.00  0.00     0.001 A 
ATOM     73  C   UNL A   1      41.234  21.221  27.596  1.00  0.00     0.001 A 
ATOM     74  C   UNL A   1      41.682  21.136  26.279  1.00  0.00     0.000 A 
ENDBRANCH  50  69
BRANCH  62  75
ATOM     75  C   UNL A   1      46.973  25.879  31.989  1.00  0.00    -0.014 A 
ATOM     76  C   UNL A   1      48.156  26.092  31.268  1.00  0.00     0.009 A 
ATOM     77  C   UNL A   1      47.032  25.205  33.218  1.00  0.00     0.009 A 
ATOM     78  C   UNL A   1      49.376  25.630  31.765  1.00  0.00     0.001 A 
ATOM     79  C   UNL A   1      48.255  24.765  33.724  1.00  0.00     0.001 A 
ATOM     80  C   UNL A   1      49.425  24.976  32.997  1.00  0.00     0.000 A 
ENDBRANCH  62  75
ENDBRANCH  36  37
ENDBRANCH  28  31
ENDBRANCH  26  27
ENDBRANCH  25  26
ENDBRANCH   1  25
TORSDOF 14
ENDMDL
MODEL 3
REMARK VINA RESULT:     -11.1      2.514      7.452
REMARK SMILES Cc1cc(Br)cc2c1O[C@H](C(F)(F)F)C(C(=O)NCCCCCCNC(=O)c1ccc(-c3c4nc(c(-c5ccccc5)c5ccc([nH]5)c(-c5ccccc5)c5nc(c(-c6ccccc6)c6ccc3[nH]6)C=C5)C=C4)cc1)=C2
REMARK SMILES IDX 22 1 21 2 20 3 19 4 18 5 16 6 17 7 15 9 1 10 2 11 3 12 8 13
REMARK SMILES IDX 4 14 7 15 9 16 5 17 6 18 76 19 10 20 11 21 12 22 13 23 14 24
REMARK SMILES IDX 23 25 24 26 25 27 26 28 27 30 28 31 29 32 75 33 30 34 74 35
REMARK SMILES IDX 31 36 32 37 33 38 68 39 34 40 73 41 67 42 69 43 35 44 72 45
REMARK SMILES IDX 66 46 65 47 36 49 58 50 43 51 57 52 44 53 47 54 56 55 70 56
REMARK SMILES IDX 45 57 46 58 55 60 71 61 48 62 37 63 38 64 42 65 39 66 41 67
REMARK SMILES IDX 40 68 59 69 60 70 64 71 61 72 63 73 62 74 49 75 50 76 54 77
REMARK SMILES IDX 51 78 53 79 52 80
REMARK H PARENT 18 8 25 29 69 48 47 59
REMARK Flexibility Score: inf
ROOT
ATOM      1  C   UNL A   1      33.283  29.343  24.874  1.00  0.00     0.002 C 
ENDROOT
BRANCH   1   2
ATOM      2  C   UNL A   1      31.792  29.184  24.545  1.00  0.00     0.002 C 
BRANCH   2   3
ATOM      3  C   UNL A   1      31.480  28.429  23.248  1.00  0.00     0.021 C 
BRANCH   3   4
ATOM      4  C   UNL A   1      31.322  26.922  23.426  1.00  0.00     0.116 C 
BRANCH   4   5
ATOM      5  N   UNL A   1      30.874  26.579  24.763  1.00  0.00    -0.352 N 
ATOM      6  C   UNL A   1      31.104  25.599  25.666  1.00  0.00     0.251 C 
ATOM      7  O   UNL A   1      30.499  25.723  26.737  1.00  0.00    -0.270 OA
ATOM      8  H   UNL A   1      30.227  27.239  25.105  1.00  0.00     0.163 HD
BRANCH   6   9
ATOM      9  C   UNL A   1      32.005  24.423  25.463  1.00  0.00     0.067 C 
ATOM     10  C   UNL A   1      34.216  19.812  24.717  1.00  0.00     0.048 C 
ATOM     11  C   UNL A   1      34.676  21.178  25.147  1.00  0.00    -0.007 A 
ATOM     12  C   UNL A   1      36.042  21.401  25.366  1.00  0.00     0.023 A 
ATOM     13  C   UNL A   1      33.786  22.253  25.280  1.00  0.00     0.130 A 
ATOM     14  C   UNL A   1      36.495  22.665  25.740  1.00  0.00     0.019 A 
ATOM     15  C   UNL A   1      34.240  23.520  25.662  1.00  0.00     0.019 A 
ATOM     16  O   UNL A   1      32.463  21.994  25.071  1.00  0.00    -0.475 OA
ATOM     17  Br  UNL A   1      38.339  22.944  26.047  1.00  0.00    -0.051 Br
ATOM     18  C   UNL A   1      35.602  23.725  25.894  1.00  0.00     0.027 A 
ATOM     19  C   UNL A   1      33.281  24.603  25.848  1.00  0.00     0.025 C 
ATOM     20  C   UNL A   1      31.582  23.125  24.841  1.00  0.00     0.314 C 
BRANCH  20  21
ATOM     21  C   UNL A   1      31.309  23.239  23.331  1.00  0.00     0.429 C 
ATOM     22  F   UNL A   1      32.246  24.022  22.739  1.00  0.00    -0.167 F 
ATOM     23  F   UNL A   1      31.362  22.043  22.699  1.00  0.00    -0.167 F 
ATOM     24  F   UNL A   1      30.100  23.778  23.061  1.00  0.00    -0.167 F 
ENDBRANCH  20  21
ENDBRANCH   6   9
ENDBRANCH   4   5
ENDBRANCH   3   4
ENDBRANCH   2   3
ENDBRANCH   1   2
BRANCH   1  25
ATOM     25  C   UNL A   1      33.864  28.299  25.832  1.00  0.00     0.021 C 
BRANCH  25  26
ATOM     26  C   UNL A   1      33.553  28.539  27.304  1.00  0.00     0.116 C 
BRANCH  26  27
ATOM     27  N   UNL A   1      33.503  29.954  27.631  1.00  0.00    -0.352 N 
ATOM     28  C   UNL A   1      34.459  30.739  28.224  1.00  0.00     0.251 C 
ATOM     29  H   UNL A   1      32.665  30.414  27.396  1.00  0.00     0.163 HD
ATOM     30  O   UNL A   1      34.190  31.877  28.593  1.00  0.00    -0.269 OA
BRANCH  28  31
ATOM     31  C   UNL A   1      35.816  30.197  28.437  1.00  0.00     0.039 A 
ATOM     32  C   UNL A   1      36.732  30.242  27.384  1.00  0.00     0.014 A 
ATOM     33  C   UNL A   1      36.182  29.652  29.673  1.00  0.00     0.014 A 
ATOM     34  C   UNL A   1      38.037  29.795  27.588  1.00  0.00     0.010 A 
ATOM     35  C   UNL A   1      37.501  29.267  29.894  1.00  0.00     0.010 A 
ATOM     36  C   UNL A   1      38.438  29.331  28.853  1.00  0.00    -0.014 A 
BRANCH  36  37
ATOM     37  C   UNL A   1      39.838  28.901  29.092  1.00  0.00     0.031 A 
ATOM     38  C   UNL A   1      40.802  29.822  29.783  1.00  0.00     0.074 A 
ATOM     39  C   UNL A   1      40.245  27.691  28.662  1.00  0.00     0.049 A 
ATOM     40  N   UNL A   1      42.058  29.617  30.090  1.00  0.00    -0.248 NA
ATOM     41  C   UNL A   1      40.300  31.153  30.162  1.00  0.00     0.031 C 
ATOM     42  C   UNL A   1      39.410  26.722  27.949  1.00  0.00     0.029 A 
ATOM     43  N   UNL A   1      41.461  27.066  28.773  1.00  0.00    -0.354 N 
ATOM     44  C   UNL A   1      42.492  30.788  30.697  1.00  0.00     0.074 A 
ATOM     45  C   UNL A   1      41.388  31.721  30.663  1.00  0.00     0.031 C 
ATOM     46  C   UNL A   1      40.127  25.608  27.727  1.00  0.00     0.029 A 
ATOM     47  C   UNL A   1      41.476  25.796  28.250  1.00  0.00     0.049 A 
ATOM     48  H   UNL A   1      42.248  27.488  29.188  1.00  0.00     0.167 HD
ATOM     49  C   UNL A   1      43.695  31.055  31.256  1.00  0.00     0.031 A 
ATOM     50  C   UNL A   1      42.462  24.881  28.208  1.00  0.00     0.031 A 
ATOM     51  C   UNL A   1      44.788  30.124  31.302  1.00  0.00     0.049 A 
ATOM     52  C   UNL A   1      43.798  25.210  28.813  1.00  0.00     0.074 A 
ATOM     53  C   UNL A   1      46.030  30.286  31.891  1.00  0.00     0.029 A 
ATOM     54  N   UNL A   1      44.770  28.858  30.739  1.00  0.00    -0.354 N 
ATOM     55  N   UNL A   1      44.173  26.300  29.437  1.00  0.00    -0.248 NA
ATOM     56  C   UNL A   1      44.844  24.181  28.715  1.00  0.00     0.031 C 
ATOM     57  C   UNL A   1      46.780  29.132  31.645  1.00  0.00     0.029 A 
ATOM     58  C   UNL A   1      45.988  28.236  30.945  1.00  0.00     0.049 A 
ATOM     59  H   UNL A   1      44.005  28.462  30.263  1.00  0.00     0.167 HD
ATOM     60  C   UNL A   1      45.488  26.081  29.824  1.00  0.00     0.074 A 
ATOM     61  C   UNL A   1      45.844  24.751  29.375  1.00  0.00     0.031 C 
ATOM     62  C   UNL A   1      46.324  26.911  30.494  1.00  0.00     0.031 A 
BRANCH  49  63
ATOM     63  C   UNL A   1      43.886  32.407  31.881  1.00  0.00    -0.014 A 
ATOM     64  C   UNL A   1      44.358  33.490  31.123  1.00  0.00     0.009 A 
ATOM     65  C   UNL A   1      43.542  32.615  33.226  1.00  0.00     0.009 A 
ATOM     66  C   UNL A   1      44.506  34.750  31.706  1.00  0.00     0.001 A 
ATOM     67  C   UNL A   1      43.667  33.881  33.799  1.00  0.00     0.001 A 
ATOM     68  C   UNL A   1      44.155  34.945  33.042  1.00  0.00     0.000 A 
ENDBRANCH  49  63
BRANCH  50  69
ATOM     69  C   UNL A   1      42.207  23.547  27.606  1.00  0.00    -0.014 A 
ATOM     70  C   UNL A   1      41.646  22.518  28.379  1.00  0.00     0.009 A 
ATOM     71  C   UNL A   1      42.498  23.301  26.256  1.00  0.00     0.009 A 
ATOM     72  C   UNL A   1      41.396  21.265  27.815  1.00  0.00     0.001 A 
ATOM     73  C   UNL A   1      42.224  22.053  25.688  1.00  0.00     0.001 A 
ATOM     74  C   UNL A   1      41.679  21.035  26.469  1.00  0.00     0.000 A 
ENDBRANCH  50  69
BRANCH  62  75
ATOM     75  C   UNL A   1      47.704  26.410  30.802  1.00  0.00    -0.014 A 
ATOM     76  C   UNL A   1      47.987  25.785  32.025  1.00  0.00     0.009 A 
ATOM     77  C   UNL A   1      48.703  26.471  29.818  1.00  0.00     0.009 A 
ATOM     78  C   UNL A   1      49.249  25.238  32.260  1.00  0.00     0.001 A 
ATOM     79  C   UNL A   1      49.956  25.903  30.047  1.00  0.00     0.001 A 
ATOM     80  C   UNL A   1      50.229  25.289  31.268  1.00  0.00     0.000 A 
ENDBRANCH  62  75
ENDBRANCH  36  37
ENDBRANCH  28  31
ENDBRANCH  26  27
ENDBRANCH  25  26
ENDBRANCH   1  25
TORSDOF 14
ENDMDL
