MODEL 1
REMARK VINA RESULT:     -11.0      0.000      0.000
REMARK SMILES C[C@@H]([C@H]1CC=CS1)n1nccc1NC(=O)CC1(CC(=O)NCCCCCCNC(=O)c2ccc(-c3c4nc(c(-c5ccccc5)c5ccc([nH]5)c(-c5ccccc5)c5nc(c(-c6ccccc6)c6ccc3[nH]6)C=C5)C=C4)cc2)CCCCC1
REMARK SMILES IDX 22 1 21 2 19 3 20 4 18 6 17 7 79 8 83 9 80 10 82 11 81 12
REMARK SMILES IDX 16 13 14 14 13 15 15 17 12 18 8 19 9 20 10 21 11 22 2 23
REMARK SMILES IDX 1 24 3 25 4 26 7 27 5 28 6 29 23 30 24 31 25 32 26 33 27 34
REMARK SMILES IDX 28 35 29 36 30 38 31 39 32 40 78 41 33 42 77 43 34 44 35 45
REMARK SMILES IDX 36 46 71 47 37 48 76 49 70 50 72 51 38 52 75 53 69 54 68 55
REMARK SMILES IDX 39 57 61 58 46 59 60 60 47 61 50 62 59 63 73 64 48 65 49 66
REMARK SMILES IDX 58 68 74 69 51 70 40 71 41 72 45 73 42 74 44 75 43 76 62 77
REMARK SMILES IDX 63 78 67 79 64 80 66 81 65 82 52 83 53 84 57 85 54 86 56 87
REMARK SMILES IDX 55 88
REMARK H PARENT 21 5 13 16 28 37 72 56 50 67
REMARK Flexibility Score: inf
ROOT
ATOM      1  C   UNL A   1      37.827  22.323  25.973  1.00  0.00     0.116 C 
ENDROOT
BRANCH   1   2
ATOM      2  N   UNL A   1      37.671  22.765  24.609  1.00  0.00    -0.356 N 
ATOM      3  C   UNL A   1      36.633  22.584  23.758  1.00  0.00     0.220 C 
ATOM      4  O   UNL A   1      36.699  23.089  22.638  1.00  0.00    -0.275 OA
ATOM      5  H   UNL A   1      38.431  23.274  24.242  1.00  0.00     0.163 HD
BRANCH   3   6
ATOM      6  C   UNL A   1      35.405  21.783  24.164  1.00  0.00     0.107 C 
BRANCH   6   7
ATOM      7  C   UNL A   1      34.083  22.545  24.480  1.00  0.00    -0.012 C 
ATOM      8  C   UNL A   1      32.983  21.480  24.727  1.00  0.00     0.008 C 
ATOM      9  C   UNL A   1      33.537  23.409  23.306  1.00  0.00     0.008 C 
ATOM     10  C   UNL A   1      32.539  20.681  23.499  1.00  0.00     0.001 C 
ATOM     11  C   UNL A   1      33.126  22.633  22.054  1.00  0.00     0.001 C 
ATOM     12  C   UNL A   1      32.060  21.604  22.385  1.00  0.00     0.000 C 
BRANCH   7  13
ATOM     13  C   UNL A   1      34.258  23.544  25.677  1.00  0.00     0.108 C 
BRANCH  13  14
ATOM     14  C   UNL A   1      33.252  23.575  26.814  1.00  0.00     0.226 C 
ATOM     15  N   UNL A   1      31.941  24.133  26.676  1.00  0.00    -0.311 N 
ATOM     16  H   UNL A   1      31.334  24.018  27.443  1.00  0.00     0.171 HD
ATOM     17  O   UNL A   1      33.480  23.156  27.929  1.00  0.00    -0.275 OA
BRANCH  15  18
ATOM     18  C   UNL A   1      31.435  24.811  25.591  1.00  0.00     0.131 A 
ATOM     19  N   UNL A   1      31.745  26.085  25.166  1.00  0.00    -0.246 N 
ATOM     20  N   UNL A   1      30.818  26.560  24.298  1.00  0.00    -0.179 NA
ATOM     21  C   UNL A   1      30.122  25.482  23.945  1.00  0.00     0.137 A 
ATOM     22  C   UNL A   1      30.501  24.350  24.687  1.00  0.00     0.068 A 
BRANCH  19  23
ATOM     23  C   UNL A   1      32.926  26.930  25.396  1.00  0.00     0.120 C 
ATOM     24  C   UNL A   1      33.760  27.240  24.152  1.00  0.00     0.034 C 
BRANCH  23  25
ATOM     25  C   UNL A   1      32.420  28.162  26.184  1.00  0.00     0.079 C 
ATOM     26  C   UNL A   1      33.520  28.795  27.060  1.00  0.00     0.045 C 
ATOM     27  S   UNL A   1      31.697  29.589  25.282  1.00  0.00    -0.128 SA
ATOM     28  C   UNL A   1      33.059  30.182  27.385  1.00  0.00    -0.019 C 
ATOM     29  C   UNL A   1      32.131  30.677  26.559  1.00  0.00     0.037 C 
ENDBRANCH  23  25
ENDBRANCH  19  23
ENDBRANCH  15  18
ENDBRANCH  13  14
ENDBRANCH   7  13
ENDBRANCH   6   7
ENDBRANCH   3   6
ENDBRANCH   1   2
BRANCH   1  30
ATOM     30  C   UNL A   1      39.115  22.873  26.588  1.00  0.00     0.021 C 
BRANCH  30  31
ATOM     31  C   UNL A   1      40.355  22.055  26.251  1.00  0.00     0.002 C 
BRANCH  31  32
ATOM     32  C   UNL A   1      41.075  21.464  27.469  1.00  0.00     0.002 C 
BRANCH  32  33
ATOM     33  C   UNL A   1      42.095  20.352  27.175  1.00  0.00     0.021 C 
BRANCH  33  34
ATOM     34  C   UNL A   1      42.051  19.860  25.735  1.00  0.00     0.116 C 
BRANCH  34  35
ATOM     35  N   UNL A   1      43.395  19.647  25.209  1.00  0.00    -0.352 N 
ATOM     36  C   UNL A   1      44.367  20.562  24.885  1.00  0.00     0.251 C 
ATOM     37  H   UNL A   1      43.642  18.706  25.063  1.00  0.00     0.163 HD
ATOM     38  O   UNL A   1      45.297  20.243  24.154  1.00  0.00    -0.269 OA
BRANCH  36  39
ATOM     39  C   UNL A   1      44.291  21.928  25.427  1.00  0.00     0.039 A 
ATOM     40  C   UNL A   1      43.453  22.875  24.831  1.00  0.00     0.014 A 
ATOM     41  C   UNL A   1      45.089  22.268  26.519  1.00  0.00     0.014 A 
ATOM     42  C   UNL A   1      43.379  24.150  25.380  1.00  0.00     0.010 A 
ATOM     43  C   UNL A   1      44.927  23.482  27.135  1.00  0.00     0.010 A 
ATOM     44  C   UNL A   1      44.111  24.440  26.541  1.00  0.00    -0.014 A 
BRANCH  44  45
ATOM     45  C   UNL A   1      43.903  25.690  27.255  1.00  0.00     0.031 A 
ATOM     46  C   UNL A   1      44.858  26.753  26.853  1.00  0.00     0.074 A 
ATOM     47  C   UNL A   1      42.803  25.938  27.998  1.00  0.00     0.049 A 
ATOM     48  N   UNL A   1      45.833  27.236  27.547  1.00  0.00    -0.248 NA
ATOM     49  C   UNL A   1      44.845  27.203  25.448  1.00  0.00     0.031 C 
ATOM     50  C   UNL A   1      41.639  25.065  28.186  1.00  0.00     0.029 A 
ATOM     51  N   UNL A   1      42.424  27.080  28.636  1.00  0.00    -0.354 N 
ATOM     52  C   UNL A   1      46.384  28.241  26.759  1.00  0.00     0.074 A 
ATOM     53  C   UNL A   1      45.917  27.997  25.418  1.00  0.00     0.031 C 
ATOM     54  C   UNL A   1      40.604  25.789  28.668  1.00  0.00     0.029 A 
ATOM     55  C   UNL A   1      41.072  27.131  28.966  1.00  0.00     0.049 A 
ATOM     56  H   UNL A   1      43.053  27.807  28.845  1.00  0.00     0.167 HD
ATOM     57  C   UNL A   1      46.854  29.385  27.333  1.00  0.00     0.031 A 
ATOM     58  C   UNL A   1      40.379  28.209  29.411  1.00  0.00     0.031 A 
ATOM     59  C   UNL A   1      47.042  29.214  28.757  1.00  0.00     0.049 A 
ATOM     60  C   UNL A   1      41.363  29.190  29.915  1.00  0.00     0.074 A 
ATOM     61  C   UNL A   1      47.736  28.332  29.563  1.00  0.00     0.029 A 
ATOM     62  N   UNL A   1      46.108  29.809  29.570  1.00  0.00    -0.354 N 
ATOM     63  N   UNL A   1      42.079  29.001  30.985  1.00  0.00    -0.248 NA
ATOM     64  C   UNL A   1      41.874  30.187  28.989  1.00  0.00     0.031 C 
ATOM     65  C   UNL A   1      46.889  28.115  30.692  1.00  0.00     0.029 A 
ATOM     66  C   UNL A   1      45.766  28.933  30.560  1.00  0.00     0.049 A 
ATOM     67  H   UNL A   1      45.745  30.717  29.458  1.00  0.00     0.167 HD
ATOM     68  C   UNL A   1      43.336  29.475  30.646  1.00  0.00     0.074 A 
ATOM     69  C   UNL A   1      43.119  30.305  29.461  1.00  0.00     0.031 C 
ATOM     70  C   UNL A   1      44.459  28.904  31.177  1.00  0.00     0.031 A 
BRANCH  57  71
ATOM     71  C   UNL A   1      46.609  30.763  26.738  1.00  0.00    -0.014 A 
ATOM     72  C   UNL A   1      47.664  31.695  26.779  1.00  0.00     0.009 A 
ATOM     73  C   UNL A   1      45.330  31.283  26.459  1.00  0.00     0.009 A 
ATOM     74  C   UNL A   1      47.426  33.072  26.701  1.00  0.00     0.001 A 
ATOM     75  C   UNL A   1      45.095  32.655  26.333  1.00  0.00     0.001 A 
ATOM     76  C   UNL A   1      46.137  33.552  26.496  1.00  0.00     0.000 A 
ENDBRANCH  57  71
BRANCH  58  77
ATOM     77  C   UNL A   1      38.954  28.571  29.224  1.00  0.00    -0.014 A 
ATOM     78  C   UNL A   1      38.093  28.675  30.330  1.00  0.00     0.009 A 
ATOM     79  C   UNL A   1      38.504  29.090  27.997  1.00  0.00     0.009 A 
ATOM     80  C   UNL A   1      36.854  29.321  30.224  1.00  0.00     0.001 A 
ATOM     81  C   UNL A   1      37.262  29.729  27.890  1.00  0.00     0.001 A 
ATOM     82  C   UNL A   1      36.446  29.861  29.007  1.00  0.00     0.000 A 
ENDBRANCH  58  77
BRANCH  70  83
ATOM     83  C   UNL A   1      44.294  27.993  32.366  1.00  0.00    -0.014 A 
ATOM     84  C   UNL A   1      44.041  26.613  32.267  1.00  0.00     0.009 A 
ATOM     85  C   UNL A   1      44.524  28.537  33.638  1.00  0.00     0.009 A 
ATOM     86  C   UNL A   1      43.979  25.815  33.414  1.00  0.00     0.001 A 
ATOM     87  C   UNL A   1      44.485  27.736  34.779  1.00  0.00     0.001 A 
ATOM     88  C   UNL A   1      44.204  26.377  34.669  1.00  0.00     0.000 A 
ENDBRANCH  70  83
ENDBRANCH  44  45
ENDBRANCH  36  39
ENDBRANCH  34  35
ENDBRANCH  33  34
ENDBRANCH  32  33
ENDBRANCH  31  32
ENDBRANCH  30  31
ENDBRANCH   1  30
TORSDOF 19
ENDMDL
MODEL 2
REMARK VINA RESULT:     -10.7      1.296      2.018
REMARK SMILES C[C@@H]([C@H]1CC=CS1)n1nccc1NC(=O)CC1(CC(=O)NCCCCCCNC(=O)c2ccc(-c3c4nc(c(-c5ccccc5)c5ccc([nH]5)c(-c5ccccc5)c5nc(c(-c6ccccc6)c6ccc3[nH]6)C=C5)C=C4)cc2)CCCCC1
REMARK SMILES IDX 22 1 21 2 19 3 20 4 18 6 17 7 79 8 83 9 80 10 82 11 81 12
REMARK SMILES IDX 16 13 14 14 13 15 15 17 12 18 8 19 9 20 10 21 11 22 2 23
REMARK SMILES IDX 1 24 3 25 4 26 7 27 5 28 6 29 23 30 24 31 25 32 26 33 27 34
REMARK SMILES IDX 28 35 29 36 30 38 31 39 32 40 78 41 33 42 77 43 34 44 35 45
REMARK SMILES IDX 36 46 71 47 37 48 76 49 70 50 72 51 38 52 75 53 69 54 68 55
REMARK SMILES IDX 39 57 61 58 46 59 60 60 47 61 50 62 59 63 73 64 48 65 49 66
REMARK SMILES IDX 58 68 74 69 51 70 40 71 41 72 45 73 42 74 44 75 43 76 62 77
REMARK SMILES IDX 63 78 67 79 64 80 66 81 65 82 52 83 53 84 57 85 54 86 56 87
REMARK SMILES IDX 55 88
REMARK H PARENT 21 5 13 16 28 37 72 56 50 67
REMARK Flexibility Score: inf
ROOT
ATOM      1  C   UNL A   1      38.117  21.882  25.794  1.00  0.00     0.116 C 
ENDROOT
BRANCH   1   2
ATOM      2  N   UNL A   1      37.807  22.599  24.582  1.00  0.00    -0.356 N 
ATOM      3  C   UNL A   1      36.665  22.608  23.853  1.00  0.00     0.220 C 
ATOM      4  O   UNL A   1      36.607  23.334  22.862  1.00  0.00    -0.275 OA
ATOM      5  H   UNL A   1      38.531  23.168  24.232  1.00  0.00     0.163 HD
BRANCH   3   6
ATOM      6  C   UNL A   1      35.470  21.750  24.242  1.00  0.00     0.107 C 
BRANCH   6   7
ATOM      7  C   UNL A   1      34.132  22.453  24.618  1.00  0.00    -0.012 C 
ATOM      8  C   UNL A   1      34.452  23.498  25.719  1.00  0.00     0.008 C 
ATOM      9  C   UNL A   1      33.067  21.517  25.263  1.00  0.00     0.008 C 
ATOM     10  C   UNL A   1      34.845  22.930  27.086  1.00  0.00     0.001 C 
ATOM     11  C   UNL A   1      33.457  20.907  26.609  1.00  0.00     0.001 C 
ATOM     12  C   UNL A   1      33.769  21.994  27.623  1.00  0.00     0.000 C 
BRANCH   7  13
ATOM     13  C   UNL A   1      33.425  23.073  23.362  1.00  0.00     0.108 C 
BRANCH  13  14
ATOM     14  C   UNL A   1      31.975  22.749  23.050  1.00  0.00     0.226 C 
ATOM     15  N   UNL A   1      30.880  23.518  23.560  1.00  0.00    -0.311 N 
ATOM     16  H   UNL A   1      29.985  23.282  23.222  1.00  0.00     0.171 HD
ATOM     17  O   UNL A   1      31.625  21.808  22.369  1.00  0.00    -0.275 OA
BRANCH  15  18
ATOM     18  C   UNL A   1      30.939  24.548  24.469  1.00  0.00     0.131 A 
ATOM     19  N   UNL A   1      30.880  25.902  24.223  1.00  0.00    -0.246 N 
ATOM     20  N   UNL A   1      31.322  26.622  25.284  1.00  0.00    -0.179 NA
ATOM     21  C   UNL A   1      31.351  25.742  26.283  1.00  0.00     0.137 A 
ATOM     22  C   UNL A   1      31.071  24.438  25.838  1.00  0.00     0.068 A 
BRANCH  19  23
ATOM     23  C   UNL A   1      30.327  26.666  23.094  1.00  0.00     0.120 C 
ATOM     24  C   UNL A   1      29.109  27.529  23.423  1.00  0.00     0.034 C 
BRANCH  23  25
ATOM     25  C   UNL A   1      31.524  27.416  22.462  1.00  0.00     0.079 C 
ATOM     26  C   UNL A   1      31.904  28.688  23.245  1.00  0.00     0.045 C 
ATOM     27  S   UNL A   1      33.124  26.547  22.224  1.00  0.00    -0.128 SA
ATOM     28  C   UNL A   1      33.298  29.044  22.827  1.00  0.00    -0.019 C 
ATOM     29  C   UNL A   1      33.999  28.041  22.289  1.00  0.00     0.037 C 
ENDBRANCH  23  25
ENDBRANCH  19  23
ENDBRANCH  15  18
ENDBRANCH  13  14
ENDBRANCH   7  13
ENDBRANCH   6   7
ENDBRANCH   3   6
ENDBRANCH   1   2
BRANCH   1  30
ATOM     30  C   UNL A   1      39.171  22.622  26.619  1.00  0.00     0.021 C 
BRANCH  30  31
ATOM     31  C   UNL A   1      40.593  22.134  26.377  1.00  0.00     0.002 C 
BRANCH  31  32
ATOM     32  C   UNL A   1      41.219  21.388  27.562  1.00  0.00     0.002 C 
BRANCH  32  33
ATOM     33  C   UNL A   1      42.205  20.263  27.206  1.00  0.00     0.021 C 
BRANCH  33  34
ATOM     34  C   UNL A   1      42.134  19.841  25.745  1.00  0.00     0.116 C 
BRANCH  34  35
ATOM     35  N   UNL A   1      43.467  19.651  25.185  1.00  0.00    -0.352 N 
ATOM     36  C   UNL A   1      44.418  20.582  24.845  1.00  0.00     0.251 C 
ATOM     37  H   UNL A   1      43.724  18.714  25.026  1.00  0.00     0.163 HD
ATOM     38  O   UNL A   1      45.335  20.283  24.090  1.00  0.00    -0.269 OA
BRANCH  36  39
ATOM     39  C   UNL A   1      44.336  21.943  25.400  1.00  0.00     0.039 A 
ATOM     40  C   UNL A   1      43.513  22.899  24.796  1.00  0.00     0.014 A 
ATOM     41  C   UNL A   1      45.113  22.268  26.511  1.00  0.00     0.014 A 
ATOM     42  C   UNL A   1      43.433  24.168  25.357  1.00  0.00     0.010 A 
ATOM     43  C   UNL A   1      44.943  23.477  27.136  1.00  0.00     0.010 A 
ATOM     44  C   UNL A   1      44.142  24.444  26.535  1.00  0.00    -0.014 A 
BRANCH  44  45
ATOM     45  C   UNL A   1      43.924  25.687  27.258  1.00  0.00     0.031 A 
ATOM     46  C   UNL A   1      44.875  26.758  26.869  1.00  0.00     0.074 A 
ATOM     47  C   UNL A   1      42.818  25.924  27.997  1.00  0.00     0.049 A 
ATOM     48  N   UNL A   1      45.844  27.242  27.571  1.00  0.00    -0.248 NA
ATOM     49  C   UNL A   1      44.867  27.219  25.468  1.00  0.00     0.031 C 
ATOM     50  C   UNL A   1      41.658  25.043  28.173  1.00  0.00     0.029 A 
ATOM     51  N   UNL A   1      42.431  27.058  28.642  1.00  0.00    -0.354 N 
ATOM     52  C   UNL A   1      46.393  28.256  26.794  1.00  0.00     0.074 A 
ATOM     53  C   UNL A   1      45.934  28.019  25.449  1.00  0.00     0.031 C 
ATOM     54  C   UNL A   1      40.617  25.757  28.655  1.00  0.00     0.029 A 
ATOM     55  C   UNL A   1      41.077  27.100  28.966  1.00  0.00     0.049 A 
ATOM     56  H   UNL A   1      43.054  27.788  28.860  1.00  0.00     0.167 HD
ATOM     57  C   UNL A   1      46.854  29.398  27.379  1.00  0.00     0.031 A 
ATOM     58  C   UNL A   1      40.375  28.171  29.415  1.00  0.00     0.031 A 
ATOM     59  C   UNL A   1      47.036  29.216  28.802  1.00  0.00     0.049 A 
ATOM     60  C   UNL A   1      41.352  29.153  29.932  1.00  0.00     0.074 A 
ATOM     61  C   UNL A   1      47.731  28.332  29.605  1.00  0.00     0.029 A 
ATOM     62  N   UNL A   1      46.095  29.800  29.615  1.00  0.00    -0.354 N 
ATOM     63  N   UNL A   1      42.063  28.960  31.004  1.00  0.00    -0.248 NA
ATOM     64  C   UNL A   1      41.862  30.160  29.016  1.00  0.00     0.031 C 
ATOM     65  C   UNL A   1      46.880  28.102  30.729  1.00  0.00     0.029 A 
ATOM     66  C   UNL A   1      45.753  28.915  30.597  1.00  0.00     0.049 A 
ATOM     67  H   UNL A   1      45.728  30.707  29.508  1.00  0.00     0.167 HD
ATOM     68  C   UNL A   1      43.320  29.443  30.675  1.00  0.00     0.074 A 
ATOM     69  C   UNL A   1      43.104  30.281  29.495  1.00  0.00     0.031 C 
ATOM     70  C   UNL A   1      44.443  28.874  31.207  1.00  0.00     0.031 A 
BRANCH  57  71
ATOM     71  C   UNL A   1      46.604  30.779  26.794  1.00  0.00    -0.014 A 
ATOM     72  C   UNL A   1      47.645  31.724  26.869  1.00  0.00     0.009 A 
ATOM     73  C   UNL A   1      45.325  31.285  26.490  1.00  0.00     0.009 A 
ATOM     74  C   UNL A   1      47.391  33.099  26.800  1.00  0.00     0.001 A 
ATOM     75  C   UNL A   1      45.075  32.655  26.373  1.00  0.00     0.001 A 
ATOM     76  C   UNL A   1      46.101  33.564  26.571  1.00  0.00     0.000 A 
ENDBRANCH  57  71
BRANCH  58  77
ATOM     77  C   UNL A   1      38.950  28.526  29.225  1.00  0.00    -0.014 A 
ATOM     78  C   UNL A   1      38.092  28.656  30.330  1.00  0.00     0.009 A 
ATOM     79  C   UNL A   1      38.495  29.015  27.987  1.00  0.00     0.009 A 
ATOM     80  C   UNL A   1      36.851  29.298  30.213  1.00  0.00     0.001 A 
ATOM     81  C   UNL A   1      37.252  29.650  27.868  1.00  0.00     0.001 A 
ATOM     82  C   UNL A   1      36.439  29.808  28.985  1.00  0.00     0.000 A 
ENDBRANCH  58  77
BRANCH  70  83
ATOM     83  C   UNL A   1      44.277  27.953  32.388  1.00  0.00    -0.014 A 
ATOM     84  C   UNL A   1      43.990  28.394  33.692  1.00  0.00     0.009 A 
ATOM     85  C   UNL A   1      44.295  26.573  32.142  1.00  0.00     0.009 A 
ATOM     86  C   UNL A   1      43.770  27.476  34.724  1.00  0.00     0.001 A 
ATOM     87  C   UNL A   1      44.052  25.657  33.166  1.00  0.00     0.001 A 
ATOM     88  C   UNL A   1      43.799  26.108  34.459  1.00  0.00     0.000 A 
ENDBRANCH  70  83
ENDBRANCH  44  45
ENDBRANCH  36  39
ENDBRANCH  34  35
ENDBRANCH  33  34
ENDBRANCH  32  33
ENDBRANCH  31  32
ENDBRANCH  30  31
ENDBRANCH   1  30
TORSDOF 19
ENDMDL
MODEL 3
REMARK VINA RESULT:     -10.3      3.239      5.016
REMARK SMILES C[C@@H]([C@H]1CC=CS1)n1nccc1NC(=O)CC1(CC(=O)NCCCCCCNC(=O)c2ccc(-c3c4nc(c(-c5ccccc5)c5ccc([nH]5)c(-c5ccccc5)c5nc(c(-c6ccccc6)c6ccc3[nH]6)C=C5)C=C4)cc2)CCCCC1
REMARK SMILES IDX 22 1 21 2 19 3 20 4 18 6 17 7 79 8 83 9 80 10 82 11 81 12
REMARK SMILES IDX 16 13 14 14 13 15 15 17 12 18 8 19 9 20 10 21 11 22 2 23
REMARK SMILES IDX 1 24 3 25 4 26 7 27 5 28 6 29 23 30 24 31 25 32 26 33 27 34
REMARK SMILES IDX 28 35 29 36 30 38 31 39 32 40 78 41 33 42 77 43 34 44 35 45
REMARK SMILES IDX 36 46 71 47 37 48 76 49 70 50 72 51 38 52 75 53 69 54 68 55
REMARK SMILES IDX 39 57 61 58 46 59 60 60 47 61 50 62 59 63 73 64 48 65 49 66
REMARK SMILES IDX 58 68 74 69 51 70 40 71 41 72 45 73 42 74 44 75 43 76 62 77
REMARK SMILES IDX 63 78 67 79 64 80 66 81 65 82 52 83 53 84 57 85 54 86 56 87
REMARK SMILES IDX 55 88
REMARK H PARENT 21 5 13 16 28 37 72 56 50 67
REMARK Flexibility Score: inf
ROOT
ATOM      1  C   UNL A   1      37.657  23.051  26.106  1.00  0.00     0.116 C 
ENDROOT
BRANCH   1   2
ATOM      2  N   UNL A   1      37.391  22.932  24.694  1.00  0.00    -0.356 N 
ATOM      3  C   UNL A   1      36.348  23.407  23.970  1.00  0.00     0.220 C 
ATOM      4  O   UNL A   1      36.346  23.220  22.754  1.00  0.00    -0.275 OA
ATOM      5  H   UNL A   1      38.067  22.435  24.179  1.00  0.00     0.163 HD
BRANCH   3   6
ATOM      6  C   UNL A   1      35.203  24.160  24.630  1.00  0.00     0.107 C 
BRANCH   6   7
ATOM      7  C   UNL A   1      33.776  23.535  24.596  1.00  0.00    -0.012 C 
ATOM      8  C   UNL A   1      33.198  23.624  26.033  1.00  0.00     0.008 C 
ATOM      9  C   UNL A   1      33.743  22.016  24.254  1.00  0.00     0.008 C 
ATOM     10  C   UNL A   1      33.857  22.719  27.077  1.00  0.00     0.001 C 
ATOM     11  C   UNL A   1      34.432  21.098  25.264  1.00  0.00     0.001 C 
ATOM     12  C   UNL A   1      33.817  21.259  26.644  1.00  0.00     0.000 C 
BRANCH   7  13
ATOM     13  C   UNL A   1      32.865  24.218  23.518  1.00  0.00     0.108 C 
BRANCH  13  14
ATOM     14  C   UNL A   1      33.372  25.400  22.712  1.00  0.00     0.226 C 
ATOM     15  N   UNL A   1      33.235  26.756  23.150  1.00  0.00    -0.311 N 
ATOM     16  H   UNL A   1      33.681  27.441  22.601  1.00  0.00     0.171 HD
ATOM     17  O   UNL A   1      33.909  25.298  21.629  1.00  0.00    -0.275 OA
BRANCH  15  18
ATOM     18  C   UNL A   1      32.550  27.207  24.254  1.00  0.00     0.131 A 
ATOM     19  N   UNL A   1      31.257  27.680  24.317  1.00  0.00    -0.246 N 
ATOM     20  N   UNL A   1      31.030  28.362  25.467  1.00  0.00    -0.179 NA
ATOM     21  C   UNL A   1      32.064  28.042  26.242  1.00  0.00     0.137 A 
ATOM     22  C   UNL A   1      33.020  27.280  25.549  1.00  0.00     0.068 A 
BRANCH  19  23
ATOM     23  C   UNL A   1      30.098  27.472  23.435  1.00  0.00     0.120 C 
ATOM     24  C   UNL A   1      29.119  26.389  23.888  1.00  0.00     0.034 C 
BRANCH  23  25
ATOM     25  C   UNL A   1      29.483  28.873  23.205  1.00  0.00     0.079 C 
ATOM     26  C   UNL A   1      30.118  29.608  22.008  1.00  0.00     0.045 C 
ATOM     27  S   UNL A   1      27.677  29.042  22.921  1.00  0.00    -0.128 SA
ATOM     28  C   UNL A   1      29.163  30.693  21.619  1.00  0.00    -0.019 C 
ATOM     29  C   UNL A   1      27.906  30.516  22.039  1.00  0.00     0.037 C 
ENDBRANCH  23  25
ENDBRANCH  19  23
ENDBRANCH  15  18
ENDBRANCH  13  14
ENDBRANCH   7  13
ENDBRANCH   6   7
ENDBRANCH   3   6
ENDBRANCH   1   2
BRANCH   1  30
ATOM     30  C   UNL A   1      39.160  23.038  26.388  1.00  0.00     0.021 C 
BRANCH  30  31
ATOM     31  C   UNL A   1      39.748  21.638  26.518  1.00  0.00     0.002 C 
BRANCH  31  32
ATOM     32  C   UNL A   1      41.089  21.580  27.263  1.00  0.00     0.002 C 
BRANCH  32  33
ATOM     33  C   UNL A   1      41.747  22.934  27.571  1.00  0.00     0.021 C 
BRANCH  33  34
ATOM     34  C   UNL A   1      42.485  22.956  28.902  1.00  0.00     0.116 C 
BRANCH  34  35
ATOM     35  N   UNL A   1      43.864  23.401  28.735  1.00  0.00    -0.352 N 
ATOM     36  C   UNL A   1      44.364  24.669  28.571  1.00  0.00     0.251 C 
ATOM     37  H   UNL A   1      44.537  22.683  28.739  1.00  0.00     0.163 HD
ATOM     38  O   UNL A   1      45.489  24.836  28.116  1.00  0.00    -0.269 OA
BRANCH  36  39
ATOM     39  C   UNL A   1      43.544  25.830  28.952  1.00  0.00     0.039 A 
ATOM     40  C   UNL A   1      43.616  26.345  30.250  1.00  0.00     0.014 A 
ATOM     41  C   UNL A   1      42.676  26.383  28.011  1.00  0.00     0.014 A 
ATOM     42  C   UNL A   1      42.851  27.459  30.575  1.00  0.00     0.010 A 
ATOM     43  C   UNL A   1      42.015  27.552  28.292  1.00  0.00     0.010 A 
ATOM     44  C   UNL A   1      42.063  28.063  29.585  1.00  0.00    -0.014 A 
BRANCH  44  45
ATOM     45  C   UNL A   1      41.412  29.341  29.832  1.00  0.00     0.031 A 
ATOM     46  C   UNL A   1      42.281  30.504  29.523  1.00  0.00     0.074 A 
ATOM     47  C   UNL A   1      40.086  29.458  30.057  1.00  0.00     0.049 A 
ATOM     48  N   UNL A   1      42.826  31.322  30.359  1.00  0.00    -0.248 NA
ATOM     49  C   UNL A   1      42.752  30.669  28.134  1.00  0.00     0.031 C 
ATOM     50  C   UNL A   1      39.082  28.388  30.053  1.00  0.00     0.029 A 
ATOM     51  N   UNL A   1      39.325  30.578  30.205  1.00  0.00    -0.354 N 
ATOM     52  C   UNL A   1      43.486  32.263  29.577  1.00  0.00     0.074 A 
ATOM     53  C   UNL A   1      43.621  31.672  28.270  1.00  0.00     0.031 C 
ATOM     54  C   UNL A   1      37.847  28.926  29.941  1.00  0.00     0.029 A 
ATOM     55  C   UNL A   1      37.960  30.372  30.022  1.00  0.00     0.049 A 
ATOM     56  H   UNL A   1      39.708  31.458  30.421  1.00  0.00     0.167 HD
ATOM     57  C   UNL A   1      43.522  33.572  29.959  1.00  0.00     0.031 A 
ATOM     58  C   UNL A   1      36.998  31.322  29.903  1.00  0.00     0.031 A 
ATOM     59  C   UNL A   1      43.163  33.717  31.352  1.00  0.00     0.049 A 
ATOM     60  C   UNL A   1      37.552  32.582  30.443  1.00  0.00     0.074 A 
ATOM     61  C   UNL A   1      43.608  33.188  32.549  1.00  0.00     0.029 A 
ATOM     62  N   UNL A   1      41.909  34.218  31.608  1.00  0.00    -0.354 N 
ATOM     63  N   UNL A   1      37.813  32.768  31.703  1.00  0.00    -0.248 NA
ATOM     64  C   UNL A   1      38.232  33.480  29.524  1.00  0.00     0.031 C 
ATOM     65  C   UNL A   1      42.429  32.993  33.331  1.00  0.00     0.029 A 
ATOM     66  C   UNL A   1      41.340  33.486  32.610  1.00  0.00     0.049 A 
ATOM     67  H   UNL A   1      41.490  34.979  31.145  1.00  0.00     0.167 HD
ATOM     68  C   UNL A   1      39.018  33.451  31.709  1.00  0.00     0.074 A 
ATOM     69  C   UNL A   1      39.162  33.972  30.349  1.00  0.00     0.031 C 
ATOM     70  C   UNL A   1      39.915  33.268  32.723  1.00  0.00     0.031 A 
BRANCH  57  71
ATOM     71  C   UNL A   1      43.329  34.719  28.979  1.00  0.00    -0.014 A 
ATOM     72  C   UNL A   1      42.018  35.178  28.754  1.00  0.00     0.009 A 
ATOM     73  C   UNL A   1      44.301  35.127  28.045  1.00  0.00     0.009 A 
ATOM     74  C   UNL A   1      41.676  35.869  27.585  1.00  0.00     0.001 A 
ATOM     75  C   UNL A   1      43.972  35.858  26.900  1.00  0.00     0.001 A 
ATOM     76  C   UNL A   1      42.651  36.192  26.649  1.00  0.00     0.000 A 
ENDBRANCH  57  71
BRANCH  58  77
ATOM     77  C   UNL A   1      35.723  31.299  29.149  1.00  0.00    -0.014 A 
ATOM     78  C   UNL A   1      34.864  32.412  29.163  1.00  0.00     0.009 A 
ATOM     79  C   UNL A   1      35.479  30.301  28.189  1.00  0.00     0.009 A 
ATOM     80  C   UNL A   1      33.837  32.546  28.220  1.00  0.00     0.001 A 
ATOM     81  C   UNL A   1      34.447  30.432  27.250  1.00  0.00     0.001 A 
ATOM     82  C   UNL A   1      33.639  31.563  27.254  1.00  0.00     0.000 A 
ENDBRANCH  58  77
BRANCH  70  83
ATOM     83  C   UNL A   1      39.435  32.581  33.976  1.00  0.00    -0.014 A 
ATOM     84  C   UNL A   1      38.940  33.261  35.103  1.00  0.00     0.009 A 
ATOM     85  C   UNL A   1      39.371  31.180  33.963  1.00  0.00     0.009 A 
ATOM     86  C   UNL A   1      38.437  32.553  36.199  1.00  0.00     0.001 A 
ATOM     87  C   UNL A   1      38.846  30.475  35.047  1.00  0.00     0.001 A 
ATOM     88  C   UNL A   1      38.388  31.161  36.169  1.00  0.00     0.000 A 
ENDBRANCH  70  83
ENDBRANCH  44  45
ENDBRANCH  36  39
ENDBRANCH  34  35
ENDBRANCH  33  34
ENDBRANCH  32  33
ENDBRANCH  31  32
ENDBRANCH  30  31
ENDBRANCH   1  30
TORSDOF 19
ENDMDL
