MODEL 1
REMARK VINA RESULT:     -13.6      0.000      0.000
REMARK SMILES O=C(NCCCCCCNC(=O)c1ccccc1C(=O)Nc1ccc(N2C(=O)[C@H]3[C@@H]4CC[C@@H](C4)[C@@H]3C2=O)cc1)c1ccc(-c2c3nc(c(-c4ccccc4)c4ccc([nH]4)c(-c4ccccc4)c4nc(c(-c5ccccc5)c5ccc2[nH]5)C=C4)C=C3)cc1
REMARK SMILES IDX 7 1 6 2 5 3 4 4 3 5 1 6 2 7 40 9 41 10 87 11 42 12 86 13
REMARK SMILES IDX 43 14 44 15 45 16 80 17 46 18 85 19 79 20 81 21 47 22 84 23
REMARK SMILES IDX 78 24 77 25 48 27 70 28 55 29 69 30 56 31 59 32 68 33 82 34
REMARK SMILES IDX 57 35 58 36 67 38 83 39 60 40 49 41 50 42 54 43 51 44 53 45
REMARK SMILES IDX 52 46 71 47 72 48 76 49 73 50 75 51 74 52 61 53 62 54 66 55
REMARK SMILES IDX 63 56 65 57 64 58 8 59 9 60 10 61 11 62 12 64 13 65 14 66
REMARK SMILES IDX 18 67 15 68 17 69 16 70 19 71 20 72 21 73 22 75 23 76 39 77
REMARK SMILES IDX 24 78 38 79 25 80 26 81 27 82 36 83 28 84 29 85 35 86 37 87
REMARK SMILES IDX 30 88 33 89 31 90 34 91 32 92
REMARK H PARENT 3 8 81 26 59 37 10 63 21 74
REMARK Flexibility Score: inf
ROOT
ATOM      1  C   UNL A   1      32.914  30.072  27.270  1.00  0.00     0.002 C 
ENDROOT
BRANCH   1   2
ATOM      2  C   UNL A   1      31.701  30.656  26.537  1.00  0.00     0.002 C 
BRANCH   2   3
ATOM      3  C   UNL A   1      31.482  32.152  26.690  1.00  0.00     0.021 C 
BRANCH   3   4
ATOM      4  C   UNL A   1      32.631  32.893  27.338  1.00  0.00     0.116 C 
BRANCH   4   5
ATOM      5  N   UNL A   1      32.319  34.276  27.668  1.00  0.00    -0.352 N 
ATOM      6  O   UNL A   1      32.535  36.200  28.856  1.00  0.00    -0.269 OA
ATOM      7  C   UNL A   1      32.953  35.080  28.587  1.00  0.00     0.251 C 
ATOM      8  H   UNL A   1      31.569  34.683  27.176  1.00  0.00     0.163 HD
BRANCH   7   9
ATOM      9  C   UNL A   1      34.138  34.533  29.279  1.00  0.00     0.039 A 
ATOM     10  C   UNL A   1      35.391  34.629  28.671  1.00  0.00     0.014 A 
ATOM     11  C   UNL A   1      33.976  33.827  30.472  1.00  0.00     0.014 A 
ATOM     12  C   UNL A   1      36.441  33.867  29.153  1.00  0.00     0.010 A 
ATOM     13  C   UNL A   1      35.072  33.166  31.029  1.00  0.00     0.010 A 
ATOM     14  C   UNL A   1      36.306  33.156  30.357  1.00  0.00    -0.014 A 
BRANCH  14  15
ATOM     15  C   UNL A   1      37.504  32.502  30.935  1.00  0.00     0.031 A 
ATOM     16  C   UNL A   1      38.155  31.317  30.282  1.00  0.00     0.074 A 
ATOM     17  C   UNL A   1      38.012  33.020  32.072  1.00  0.00     0.049 A 
ATOM     18  N   UNL A   1      39.203  30.640  30.677  1.00  0.00    -0.248 NA
ATOM     19  C   UNL A   1      37.555  30.822  29.033  1.00  0.00     0.031 C 
ATOM     20  C   UNL A   1      37.460  34.172  32.794  1.00  0.00     0.029 A 
ATOM     21  N   UNL A   1      39.112  32.667  32.807  1.00  0.00    -0.354 N 
ATOM     22  C   UNL A   1      39.375  29.623  29.744  1.00  0.00     0.074 A 
ATOM     23  C   UNL A   1      38.309  29.761  28.774  1.00  0.00     0.031 C 
ATOM     24  C   UNL A   1      38.255  34.467  33.828  1.00  0.00     0.029 A 
ATOM     25  C   UNL A   1      39.315  33.471  33.901  1.00  0.00     0.049 A 
ATOM     26  H   UNL A   1      39.699  31.912  32.573  1.00  0.00     0.167 HD
ATOM     27  C   UNL A   1      40.332  28.665  29.707  1.00  0.00     0.031 A 
ATOM     28  C   UNL A   1      40.232  33.402  34.880  1.00  0.00     0.031 A 
ATOM     29  C   UNL A   1      41.383  28.535  30.686  1.00  0.00     0.049 A 
ATOM     30  C   UNL A   1      41.246  32.299  34.839  1.00  0.00     0.074 A 
ATOM     31  C   UNL A   1      42.419  27.617  30.721  1.00  0.00     0.029 A 
ATOM     32  N   UNL A   1      41.527  29.340  31.807  1.00  0.00    -0.354 N 
ATOM     33  N   UNL A   1      41.411  31.366  33.935  1.00  0.00    -0.248 NA
ATOM     34  C   UNL A   1      42.197  32.241  35.954  1.00  0.00     0.031 C 
ATOM     35  C   UNL A   1      43.147  27.823  31.898  1.00  0.00     0.029 A 
ATOM     36  C   UNL A   1      42.613  28.918  32.557  1.00  0.00     0.049 A 
ATOM     37  H   UNL A   1      40.943  30.099  32.036  1.00  0.00     0.167 HD
ATOM     38  C   UNL A   1      42.499  30.619  34.360  1.00  0.00     0.074 A 
ATOM     39  C   UNL A   1      42.968  31.227  35.591  1.00  0.00     0.031 C 
ATOM     40  C   UNL A   1      43.061  29.529  33.784  1.00  0.00     0.031 A 
BRANCH  27  41
ATOM     41  C   UNL A   1      40.269  27.652  28.595  1.00  0.00    -0.014 A 
ATOM     42  C   UNL A   1      40.933  27.855  27.375  1.00  0.00     0.009 A 
ATOM     43  C   UNL A   1      39.573  26.448  28.792  1.00  0.00     0.009 A 
ATOM     44  C   UNL A   1      40.874  26.889  26.367  1.00  0.00     0.001 A 
ATOM     45  C   UNL A   1      39.542  25.470  27.795  1.00  0.00     0.001 A 
ATOM     46  C   UNL A   1      40.183  25.696  26.579  1.00  0.00     0.000 A 
ENDBRANCH  27  41
BRANCH  28  47
ATOM     47  C   UNL A   1      40.201  34.387  35.992  1.00  0.00    -0.014 A 
ATOM     48  C   UNL A   1      39.504  34.110  37.175  1.00  0.00     0.009 A 
ATOM     49  C   UNL A   1      40.890  35.607  35.877  1.00  0.00     0.009 A 
ATOM     50  C   UNL A   1      39.477  35.045  38.213  1.00  0.00     0.001 A 
ATOM     51  C   UNL A   1      40.891  36.522  36.930  1.00  0.00     0.001 A 
ATOM     52  C   UNL A   1      40.175  36.246  38.092  1.00  0.00     0.000 A 
ENDBRANCH  28  47
BRANCH  40  53
ATOM     53  C   UNL A   1      44.269  28.948  34.463  1.00  0.00    -0.014 A 
ATOM     54  C   UNL A   1      45.569  29.356  34.127  1.00  0.00     0.009 A 
ATOM     55  C   UNL A   1      44.098  27.989  35.475  1.00  0.00     0.009 A 
ATOM     56  C   UNL A   1      46.674  28.787  34.761  1.00  0.00     0.001 A 
ATOM     57  C   UNL A   1      45.204  27.447  36.131  1.00  0.00     0.001 A 
ATOM     58  C   UNL A   1      46.490  27.838  35.765  1.00  0.00     0.000 A 
ENDBRANCH  40  53
ENDBRANCH  14  15
ENDBRANCH   7   9
ENDBRANCH   4   5
ENDBRANCH   3   4
ENDBRANCH   2   3
ENDBRANCH   1   2
BRANCH   1  59
ATOM     59  C   UNL A   1      33.007  28.540  27.268  1.00  0.00     0.021 C 
BRANCH  59  60
ATOM     60  C   UNL A   1      31.654  27.838  27.356  1.00  0.00     0.116 C 
BRANCH  60  61
ATOM     61  N   UNL A   1      31.763  26.436  27.009  1.00  0.00    -0.352 N 
ATOM     62  C   UNL A   1      31.300  25.772  25.909  1.00  0.00     0.252 C 
ATOM     63  H   UNL A   1      32.241  25.878  27.664  1.00  0.00     0.163 HD
ATOM     64  O   UNL A   1      31.316  24.540  25.892  1.00  0.00    -0.269 OA
BRANCH  62  65
ATOM     65  C   UNL A   1      30.648  26.477  24.790  1.00  0.00     0.052 A 
ATOM     66  C   UNL A   1      29.275  26.143  24.690  1.00  0.00     0.014 A 
ATOM     67  C   UNL A   1      31.206  27.413  23.905  1.00  0.00     0.052 A 
ATOM     68  C   UNL A   1      28.423  26.802  23.811  1.00  0.00     0.001 A 
ATOM     69  C   UNL A   1      30.303  28.097  23.051  1.00  0.00     0.014 A 
ATOM     70  C   UNL A   1      28.934  27.810  23.014  1.00  0.00     0.001 A 
BRANCH  67  71
ATOM     71  C   UNL A   1      32.617  27.904  23.786  1.00  0.00     0.256 C 
ATOM     72  O   UNL A   1      32.785  29.130  23.839  1.00  0.00    -0.269 OA
ATOM     73  N   UNL A   1      33.773  27.162  23.710  1.00  0.00    -0.322 N 
ATOM     74  H   UNL A   1      34.591  27.711  23.698  1.00  0.00     0.170 HD
BRANCH  73  75
ATOM     75  C   UNL A   1      34.022  25.794  23.646  1.00  0.00     0.041 A 
ATOM     76  C   UNL A   1      34.594  25.217  24.785  1.00  0.00     0.028 A 
ATOM     77  C   UNL A   1      33.654  24.990  22.579  1.00  0.00     0.028 A 
ATOM     78  C   UNL A   1      34.469  23.851  25.007  1.00  0.00     0.029 A 
ATOM     79  C   UNL A   1      33.682  23.600  22.736  1.00  0.00     0.029 A 
ATOM     80  C   UNL A   1      33.964  23.044  23.994  1.00  0.00     0.052 A 
BRANCH  80  81
ATOM     81  N   UNL A   1      33.564  21.728  24.267  1.00  0.00    -0.250 N 
ATOM     82  C   UNL A   1      34.321  20.847  25.044  1.00  0.00     0.237 C 
ATOM     83  C   UNL A   1      32.533  21.074  23.554  1.00  0.00     0.237 C 
ATOM     84  O   UNL A   1      35.154  21.072  25.897  1.00  0.00    -0.274 OA
ATOM     85  C   UNL A   1      33.985  19.527  24.451  1.00  0.00     0.095 C 
ATOM     86  C   UNL A   1      32.499  19.715  24.190  1.00  0.00     0.095 C 
ATOM     87  O   UNL A   1      31.761  21.502  22.713  1.00  0.00    -0.274 OA
ATOM     88  C   UNL A   1      34.057  18.087  24.951  1.00  0.00     0.002 C 
ATOM     89  C   UNL A   1      32.104  18.289  23.819  1.00  0.00     0.002 C 
ATOM     90  C   UNL A   1      34.336  17.270  23.672  1.00  0.00     0.005 C 
ATOM     91  C   UNL A   1      32.586  17.653  25.150  1.00  0.00     0.009 C 
ATOM     92  C   UNL A   1      33.064  17.569  22.826  1.00  0.00     0.005 C 
ENDBRANCH  80  81
ENDBRANCH  73  75
ENDBRANCH  67  71
ENDBRANCH  62  65
ENDBRANCH  60  61
ENDBRANCH  59  60
ENDBRANCH   1  59
TORSDOF 16
ENDMDL
MODEL 2
REMARK VINA RESULT:     -13.5      0.223      5.542
REMARK SMILES O=C(NCCCCCCNC(=O)c1ccccc1C(=O)Nc1ccc(N2C(=O)[C@H]3[C@@H]4CC[C@@H](C4)[C@@H]3C2=O)cc1)c1ccc(-c2c3nc(c(-c4ccccc4)c4ccc([nH]4)c(-c4ccccc4)c4nc(c(-c5ccccc5)c5ccc2[nH]5)C=C4)C=C3)cc1
REMARK SMILES IDX 7 1 6 2 5 3 4 4 3 5 1 6 2 7 40 9 41 10 87 11 42 12 86 13
REMARK SMILES IDX 43 14 44 15 45 16 80 17 46 18 85 19 79 20 81 21 47 22 84 23
REMARK SMILES IDX 78 24 77 25 48 27 70 28 55 29 69 30 56 31 59 32 68 33 82 34
REMARK SMILES IDX 57 35 58 36 67 38 83 39 60 40 49 41 50 42 54 43 51 44 53 45
REMARK SMILES IDX 52 46 71 47 72 48 76 49 73 50 75 51 74 52 61 53 62 54 66 55
REMARK SMILES IDX 63 56 65 57 64 58 8 59 9 60 10 61 11 62 12 64 13 65 14 66
REMARK SMILES IDX 18 67 15 68 17 69 16 70 19 71 20 72 21 73 22 75 23 76 39 77
REMARK SMILES IDX 24 78 38 79 25 80 26 81 27 82 36 83 28 84 29 85 35 86 37 87
REMARK SMILES IDX 30 88 33 89 31 90 34 91 32 92
REMARK H PARENT 3 8 81 26 59 37 10 63 21 74
REMARK Flexibility Score: inf
ROOT
ATOM      1  C   UNL A   1      32.999  30.014  27.214  1.00  0.00     0.002 C 
ENDROOT
BRANCH   1   2
ATOM      2  C   UNL A   1      31.678  30.567  26.666  1.00  0.00     0.002 C 
BRANCH   2   3
ATOM      3  C   UNL A   1      31.537  32.079  26.659  1.00  0.00     0.021 C 
BRANCH   3   4
ATOM      4  C   UNL A   1      32.656  32.819  27.358  1.00  0.00     0.116 C 
BRANCH   4   5
ATOM      5  N   UNL A   1      32.338  34.209  27.656  1.00  0.00    -0.352 N 
ATOM      6  O   UNL A   1      32.533  36.154  28.811  1.00  0.00    -0.269 OA
ATOM      7  C   UNL A   1      32.956  35.030  28.570  1.00  0.00     0.251 C 
ATOM      8  H   UNL A   1      31.595  34.605  27.145  1.00  0.00     0.163 HD
BRANCH   7   9
ATOM      9  C   UNL A   1      34.131  34.498  29.290  1.00  0.00     0.039 A 
ATOM     10  C   UNL A   1      35.401  34.641  28.729  1.00  0.00     0.014 A 
ATOM     11  C   UNL A   1      33.947  33.760  30.460  1.00  0.00     0.014 A 
ATOM     12  C   UNL A   1      36.454  33.895  29.230  1.00  0.00     0.010 A 
ATOM     13  C   UNL A   1      35.041  33.115  31.040  1.00  0.00     0.010 A 
ATOM     14  C   UNL A   1      36.297  33.153  30.411  1.00  0.00    -0.014 A 
BRANCH  14  15
ATOM     15  C   UNL A   1      37.491  32.517  31.017  1.00  0.00     0.031 A 
ATOM     16  C   UNL A   1      38.095  33.019  32.297  1.00  0.00     0.074 A 
ATOM     17  C   UNL A   1      38.017  31.446  30.388  1.00  0.00     0.049 A 
ATOM     18  N   UNL A   1      39.141  32.565  32.940  1.00  0.00    -0.248 NA
ATOM     19  C   UNL A   1      37.453  34.178  32.936  1.00  0.00     0.031 C 
ATOM     20  C   UNL A   1      37.510  30.871  29.137  1.00  0.00     0.029 A 
ATOM     21  N   UNL A   1      39.071  30.638  30.718  1.00  0.00    -0.354 N 
ATOM     22  C   UNL A   1      39.302  33.397  34.042  1.00  0.00     0.074 A 
ATOM     23  C   UNL A   1      38.256  34.395  33.970  1.00  0.00     0.031 C 
ATOM     24  C   UNL A   1      38.213  29.772  28.840  1.00  0.00     0.029 A 
ATOM     25  C   UNL A   1      39.277  29.619  29.821  1.00  0.00     0.049 A 
ATOM     26  H   UNL A   1      39.627  30.774  31.520  1.00  0.00     0.167 HD
ATOM     27  C   UNL A   1      40.238  33.330  35.020  1.00  0.00     0.031 A 
ATOM     28  C   UNL A   1      40.236  28.680  29.768  1.00  0.00     0.031 A 
ATOM     29  C   UNL A   1      41.279  32.334  35.074  1.00  0.00     0.049 A 
ATOM     30  C   UNL A   1      41.288  28.665  30.835  1.00  0.00     0.074 A 
ATOM     31  C   UNL A   1      42.258  32.163  36.039  1.00  0.00     0.029 A 
ATOM     32  N   UNL A   1      41.484  31.348  34.120  1.00  0.00    -0.354 N 
ATOM     33  N   UNL A   1      41.407  29.440  31.885  1.00  0.00    -0.248 NA
ATOM     34  C   UNL A   1      42.337  27.648  30.708  1.00  0.00     0.031 C 
ATOM     35  C   UNL A   1      43.094  31.118  35.633  1.00  0.00     0.029 A 
ATOM     36  C   UNL A   1      42.593  30.587  34.456  1.00  0.00     0.049 A 
ATOM     37  H   UNL A   1      40.925  31.209  33.323  1.00  0.00     0.167 HD
ATOM     38  C   UNL A   1      42.533  28.991  32.558  1.00  0.00     0.074 A 
ATOM     39  C   UNL A   1      43.045  27.860  31.807  1.00  0.00     0.031 C 
ATOM     40  C   UNL A   1      43.094  29.471  33.694  1.00  0.00     0.031 A 
BRANCH  27  41
ATOM     41  C   UNL A   1      40.209  34.387  36.093  1.00  0.00    -0.014 A 
ATOM     42  C   UNL A   1      39.485  34.209  37.282  1.00  0.00     0.009 A 
ATOM     43  C   UNL A   1      40.964  35.560  35.931  1.00  0.00     0.009 A 
ATOM     44  C   UNL A   1      39.491  35.198  38.270  1.00  0.00     0.001 A 
ATOM     45  C   UNL A   1      40.994  36.532  36.933  1.00  0.00     0.001 A 
ATOM     46  C   UNL A   1      40.250  36.356  38.097  1.00  0.00     0.000 A 
ENDBRANCH  27  41
BRANCH  28  47
ATOM     47  C   UNL A   1      40.256  27.707  28.645  1.00  0.00    -0.014 A 
ATOM     48  C   UNL A   1      40.935  28.001  27.455  1.00  0.00     0.009 A 
ATOM     49  C   UNL A   1      39.606  26.468  28.769  1.00  0.00     0.009 A 
ATOM     50  C   UNL A   1      40.944  27.082  26.403  1.00  0.00     0.001 A 
ATOM     51  C   UNL A   1      39.648  25.537  27.731  1.00  0.00     0.001 A 
ATOM     52  C   UNL A   1      40.306  25.850  26.544  1.00  0.00     0.000 A 
ENDBRANCH  28  47
BRANCH  40  53
ATOM     53  C   UNL A   1      44.305  28.747  34.212  1.00  0.00    -0.014 A 
ATOM     54  C   UNL A   1      44.199  27.736  35.180  1.00  0.00     0.009 A 
ATOM     55  C   UNL A   1      45.573  29.072  33.704  1.00  0.00     0.009 A 
ATOM     56  C   UNL A   1      45.342  27.093  35.657  1.00  0.00     0.001 A 
ATOM     57  C   UNL A   1      46.710  28.402  34.157  1.00  0.00     0.001 A 
ATOM     58  C   UNL A   1      46.594  27.422  35.141  1.00  0.00     0.000 A 
ENDBRANCH  40  53
ENDBRANCH  14  15
ENDBRANCH   7   9
ENDBRANCH   4   5
ENDBRANCH   3   4
ENDBRANCH   2   3
ENDBRANCH   1   2
BRANCH   1  59
ATOM     59  C   UNL A   1      33.067  28.486  27.347  1.00  0.00     0.021 C 
BRANCH  59  60
ATOM     60  C   UNL A   1      31.701  27.807  27.379  1.00  0.00     0.116 C 
BRANCH  60  61
ATOM     61  N   UNL A   1      31.802  26.400  27.049  1.00  0.00    -0.352 N 
ATOM     62  C   UNL A   1      31.333  25.726  25.958  1.00  0.00     0.252 C 
ATOM     63  H   UNL A   1      32.279  25.848  27.708  1.00  0.00     0.163 HD
ATOM     64  O   UNL A   1      31.343  24.494  25.955  1.00  0.00    -0.269 OA
BRANCH  62  65
ATOM     65  C   UNL A   1      30.681  26.422  24.832  1.00  0.00     0.052 A 
ATOM     66  C   UNL A   1      29.317  26.058  24.711  1.00  0.00     0.014 A 
ATOM     67  C   UNL A   1      31.232  27.373  23.959  1.00  0.00     0.052 A 
ATOM     68  C   UNL A   1      28.465  26.702  23.823  1.00  0.00     0.001 A 
ATOM     69  C   UNL A   1      30.326  28.041  23.095  1.00  0.00     0.014 A 
ATOM     70  C   UNL A   1      28.964  27.724  23.037  1.00  0.00     0.001 A 
BRANCH  67  71
ATOM     71  C   UNL A   1      32.633  27.895  23.862  1.00  0.00     0.256 C 
ATOM     72  O   UNL A   1      32.771  29.126  23.900  1.00  0.00    -0.269 OA
ATOM     73  N   UNL A   1      33.807  27.180  23.821  1.00  0.00    -0.322 N 
ATOM     74  H   UNL A   1      34.612  27.747  23.818  1.00  0.00     0.170 HD
BRANCH  73  75
ATOM     75  C   UNL A   1      34.089  25.817  23.783  1.00  0.00     0.041 A 
ATOM     76  C   UNL A   1      34.630  25.266  24.949  1.00  0.00     0.028 A 
ATOM     77  C   UNL A   1      33.780  24.993  22.712  1.00  0.00     0.028 A 
ATOM     78  C   UNL A   1      34.527  23.900  25.182  1.00  0.00     0.029 A 
ATOM     79  C   UNL A   1      33.833  23.606  22.887  1.00  0.00     0.029 A 
ATOM     80  C   UNL A   1      34.079  23.071  24.162  1.00  0.00     0.052 A 
BRANCH  80  81
ATOM     81  N   UNL A   1      33.699  21.749  24.434  1.00  0.00    -0.250 N 
ATOM     82  C   UNL A   1      34.560  20.813  25.013  1.00  0.00     0.237 C 
ATOM     83  C   UNL A   1      32.538  21.155  23.890  1.00  0.00     0.237 C 
ATOM     84  O   UNL A   1      35.540  20.975  25.709  1.00  0.00    -0.274 OA
ATOM     85  C   UNL A   1      34.084  19.534  24.425  1.00  0.00     0.095 C 
ATOM     86  C   UNL A   1      32.582  19.763  24.450  1.00  0.00     0.095 C 
ATOM     87  O   UNL A   1      31.638  21.642  23.227  1.00  0.00    -0.274 OA
ATOM     88  C   UNL A   1      34.207  18.067  24.827  1.00  0.00     0.002 C 
ATOM     89  C   UNL A   1      32.086  18.367  24.084  1.00  0.00     0.002 C 
ATOM     90  C   UNL A   1      34.225  17.318  23.478  1.00  0.00     0.005 C 
ATOM     91  C   UNL A   1      32.784  17.649  25.270  1.00  0.00     0.009 C 
ATOM     92  C   UNL A   1      32.829  17.687  22.897  1.00  0.00     0.005 C 
ENDBRANCH  80  81
ENDBRANCH  73  75
ENDBRANCH  67  71
ENDBRANCH  62  65
ENDBRANCH  60  61
ENDBRANCH  59  60
ENDBRANCH   1  59
TORSDOF 16
ENDMDL
MODEL 3
REMARK VINA RESULT:     -13.1      3.616      8.077
REMARK SMILES O=C(NCCCCCCNC(=O)c1ccccc1C(=O)Nc1ccc(N2C(=O)[C@H]3[C@@H]4CC[C@@H](C4)[C@@H]3C2=O)cc1)c1ccc(-c2c3nc(c(-c4ccccc4)c4ccc([nH]4)c(-c4ccccc4)c4nc(c(-c5ccccc5)c5ccc2[nH]5)C=C4)C=C3)cc1
REMARK SMILES IDX 7 1 6 2 5 3 4 4 3 5 1 6 2 7 40 9 41 10 87 11 42 12 86 13
REMARK SMILES IDX 43 14 44 15 45 16 80 17 46 18 85 19 79 20 81 21 47 22 84 23
REMARK SMILES IDX 78 24 77 25 48 27 70 28 55 29 69 30 56 31 59 32 68 33 82 34
REMARK SMILES IDX 57 35 58 36 67 38 83 39 60 40 49 41 50 42 54 43 51 44 53 45
REMARK SMILES IDX 52 46 71 47 72 48 76 49 73 50 75 51 74 52 61 53 62 54 66 55
REMARK SMILES IDX 63 56 65 57 64 58 8 59 9 60 10 61 11 62 12 64 13 65 14 66
REMARK SMILES IDX 18 67 15 68 17 69 16 70 19 71 20 72 21 73 22 75 23 76 39 77
REMARK SMILES IDX 24 78 38 79 25 80 26 81 27 82 36 83 28 84 29 85 35 86 37 87
REMARK SMILES IDX 30 88 33 89 31 90 34 91 32 92
REMARK H PARENT 3 8 81 26 59 37 10 63 21 74
REMARK Flexibility Score: inf
ROOT
ATOM      1  C   UNL A   1      36.093  22.562  25.594  1.00  0.00     0.002 C 
ENDROOT
BRANCH   1   2
ATOM      2  C   UNL A   1      36.165  21.075  25.229  1.00  0.00     0.002 C 
BRANCH   2   3
ATOM      3  C   UNL A   1      37.507  20.576  24.719  1.00  0.00     0.021 C 
BRANCH   3   4
ATOM      4  C   UNL A   1      38.657  20.768  25.682  1.00  0.00     0.116 C 
BRANCH   4   5
ATOM      5  N   UNL A   1      39.613  19.669  25.674  1.00  0.00    -0.352 N 
ATOM      6  O   UNL A   1      41.676  18.745  25.890  1.00  0.00    -0.269 OA
ATOM      7  C   UNL A   1      40.939  19.712  26.037  1.00  0.00     0.251 C 
ATOM      8  H   UNL A   1      39.270  18.796  25.373  1.00  0.00     0.163 HD
BRANCH   7   9
ATOM      9  C   UNL A   1      41.464  20.983  26.577  1.00  0.00     0.039 A 
ATOM     10  C   UNL A   1      41.341  21.250  27.942  1.00  0.00     0.014 A 
ATOM     11  C   UNL A   1      41.970  21.947  25.704  1.00  0.00     0.014 A 
ATOM     12  C   UNL A   1      41.546  22.539  28.403  1.00  0.00     0.010 A 
ATOM     13  C   UNL A   1      42.304  23.209  26.199  1.00  0.00     0.010 A 
ATOM     14  C   UNL A   1      42.065  23.524  27.547  1.00  0.00    -0.014 A 
BRANCH  14  15
ATOM     15  C   UNL A   1      42.444  24.838  28.119  1.00  0.00     0.031 A 
ATOM     16  C   UNL A   1      43.859  25.156  28.507  1.00  0.00     0.074 A 
ATOM     17  C   UNL A   1      41.472  25.761  28.266  1.00  0.00     0.049 A 
ATOM     18  N   UNL A   1      44.337  26.260  29.024  1.00  0.00    -0.248 NA
ATOM     19  C   UNL A   1      44.868  24.106  28.298  1.00  0.00     0.031 C 
ATOM     20  C   UNL A   1      40.060  25.559  27.921  1.00  0.00     0.029 A 
ATOM     21  N   UNL A   1      41.520  27.052  28.718  1.00  0.00    -0.354 N 
ATOM     22  C   UNL A   1      45.693  26.031  29.228  1.00  0.00     0.074 A 
ATOM     23  C   UNL A   1      45.958  24.675  28.797  1.00  0.00     0.031 C 
ATOM     24  C   UNL A   1      39.392  26.702  28.116  1.00  0.00     0.029 A 
ATOM     25  C   UNL A   1      40.301  27.683  28.688  1.00  0.00     0.049 A 
ATOM     26  H   UNL A   1      42.346  27.485  29.033  1.00  0.00     0.167 HD
ATOM     27  C   UNL A   1      46.624  26.877  29.731  1.00  0.00     0.031 A 
ATOM     28  C   UNL A   1      39.939  28.908  29.106  1.00  0.00     0.031 A 
ATOM     29  C   UNL A   1      46.343  28.224  30.164  1.00  0.00     0.049 A 
ATOM     30  C   UNL A   1      40.983  29.801  29.705  1.00  0.00     0.074 A 
ATOM     31  C   UNL A   1      47.223  29.171  30.660  1.00  0.00     0.029 A 
ATOM     32  N   UNL A   1      45.086  28.811  30.163  1.00  0.00    -0.354 N 
ATOM     33  N   UNL A   1      42.264  29.579  29.863  1.00  0.00    -0.248 NA
ATOM     34  C   UNL A   1      40.528  31.110  30.185  1.00  0.00     0.031 C 
ATOM     35  C   UNL A   1      46.489  30.304  31.022  1.00  0.00     0.029 A 
ATOM     36  C   UNL A   1      45.162  30.094  30.681  1.00  0.00     0.049 A 
ATOM     37  H   UNL A   1      44.262  28.380  29.841  1.00  0.00     0.167 HD
ATOM     38  C   UNL A   1      42.776  30.730  30.442  1.00  0.00     0.074 A 
ATOM     39  C   UNL A   1      41.668  31.656  30.583  1.00  0.00     0.031 C 
ATOM     40  C   UNL A   1      44.049  30.998  30.822  1.00  0.00     0.031 A 
BRANCH  27  41
ATOM     41  C   UNL A   1      48.032  26.363  29.881  1.00  0.00    -0.014 A 
ATOM     42  C   UNL A   1      48.479  25.776  31.074  1.00  0.00     0.009 A 
ATOM     43  C   UNL A   1      48.911  26.420  28.786  1.00  0.00     0.009 A 
ATOM     44  C   UNL A   1      49.785  25.289  31.179  1.00  0.00     0.001 A 
ATOM     45  C   UNL A   1      50.205  25.904  28.882  1.00  0.00     0.001 A 
ATOM     46  C   UNL A   1      50.645  25.348  30.082  1.00  0.00     0.000 A 
ENDBRANCH  27  41
BRANCH  28  47
ATOM     47  C   UNL A   1      38.520  29.335  28.998  1.00  0.00    -0.014 A 
ATOM     48  C   UNL A   1      37.658  29.240  30.099  1.00  0.00     0.009 A 
ATOM     49  C   UNL A   1      38.027  29.860  27.792  1.00  0.00     0.009 A 
ATOM     50  C   UNL A   1      36.325  29.639  29.987  1.00  0.00     0.001 A 
ATOM     51  C   UNL A   1      36.705  30.293  27.694  1.00  0.00     0.001 A 
ATOM     52  C   UNL A   1      35.851  30.171  28.788  1.00  0.00     0.000 A 
ENDBRANCH  28  47
BRANCH  40  53
ATOM     53  C   UNL A   1      44.313  32.363  31.394  1.00  0.00    -0.014 A 
ATOM     54  C   UNL A   1      44.523  33.478  30.568  1.00  0.00     0.009 A 
ATOM     55  C   UNL A   1      44.332  32.536  32.787  1.00  0.00     0.009 A 
ATOM     56  C   UNL A   1      44.785  34.730  31.125  1.00  0.00     0.001 A 
ATOM     57  C   UNL A   1      44.559  33.796  33.342  1.00  0.00     0.001 A 
ATOM     58  C   UNL A   1      44.797  34.889  32.510  1.00  0.00     0.000 A 
ENDBRANCH  40  53
ENDBRANCH  14  15
ENDBRANCH   7   9
ENDBRANCH   4   5
ENDBRANCH   3   4
ENDBRANCH   2   3
ENDBRANCH   1   2
BRANCH   1  59
ATOM     59  C   UNL A   1      35.577  23.487  24.483  1.00  0.00     0.021 C 
BRANCH  59  60
ATOM     60  C   UNL A   1      34.735  24.655  24.990  1.00  0.00     0.116 C 
BRANCH  60  61
ATOM     61  N   UNL A   1      34.456  25.604  23.933  1.00  0.00    -0.352 N 
ATOM     62  C   UNL A   1      33.616  26.681  23.930  1.00  0.00     0.252 C 
ATOM     63  H   UNL A   1      34.943  25.451  23.093  1.00  0.00     0.163 HD
ATOM     64  O   UNL A   1      33.363  27.250  22.866  1.00  0.00    -0.269 OA
BRANCH  62  65
ATOM     65  C   UNL A   1      32.887  27.105  25.139  1.00  0.00     0.052 A 
ATOM     66  C   UNL A   1      33.748  27.719  26.082  1.00  0.00     0.014 A 
ATOM     67  C   UNL A   1      31.513  27.005  25.409  1.00  0.00     0.052 A 
ATOM     68  C   UNL A   1      33.259  28.336  27.227  1.00  0.00     0.001 A 
ATOM     69  C   UNL A   1      31.041  27.683  26.563  1.00  0.00     0.014 A 
ATOM     70  C   UNL A   1      31.894  28.350  27.449  1.00  0.00     0.001 A 
BRANCH  67  71
ATOM     71  C   UNL A   1      30.416  26.382  24.601  1.00  0.00     0.256 C 
ATOM     72  O   UNL A   1      29.478  27.122  24.272  1.00  0.00    -0.269 OA
ATOM     73  N   UNL A   1      30.350  25.103  24.098  1.00  0.00    -0.322 N 
ATOM     74  H   UNL A   1      29.552  24.940  23.543  1.00  0.00     0.170 HD
BRANCH  73  75
ATOM     75  C   UNL A   1      31.182  23.993  24.212  1.00  0.00     0.041 A 
ATOM     76  C   UNL A   1      31.299  23.439  25.491  1.00  0.00     0.028 A 
ATOM     77  C   UNL A   1      31.802  23.377  23.136  1.00  0.00     0.028 A 
ATOM     78  C   UNL A   1      31.711  22.120  25.640  1.00  0.00     0.029 A 
ATOM     79  C   UNL A   1      32.371  22.112  23.315  1.00  0.00     0.029 A 
ATOM     80  C   UNL A   1      32.203  21.436  24.535  1.00  0.00     0.052 A 
BRANCH  80  81
ATOM     81  N   UNL A   1      32.364  20.043  24.574  1.00  0.00    -0.250 N 
ATOM     82  C   UNL A   1      32.895  19.369  25.677  1.00  0.00     0.237 C 
ATOM     83  C   UNL A   1      32.292  19.228  23.422  1.00  0.00     0.237 C 
ATOM     84  O   UNL A   1      32.944  19.692  26.845  1.00  0.00    -0.274 OA
ATOM     85  C   UNL A   1      33.560  18.199  25.046  1.00  0.00     0.095 C 
ATOM     86  C   UNL A   1      32.543  17.853  23.971  1.00  0.00     0.095 C 
ATOM     87  O   UNL A   1      31.988  19.508  22.275  1.00  0.00    -0.274 OA
ATOM     88  C   UNL A   1      33.998  16.826  25.548  1.00  0.00     0.002 C 
ATOM     89  C   UNL A   1      33.097  16.515  23.491  1.00  0.00     0.002 C 
ATOM     90  C   UNL A   1      35.241  16.503  24.693  1.00  0.00     0.005 C 
ATOM     91  C   UNL A   1      33.028  15.823  24.878  1.00  0.00     0.009 C 
ATOM     92  C   UNL A   1      34.636  16.476  23.259  1.00  0.00     0.005 C 
ENDBRANCH  80  81
ENDBRANCH  73  75
ENDBRANCH  67  71
ENDBRANCH  62  65
ENDBRANCH  60  61
ENDBRANCH  59  60
ENDBRANCH   1  59
TORSDOF 16
ENDMDL
