MODEL 1
REMARK VINA RESULT:     -12.8      0.000      0.000
REMARK SMILES O=C(NCCCCCCNC(=O)[C@H](c1c[nH]c2cc(F)ccc12)[NH+]1CCN(c2ccccc2)CC1)c1ccc(-c2c3nc(c(-c4ccccc4)c4ccc([nH]4)c(-c4ccccc4)c4nc(c(-c5ccccc5)c5ccc2[nH]5)C=C4)C=C3)cc1
REMARK SMILES IDX 6 1 5 2 4 3 3 4 1 5 2 6 36 8 37 9 83 10 38 11 82 12 39 13
REMARK SMILES IDX 40 14 41 15 76 16 42 17 81 18 75 19 77 20 43 21 80 22 74 23
REMARK SMILES IDX 73 24 44 26 66 27 51 28 65 29 52 30 55 31 64 32 78 33 53 34
REMARK SMILES IDX 54 35 63 37 79 38 56 39 45 40 46 41 50 42 47 43 49 44 48 45
REMARK SMILES IDX 67 46 68 47 72 48 69 49 71 50 70 51 57 52 58 53 62 54 59 55
REMARK SMILES IDX 61 56 60 57 7 58 8 59 9 60 10 61 11 62 12 64 13 65 24 66
REMARK SMILES IDX 25 67 35 68 26 70 34 71 27 72 28 73 29 74 33 75 30 76 32 77
REMARK SMILES IDX 31 78 14 79 15 80 23 81 16 82 17 83 22 84 18 86 21 87 19 88
REMARK SMILES IDX 20 89
REMARK H PARENT 3 7 77 25 55 36 10 63 24 69 16 85
REMARK Flexibility Score: inf
ROOT
ATOM      1  C   UNL A   1      31.462  30.483  26.009  1.00  0.00     0.002 C 
ENDROOT
BRANCH   1   2
ATOM      2  C   UNL A   1      31.327  31.928  26.485  1.00  0.00     0.021 C 
BRANCH   2   3
ATOM      3  C   UNL A   1      32.555  32.456  27.206  1.00  0.00     0.116 C 
BRANCH   3   4
ATOM      4  N   UNL A   1      32.377  33.825  27.659  1.00  0.00    -0.352 N 
ATOM      5  O   UNL A   1      32.793  35.613  28.977  1.00  0.00    -0.269 OA
ATOM      6  C   UNL A   1      33.157  34.534  28.544  1.00  0.00     0.251 C 
ATOM      7  H   UNL A   1      31.603  34.305  27.286  1.00  0.00     0.163 HD
BRANCH   6   8
ATOM      8  C   UNL A   1      34.443  33.946  28.979  1.00  0.00     0.039 A 
ATOM      9  C   UNL A   1      35.604  34.175  28.236  1.00  0.00     0.014 A 
ATOM     10  C   UNL A   1      34.482  33.146  30.124  1.00  0.00     0.014 A 
ATOM     11  C   UNL A   1      36.772  33.502  28.562  1.00  0.00     0.010 A 
ATOM     12  C   UNL A   1      35.684  32.545  30.506  1.00  0.00     0.010 A 
ATOM     13  C   UNL A   1      36.834  32.704  29.718  1.00  0.00    -0.014 A 
BRANCH  13  14
ATOM     14  C   UNL A   1      38.145  32.143  30.123  1.00  0.00     0.031 A 
ATOM     15  C   UNL A   1      39.016  32.820  31.141  1.00  0.00     0.074 A 
ATOM     16  C   UNL A   1      38.520  30.967  29.580  1.00  0.00     0.049 A 
ATOM     17  N   UNL A   1      40.161  32.417  31.635  1.00  0.00    -0.248 NA
ATOM     18  C   UNL A   1      38.554  34.111  31.674  1.00  0.00     0.031 C 
ATOM     19  C   UNL A   1      37.757  30.225  28.570  1.00  0.00     0.029 A 
ATOM     20  N   UNL A   1      39.609  30.172  29.821  1.00  0.00    -0.354 N 
ATOM     21  C   UNL A   1      40.563  33.407  32.522  1.00  0.00     0.074 A 
ATOM     22  C   UNL A   1      39.550  34.442  32.484  1.00  0.00     0.031 C 
ATOM     23  C   UNL A   1      38.367  29.057  28.328  1.00  0.00     0.029 A 
ATOM     24  C   UNL A   1      39.596  28.998  29.108  1.00  0.00     0.049 A 
ATOM     25  H   UNL A   1      40.331  30.419  30.443  1.00  0.00     0.167 HD
ATOM     26  C   UNL A   1      41.673  33.444  33.299  1.00  0.00     0.031 A 
ATOM     27  C   UNL A   1      40.480  27.986  29.075  1.00  0.00     0.031 A 
ATOM     28  C   UNL A   1      42.679  32.413  33.328  1.00  0.00     0.049 A 
ATOM     29  C   UNL A   1      41.708  28.069  29.929  1.00  0.00     0.074 A 
ATOM     30  C   UNL A   1      43.834  32.357  34.092  1.00  0.00     0.029 A 
ATOM     31  N   UNL A   1      42.652  31.259  32.561  1.00  0.00    -0.354 N 
ATOM     32  N   UNL A   1      42.058  29.005  30.779  1.00  0.00    -0.248 NA
ATOM     33  C   UNL A   1      42.663  26.960  29.818  1.00  0.00     0.031 C 
ATOM     34  C   UNL A   1      44.526  31.189  33.753  1.00  0.00     0.029 A 
ATOM     35  C   UNL A   1      43.778  30.494  32.818  1.00  0.00     0.049 A 
ATOM     36  H   UNL A   1      41.937  31.018  31.928  1.00  0.00     0.167 HD
ATOM     37  C   UNL A   1      43.273  28.593  31.308  1.00  0.00     0.074 A 
ATOM     38  C   UNL A   1      43.577  27.308  30.711  1.00  0.00     0.031 C 
ATOM     39  C   UNL A   1      44.070  29.227  32.202  1.00  0.00     0.031 A 
BRANCH  26  40
ATOM     40  C   UNL A   1      41.874  34.650  34.174  1.00  0.00    -0.014 A 
ATOM     41  C   UNL A   1      42.511  35.803  33.687  1.00  0.00     0.009 A 
ATOM     42  C   UNL A   1      41.356  34.661  35.478  1.00  0.00     0.009 A 
ATOM     43  C   UNL A   1      42.641  36.934  34.497  1.00  0.00     0.001 A 
ATOM     44  C   UNL A   1      41.466  35.801  36.277  1.00  0.00     0.001 A 
ATOM     45  C   UNL A   1      42.113  36.934  35.788  1.00  0.00     0.000 A 
ENDBRANCH  26  40
BRANCH  27  46
ATOM     46  C   UNL A   1      40.245  26.824  28.180  1.00  0.00    -0.014 A 
ATOM     47  C   UNL A   1      40.757  26.810  26.874  1.00  0.00     0.009 A 
ATOM     48  C   UNL A   1      39.506  25.719  28.633  1.00  0.00     0.009 A 
ATOM     49  C   UNL A   1      40.508  25.723  26.031  1.00  0.00     0.001 A 
ATOM     50  C   UNL A   1      39.288  24.622  27.800  1.00  0.00     0.001 A 
ATOM     51  C   UNL A   1      39.779  24.630  26.497  1.00  0.00     0.000 A 
ENDBRANCH  27  46
BRANCH  39  52
ATOM     52  C   UNL A   1      45.338  28.521  32.587  1.00  0.00    -0.014 A 
ATOM     53  C   UNL A   1      45.377  27.653  33.689  1.00  0.00     0.009 A 
ATOM     54  C   UNL A   1      46.507  28.730  31.839  1.00  0.00     0.009 A 
ATOM     55  C   UNL A   1      46.575  27.039  34.061  1.00  0.00     0.001 A 
ATOM     56  C   UNL A   1      47.695  28.093  32.196  1.00  0.00     0.001 A 
ATOM     57  C   UNL A   1      47.731  27.258  33.312  1.00  0.00     0.000 A 
ENDBRANCH  39  52
ENDBRANCH  13  14
ENDBRANCH   6   8
ENDBRANCH   3   4
ENDBRANCH   2   3
ENDBRANCH   1   2
BRANCH   1  58
ATOM     58  C   UNL A   1      32.357  29.607  26.891  1.00  0.00     0.002 C 
BRANCH  58  59
ATOM     59  C   UNL A   1      31.762  28.238  27.258  1.00  0.00     0.021 C 
BRANCH  59  60
ATOM     60  C   UNL A   1      32.373  27.071  26.475  1.00  0.00     0.116 C 
BRANCH  60  61
ATOM     61  N   UNL A   1      31.560  25.886  26.648  1.00  0.00    -0.351 N 
ATOM     62  C   UNL A   1      30.428  25.635  25.910  1.00  0.00     0.283 C 
ATOM     63  H   UNL A   1      31.832  25.228  27.328  1.00  0.00     0.163 HD
ATOM     64  O   UNL A   1      29.437  25.260  26.536  1.00  0.00    -0.268 OA
BRANCH  62  65
ATOM     65  C   UNL A   1      30.510  25.811  24.377  1.00  0.00     0.307 C 
BRANCH  65  66
ATOM     66  N   UNL A   1      30.752  24.572  23.600  1.00  0.00    -0.318 N 
ATOM     67  C   UNL A   1      31.856  24.705  22.622  1.00  0.00     0.284 C 
ATOM     68  C   UNL A   1      30.894  23.292  24.316  1.00  0.00     0.284 C 
ATOM     69  H   UNL A   1      29.849  24.495  23.133  1.00  0.00     0.349 HD
ATOM     70  C   UNL A   1      33.284  24.423  23.146  1.00  0.00     0.178 C 
ATOM     71  C   UNL A   1      32.291  22.874  24.837  1.00  0.00     0.178 C 
ATOM     72  N   UNL A   1      33.346  23.136  23.842  1.00  0.00    -0.360 N 
BRANCH  72  73
ATOM     73  C   UNL A   1      34.591  22.565  24.095  1.00  0.00     0.037 A 
ATOM     74  C   UNL A   1      34.744  21.300  24.681  1.00  0.00     0.026 A 
ATOM     75  C   UNL A   1      35.757  23.277  23.780  1.00  0.00     0.026 A 
ATOM     76  C   UNL A   1      36.011  20.780  24.968  1.00  0.00     0.002 A 
ATOM     77  C   UNL A   1      37.026  22.767  24.072  1.00  0.00     0.002 A 
ATOM     78  C   UNL A   1      37.152  21.519  24.673  1.00  0.00     0.000 A 
ENDBRANCH  72  73
ENDBRANCH  65  66
BRANCH  65  79
ATOM     79  C   UNL A   1      29.358  26.642  23.849  1.00  0.00     0.044 A 
ATOM     80  C   UNL A   1      28.007  26.470  24.096  1.00  0.00     0.094 A 
ATOM     81  C   UNL A   1      29.473  27.869  23.100  1.00  0.00     0.009 A 
ATOM     82  N   UNL A   1      27.315  27.494  23.512  1.00  0.00    -0.361 N 
ATOM     83  C   UNL A   1      28.187  28.393  22.948  1.00  0.00     0.049 A 
ATOM     84  C   UNL A   1      30.561  28.612  22.584  1.00  0.00     0.014 A 
ATOM     85  H   UNL A   1      26.334  27.576  23.496  1.00  0.00     0.166 HD
ATOM     86  C   UNL A   1      27.937  29.625  22.330  1.00  0.00     0.065 A 
ATOM     87  C   UNL A   1      30.330  29.853  21.979  1.00  0.00     0.040 A 
ATOM     88  C   UNL A   1      29.037  30.341  21.864  1.00  0.00     0.125 A 
ATOM     89  F   UNL A   1      28.840  31.539  21.297  1.00  0.00    -0.207 F 
ENDBRANCH  65  79
ENDBRANCH  62  65
ENDBRANCH  60  61
ENDBRANCH  59  60
ENDBRANCH  58  59
ENDBRANCH   1  58
TORSDOF 16
ENDMDL
MODEL 2
REMARK VINA RESULT:     -12.7      0.266      5.668
REMARK SMILES O=C(NCCCCCCNC(=O)[C@H](c1c[nH]c2cc(F)ccc12)[NH+]1CCN(c2ccccc2)CC1)c1ccc(-c2c3nc(c(-c4ccccc4)c4ccc([nH]4)c(-c4ccccc4)c4nc(c(-c5ccccc5)c5ccc2[nH]5)C=C4)C=C3)cc1
REMARK SMILES IDX 6 1 5 2 4 3 3 4 1 5 2 6 36 8 37 9 83 10 38 11 82 12 39 13
REMARK SMILES IDX 40 14 41 15 76 16 42 17 81 18 75 19 77 20 43 21 80 22 74 23
REMARK SMILES IDX 73 24 44 26 66 27 51 28 65 29 52 30 55 31 64 32 78 33 53 34
REMARK SMILES IDX 54 35 63 37 79 38 56 39 45 40 46 41 50 42 47 43 49 44 48 45
REMARK SMILES IDX 67 46 68 47 72 48 69 49 71 50 70 51 57 52 58 53 62 54 59 55
REMARK SMILES IDX 61 56 60 57 7 58 8 59 9 60 10 61 11 62 12 64 13 65 24 66
REMARK SMILES IDX 25 67 35 68 26 70 34 71 27 72 28 73 29 74 33 75 30 76 32 77
REMARK SMILES IDX 31 78 14 79 15 80 23 81 16 82 17 83 22 84 18 86 21 87 19 88
REMARK SMILES IDX 20 89
REMARK H PARENT 3 7 77 25 55 36 10 63 24 69 16 85
REMARK Flexibility Score: inf
ROOT
ATOM      1  C   UNL A   1      31.475  30.508  25.882  1.00  0.00     0.002 C 
ENDROOT
BRANCH   1   2
ATOM      2  C   UNL A   1      31.338  31.936  26.406  1.00  0.00     0.021 C 
BRANCH   2   3
ATOM      3  C   UNL A   1      32.497  32.384  27.280  1.00  0.00     0.116 C 
BRANCH   3   4
ATOM      4  N   UNL A   1      32.388  33.782  27.658  1.00  0.00    -0.352 N 
ATOM      5  O   UNL A   1      32.893  35.615  28.881  1.00  0.00    -0.269 OA
ATOM      6  C   UNL A   1      33.202  34.497  28.507  1.00  0.00     0.251 C 
ATOM      7  H   UNL A   1      31.639  34.280  27.258  1.00  0.00     0.163 HD
BRANCH   6   8
ATOM      8  C   UNL A   1      34.457  33.870  28.977  1.00  0.00     0.039 A 
ATOM      9  C   UNL A   1      35.639  34.038  28.249  1.00  0.00     0.014 A 
ATOM     10  C   UNL A   1      34.445  33.094  30.138  1.00  0.00     0.014 A 
ATOM     11  C   UNL A   1      36.773  33.327  28.610  1.00  0.00     0.010 A 
ATOM     12  C   UNL A   1      35.616  32.455  30.554  1.00  0.00     0.010 A 
ATOM     13  C   UNL A   1      36.784  32.552  29.784  1.00  0.00    -0.014 A 
BRANCH  13  14
ATOM     14  C   UNL A   1      38.066  31.950  30.223  1.00  0.00     0.031 A 
ATOM     15  C   UNL A   1      38.557  30.642  29.673  1.00  0.00     0.074 A 
ATOM     16  C   UNL A   1      38.814  32.640  31.109  1.00  0.00     0.049 A 
ATOM     17  N   UNL A   1      39.684  30.022  29.922  1.00  0.00    -0.248 NA
ATOM     18  C   UNL A   1      37.678  29.935  28.728  1.00  0.00     0.031 C 
ATOM     19  C   UNL A   1      38.428  33.917  31.720  1.00  0.00     0.029 A 
ATOM     20  N   UNL A   1      40.059  32.390  31.621  1.00  0.00    -0.354 N 
ATOM     21  C   UNL A   1      39.645  28.849  29.179  1.00  0.00     0.074 A 
ATOM     22  C   UNL A   1      38.374  28.832  28.486  1.00  0.00     0.031 C 
ATOM     23  C   UNL A   1      39.443  34.368  32.471  1.00  0.00     0.029 A 
ATOM     24  C   UNL A   1      40.516  33.384  32.452  1.00  0.00     0.049 A 
ATOM     25  H   UNL A   1      40.575  31.577  31.415  1.00  0.00     0.167 HD
ATOM     26  C   UNL A   1      40.588  27.880  29.083  1.00  0.00     0.031 A 
ATOM     27  C   UNL A   1      41.669  33.490  33.135  1.00  0.00     0.031 A 
ATOM     28  C   UNL A   1      41.849  27.901  29.778  1.00  0.00     0.049 A 
ATOM     29  C   UNL A   1      42.680  32.390  33.023  1.00  0.00     0.074 A 
ATOM     30  C   UNL A   1      42.874  26.970  29.735  1.00  0.00     0.029 A 
ATOM     31  N   UNL A   1      42.259  28.904  30.644  1.00  0.00    -0.354 N 
ATOM     32  N   UNL A   1      42.634  31.299  32.298  1.00  0.00    -0.248 NA
ATOM     33  C   UNL A   1      43.900  32.535  33.827  1.00  0.00     0.031 C 
ATOM     34  C   UNL A   1      43.884  27.388  30.609  1.00  0.00     0.029 A 
ATOM     35  C   UNL A   1      43.511  28.605  31.155  1.00  0.00     0.049 A 
ATOM     36  H   UNL A   1      41.737  29.710  30.862  1.00  0.00     0.167 HD
ATOM     37  C   UNL A   1      43.822  30.629  32.553  1.00  0.00     0.074 A 
ATOM     38  C   UNL A   1      44.580  31.455  33.471  1.00  0.00     0.031 C 
ATOM     39  C   UNL A   1      44.242  29.432  32.079  1.00  0.00     0.031 A 
BRANCH  26  40
ATOM     40  C   UNL A   1      40.287  26.697  28.205  1.00  0.00    -0.014 A 
ATOM     41  C   UNL A   1      39.474  25.645  28.656  1.00  0.00     0.009 A 
ATOM     42  C   UNL A   1      40.764  26.668  26.885  1.00  0.00     0.009 A 
ATOM     43  C   UNL A   1      39.161  24.580  27.808  1.00  0.00     0.001 A 
ATOM     44  C   UNL A   1      40.430  25.614  26.032  1.00  0.00     0.001 A 
ATOM     45  C   UNL A   1      39.633  24.569  26.496  1.00  0.00     0.000 A 
ENDBRANCH  26  40
BRANCH  27  46
ATOM     46  C   UNL A   1      41.911  34.670  34.003  1.00  0.00    -0.014 A 
ATOM     47  C   UNL A   1      41.536  34.656  35.354  1.00  0.00     0.009 A 
ATOM     48  C   UNL A   1      42.524  35.821  33.480  1.00  0.00     0.009 A 
ATOM     49  C   UNL A   1      41.745  35.780  36.157  1.00  0.00     0.001 A 
ATOM     50  C   UNL A   1      42.761  36.930  34.292  1.00  0.00     0.001 A 
ATOM     51  C   UNL A   1      42.361  36.913  35.626  1.00  0.00     0.000 A 
ENDBRANCH  27  46
BRANCH  39  52
ATOM     52  C   UNL A   1      45.591  28.964  32.543  1.00  0.00    -0.014 A 
ATOM     53  C   UNL A   1      46.756  29.294  31.832  1.00  0.00     0.009 A 
ATOM     54  C   UNL A   1      45.697  28.182  33.703  1.00  0.00     0.009 A 
ATOM     55  C   UNL A   1      47.997  28.814  32.252  1.00  0.00     0.001 A 
ATOM     56  C   UNL A   1      46.943  27.727  34.136  1.00  0.00     0.001 A 
ATOM     57  C   UNL A   1      48.089  28.033  33.404  1.00  0.00     0.000 A 
ENDBRANCH  39  52
ENDBRANCH  13  14
ENDBRANCH   6   8
ENDBRANCH   3   4
ENDBRANCH   2   3
ENDBRANCH   1   2
BRANCH   1  58
ATOM     58  C   UNL A   1      32.331  29.590  26.759  1.00  0.00     0.002 C 
BRANCH  58  59
ATOM     59  C   UNL A   1      31.674  28.249  27.126  1.00  0.00     0.021 C 
BRANCH  59  60
ATOM     60  C   UNL A   1      32.353  27.035  26.484  1.00  0.00     0.116 C 
BRANCH  60  61
ATOM     61  N   UNL A   1      31.519  25.864  26.646  1.00  0.00    -0.351 N 
ATOM     62  C   UNL A   1      30.382  25.641  25.907  1.00  0.00     0.283 C 
ATOM     63  H   UNL A   1      31.778  25.195  27.321  1.00  0.00     0.163 HD
ATOM     64  O   UNL A   1      29.385  25.279  26.528  1.00  0.00    -0.268 OA
BRANCH  62  65
ATOM     65  C   UNL A   1      30.468  25.828  24.374  1.00  0.00     0.307 C 
BRANCH  65  66
ATOM     66  N   UNL A   1      30.711  24.595  23.589  1.00  0.00    -0.318 N 
ATOM     67  C   UNL A   1      31.811  24.737  22.609  1.00  0.00     0.284 C 
ATOM     68  C   UNL A   1      30.857  23.311  24.296  1.00  0.00     0.284 C 
ATOM     69  H   UNL A   1      29.806  24.519  23.124  1.00  0.00     0.349 HD
ATOM     70  C   UNL A   1      33.242  24.455  23.127  1.00  0.00     0.178 C 
ATOM     71  C   UNL A   1      32.257  22.892  24.810  1.00  0.00     0.178 C 
ATOM     72  N   UNL A   1      33.308  23.163  23.813  1.00  0.00    -0.360 N 
BRANCH  72  73
ATOM     73  C   UNL A   1      34.555  22.593  24.059  1.00  0.00     0.037 A 
ATOM     74  C   UNL A   1      34.741  21.513  24.933  1.00  0.00     0.026 A 
ATOM     75  C   UNL A   1      35.694  23.122  23.435  1.00  0.00     0.026 A 
ATOM     76  C   UNL A   1      36.016  20.999  25.195  1.00  0.00     0.002 A 
ATOM     77  C   UNL A   1      36.972  22.620  23.699  1.00  0.00     0.002 A 
ATOM     78  C   UNL A   1      37.133  21.560  24.585  1.00  0.00     0.000 A 
ENDBRANCH  72  73
ENDBRANCH  65  66
BRANCH  65  79
ATOM     79  C   UNL A   1      29.319  26.664  23.850  1.00  0.00     0.044 A 
ATOM     80  C   UNL A   1      27.966  26.490  24.091  1.00  0.00     0.094 A 
ATOM     81  C   UNL A   1      29.436  27.899  23.113  1.00  0.00     0.009 A 
ATOM     82  N   UNL A   1      27.276  27.520  23.514  1.00  0.00    -0.361 N 
ATOM     83  C   UNL A   1      28.151  28.424  22.962  1.00  0.00     0.049 A 
ATOM     84  C   UNL A   1      30.526  28.646  22.609  1.00  0.00     0.014 A 
ATOM     85  H   UNL A   1      26.295  27.602  23.496  1.00  0.00     0.166 HD
ATOM     86  C   UNL A   1      27.903  29.662  22.355  1.00  0.00     0.065 A 
ATOM     87  C   UNL A   1      30.298  29.893  22.015  1.00  0.00     0.040 A 
ATOM     88  C   UNL A   1      29.005  30.383  21.900  1.00  0.00     0.125 A 
ATOM     89  F   UNL A   1      28.810  31.586  21.343  1.00  0.00    -0.207 F 
ENDBRANCH  65  79
ENDBRANCH  62  65
ENDBRANCH  60  61
ENDBRANCH  59  60
ENDBRANCH  58  59
ENDBRANCH   1  58
TORSDOF 16
ENDMDL
MODEL 3
REMARK VINA RESULT:     -12.7      3.829      9.263
REMARK SMILES O=C(NCCCCCCNC(=O)[C@H](c1c[nH]c2cc(F)ccc12)[NH+]1CCN(c2ccccc2)CC1)c1ccc(-c2c3nc(c(-c4ccccc4)c4ccc([nH]4)c(-c4ccccc4)c4nc(c(-c5ccccc5)c5ccc2[nH]5)C=C4)C=C3)cc1
REMARK SMILES IDX 6 1 5 2 4 3 3 4 1 5 2 6 36 8 37 9 83 10 38 11 82 12 39 13
REMARK SMILES IDX 40 14 41 15 76 16 42 17 81 18 75 19 77 20 43 21 80 22 74 23
REMARK SMILES IDX 73 24 44 26 66 27 51 28 65 29 52 30 55 31 64 32 78 33 53 34
REMARK SMILES IDX 54 35 63 37 79 38 56 39 45 40 46 41 50 42 47 43 49 44 48 45
REMARK SMILES IDX 67 46 68 47 72 48 69 49 71 50 70 51 57 52 58 53 62 54 59 55
REMARK SMILES IDX 61 56 60 57 7 58 8 59 9 60 10 61 11 62 12 64 13 65 24 66
REMARK SMILES IDX 25 67 35 68 26 70 34 71 27 72 28 73 29 74 33 75 30 76 32 77
REMARK SMILES IDX 31 78 14 79 15 80 23 81 16 82 17 83 22 84 18 86 21 87 19 88
REMARK SMILES IDX 20 89
REMARK H PARENT 3 7 77 25 55 36 10 63 24 69 16 85
REMARK Flexibility Score: inf
ROOT
ATOM      1  C   UNL A   1      36.590  20.535  24.984  1.00  0.00     0.002 C 
ENDROOT
BRANCH   1   2
ATOM      2  C   UNL A   1      37.803  19.608  24.979  1.00  0.00     0.021 C 
BRANCH   2   3
ATOM      3  C   UNL A   1      39.006  20.166  25.720  1.00  0.00     0.116 C 
BRANCH   3   4
ATOM      4  N   UNL A   1      40.094  19.205  25.799  1.00  0.00    -0.352 N 
ATOM      5  O   UNL A   1      42.259  18.576  25.961  1.00  0.00    -0.269 OA
ATOM      6  C   UNL A   1      41.413  19.442  26.108  1.00  0.00     0.251 C 
ATOM      7  H   UNL A   1      39.857  18.269  25.606  1.00  0.00     0.163 HD
BRANCH   6   8
ATOM      8  C   UNL A   1      41.793  20.783  26.607  1.00  0.00     0.039 A 
ATOM      9  C   UNL A   1      41.727  21.065  27.974  1.00  0.00     0.014 A 
ATOM     10  C   UNL A   1      42.195  21.766  25.700  1.00  0.00     0.014 A 
ATOM     11  C   UNL A   1      41.937  22.362  28.418  1.00  0.00     0.010 A 
ATOM     12  C   UNL A   1      42.500  23.049  26.162  1.00  0.00     0.010 A 
ATOM     13  C   UNL A   1      42.357  23.361  27.522  1.00  0.00    -0.014 A 
BRANCH  13  14
ATOM     14  C   UNL A   1      42.736  24.688  28.066  1.00  0.00     0.031 A 
ATOM     15  C   UNL A   1      44.168  25.059  28.319  1.00  0.00     0.074 A 
ATOM     16  C   UNL A   1      41.751  25.581  28.286  1.00  0.00     0.049 A 
ATOM     17  N   UNL A   1      44.654  26.201  28.738  1.00  0.00    -0.248 NA
ATOM     18  C   UNL A   1      45.187  24.026  28.077  1.00  0.00     0.031 C 
ATOM     19  C   UNL A   1      40.320  25.323  28.086  1.00  0.00     0.029 A 
ATOM     20  N   UNL A   1      41.798  26.889  28.689  1.00  0.00    -0.354 N 
ATOM     21  C   UNL A   1      46.029  26.022  28.825  1.00  0.00     0.074 A 
ATOM     22  C   UNL A   1      46.299  24.654  28.435  1.00  0.00     0.031 C 
ATOM     23  C   UNL A   1      39.635  26.454  28.304  1.00  0.00     0.029 A 
ATOM     24  C   UNL A   1      40.565  27.493  28.725  1.00  0.00     0.049 A 
ATOM     25  H   UNL A   1      42.634  27.351  28.930  1.00  0.00     0.167 HD
ATOM     26  C   UNL A   1      46.975  26.919  29.192  1.00  0.00     0.031 A 
ATOM     27  C   UNL A   1      40.214  28.745  29.071  1.00  0.00     0.031 A 
ATOM     28  C   UNL A   1      46.699  28.278  29.583  1.00  0.00     0.049 A 
ATOM     29  C   UNL A   1      41.284  29.705  29.493  1.00  0.00     0.074 A 
ATOM     30  C   UNL A   1      47.594  29.266  29.961  1.00  0.00     0.029 A 
ATOM     31  N   UNL A   1      45.433  28.841  29.648  1.00  0.00    -0.354 N 
ATOM     32  N   UNL A   1      42.581  29.522  29.546  1.00  0.00    -0.248 NA
ATOM     33  C   UNL A   1      40.840  31.043  29.905  1.00  0.00     0.031 C 
ATOM     34  C   UNL A   1      46.865  30.413  30.296  1.00  0.00     0.029 A 
ATOM     35  C   UNL A   1      45.522  30.155  30.078  1.00  0.00     0.049 A 
ATOM     36  H   UNL A   1      44.596  28.375  29.421  1.00  0.00     0.167 HD
ATOM     37  C   UNL A   1      43.110  30.724  29.992  1.00  0.00     0.074 A 
ATOM     38  C   UNL A   1      41.997  31.637  30.159  1.00  0.00     0.031 C 
ATOM     39  C   UNL A   1      44.402  31.041  30.252  1.00  0.00     0.031 A 
BRANCH  26  40
ATOM     40  C   UNL A   1      48.407  26.459  29.207  1.00  0.00    -0.014 A 
ATOM     41  C   UNL A   1      49.258  26.698  28.117  1.00  0.00     0.009 A 
ATOM     42  C   UNL A   1      48.930  25.845  30.356  1.00  0.00     0.009 A 
ATOM     43  C   UNL A   1      50.600  26.312  28.170  1.00  0.00     0.001 A 
ATOM     44  C   UNL A   1      50.278  25.481  30.415  1.00  0.00     0.001 A 
ATOM     45  C   UNL A   1      51.110  25.710  29.321  1.00  0.00     0.000 A 
ENDBRANCH  26  40
BRANCH  27  46
ATOM     46  C   UNL A   1      38.784  29.145  29.056  1.00  0.00    -0.014 A 
ATOM     47  C   UNL A   1      37.988  29.003  30.202  1.00  0.00     0.009 A 
ATOM     48  C   UNL A   1      38.210  29.677  27.890  1.00  0.00     0.009 A 
ATOM     49  C   UNL A   1      36.637  29.359  30.170  1.00  0.00     0.001 A 
ATOM     50  C   UNL A   1      36.870  30.062  27.872  1.00  0.00     0.001 A 
ATOM     51  C   UNL A   1      36.081  29.893  29.008  1.00  0.00     0.000 A 
ENDBRANCH  27  46
BRANCH  39  52
ATOM     52  C   UNL A   1      44.665  32.440  30.729  1.00  0.00    -0.014 A 
ATOM     53  C   UNL A   1      44.978  33.466  29.824  1.00  0.00     0.009 A 
ATOM     54  C   UNL A   1      44.601  32.733  32.100  1.00  0.00     0.009 A 
ATOM     55  C   UNL A   1      45.265  34.752  30.288  1.00  0.00     0.001 A 
ATOM     56  C   UNL A   1      44.859  34.025  32.558  1.00  0.00     0.001 A 
ATOM     57  C   UNL A   1      45.203  35.029  31.654  1.00  0.00     0.000 A 
ENDBRANCH  39  52
ENDBRANCH  13  14
ENDBRANCH   6   8
ENDBRANCH   3   4
ENDBRANCH   2   3
ENDBRANCH   1   2
BRANCH   1  58
ATOM     58  C   UNL A   1      36.909  21.999  24.663  1.00  0.00     0.002 C 
BRANCH  58  59
ATOM     59  C   UNL A   1      36.488  23.004  25.747  1.00  0.00     0.021 C 
BRANCH  59  60
ATOM     60  C   UNL A   1      34.987  23.314  25.750  1.00  0.00     0.116 C 
BRANCH  60  61
ATOM     61  N   UNL A   1      34.627  24.003  24.529  1.00  0.00    -0.351 N 
ATOM     62  C   UNL A   1      33.822  23.451  23.561  1.00  0.00     0.283 C 
ATOM     63  H   UNL A   1      34.977  24.912  24.385  1.00  0.00     0.163 HD
ATOM     64  O   UNL A   1      34.207  23.561  22.398  1.00  0.00    -0.268 OA
BRANCH  62  65
ATOM     65  C   UNL A   1      32.506  22.779  24.013  1.00  0.00     0.307 C 
BRANCH  65  66
ATOM     66  N   UNL A   1      31.316  23.661  24.057  1.00  0.00    -0.318 N 
ATOM     67  C   UNL A   1      30.920  24.036  25.433  1.00  0.00     0.284 C 
ATOM     68  C   UNL A   1      31.279  24.860  23.201  1.00  0.00     0.284 C 
ATOM     69  H   UNL A   1      30.634  23.033  23.632  1.00  0.00     0.349 HD
ATOM     70  C   UNL A   1      31.619  25.275  26.043  1.00  0.00     0.178 C 
ATOM     71  C   UNL A   1      31.897  26.179  23.729  1.00  0.00     0.178 C 
ATOM     72  N   UNL A   1      31.539  26.424  25.137  1.00  0.00    -0.360 N 
BRANCH  72  73
ATOM     73  C   UNL A   1      31.817  27.694  25.634  1.00  0.00     0.037 A 
ATOM     74  C   UNL A   1      31.267  28.864  25.089  1.00  0.00     0.026 A 
ATOM     75  C   UNL A   1      32.703  27.839  26.711  1.00  0.00     0.026 A 
ATOM     76  C   UNL A   1      31.609  30.128  25.581  1.00  0.00     0.002 A 
ATOM     77  C   UNL A   1      33.057  29.100  27.202  1.00  0.00     0.002 A 
ATOM     78  C   UNL A   1      32.513  30.246  26.632  1.00  0.00     0.000 A 
ENDBRANCH  72  73
ENDBRANCH  65  66
BRANCH  65  79
ATOM     79  C   UNL A   1      32.266  21.474  23.281  1.00  0.00     0.044 A 
ATOM     80  C   UNL A   1      31.854  21.302  21.970  1.00  0.00     0.094 A 
ATOM     81  C   UNL A   1      32.568  20.155  23.780  1.00  0.00     0.009 A 
ATOM     82  N   UNL A   1      31.859  19.967  21.675  1.00  0.00    -0.361 N 
ATOM     83  C   UNL A   1      32.346  19.249  22.740  1.00  0.00     0.049 A 
ATOM     84  C   UNL A   1      33.064  19.654  25.006  1.00  0.00     0.014 A 
ATOM     85  H   UNL A   1      31.558  19.576  20.823  1.00  0.00     0.166 HD
ATOM     86  C   UNL A   1      32.614  17.879  22.856  1.00  0.00     0.065 A 
ATOM     87  C   UNL A   1      33.353  18.290  25.133  1.00  0.00     0.040 A 
ATOM     88  C   UNL A   1      33.132  17.430  24.068  1.00  0.00     0.125 A 
ATOM     89  F   UNL A   1      33.431  16.131  24.206  1.00  0.00    -0.207 F 
ENDBRANCH  65  79
ENDBRANCH  62  65
ENDBRANCH  60  61
ENDBRANCH  59  60
ENDBRANCH  58  59
ENDBRANCH   1  58
TORSDOF 16
ENDMDL
