MODEL 1
REMARK VINA RESULT:     -12.0      0.000      0.000
REMARK SMILES Cc1ccnc(C(=O)c2[nH]c3ccc(F)cc3c2CC(=O)NCCCCCCNC(=O)c2ccc(-c3c4nc(c(-c5ccccc5)c5ccc([nH]5)c(-c5ccccc5)c5nc(c(-c6ccccc6)c6ccc3[nH]6)C=C5)C=C4)cc2)c1
REMARK SMILES IDX 25 1 24 2 23 3 22 4 20 5 21 6 19 8 18 9 9 10 10 11 11 12
REMARK SMILES IDX 17 14 12 15 16 16 13 17 14 18 15 19 7 20 8 21 6 22 1 23 2 24
REMARK SMILES IDX 3 25 80 26 4 27 5 28 26 29 27 30 28 31 29 32 30 33 31 35
REMARK SMILES IDX 32 36 33 37 79 38 34 39 78 40 35 41 36 42 37 43 72 44 38 45
REMARK SMILES IDX 77 46 71 47 73 48 39 49 76 50 70 51 69 52 40 54 62 55 47 56
REMARK SMILES IDX 61 57 48 58 51 59 60 60 74 61 49 62 50 63 59 65 75 66 52 67
REMARK SMILES IDX 41 68 42 69 46 70 43 71 45 72 44 73 63 74 64 75 68 76 65 77
REMARK SMILES IDX 67 78 66 79 53 80 54 81 58 82 55 83 57 84 56 85
REMARK H PARENT 22 7 10 13 29 34 73 53 51 64
REMARK Flexibility Score: inf
ROOT
ATOM      1  C   UNL A   1      31.810  29.296  26.632  1.00  0.00     0.002 C 
ENDROOT
BRANCH   1   2
ATOM      2  C   UNL A   1      32.915  28.385  26.086  1.00  0.00     0.021 C 
BRANCH   2   3
ATOM      3  C   UNL A   1      32.791  26.891  26.413  1.00  0.00     0.116 C 
BRANCH   3   4
ATOM      4  N   UNL A   1      31.442  26.440  26.680  1.00  0.00    -0.356 N 
ATOM      5  C   UNL A   1      30.544  25.781  25.895  1.00  0.00     0.224 C 
ATOM      6  O   UNL A   1      29.508  25.388  26.442  1.00  0.00    -0.275 OA
ATOM      7  H   UNL A   1      31.115  26.646  27.586  1.00  0.00     0.163 HD
BRANCH   5   8
ATOM      8  C   UNL A   1      30.801  25.467  24.434  1.00  0.00     0.138 C 
BRANCH   8   9
ATOM      9  C   UNL A   1      30.854  26.632  23.487  1.00  0.00    -0.002 A 
ATOM     10  C   UNL A   1      31.928  27.125  22.740  1.00  0.00     0.093 A 
ATOM     11  N   UNL A   1      31.488  28.298  22.152  1.00  0.00    -0.352 N 
ATOM     12  C   UNL A   1      30.156  28.517  22.383  1.00  0.00     0.046 A 
ATOM     13  H   UNL A   1      32.064  28.902  21.629  1.00  0.00     0.167 HD
ATOM     14  C   UNL A   1      29.742  27.536  23.277  1.00  0.00     0.007 A 
ATOM     15  C   UNL A   1      29.304  29.517  21.893  1.00  0.00     0.030 A 
ATOM     16  C   UNL A   1      28.413  27.591  23.752  1.00  0.00     0.049 A 
ATOM     17  C   UNL A   1      27.975  29.505  22.327  1.00  0.00     0.041 A 
ATOM     18  C   UNL A   1      27.547  28.561  23.245  1.00  0.00     0.123 A 
ATOM     19  F   UNL A   1      26.267  28.562  23.643  1.00  0.00    -0.207 F 
BRANCH  10  20
ATOM     20  C   UNL A   1      33.334  26.756  22.573  1.00  0.00     0.227 C 
ATOM     21  O   UNL A   1      34.081  27.527  21.969  1.00  0.00    -0.285 OA
BRANCH  20  22
ATOM     22  C   UNL A   1      33.882  25.410  22.974  1.00  0.00     0.113 A 
ATOM     23  C   UNL A   1      36.010  23.686  25.618  1.00  0.00     0.044 C 
ATOM     24  C   UNL A   1      35.110  23.941  24.446  1.00  0.00    -0.047 A 
ATOM     25  C   UNL A   1      34.725  22.876  23.636  1.00  0.00     0.023 A 
ATOM     26  C   UNL A   1      34.623  25.219  24.135  1.00  0.00     0.036 A 
ATOM     27  C   UNL A   1      33.931  23.137  22.535  1.00  0.00     0.112 A 
ATOM     28  N   UNL A   1      33.513  24.371  22.181  1.00  0.00    -0.253 NA
ENDBRANCH  20  22
ENDBRANCH  10  20
ENDBRANCH   8   9
ENDBRANCH   5   8
ENDBRANCH   3   4
ENDBRANCH   2   3
ENDBRANCH   1   2
BRANCH   1  29
ATOM     29  C   UNL A   1      31.458  30.496  25.757  1.00  0.00     0.002 C 
BRANCH  29  30
ATOM     30  C   UNL A   1      31.253  31.786  26.546  1.00  0.00     0.021 C 
BRANCH  30  31
ATOM     31  C   UNL A   1      32.546  32.393  27.073  1.00  0.00     0.116 C 
BRANCH  31  32
ATOM     32  N   UNL A   1      32.364  33.767  27.514  1.00  0.00    -0.352 N 
ATOM     33  C   UNL A   1      33.120  34.479  28.412  1.00  0.00     0.251 C 
ATOM     34  H   UNL A   1      31.602  34.247  27.118  1.00  0.00     0.163 HD
ATOM     35  O   UNL A   1      32.739  35.560  28.835  1.00  0.00    -0.269 OA
BRANCH  33  36
ATOM     36  C   UNL A   1      34.399  33.903  28.876  1.00  0.00     0.039 A 
ATOM     37  C   UNL A   1      34.412  33.132  30.039  1.00  0.00     0.014 A 
ATOM     38  C   UNL A   1      35.572  34.108  28.143  1.00  0.00     0.014 A 
ATOM     39  C   UNL A   1      35.603  32.531  30.448  1.00  0.00     0.010 A 
ATOM     40  C   UNL A   1      36.734  33.438  28.504  1.00  0.00     0.010 A 
ATOM     41  C   UNL A   1      36.767  32.661  29.671  1.00  0.00    -0.014 A 
BRANCH  41  42
ATOM     42  C   UNL A   1      38.039  32.024  30.087  1.00  0.00     0.031 A 
ATOM     43  C   UNL A   1      38.939  32.722  31.070  1.00  0.00     0.074 A 
ATOM     44  C   UNL A   1      38.406  30.845  29.550  1.00  0.00     0.049 A 
ATOM     45  N   UNL A   1      40.104  32.346  31.535  1.00  0.00    -0.248 NA
ATOM     46  C   UNL A   1      38.486  34.028  31.575  1.00  0.00     0.031 C 
ATOM     47  C   UNL A   1      37.640  30.087  28.558  1.00  0.00     0.029 A 
ATOM     48  N   UNL A   1      39.522  30.077  29.768  1.00  0.00    -0.354 N 
ATOM     49  C   UNL A   1      40.523  33.372  32.372  1.00  0.00     0.074 A 
ATOM     50  C   UNL A   1      39.523  34.414  32.301  1.00  0.00     0.031 C 
ATOM     51  C   UNL A   1      38.291  28.946  28.281  1.00  0.00     0.029 A 
ATOM     52  C   UNL A   1      39.537  28.911  29.041  1.00  0.00     0.049 A 
ATOM     53  H   UNL A   1      40.243  30.335  30.386  1.00  0.00     0.167 HD
ATOM     54  C   UNL A   1      41.629  33.435  33.151  1.00  0.00     0.031 A 
ATOM     55  C   UNL A   1      40.452  27.925  28.992  1.00  0.00     0.031 A 
ATOM     56  C   UNL A   1      42.620  32.396  33.226  1.00  0.00     0.049 A 
ATOM     57  C   UNL A   1      41.681  28.025  29.854  1.00  0.00     0.074 A 
ATOM     58  C   UNL A   1      43.752  32.340  34.018  1.00  0.00     0.029 A 
ATOM     59  N   UNL A   1      42.597  31.230  32.475  1.00  0.00    -0.354 N 
ATOM     60  N   UNL A   1      42.031  28.972  30.691  1.00  0.00    -0.248 NA
ATOM     61  C   UNL A   1      42.633  26.908  29.775  1.00  0.00     0.031 C 
ATOM     62  C   UNL A   1      44.446  31.166  33.705  1.00  0.00     0.029 A 
ATOM     63  C   UNL A   1      43.709  30.459  32.769  1.00  0.00     0.049 A 
ATOM     64  H   UNL A   1      41.895  30.988  31.829  1.00  0.00     0.167 HD
ATOM     65  C   UNL A   1      43.223  28.548  31.266  1.00  0.00     0.074 A 
ATOM     66  C   UNL A   1      43.525  27.252  30.692  1.00  0.00     0.031 C 
ATOM     67  C   UNL A   1      43.995  29.171  32.189  1.00  0.00     0.031 A 
BRANCH  54  68
ATOM     68  C   UNL A   1      41.825  34.680  33.973  1.00  0.00    -0.014 A 
ATOM     69  C   UNL A   1      42.541  35.781  33.474  1.00  0.00     0.009 A 
ATOM     70  C   UNL A   1      41.270  34.762  35.260  1.00  0.00     0.009 A 
ATOM     71  C   UNL A   1      42.734  36.918  34.263  1.00  0.00     0.001 A 
ATOM     72  C   UNL A   1      41.436  35.913  36.032  1.00  0.00     0.001 A 
ATOM     73  C   UNL A   1      42.177  36.985  35.538  1.00  0.00     0.000 A 
ENDBRANCH  54  68
BRANCH  55  74
ATOM     74  C   UNL A   1      40.233  26.745  28.114  1.00  0.00    -0.014 A 
ATOM     75  C   UNL A   1      39.517  25.631  28.580  1.00  0.00     0.009 A 
ATOM     76  C   UNL A   1      40.749  26.721  26.809  1.00  0.00     0.009 A 
ATOM     77  C   UNL A   1      39.349  24.506  27.770  1.00  0.00     0.001 A 
ATOM     78  C   UNL A   1      40.552  25.607  25.989  1.00  0.00     0.001 A 
ATOM     79  C   UNL A   1      39.863  24.497  26.474  1.00  0.00     0.000 A 
ENDBRANCH  55  74
BRANCH  67  80
ATOM     80  C   UNL A   1      45.214  28.437  32.675  1.00  0.00    -0.014 A 
ATOM     81  C   UNL A   1      45.153  27.529  33.743  1.00  0.00     0.009 A 
ATOM     82  C   UNL A   1      46.444  28.639  32.026  1.00  0.00     0.009 A 
ATOM     83  C   UNL A   1      46.306  26.874  34.181  1.00  0.00     0.001 A 
ATOM     84  C   UNL A   1      47.587  27.956  32.442  1.00  0.00     0.001 A 
ATOM     85  C   UNL A   1      47.520  27.085  33.527  1.00  0.00     0.000 A 
ENDBRANCH  67  80
ENDBRANCH  41  42
ENDBRANCH  33  36
ENDBRANCH  31  32
ENDBRANCH  30  31
ENDBRANCH  29  30
ENDBRANCH   1  29
TORSDOF 16
ENDMDL
MODEL 2
REMARK VINA RESULT:     -12.0      3.285      8.225
REMARK SMILES Cc1ccnc(C(=O)c2[nH]c3ccc(F)cc3c2CC(=O)NCCCCCCNC(=O)c2ccc(-c3c4nc(c(-c5ccccc5)c5ccc([nH]5)c(-c5ccccc5)c5nc(c(-c6ccccc6)c6ccc3[nH]6)C=C5)C=C4)cc2)c1
REMARK SMILES IDX 25 1 24 2 23 3 22 4 20 5 21 6 19 8 18 9 9 10 10 11 11 12
REMARK SMILES IDX 17 14 12 15 16 16 13 17 14 18 15 19 7 20 8 21 6 22 1 23 2 24
REMARK SMILES IDX 3 25 80 26 4 27 5 28 26 29 27 30 28 31 29 32 30 33 31 35
REMARK SMILES IDX 32 36 33 37 79 38 34 39 78 40 35 41 36 42 37 43 72 44 38 45
REMARK SMILES IDX 77 46 71 47 73 48 39 49 76 50 70 51 69 52 40 54 62 55 47 56
REMARK SMILES IDX 61 57 48 58 51 59 60 60 74 61 49 62 50 63 59 65 75 66 52 67
REMARK SMILES IDX 41 68 42 69 46 70 43 71 45 72 44 73 63 74 64 75 68 76 65 77
REMARK SMILES IDX 67 78 66 79 53 80 54 81 58 82 55 83 57 84 56 85
REMARK H PARENT 22 7 10 13 29 34 73 53 51 64
REMARK Flexibility Score: inf
ROOT
ATOM      1  C   UNL A   1      36.392  22.150  24.100  1.00  0.00     0.002 C 
ENDROOT
BRANCH   1   2
ATOM      2  C   UNL A   1      36.295  23.513  24.792  1.00  0.00     0.021 C 
BRANCH   2   3
ATOM      3  C   UNL A   1      34.922  24.200  24.759  1.00  0.00     0.116 C 
BRANCH   3   4
ATOM      4  N   UNL A   1      34.494  24.631  23.446  1.00  0.00    -0.356 N 
ATOM      5  C   UNL A   1      33.722  25.684  23.055  1.00  0.00     0.224 C 
ATOM      6  O   UNL A   1      33.642  25.897  21.841  1.00  0.00    -0.275 OA
ATOM      7  H   UNL A   1      34.816  24.067  22.706  1.00  0.00     0.163 HD
BRANCH   5   8
ATOM      8  C   UNL A   1      33.034  26.612  24.038  1.00  0.00     0.138 C 
BRANCH   8   9
ATOM      9  C   UNL A   1      31.541  26.499  24.149  1.00  0.00    -0.002 A 
ATOM     10  C   UNL A   1      30.764  25.511  24.760  1.00  0.00     0.093 A 
ATOM     11  N   UNL A   1      29.447  25.800  24.448  1.00  0.00    -0.352 N 
ATOM     12  C   UNL A   1      29.331  26.987  23.774  1.00  0.00     0.046 A 
ATOM     13  H   UNL A   1      28.686  25.222  24.682  1.00  0.00     0.167 HD
ATOM     14  C   UNL A   1      30.625  27.417  23.502  1.00  0.00     0.007 A 
ATOM     15  C   UNL A   1      28.188  27.688  23.366  1.00  0.00     0.030 A 
ATOM     16  C   UNL A   1      30.785  28.588  22.729  1.00  0.00     0.049 A 
ATOM     17  C   UNL A   1      28.377  28.881  22.663  1.00  0.00     0.041 A 
ATOM     18  C   UNL A   1      29.655  29.313  22.348  1.00  0.00     0.123 A 
ATOM     19  F   UNL A   1      29.816  30.463  21.679  1.00  0.00    -0.207 F 
BRANCH  10  20
ATOM     20  C   UNL A   1      31.043  24.271  25.487  1.00  0.00     0.227 C 
ATOM     21  O   UNL A   1      30.957  24.273  26.716  1.00  0.00    -0.285 OA
BRANCH  20  22
ATOM     22  C   UNL A   1      31.576  23.031  24.816  1.00  0.00     0.113 A 
ATOM     23  C   UNL A   1      32.901  19.538  25.549  1.00  0.00     0.044 C 
ATOM     24  C   UNL A   1      32.412  20.765  24.839  1.00  0.00    -0.047 A 
ATOM     25  C   UNL A   1      32.435  20.803  23.448  1.00  0.00     0.023 A 
ATOM     26  C   UNL A   1      31.914  21.882  25.525  1.00  0.00     0.036 A 
ATOM     27  C   UNL A   1      32.021  21.959  22.812  1.00  0.00     0.112 A 
ATOM     28  N   UNL A   1      31.606  23.069  23.459  1.00  0.00    -0.253 NA
ENDBRANCH  20  22
ENDBRANCH  10  20
ENDBRANCH   8   9
ENDBRANCH   5   8
ENDBRANCH   3   4
ENDBRANCH   2   3
ENDBRANCH   1   2
BRANCH   1  29
ATOM     29  C   UNL A   1      36.404  20.941  25.030  1.00  0.00     0.002 C 
BRANCH  29  30
ATOM     30  C   UNL A   1      37.634  20.054  24.861  1.00  0.00     0.021 C 
BRANCH  30  31
ATOM     31  C   UNL A   1      38.826  20.494  25.699  1.00  0.00     0.116 C 
BRANCH  31  32
ATOM     32  N   UNL A   1      39.845  19.460  25.783  1.00  0.00    -0.352 N 
ATOM     33  C   UNL A   1      41.176  19.601  26.096  1.00  0.00     0.251 C 
ATOM     34  H   UNL A   1      39.544  18.544  25.593  1.00  0.00     0.163 HD
ATOM     35  O   UNL A   1      41.957  18.676  25.941  1.00  0.00    -0.269 OA
BRANCH  33  36
ATOM     36  C   UNL A   1      41.649  20.904  26.607  1.00  0.00     0.039 A 
ATOM     37  C   UNL A   1      42.118  21.857  25.701  1.00  0.00     0.014 A 
ATOM     38  C   UNL A   1      41.604  21.184  27.975  1.00  0.00     0.014 A 
ATOM     39  C   UNL A   1      42.506  23.112  26.169  1.00  0.00     0.010 A 
ATOM     40  C   UNL A   1      41.908  22.462  28.427  1.00  0.00     0.010 A 
ATOM     41  C   UNL A   1      42.383  23.431  27.532  1.00  0.00    -0.014 A 
BRANCH  41  42
ATOM     42  C   UNL A   1      42.785  24.763  28.045  1.00  0.00     0.031 A 
ATOM     43  C   UNL A   1      41.740  25.821  28.276  1.00  0.00     0.074 A 
ATOM     44  C   UNL A   1      44.085  25.035  28.261  1.00  0.00     0.049 A 
ATOM     45  N   UNL A   1      41.892  27.054  28.692  1.00  0.00    -0.248 NA
ATOM     46  C   UNL A   1      40.347  25.458  27.974  1.00  0.00     0.031 C 
ATOM     47  C   UNL A   1      45.196  24.107  28.038  1.00  0.00     0.029 A 
ATOM     48  N   UNL A   1      44.692  26.177  28.718  1.00  0.00    -0.354 N 
ATOM     49  C   UNL A   1      40.619  27.611  28.685  1.00  0.00     0.074 A 
ATOM     50  C   UNL A   1      39.719  26.607  28.164  1.00  0.00     0.031 C 
ATOM     51  C   UNL A   1      46.345  24.704  28.394  1.00  0.00     0.029 A 
ATOM     52  C   UNL A   1      46.057  26.068  28.829  1.00  0.00     0.049 A 
ATOM     53  H   UNL A   1      44.197  26.997  28.947  1.00  0.00     0.167 HD
ATOM     54  C   UNL A   1      40.228  28.840  29.098  1.00  0.00     0.031 A 
ATOM     55  C   UNL A   1      46.974  26.966  29.234  1.00  0.00     0.031 A 
ATOM     56  C   UNL A   1      41.123  29.836  29.621  1.00  0.00     0.049 A 
ATOM     57  C   UNL A   1      46.517  28.331  29.672  1.00  0.00     0.074 A 
ATOM     58  C   UNL A   1      40.823  31.093  30.112  1.00  0.00     0.029 A 
ATOM     59  N   UNL A   1      42.499  29.685  29.718  1.00  0.00    -0.354 N 
ATOM     60  N   UNL A   1      45.302  28.820  29.724  1.00  0.00    -0.248 NA
ATOM     61  C   UNL A   1      47.561  29.260  30.126  1.00  0.00     0.031 C 
ATOM     62  C   UNL A   1      42.023  31.727  30.452  1.00  0.00     0.029 A 
ATOM     63  C   UNL A   1      43.063  30.837  30.239  1.00  0.00     0.049 A 
ATOM     64  H   UNL A   1      42.999  28.879  29.456  1.00  0.00     0.167 HD
ATOM     65  C   UNL A   1      45.431  30.100  30.250  1.00  0.00     0.074 A 
ATOM     66  C   UNL A   1      46.840  30.302  30.515  1.00  0.00     0.031 C 
ATOM     67  C   UNL A   1      44.469  31.022  30.497  1.00  0.00     0.031 A 
BRANCH  54  68
ATOM     68  C   UNL A   1      38.765  29.173  28.985  1.00  0.00    -0.014 A 
ATOM     69  C   UNL A   1      37.890  29.008  30.072  1.00  0.00     0.009 A 
ATOM     70  C   UNL A   1      38.255  29.677  27.778  1.00  0.00     0.009 A 
ATOM     71  C   UNL A   1      36.531  29.297  29.939  1.00  0.00     0.001 A 
ATOM     72  C   UNL A   1      36.902  29.999  27.659  1.00  0.00     0.001 A 
ATOM     73  C   UNL A   1      36.039  29.797  28.735  1.00  0.00     0.000 A 
ENDBRANCH  54  68
BRANCH  55  74
ATOM     74  C   UNL A   1      48.415  26.600  29.269  1.00  0.00    -0.014 A 
ATOM     75  C   UNL A   1      49.220  26.755  28.129  1.00  0.00     0.009 A 
ATOM     76  C   UNL A   1      48.991  26.083  30.440  1.00  0.00     0.009 A 
ATOM     77  C   UNL A   1      50.562  26.370  28.152  1.00  0.00     0.001 A 
ATOM     78  C   UNL A   1      50.343  25.730  30.469  1.00  0.00     0.001 A 
ATOM     79  C   UNL A   1      51.124  25.863  29.322  1.00  0.00     0.000 A 
ENDBRANCH  55  74
BRANCH  67  80
ATOM     80  C   UNL A   1      44.903  32.315  31.131  1.00  0.00    -0.014 A 
ATOM     81  C   UNL A   1      45.262  33.431  30.361  1.00  0.00     0.009 A 
ATOM     82  C   UNL A   1      44.923  32.422  32.532  1.00  0.00     0.009 A 
ATOM     83  C   UNL A   1      45.676  34.613  30.979  1.00  0.00     0.001 A 
ATOM     84  C   UNL A   1      45.302  33.616  33.147  1.00  0.00     0.001 A 
ATOM     85  C   UNL A   1      45.690  34.706  32.371  1.00  0.00     0.000 A 
ENDBRANCH  67  80
ENDBRANCH  41  42
ENDBRANCH  33  36
ENDBRANCH  31  32
ENDBRANCH  30  31
ENDBRANCH  29  30
ENDBRANCH   1  29
TORSDOF 16
ENDMDL
MODEL 3
REMARK VINA RESULT:     -12.0      0.345      5.752
REMARK SMILES Cc1ccnc(C(=O)c2[nH]c3ccc(F)cc3c2CC(=O)NCCCCCCNC(=O)c2ccc(-c3c4nc(c(-c5ccccc5)c5ccc([nH]5)c(-c5ccccc5)c5nc(c(-c6ccccc6)c6ccc3[nH]6)C=C5)C=C4)cc2)c1
REMARK SMILES IDX 25 1 24 2 23 3 22 4 20 5 21 6 19 8 18 9 9 10 10 11 11 12
REMARK SMILES IDX 17 14 12 15 16 16 13 17 14 18 15 19 7 20 8 21 6 22 1 23 2 24
REMARK SMILES IDX 3 25 80 26 4 27 5 28 26 29 27 30 28 31 29 32 30 33 31 35
REMARK SMILES IDX 32 36 33 37 79 38 34 39 78 40 35 41 36 42 37 43 72 44 38 45
REMARK SMILES IDX 77 46 71 47 73 48 39 49 76 50 70 51 69 52 40 54 62 55 47 56
REMARK SMILES IDX 61 57 48 58 51 59 60 60 74 61 49 62 50 63 59 65 75 66 52 67
REMARK SMILES IDX 41 68 42 69 46 70 43 71 45 72 44 73 63 74 64 75 68 76 65 77
REMARK SMILES IDX 67 78 66 79 53 80 54 81 58 82 55 83 57 84 56 85
REMARK H PARENT 22 7 10 13 29 34 73 53 51 64
REMARK Flexibility Score: inf
ROOT
ATOM      1  C   UNL A   1      31.607  29.083  26.386  1.00  0.00     0.002 C 
ENDROOT
BRANCH   1   2
ATOM      2  C   UNL A   1      32.818  28.206  26.052  1.00  0.00     0.021 C 
BRANCH   2   3
ATOM      3  C   UNL A   1      32.710  26.722  26.428  1.00  0.00     0.116 C 
BRANCH   3   4
ATOM      4  N   UNL A   1      31.361  26.254  26.664  1.00  0.00    -0.356 N 
ATOM      5  C   UNL A   1      30.478  25.612  25.848  1.00  0.00     0.224 C 
ATOM      6  O   UNL A   1      29.438  25.196  26.370  1.00  0.00    -0.275 OA
ATOM      7  H   UNL A   1      31.022  26.430  27.572  1.00  0.00     0.163 HD
BRANCH   5   8
ATOM      8  C   UNL A   1      30.756  25.344  24.382  1.00  0.00     0.138 C 
BRANCH   8   9
ATOM      9  C   UNL A   1      30.798  26.535  23.469  1.00  0.00    -0.002 A 
ATOM     10  C   UNL A   1      31.864  27.053  22.728  1.00  0.00     0.093 A 
ATOM     11  N   UNL A   1      31.415  28.242  22.177  1.00  0.00    -0.352 N 
ATOM     12  C   UNL A   1      30.084  28.448  22.424  1.00  0.00     0.046 A 
ATOM     13  H   UNL A   1      31.985  28.862  21.668  1.00  0.00     0.167 HD
ATOM     14  C   UNL A   1      29.681  27.441  23.293  1.00  0.00     0.007 A 
ATOM     15  C   UNL A   1      29.225  29.459  21.969  1.00  0.00     0.030 A 
ATOM     16  C   UNL A   1      28.354  27.477  23.779  1.00  0.00     0.049 A 
ATOM     17  C   UNL A   1      27.900  29.430  22.412  1.00  0.00     0.041 A 
ATOM     18  C   UNL A   1      27.482  28.458  23.306  1.00  0.00     0.123 A 
ATOM     19  F   UNL A   1      26.205  28.443  23.713  1.00  0.00    -0.207 F 
BRANCH  10  20
ATOM     20  C   UNL A   1      33.270  26.695  22.540  1.00  0.00     0.227 C 
ATOM     21  O   UNL A   1      33.995  27.457  21.899  1.00  0.00    -0.285 OA
BRANCH  20  22
ATOM     22  C   UNL A   1      33.841  25.367  22.967  1.00  0.00     0.113 A 
ATOM     23  C   UNL A   1      35.975  23.724  25.657  1.00  0.00     0.044 C 
ATOM     24  C   UNL A   1      35.083  23.944  24.472  1.00  0.00    -0.047 A 
ATOM     25  C   UNL A   1      34.730  22.860  23.673  1.00  0.00     0.023 A 
ATOM     26  C   UNL A   1      34.574  25.207  24.138  1.00  0.00     0.036 A 
ATOM     27  C   UNL A   1      33.943  23.089  22.559  1.00  0.00     0.112 A 
ATOM     28  N   UNL A   1      33.503  24.309  22.184  1.00  0.00    -0.253 NA
ENDBRANCH  20  22
ENDBRANCH  10  20
ENDBRANCH   8   9
ENDBRANCH   5   8
ENDBRANCH   3   4
ENDBRANCH   2   3
ENDBRANCH   1   2
BRANCH   1  29
ATOM     29  C   UNL A   1      31.411  30.300  25.486  1.00  0.00     0.002 C 
BRANCH  29  30
ATOM     30  C   UNL A   1      31.188  31.598  26.257  1.00  0.00     0.021 C 
BRANCH  30  31
ATOM     31  C   UNL A   1      32.431  32.106  26.973  1.00  0.00     0.116 C 
BRANCH  31  32
ATOM     32  N   UNL A   1      32.291  33.491  27.395  1.00  0.00    -0.352 N 
ATOM     33  C   UNL A   1      33.083  34.199  28.266  1.00  0.00     0.251 C 
ATOM     34  H   UNL A   1      31.533  33.983  27.007  1.00  0.00     0.163 HD
ATOM     35  O   UNL A   1      32.737  35.295  28.678  1.00  0.00    -0.269 OA
BRANCH  33  36
ATOM     36  C   UNL A   1      34.357  33.599  28.712  1.00  0.00     0.039 A 
ATOM     37  C   UNL A   1      35.531  33.912  28.025  1.00  0.00     0.014 A 
ATOM     38  C   UNL A   1      34.387  32.751  29.823  1.00  0.00     0.014 A 
ATOM     39  C   UNL A   1      36.746  33.401  28.479  1.00  0.00     0.010 A 
ATOM     40  C   UNL A   1      35.607  32.316  30.324  1.00  0.00     0.010 A 
ATOM     41  C   UNL A   1      36.796  32.618  29.645  1.00  0.00    -0.014 A 
BRANCH  41  42
ATOM     42  C   UNL A   1      38.080  32.073  30.147  1.00  0.00     0.031 A 
ATOM     43  C   UNL A   1      38.589  30.757  29.623  1.00  0.00     0.074 A 
ATOM     44  C   UNL A   1      38.764  32.733  31.100  1.00  0.00     0.049 A 
ATOM     45  N   UNL A   1      39.671  30.098  29.956  1.00  0.00    -0.248 NA
ATOM     46  C   UNL A   1      37.759  30.077  28.615  1.00  0.00     0.031 C 
ATOM     47  C   UNL A   1      38.357  33.998  31.716  1.00  0.00     0.029 A 
ATOM     48  N   UNL A   1      39.951  32.429  31.717  1.00  0.00    -0.354 N 
ATOM     49  C   UNL A   1      39.641  28.927  29.210  1.00  0.00     0.074 A 
ATOM     50  C   UNL A   1      38.406  28.933  28.459  1.00  0.00     0.031 C 
ATOM     51  C   UNL A   1      39.296  34.379  32.596  1.00  0.00     0.029 A 
ATOM     52  C   UNL A   1      40.349  33.368  32.638  1.00  0.00     0.049 A 
ATOM     53  H   UNL A   1      40.470  31.616  31.519  1.00  0.00     0.167 HD
ATOM     54  C   UNL A   1      40.569  27.943  29.136  1.00  0.00     0.031 A 
ATOM     55  C   UNL A   1      41.438  33.410  33.426  1.00  0.00     0.031 A 
ATOM     56  C   UNL A   1      41.800  27.941  29.879  1.00  0.00     0.049 A 
ATOM     57  C   UNL A   1      42.447  32.296  33.339  1.00  0.00     0.074 A 
ATOM     58  C   UNL A   1      42.829  27.018  29.841  1.00  0.00     0.029 A 
ATOM     59  N   UNL A   1      42.166  28.912  30.800  1.00  0.00    -0.354 N 
ATOM     60  N   UNL A   1      42.438  31.228  32.579  1.00  0.00    -0.248 NA
ATOM     61  C   UNL A   1      43.627  32.409  34.208  1.00  0.00     0.031 C 
ATOM     62  C   UNL A   1      43.792  27.398  30.781  1.00  0.00     0.029 A 
ATOM     63  C   UNL A   1      43.395  28.596  31.353  1.00  0.00     0.049 A 
ATOM     64  H   UNL A   1      41.631  29.706  31.026  1.00  0.00     0.167 HD
ATOM     65  C   UNL A   1      43.625  30.560  32.850  1.00  0.00     0.074 A 
ATOM     66  C   UNL A   1      44.335  31.353  33.832  1.00  0.00     0.031 C 
ATOM     67  C   UNL A   1      44.089  29.397  32.330  1.00  0.00     0.031 A 
BRANCH  54  68
ATOM     68  C   UNL A   1      40.274  26.782  28.225  1.00  0.00    -0.014 A 
ATOM     69  C   UNL A   1      39.548  25.666  28.674  1.00  0.00     0.009 A 
ATOM     70  C   UNL A   1      40.712  26.811  26.893  1.00  0.00     0.009 A 
ATOM     71  C   UNL A   1      39.307  24.587  27.821  1.00  0.00     0.001 A 
ATOM     72  C   UNL A   1      40.439  25.746  26.032  1.00  0.00     0.001 A 
ATOM     73  C   UNL A   1      39.747  24.630  26.500  1.00  0.00     0.000 A 
ENDBRANCH  54  68
BRANCH  55  74
ATOM     74  C   UNL A   1      41.648  34.554  34.352  1.00  0.00    -0.014 A 
ATOM     75  C   UNL A   1      41.118  34.530  35.651  1.00  0.00     0.009 A 
ATOM     76  C   UNL A   1      42.372  35.683  33.937  1.00  0.00     0.009 A 
ATOM     77  C   UNL A   1      41.280  35.624  36.504  1.00  0.00     0.001 A 
ATOM     78  C   UNL A   1      42.561  36.763  34.803  1.00  0.00     0.001 A 
ATOM     79  C   UNL A   1      42.005  36.737  36.081  1.00  0.00     0.000 A 
ENDBRANCH  55  74
BRANCH  67  80
ATOM     80  C   UNL A   1      45.451  28.940  32.774  1.00  0.00    -0.014 A 
ATOM     81  C   UNL A   1      45.622  28.101  33.886  1.00  0.00     0.009 A 
ATOM     82  C   UNL A   1      46.583  29.336  32.043  1.00  0.00     0.009 A 
ATOM     83  C   UNL A   1      46.901  27.706  34.284  1.00  0.00     0.001 A 
ATOM     84  C   UNL A   1      47.857  28.910  32.421  1.00  0.00     0.001 A 
ATOM     85  C   UNL A   1      48.016  28.107  33.548  1.00  0.00     0.000 A 
ENDBRANCH  67  80
ENDBRANCH  41  42
ENDBRANCH  33  36
ENDBRANCH  31  32
ENDBRANCH  30  31
ENDBRANCH  29  30
ENDBRANCH   1  29
TORSDOF 16
ENDMDL
