MODEL 1
REMARK VINA RESULT:      -9.0      0.000      0.000
REMARK SMILES Cc1cc2c(c(C)c1Cl)C=C(C(=O)NCCCCCCNC(=O)c1ccc(-c3c4nc(c(-c5ccccc5)c5ccc([nH]5)c(-c5ccccc5)c5nc(c(-c6ccccc6)c6ccc3[nH]6)C=C5)C=C4)cc1)[C@@H](C(F)(F)F)O2
REMARK SMILES IDX 18 1 17 2 16 3 15 4 14 5 12 6 13 7 11 9 1 10 2 11 3 12 8 13
REMARK SMILES IDX 4 14 6 15 9 16 5 17 77 18 7 19 10 20 72 21 73 22 74 23 75 24
REMARK SMILES IDX 76 25 19 26 20 27 21 28 22 29 23 31 24 32 25 33 71 34 26 35
REMARK SMILES IDX 70 36 27 37 28 38 29 39 64 40 30 41 69 42 63 43 65 44 31 45
REMARK SMILES IDX 68 46 62 47 61 48 32 50 54 51 39 52 53 53 40 54 43 55 52 56
REMARK SMILES IDX 66 57 41 58 42 59 51 61 67 62 44 63 33 64 34 65 38 66 35 67
REMARK SMILES IDX 37 68 36 69 55 70 56 71 60 72 57 73 59 74 58 75 45 76 46 77
REMARK SMILES IDX 50 78 47 79 49 80 48 81
REMARK H PARENT 14 8 21 30 65 49 43 60
REMARK Flexibility Score: inf
ROOT
ATOM      1  C   UNL A   1      33.799  36.437  32.502  1.00  0.00     0.002 C 
ENDROOT
BRANCH   1   2
ATOM      2  C   UNL A   1      34.814  35.286  32.525  1.00  0.00     0.002 C 
BRANCH   2   3
ATOM      3  C   UNL A   1      34.352  34.027  33.264  1.00  0.00     0.021 C 
BRANCH   3   4
ATOM      4  C   UNL A   1      35.428  33.396  34.141  1.00  0.00     0.116 C 
BRANCH   4   5
ATOM      5  N   UNL A   1      36.505  34.324  34.432  1.00  0.00    -0.352 N 
ATOM      6  C   UNL A   1      37.848  34.268  34.592  1.00  0.00     0.251 C 
ATOM      7  O   UNL A   1      38.395  35.355  34.803  1.00  0.00    -0.270 OA
ATOM      8  H   UNL A   1      36.168  35.243  34.543  1.00  0.00     0.163 HD
BRANCH   6   9
ATOM      9  C   UNL A   1      38.675  33.024  34.534  1.00  0.00     0.067 C 
ATOM     10  C   UNL A   1      41.497  27.315  33.190  1.00  0.00     0.046 C 
ATOM     11  C   UNL A   1      40.550  28.475  33.332  1.00  0.00    -0.028 A 
ATOM     12  C   UNL A   1      41.008  29.588  34.040  1.00  0.00     0.052 A 
ATOM     13  C   UNL A   1      39.273  28.528  32.739  1.00  0.00     0.047 A 
ATOM     14  C   UNL A   1      40.213  30.721  34.177  1.00  0.00     0.128 A 
ATOM     15  C   UNL A   1      38.445  29.672  32.883  1.00  0.00    -0.021 A 
ATOM     16  Cl  UNL A   1      38.734  27.170  31.796  1.00  0.00    -0.084 Cl
ATOM     17  C   UNL A   1      38.942  30.788  33.601  1.00  0.00     0.022 A 
ATOM     18  O   UNL A   1      40.792  31.745  34.860  1.00  0.00    -0.475 OA
ATOM     19  C   UNL A   1      37.062  29.737  32.274  1.00  0.00     0.047 C 
ATOM     20  C   UNL A   1      38.210  32.052  33.727  1.00  0.00     0.026 C 
ATOM     21  C   UNL A   1      39.930  32.811  35.323  1.00  0.00     0.314 C 
BRANCH  21  22
ATOM     22  C   UNL A   1      39.668  32.625  36.828  1.00  0.00     0.429 C 
ATOM     23  F   UNL A   1      40.754  32.077  37.432  1.00  0.00    -0.167 F 
ATOM     24  F   UNL A   1      39.431  33.793  37.467  1.00  0.00    -0.167 F 
ATOM     25  F   UNL A   1      38.614  31.816  37.075  1.00  0.00    -0.167 F 
ENDBRANCH  21  22
ENDBRANCH   6   9
ENDBRANCH   4   5
ENDBRANCH   3   4
ENDBRANCH   2   3
ENDBRANCH   1   2
BRANCH   1  26
ATOM     26  C   UNL A   1      32.782  36.396  31.357  1.00  0.00     0.021 C 
BRANCH  26  27
ATOM     27  C   UNL A   1      33.393  36.283  29.965  1.00  0.00     0.116 C 
BRANCH  27  28
ATOM     28  N   UNL A   1      32.658  35.352  29.125  1.00  0.00    -0.352 N 
ATOM     29  C   UNL A   1      33.103  34.231  28.481  1.00  0.00     0.251 C 
ATOM     30  H   UNL A   1      31.703  35.557  29.004  1.00  0.00     0.163 HD
ATOM     31  O   UNL A   1      32.390  33.674  27.643  1.00  0.00    -0.269 OA
BRANCH  29  32
ATOM     32  C   UNL A   1      34.441  33.687  28.781  1.00  0.00     0.039 A 
ATOM     33  C   UNL A   1      35.506  34.005  27.933  1.00  0.00     0.014 A 
ATOM     34  C   UNL A   1      34.639  32.844  29.879  1.00  0.00     0.014 A 
ATOM     35  C   UNL A   1      36.782  33.514  28.213  1.00  0.00     0.010 A 
ATOM     36  C   UNL A   1      35.921  32.405  30.190  1.00  0.00     0.010 A 
ATOM     37  C   UNL A   1      37.002  32.731  29.357  1.00  0.00    -0.014 A 
BRANCH  37  38
ATOM     38  C   UNL A   1      38.354  32.229  29.699  1.00  0.00     0.031 A 
ATOM     39  C   UNL A   1      38.779  30.860  29.254  1.00  0.00     0.074 A 
ATOM     40  C   UNL A   1      39.170  32.983  30.459  1.00  0.00     0.049 A 
ATOM     41  N   UNL A   1      39.878  30.206  29.533  1.00  0.00    -0.248 NA
ATOM     42  C   UNL A   1      37.840  30.119  28.396  1.00  0.00     0.031 C 
ATOM     43  C   UNL A   1      38.866  34.326  30.956  1.00  0.00     0.029 A 
ATOM     44  N   UNL A   1      40.423  32.720  30.950  1.00  0.00    -0.354 N 
ATOM     45  C   UNL A   1      39.759  28.979  28.895  1.00  0.00     0.074 A 
ATOM     46  C   UNL A   1      38.462  28.958  28.252  1.00  0.00     0.031 C 
ATOM     47  C   UNL A   1      39.915  34.779  31.660  1.00  0.00     0.029 A 
ATOM     48  C   UNL A   1      40.942  33.744  31.704  1.00  0.00     0.049 A 
ATOM     49  H   UNL A   1      40.905  31.879  30.778  1.00  0.00     0.167 HD
ATOM     50  C   UNL A   1      40.656  27.967  28.835  1.00  0.00     0.031 A 
ATOM     51  C   UNL A   1      42.111  33.834  32.366  1.00  0.00     0.031 A 
ATOM     52  C   UNL A   1      41.944  27.989  29.475  1.00  0.00     0.049 A 
ATOM     53  C   UNL A   1      43.070  32.678  32.322  1.00  0.00     0.074 A 
ATOM     54  C   UNL A   1      42.932  27.019  29.458  1.00  0.00     0.029 A 
ATOM     55  N   UNL A   1      42.424  29.037  30.245  1.00  0.00    -0.354 N 
ATOM     56  N   UNL A   1      42.950  31.530  31.701  1.00  0.00    -0.248 NA
ATOM     57  C   UNL A   1      44.328  32.833  33.066  1.00  0.00     0.031 C 
ATOM     58  C   UNL A   1      43.990  27.462  30.257  1.00  0.00     0.029 A 
ATOM     59  C   UNL A   1      43.687  28.731  30.722  1.00  0.00     0.049 A 
ATOM     60  H   UNL A   1      41.939  29.874  30.426  1.00  0.00     0.167 HD
ATOM     61  C   UNL A   1      44.128  30.838  31.954  1.00  0.00     0.074 A 
ATOM     62  C   UNL A   1      44.953  31.701  32.774  1.00  0.00     0.031 C 
ATOM     63  C   UNL A   1      44.494  29.600  31.540  1.00  0.00     0.031 A 
BRANCH  50  64
ATOM     64  C   UNL A   1      40.273  26.744  28.048  1.00  0.00    -0.014 A 
ATOM     65  C   UNL A   1      40.710  26.568  26.725  1.00  0.00     0.009 A 
ATOM     66  C   UNL A   1      39.513  25.731  28.652  1.00  0.00     0.009 A 
ATOM     67  C   UNL A   1      40.372  25.414  26.016  1.00  0.00     0.001 A 
ATOM     68  C   UNL A   1      39.200  24.566  27.950  1.00  0.00     0.001 A 
ATOM     69  C   UNL A   1      39.623  24.411  26.631  1.00  0.00     0.000 A 
ENDBRANCH  50  64
BRANCH  51  70
ATOM     70  C   UNL A   1      42.447  35.078  33.108  1.00  0.00    -0.014 A 
ATOM     71  C   UNL A   1      43.197  36.089  32.488  1.00  0.00     0.009 A 
ATOM     72  C   UNL A   1      42.005  35.270  34.425  1.00  0.00     0.009 A 
ATOM     73  C   UNL A   1      43.510  37.261  33.179  1.00  0.00     0.001 A 
ATOM     74  C   UNL A   1      42.297  36.455  35.105  1.00  0.00     0.001 A 
ATOM     75  C   UNL A   1      43.054  37.446  34.483  1.00  0.00     0.000 A 
ENDBRANCH  51  70
BRANCH  63  76
ATOM     76  C   UNL A   1      45.859  29.116  31.939  1.00  0.00    -0.014 A 
ATOM     77  C   UNL A   1      46.989  29.387  31.153  1.00  0.00     0.009 A 
ATOM     78  C   UNL A   1      46.021  28.420  33.148  1.00  0.00     0.009 A 
ATOM     79  C   UNL A   1      48.251  28.945  31.556  1.00  0.00     0.001 A 
ATOM     80  C   UNL A   1      47.288  28.006  33.562  1.00  0.00     0.001 A 
ATOM     81  C   UNL A   1      48.400  28.261  32.762  1.00  0.00     0.000 A 
ENDBRANCH  63  76
ENDBRANCH  37  38
ENDBRANCH  29  32
ENDBRANCH  27  28
ENDBRANCH  26  27
ENDBRANCH   1  26
TORSDOF 14
ENDMDL
MODEL 2
REMARK VINA RESULT:      -8.9      0.554      5.905
REMARK SMILES Cc1cc2c(c(C)c1Cl)C=C(C(=O)NCCCCCCNC(=O)c1ccc(-c3c4nc(c(-c5ccccc5)c5ccc([nH]5)c(-c5ccccc5)c5nc(c(-c6ccccc6)c6ccc3[nH]6)C=C5)C=C4)cc1)[C@@H](C(F)(F)F)O2
REMARK SMILES IDX 18 1 17 2 16 3 15 4 14 5 12 6 13 7 11 9 1 10 2 11 3 12 8 13
REMARK SMILES IDX 4 14 6 15 9 16 5 17 77 18 7 19 10 20 72 21 73 22 74 23 75 24
REMARK SMILES IDX 76 25 19 26 20 27 21 28 22 29 23 31 24 32 25 33 71 34 26 35
REMARK SMILES IDX 70 36 27 37 28 38 29 39 64 40 30 41 69 42 63 43 65 44 31 45
REMARK SMILES IDX 68 46 62 47 61 48 32 50 54 51 39 52 53 53 40 54 43 55 52 56
REMARK SMILES IDX 66 57 41 58 42 59 51 61 67 62 44 63 33 64 34 65 38 66 35 67
REMARK SMILES IDX 37 68 36 69 55 70 56 71 60 72 57 73 59 74 58 75 45 76 46 77
REMARK SMILES IDX 50 78 47 79 49 80 48 81
REMARK H PARENT 14 8 21 30 65 49 43 60
REMARK Flexibility Score: inf
ROOT
ATOM      1  C   UNL A   1      33.901  36.559  33.179  1.00  0.00     0.002 C 
ENDROOT
BRANCH   1   2
ATOM      2  C   UNL A   1      35.055  35.548  33.208  1.00  0.00     0.002 C 
BRANCH   2   3
ATOM      3  C   UNL A   1      34.706  34.181  33.802  1.00  0.00     0.021 C 
BRANCH   3   4
ATOM      4  C   UNL A   1      35.888  33.468  34.450  1.00  0.00     0.116 C 
BRANCH   4   5
ATOM      5  N   UNL A   1      36.968  34.385  34.766  1.00  0.00    -0.352 N 
ATOM      6  C   UNL A   1      38.316  34.334  34.866  1.00  0.00     0.251 C 
ATOM      7  O   UNL A   1      38.862  35.409  35.136  1.00  0.00    -0.270 OA
ATOM      8  H   UNL A   1      36.626  35.289  34.961  1.00  0.00     0.163 HD
BRANCH   6   9
ATOM      9  C   UNL A   1      39.151  33.108  34.680  1.00  0.00     0.067 C 
ATOM     10  C   UNL A   1      41.875  27.475  32.887  1.00  0.00     0.046 C 
ATOM     11  C   UNL A   1      40.934  28.613  33.172  1.00  0.00    -0.028 A 
ATOM     12  C   UNL A   1      41.461  29.728  33.828  1.00  0.00     0.052 A 
ATOM     13  C   UNL A   1      39.587  28.646  32.757  1.00  0.00     0.047 A 
ATOM     14  C   UNL A   1      40.671  30.842  34.086  1.00  0.00     0.128 A 
ATOM     15  C   UNL A   1      38.765  29.772  33.027  1.00  0.00    -0.021 A 
ATOM     16  Cl  UNL A   1      38.953  27.289  31.876  1.00  0.00    -0.084 Cl
ATOM     17  C   UNL A   1      39.333  30.889  33.688  1.00  0.00     0.022 A 
ATOM     18  O   UNL A   1      41.318  31.870  34.700  1.00  0.00    -0.475 OA
ATOM     19  C   UNL A   1      37.312  29.815  32.611  1.00  0.00     0.047 C 
ATOM     20  C   UNL A   1      38.601  32.136  33.929  1.00  0.00     0.026 C 
ATOM     21  C   UNL A   1      40.505  32.913  35.290  1.00  0.00     0.314 C 
BRANCH  21  22
ATOM     22  C   UNL A   1      40.453  32.703  36.813  1.00  0.00     0.429 C 
ATOM     23  F   UNL A   1      41.474  31.906  37.216  1.00  0.00    -0.167 F 
ATOM     24  F   UNL A   1      40.580  33.859  37.505  1.00  0.00    -0.167 F 
ATOM     25  F   UNL A   1      39.301  32.124  37.218  1.00  0.00    -0.167 F 
ENDBRANCH  21  22
ENDBRANCH   6   9
ENDBRANCH   4   5
ENDBRANCH   3   4
ENDBRANCH   2   3
ENDBRANCH   1   2
BRANCH   1  26
ATOM     26  C   UNL A   1      32.902  36.384  32.031  1.00  0.00     0.021 C 
BRANCH  26  27
ATOM     27  C   UNL A   1      33.522  36.393  30.637  1.00  0.00     0.116 C 
BRANCH  27  28
ATOM     28  N   UNL A   1      32.752  35.595  29.697  1.00  0.00    -0.352 N 
ATOM     29  C   UNL A   1      33.153  34.538  28.929  1.00  0.00     0.251 C 
ATOM     30  H   UNL A   1      31.807  35.853  29.600  1.00  0.00     0.163 HD
ATOM     31  O   UNL A   1      32.421  34.111  28.033  1.00  0.00    -0.269 OA
BRANCH  29  32
ATOM     32  C   UNL A   1      34.465  33.908  29.164  1.00  0.00     0.039 A 
ATOM     33  C   UNL A   1      35.466  34.049  28.198  1.00  0.00     0.014 A 
ATOM     34  C   UNL A   1      34.700  33.158  30.321  1.00  0.00     0.014 A 
ATOM     35  C   UNL A   1      36.720  33.474  28.414  1.00  0.00     0.010 A 
ATOM     36  C   UNL A   1      35.967  32.637  30.562  1.00  0.00     0.010 A 
ATOM     37  C   UNL A   1      36.986  32.786  29.608  1.00  0.00    -0.014 A 
BRANCH  37  38
ATOM     38  C   UNL A   1      38.319  32.200  29.880  1.00  0.00     0.031 A 
ATOM     39  C   UNL A   1      39.353  33.002  30.616  1.00  0.00     0.074 A 
ATOM     40  C   UNL A   1      38.615  30.973  29.412  1.00  0.00     0.049 A 
ATOM     41  N   UNL A   1      40.603  32.704  30.866  1.00  0.00    -0.248 NA
ATOM     42  C   UNL A   1      38.934  34.318  31.125  1.00  0.00     0.031 C 
ATOM     43  C   UNL A   1      37.695  30.101  28.679  1.00  0.00     0.029 A 
ATOM     44  N   UNL A   1      39.778  30.250  29.481  1.00  0.00    -0.354 N 
ATOM     45  C   UNL A   1      41.120  33.797  31.551  1.00  0.00     0.074 A 
ATOM     46  C   UNL A   1      40.064  34.783  31.638  1.00  0.00     0.031 C 
ATOM     47  C   UNL A   1      38.323  28.950  28.387  1.00  0.00     0.029 A 
ATOM     48  C   UNL A   1      39.698  29.023  28.870  1.00  0.00     0.049 A 
ATOM     49  H   UNL A   1      40.592  30.579  29.926  1.00  0.00     0.167 HD
ATOM     50  C   UNL A   1      42.358  33.956  32.075  1.00  0.00     0.031 A 
ATOM     51  C   UNL A   1      40.631  28.066  28.708  1.00  0.00     0.031 A 
ATOM     52  C   UNL A   1      43.406  32.975  31.987  1.00  0.00     0.049 A 
ATOM     53  C   UNL A   1      42.012  28.288  29.259  1.00  0.00     0.074 A 
ATOM     54  C   UNL A   1      44.689  33.037  32.503  1.00  0.00     0.029 A 
ATOM     55  N   UNL A   1      43.290  31.753  31.343  1.00  0.00    -0.354 N 
ATOM     56  N   UNL A   1      42.482  29.319  29.918  1.00  0.00    -0.248 NA
ATOM     57  C   UNL A   1      42.989  27.210  29.049  1.00  0.00     0.031 C 
ATOM     58  C   UNL A   1      45.365  31.871  32.130  1.00  0.00     0.029 A 
ATOM     59  C   UNL A   1      44.484  31.057  31.435  1.00  0.00     0.049 A 
ATOM     60  H   UNL A   1      42.480  31.427  30.889  1.00  0.00     0.167 HD
ATOM     61  C   UNL A   1      43.798  29.003  30.227  1.00  0.00     0.074 A 
ATOM     62  C   UNL A   1      44.047  27.679  29.694  1.00  0.00     0.031 C 
ATOM     63  C   UNL A   1      44.717  29.742  30.896  1.00  0.00     0.031 A 
BRANCH  50  64
ATOM     64  C   UNL A   1      42.648  35.246  32.792  1.00  0.00    -0.014 A 
ATOM     65  C   UNL A   1      42.253  35.437  34.126  1.00  0.00     0.009 A 
ATOM     66  C   UNL A   1      43.371  36.260  32.146  1.00  0.00     0.009 A 
ATOM     67  C   UNL A   1      42.555  36.628  34.789  1.00  0.00     0.001 A 
ATOM     68  C   UNL A   1      43.696  37.438  32.821  1.00  0.00     0.001 A 
ATOM     69  C   UNL A   1      43.282  37.624  34.139  1.00  0.00     0.000 A 
ENDBRANCH  50  64
BRANCH  51  70
ATOM     70  C   UNL A   1      40.281  26.801  28.012  1.00  0.00    -0.014 A 
ATOM     71  C   UNL A   1      39.534  25.814  28.673  1.00  0.00     0.009 A 
ATOM     72  C   UNL A   1      40.670  26.582  26.682  1.00  0.00     0.009 A 
ATOM     73  C   UNL A   1      39.197  24.626  28.021  1.00  0.00     0.001 A 
ATOM     74  C   UNL A   1      40.308  25.403  26.023  1.00  0.00     0.001 A 
ATOM     75  C   UNL A   1      39.578  24.425  26.695  1.00  0.00     0.000 A 
ENDBRANCH  51  70
BRANCH  63  76
ATOM     76  C   UNL A   1      46.068  29.124  31.120  1.00  0.00    -0.014 A 
ATOM     77  C   UNL A   1      46.330  28.328  32.245  1.00  0.00     0.009 A 
ATOM     78  C   UNL A   1      47.078  29.302  30.160  1.00  0.00     0.009 A 
ATOM     79  C   UNL A   1      47.587  27.746  32.419  1.00  0.00     0.001 A 
ATOM     80  C   UNL A   1      48.324  28.695  30.323  1.00  0.00     0.001 A 
ATOM     81  C   UNL A   1      48.581  27.926  31.456  1.00  0.00     0.000 A 
ENDBRANCH  63  76
ENDBRANCH  37  38
ENDBRANCH  29  32
ENDBRANCH  27  28
ENDBRANCH  26  27
ENDBRANCH   1  26
TORSDOF 14
ENDMDL
MODEL 3
REMARK VINA RESULT:      -8.6      6.035     10.688
REMARK SMILES Cc1cc2c(c(C)c1Cl)C=C(C(=O)NCCCCCCNC(=O)c1ccc(-c3c4nc(c(-c5ccccc5)c5ccc([nH]5)c(-c5ccccc5)c5nc(c(-c6ccccc6)c6ccc3[nH]6)C=C5)C=C4)cc1)[C@@H](C(F)(F)F)O2
REMARK SMILES IDX 18 1 17 2 16 3 15 4 14 5 12 6 13 7 11 9 1 10 2 11 3 12 8 13
REMARK SMILES IDX 4 14 6 15 9 16 5 17 77 18 7 19 10 20 72 21 73 22 74 23 75 24
REMARK SMILES IDX 76 25 19 26 20 27 21 28 22 29 23 31 24 32 25 33 71 34 26 35
REMARK SMILES IDX 70 36 27 37 28 38 29 39 64 40 30 41 69 42 63 43 65 44 31 45
REMARK SMILES IDX 68 46 62 47 61 48 32 50 54 51 39 52 53 53 40 54 43 55 52 56
REMARK SMILES IDX 66 57 41 58 42 59 51 61 67 62 44 63 33 64 34 65 38 66 35 67
REMARK SMILES IDX 37 68 36 69 55 70 56 71 60 72 57 73 59 74 58 75 45 76 46 77
REMARK SMILES IDX 50 78 47 79 49 80 48 81
REMARK H PARENT 14 8 21 30 65 49 43 60
REMARK Flexibility Score: inf
ROOT
ATOM      1  C   UNL A   1      33.023  26.838  25.420  1.00  0.00     0.002 C 
ENDROOT
BRANCH   1   2
ATOM      2  C   UNL A   1      33.016  26.543  23.914  1.00  0.00     0.002 C 
BRANCH   2   3
ATOM      3  C   UNL A   1      31.627  26.447  23.277  1.00  0.00     0.021 C 
BRANCH   3   4
ATOM      4  C   UNL A   1      31.150  25.017  23.048  1.00  0.00     0.116 C 
BRANCH   4   5
ATOM      5  N   UNL A   1      30.667  24.403  24.271  1.00  0.00    -0.352 N 
ATOM      6  C   UNL A   1      31.066  23.421  25.113  1.00  0.00     0.251 C 
ATOM      7  O   UNL A   1      30.338  23.247  26.096  1.00  0.00    -0.270 OA
ATOM      8  H   UNL A   1      29.821  24.810  24.569  1.00  0.00     0.163 HD
BRANCH   6   9
ATOM      9  C   UNL A   1      32.281  22.568  24.934  1.00  0.00     0.067 C 
ATOM     10  C   UNL A   1      38.140  19.735  25.039  1.00  0.00     0.046 C 
ATOM     11  C   UNL A   1      36.985  20.697  25.102  1.00  0.00    -0.028 A 
ATOM     12  C   UNL A   1      35.723  20.200  24.766  1.00  0.00     0.052 A 
ATOM     13  C   UNL A   1      37.091  22.031  25.543  1.00  0.00     0.047 A 
ATOM     14  C   UNL A   1      34.595  21.009  24.843  1.00  0.00     0.128 A 
ATOM     15  C   UNL A   1      35.949  22.872  25.614  1.00  0.00    -0.021 A 
ATOM     16  Cl  UNL A   1      38.649  22.625  26.032  1.00  0.00    -0.084 Cl
ATOM     17  C   UNL A   1      34.684  22.335  25.272  1.00  0.00     0.022 A 
ATOM     18  O   UNL A   1      33.426  20.391  24.520  1.00  0.00    -0.475 OA
ATOM     19  C   UNL A   1      36.048  24.313  26.061  1.00  0.00     0.047 C 
ATOM     20  C   UNL A   1      33.431  23.087  25.402  1.00  0.00     0.026 C 
ATOM     21  C   UNL A   1      32.277  21.231  24.260  1.00  0.00     0.314 C 
BRANCH  21  22
ATOM     22  C   UNL A   1      32.060  21.325  22.740  1.00  0.00     0.429 C 
ATOM     23  F   UNL A   1      32.202  20.103  22.166  1.00  0.00    -0.167 F 
ATOM     24  F   UNL A   1      30.819  21.754  22.414  1.00  0.00    -0.167 F 
ATOM     25  F   UNL A   1      32.938  22.159  22.141  1.00  0.00    -0.167 F 
ENDBRANCH  21  22
ENDBRANCH   6   9
ENDBRANCH   4   5
ENDBRANCH   3   4
ENDBRANCH   2   3
ENDBRANCH   1   2
BRANCH   1  26
ATOM     26  C   UNL A   1      33.726  28.134  25.834  1.00  0.00     0.021 C 
BRANCH  26  27
ATOM     27  C   UNL A   1      33.659  28.448  27.325  1.00  0.00     0.116 C 
BRANCH  27  28
ATOM     28  N   UNL A   1      33.637  29.880  27.576  1.00  0.00    -0.352 N 
ATOM     29  C   UNL A   1      34.592  30.672  28.151  1.00  0.00     0.251 C 
ATOM     30  H   UNL A   1      32.819  30.345  27.291  1.00  0.00     0.163 HD
ATOM     31  O   UNL A   1      34.322  31.831  28.475  1.00  0.00    -0.269 OA
BRANCH  29  32
ATOM     32  C   UNL A   1      35.946  30.141  28.394  1.00  0.00     0.039 A 
ATOM     33  C   UNL A   1      36.885  30.185  27.359  1.00  0.00     0.014 A 
ATOM     34  C   UNL A   1      36.281  29.577  29.629  1.00  0.00     0.014 A 
ATOM     35  C   UNL A   1      38.177  29.703  27.578  1.00  0.00     0.010 A 
ATOM     36  C   UNL A   1      37.584  29.152  29.864  1.00  0.00     0.010 A 
ATOM     37  C   UNL A   1      38.541  29.207  28.840  1.00  0.00    -0.014 A 
BRANCH  37  38
ATOM     38  C   UNL A   1      39.916  28.726  29.111  1.00  0.00     0.031 A 
ATOM     39  C   UNL A   1      40.914  29.640  29.762  1.00  0.00     0.074 A 
ATOM     40  C   UNL A   1      40.279  27.491  28.717  1.00  0.00     0.049 A 
ATOM     41  N   UNL A   1      42.187  29.439  29.994  1.00  0.00    -0.248 NA
ATOM     42  C   UNL A   1      40.423  30.958  30.194  1.00  0.00     0.031 C 
ATOM     43  C   UNL A   1      39.400  26.515  28.071  1.00  0.00     0.029 A 
ATOM     44  N   UNL A   1      41.488  26.849  28.801  1.00  0.00    -0.354 N 
ATOM     45  C   UNL A   1      42.649  30.606  30.590  1.00  0.00     0.074 A 
ATOM     46  C   UNL A   1      41.534  31.527  30.641  1.00  0.00     0.031 C 
ATOM     47  C   UNL A   1      40.093  25.389  27.838  1.00  0.00     0.029 A 
ATOM     48  C   UNL A   1      41.472  25.580  28.275  1.00  0.00     0.049 A 
ATOM     49  H   UNL A   1      42.290  27.258  29.198  1.00  0.00     0.167 HD
ATOM     50  C   UNL A   1      43.886  30.878  31.066  1.00  0.00     0.031 A 
ATOM     51  C   UNL A   1      42.461  24.675  28.150  1.00  0.00     0.031 A 
ATOM     52  C   UNL A   1      44.994  29.961  31.013  1.00  0.00     0.049 A 
ATOM     53  C   UNL A   1      43.837  25.020  28.645  1.00  0.00     0.074 A 
ATOM     54  C   UNL A   1      46.282  30.138  31.486  1.00  0.00     0.029 A 
ATOM     55  N   UNL A   1      44.941  28.693  30.455  1.00  0.00    -0.354 N 
ATOM     56  N   UNL A   1      44.256  26.121  29.219  1.00  0.00    -0.248 NA
ATOM     57  C   UNL A   1      44.876  23.994  28.478  1.00  0.00     0.031 C 
ATOM     58  C   UNL A   1      47.022  28.994  31.171  1.00  0.00     0.029 A 
ATOM     59  C   UNL A   1      46.179  28.082  30.558  1.00  0.00     0.049 A 
ATOM     60  H   UNL A   1      44.142  28.287  30.048  1.00  0.00     0.167 HD
ATOM     61  C   UNL A   1      45.597  25.910  29.510  1.00  0.00     0.074 A 
ATOM     62  C   UNL A   1      45.918  24.572  29.060  1.00  0.00     0.031 C 
ATOM     63  C   UNL A   1      46.483  26.750  30.102  1.00  0.00     0.031 A 
BRANCH  50  64
ATOM     64  C   UNL A   1      44.110  32.229  31.687  1.00  0.00    -0.014 A 
ATOM     65  C   UNL A   1      43.906  32.438  33.060  1.00  0.00     0.009 A 
ATOM     66  C   UNL A   1      44.582  33.292  30.902  1.00  0.00     0.009 A 
ATOM     67  C   UNL A   1      44.146  33.689  33.629  1.00  0.00     0.001 A 
ATOM     68  C   UNL A   1      44.848  34.535  31.479  1.00  0.00     0.001 A 
ATOM     69  C   UNL A   1      44.624  34.735  32.841  1.00  0.00     0.000 A 
ENDBRANCH  50  64
BRANCH  51  70
ATOM     70  C   UNL A   1      42.176  23.346  27.550  1.00  0.00    -0.014 A 
ATOM     71  C   UNL A   1      42.487  23.096  26.205  1.00  0.00     0.009 A 
ATOM     72  C   UNL A   1      41.613  22.317  28.319  1.00  0.00     0.009 A 
ATOM     73  C   UNL A   1      42.225  21.847  25.638  1.00  0.00     0.001 A 
ATOM     74  C   UNL A   1      41.378  21.059  27.758  1.00  0.00     0.001 A 
ATOM     75  C   UNL A   1      41.679  20.828  26.417  1.00  0.00     0.000 A 
ENDBRANCH  51  70
BRANCH  63  76
ATOM     76  C   UNL A   1      47.876  26.235  30.326  1.00  0.00    -0.014 A 
ATOM     77  C   UNL A   1      48.851  26.300  29.319  1.00  0.00     0.009 A 
ATOM     78  C   UNL A   1      48.230  25.724  31.586  1.00  0.00     0.009 A 
ATOM     79  C   UNL A   1      50.145  25.835  29.559  1.00  0.00     0.001 A 
ATOM     80  C   UNL A   1      49.533  25.287  31.831  1.00  0.00     0.001 A 
ATOM     81  C   UNL A   1      50.486  25.335  30.816  1.00  0.00     0.000 A 
ENDBRANCH  63  76
ENDBRANCH  37  38
ENDBRANCH  29  32
ENDBRANCH  27  28
ENDBRANCH  26  27
ENDBRANCH   1  26
TORSDOF 14
ENDMDL
