MODEL 1
REMARK VINA RESULT:     -12.9      0.000      0.000
REMARK SMILES O=C(NCCCCCCNC(=O)C1(n2cnc3ccccc32)CC[NH+](Cc2cccc3nonc23)CC1)c1ccc(-c2c3nc(c(-c4ccccc4)c4ccc([nH]4)c(-c4ccccc4)c4nc(c(-c5ccccc5)c5ccc2[nH]5)C=C4)C=C3)cc1
REMARK SMILES IDX 6 1 5 2 4 3 3 4 1 5 2 6 38 8 39 9 85 10 40 11 84 12 41 13
REMARK SMILES IDX 42 14 43 15 78 16 44 17 83 18 77 19 79 20 45 21 82 22 76 23
REMARK SMILES IDX 75 24 46 26 68 27 53 28 67 29 54 30 57 31 66 32 80 33 55 34
REMARK SMILES IDX 56 35 65 37 81 38 58 39 47 40 48 41 52 42 49 43 51 44 50 45
REMARK SMILES IDX 69 46 70 47 74 48 71 49 73 50 72 51 59 52 60 53 64 54 61 55
REMARK SMILES IDX 63 56 62 57 7 58 8 59 9 60 10 61 11 62 12 64 13 65 23 66
REMARK SMILES IDX 37 67 24 68 36 69 25 70 14 72 15 73 22 74 16 75 17 76 21 77
REMARK SMILES IDX 18 78 20 79 19 80 26 81 27 82 28 83 35 84 29 85 31 86 34 87
REMARK SMILES IDX 30 88 32 89 33 90
REMARK H PARENT 3 7 79 25 57 36 10 63 25 71
REMARK Flexibility Score: inf
ROOT
ATOM      1  C   UNL A   1      40.788  21.245  27.259  1.00  0.00     0.002 C 
ENDROOT
BRANCH   1   2
ATOM      2  C   UNL A   1      41.139  19.954  26.464  1.00  0.00     0.021 C 
BRANCH   2   3
ATOM      3  C   UNL A   1      42.580  19.472  26.501  1.00  0.00     0.116 C 
BRANCH   3   4
ATOM      4  N   UNL A   1      43.401  19.428  25.308  1.00  0.00    -0.352 N 
ATOM      5  O   UNL A   1      44.546  20.322  23.569  1.00  0.00    -0.269 OA
ATOM      6  C   UNL A   1      44.035  20.500  24.663  1.00  0.00     0.251 C 
ATOM      7  H   UNL A   1      43.530  18.541  24.901  1.00  0.00     0.163 HD
BRANCH   6   8
ATOM      8  C   UNL A   1      44.102  21.867  25.283  1.00  0.00     0.039 A 
ATOM      9  C   UNL A   1      45.102  22.225  26.201  1.00  0.00     0.014 A 
ATOM     10  C   UNL A   1      43.131  22.814  25.013  1.00  0.00     0.014 A 
ATOM     11  C   UNL A   1      45.020  23.460  26.874  1.00  0.00     0.010 A 
ATOM     12  C   UNL A   1      43.231  24.100  25.446  1.00  0.00     0.010 A 
ATOM     13  C   UNL A   1      44.021  24.372  26.519  1.00  0.00    -0.014 A 
BRANCH  13  14
ATOM     14  C   UNL A   1      43.740  25.639  27.180  1.00  0.00     0.031 A 
ATOM     15  C   UNL A   1      44.757  26.665  26.913  1.00  0.00     0.074 A 
ATOM     16  C   UNL A   1      42.595  25.961  27.831  1.00  0.00     0.049 A 
ATOM     17  N   UNL A   1      45.644  27.080  27.745  1.00  0.00    -0.248 NA
ATOM     18  C   UNL A   1      44.917  27.162  25.540  1.00  0.00     0.031 C 
ATOM     19  C   UNL A   1      41.313  25.243  27.918  1.00  0.00     0.029 A 
ATOM     20  N   UNL A   1      42.332  27.095  28.541  1.00  0.00    -0.354 N 
ATOM     21  C   UNL A   1      46.408  28.007  27.059  1.00  0.00     0.074 A 
ATOM     22  C   UNL A   1      46.013  27.913  25.674  1.00  0.00     0.031 C 
ATOM     23  C   UNL A   1      40.368  26.043  28.475  1.00  0.00     0.029 A 
ATOM     24  C   UNL A   1      41.010  27.258  28.941  1.00  0.00     0.049 A 
ATOM     25  H   UNL A   1      43.032  27.753  28.756  1.00  0.00     0.167 HD
ATOM     26  C   UNL A   1      47.182  28.899  27.731  1.00  0.00     0.031 A 
ATOM     27  C   UNL A   1      40.493  28.318  29.616  1.00  0.00     0.031 A 
ATOM     28  C   UNL A   1      47.336  28.522  29.116  1.00  0.00     0.049 A 
ATOM     29  C   UNL A   1      41.625  28.991  30.292  1.00  0.00     0.074 A 
ATOM     30  C   UNL A   1      47.917  27.444  29.756  1.00  0.00     0.029 A 
ATOM     31  N   UNL A   1      46.467  29.080  30.025  1.00  0.00    -0.354 N 
ATOM     32  N   UNL A   1      42.309  28.453  31.261  1.00  0.00    -0.248 NA
ATOM     33  C   UNL A   1      42.284  30.077  29.584  1.00  0.00     0.031 C 
ATOM     34  C   UNL A   1      47.030  27.128  30.824  1.00  0.00     0.029 A 
ATOM     35  C   UNL A   1      46.000  28.072  30.833  1.00  0.00     0.049 A 
ATOM     36  H   UNL A   1      46.224  30.031  30.086  1.00  0.00     0.167 HD
ATOM     37  C   UNL A   1      43.624  28.813  31.003  1.00  0.00     0.074 A 
ATOM     38  C   UNL A   1      43.535  29.882  30.009  1.00  0.00     0.031 C 
ATOM     39  C   UNL A   1      44.668  28.028  31.405  1.00  0.00     0.031 A 
BRANCH  26  40
ATOM     40  C   UNL A   1      47.518  30.266  27.217  1.00  0.00    -0.014 A 
ATOM     41  C   UNL A   1      46.555  31.254  26.939  1.00  0.00     0.009 A 
ATOM     42  C   UNL A   1      48.861  30.679  27.233  1.00  0.00     0.009 A 
ATOM     43  C   UNL A   1      46.904  32.583  26.701  1.00  0.00     0.001 A 
ATOM     44  C   UNL A   1      49.214  32.018  27.034  1.00  0.00     0.001 A 
ATOM     45  C   UNL A   1      48.235  32.970  26.771  1.00  0.00     0.000 A 
ENDBRANCH  26  40
BRANCH  27  46
ATOM     46  C   UNL A   1      39.208  29.025  29.393  1.00  0.00    -0.014 A 
ATOM     47  C   UNL A   1      38.213  28.993  30.387  1.00  0.00     0.009 A 
ATOM     48  C   UNL A   1      38.824  29.428  28.101  1.00  0.00     0.009 A 
ATOM     49  C   UNL A   1      36.878  29.292  30.090  1.00  0.00     0.001 A 
ATOM     50  C   UNL A   1      37.486  29.732  27.804  1.00  0.00     0.001 A 
ATOM     51  C   UNL A   1      36.511  29.644  28.795  1.00  0.00     0.000 A 
ENDBRANCH  27  46
BRANCH  39  52
ATOM     52  C   UNL A   1      44.377  26.860  32.328  1.00  0.00    -0.014 A 
ATOM     53  C   UNL A   1      44.311  27.112  33.707  1.00  0.00     0.009 A 
ATOM     54  C   UNL A   1      44.366  25.520  31.901  1.00  0.00     0.009 A 
ATOM     55  C   UNL A   1      44.265  26.066  34.632  1.00  0.00     0.001 A 
ATOM     56  C   UNL A   1      44.294  24.470  32.827  1.00  0.00     0.001 A 
ATOM     57  C   UNL A   1      44.258  24.744  34.192  1.00  0.00     0.000 A 
ENDBRANCH  39  52
ENDBRANCH  13  14
ENDBRANCH   6   8
ENDBRANCH   3   4
ENDBRANCH   2   3
ENDBRANCH   1   2
BRANCH   1  58
ATOM     58  C   UNL A   1      39.810  22.346  26.774  1.00  0.00     0.002 C 
BRANCH  58  59
ATOM     59  C   UNL A   1      38.634  22.099  25.799  1.00  0.00     0.021 C 
BRANCH  59  60
ATOM     60  C   UNL A   1      37.472  23.102  25.700  1.00  0.00     0.116 C 
BRANCH  60  61
ATOM     61  N   UNL A   1      37.080  23.338  24.323  1.00  0.00    -0.354 N 
ATOM     62  C   UNL A   1      35.909  23.291  23.637  1.00  0.00     0.246 C 
ATOM     63  H   UNL A   1      37.840  23.593  23.752  1.00  0.00     0.163 HD
ATOM     64  O   UNL A   1      36.087  22.962  22.452  1.00  0.00    -0.272 OA
BRANCH  62  65
ATOM     65  C   UNL A   1      34.439  23.584  24.150  1.00  0.00     0.135 C 
ATOM     66  C   UNL A   1      33.288  23.567  23.115  1.00  0.00     0.101 C 
ATOM     67  C   UNL A   1      34.411  24.907  24.964  1.00  0.00     0.101 C 
ATOM     68  C   UNL A   1      32.896  24.885  22.478  1.00  0.00     0.265 C 
ATOM     69  C   UNL A   1      34.060  26.164  24.174  1.00  0.00     0.265 C 
ATOM     70  N   UNL A   1      32.810  25.983  23.429  1.00  0.00    -0.331 N 
ATOM     71  H   UNL A   1      32.110  25.721  24.123  1.00  0.00     0.348 HD
BRANCH  65  72
ATOM     72  N   UNL A   1      34.125  22.406  25.051  1.00  0.00    -0.315 N 
ATOM     73  C   UNL A   1      34.356  22.291  26.400  1.00  0.00     0.201 A 
ATOM     74  C   UNL A   1      33.531  21.213  24.648  1.00  0.00     0.069 A 
ATOM     75  N   UNL A   1      33.877  21.175  26.898  1.00  0.00    -0.237 NA
ATOM     76  C   UNL A   1      33.381  20.486  25.827  1.00  0.00     0.088 A 
ATOM     77  C   UNL A   1      33.131  20.697  23.405  1.00  0.00     0.028 A 
ATOM     78  C   UNL A   1      32.795  19.212  25.787  1.00  0.00     0.030 A 
ATOM     79  C   UNL A   1      32.549  19.425  23.385  1.00  0.00     0.002 A 
ATOM     80  C   UNL A   1      32.381  18.691  24.557  1.00  0.00     0.002 A 
ENDBRANCH  65  72
BRANCH  70  81
ATOM     81  C   UNL A   1      32.287  27.235  22.819  1.00  0.00     0.301 C 
BRANCH  81  82
ATOM     82  C   UNL A   1      30.900  27.574  23.277  1.00  0.00     0.038 A 
ATOM     83  C   UNL A   1      30.155  26.708  24.122  1.00  0.00     0.012 A 
ATOM     84  C   UNL A   1      30.132  28.567  22.638  1.00  0.00     0.144 A 
ATOM     85  C   UNL A   1      28.746  26.692  24.163  1.00  0.00     0.003 A 
ATOM     86  C   UNL A   1      28.697  28.531  22.660  1.00  0.00     0.135 A 
ATOM     87  N   UNL A   1      30.515  29.580  21.849  1.00  0.00    -0.049 NA
ATOM     88  C   UNL A   1      27.979  27.583  23.403  1.00  0.00     0.034 A 
ATOM     89  N   UNL A   1      28.253  29.446  21.797  1.00  0.00    -0.050 NA
ATOM     90  O   UNL A   1      29.354  30.152  21.375  1.00  0.00    -0.243 OA
ENDBRANCH  81  82
ENDBRANCH  70  81
ENDBRANCH  62  65
ENDBRANCH  60  61
ENDBRANCH  59  60
ENDBRANCH  58  59
ENDBRANCH   1  58
TORSDOF 16
ENDMDL
MODEL 2
REMARK VINA RESULT:     -12.4      3.927      8.095
REMARK SMILES O=C(NCCCCCCNC(=O)C1(n2cnc3ccccc32)CC[NH+](Cc2cccc3nonc23)CC1)c1ccc(-c2c3nc(c(-c4ccccc4)c4ccc([nH]4)c(-c4ccccc4)c4nc(c(-c5ccccc5)c5ccc2[nH]5)C=C4)C=C3)cc1
REMARK SMILES IDX 6 1 5 2 4 3 3 4 1 5 2 6 38 8 39 9 85 10 40 11 84 12 41 13
REMARK SMILES IDX 42 14 43 15 78 16 44 17 83 18 77 19 79 20 45 21 82 22 76 23
REMARK SMILES IDX 75 24 46 26 68 27 53 28 67 29 54 30 57 31 66 32 80 33 55 34
REMARK SMILES IDX 56 35 65 37 81 38 58 39 47 40 48 41 52 42 49 43 51 44 50 45
REMARK SMILES IDX 69 46 70 47 74 48 71 49 73 50 72 51 59 52 60 53 64 54 61 55
REMARK SMILES IDX 63 56 62 57 7 58 8 59 9 60 10 61 11 62 12 64 13 65 23 66
REMARK SMILES IDX 37 67 24 68 36 69 25 70 14 72 15 73 22 74 16 75 17 76 21 77
REMARK SMILES IDX 18 78 20 79 19 80 26 81 27 82 28 83 35 84 29 85 31 86 34 87
REMARK SMILES IDX 30 88 32 89 33 90
REMARK H PARENT 3 7 79 25 57 36 10 63 25 71
REMARK Flexibility Score: inf
ROOT
ATOM      1  C   UNL A   1      32.562  26.864  26.839  1.00  0.00     0.002 C 
ENDROOT
BRANCH   1   2
ATOM      2  C   UNL A   1      31.718  28.165  26.706  1.00  0.00     0.021 C 
BRANCH   2   3
ATOM      3  C   UNL A   1      32.426  29.420  26.223  1.00  0.00     0.116 C 
BRANCH   3   4
ATOM      4  N   UNL A   1      31.773  30.713  26.226  1.00  0.00    -0.352 N 
ATOM      5  O   UNL A   1      31.422  32.835  26.941  1.00  0.00    -0.269 OA
ATOM      6  C   UNL A   1      32.176  31.876  26.900  1.00  0.00     0.251 C 
ATOM      7  H   UNL A   1      30.950  30.786  25.692  1.00  0.00     0.163 HD
BRANCH   6   8
ATOM      8  C   UNL A   1      33.514  31.974  27.576  1.00  0.00     0.039 A 
ATOM      9  C   UNL A   1      34.155  33.203  27.792  1.00  0.00     0.014 A 
ATOM     10  C   UNL A   1      34.198  30.834  27.959  1.00  0.00     0.014 A 
ATOM     11  C   UNL A   1      35.477  33.224  28.279  1.00  0.00     0.010 A 
ATOM     12  C   UNL A   1      35.343  30.887  28.691  1.00  0.00     0.010 A 
ATOM     13  C   UNL A   1      36.086  32.027  28.669  1.00  0.00    -0.014 A 
BRANCH  13  14
ATOM     14  C   UNL A   1      37.468  31.864  29.095  1.00  0.00     0.031 A 
ATOM     15  C   UNL A   1      37.985  30.508  28.867  1.00  0.00     0.074 A 
ATOM     16  C   UNL A   1      38.302  32.858  29.493  1.00  0.00     0.049 A 
ATOM     17  N   UNL A   1      38.199  29.623  29.773  1.00  0.00    -0.248 NA
ATOM     18  C   UNL A   1      38.120  30.025  27.487  1.00  0.00     0.031 C 
ATOM     19  C   UNL A   1      38.129  34.320  29.459  1.00  0.00     0.029 A 
ATOM     20  N   UNL A   1      39.566  32.735  29.988  1.00  0.00    -0.354 N 
ATOM     21  C   UNL A   1      38.638  28.492  29.107  1.00  0.00     0.074 A 
ATOM     22  C   UNL A   1      38.433  28.745  27.701  1.00  0.00     0.031 C 
ATOM     23  C   UNL A   1      39.307  34.934  29.734  1.00  0.00     0.029 A 
ATOM     24  C   UNL A   1      40.271  33.926  30.133  1.00  0.00     0.049 A 
ATOM     25  H   UNL A   1      39.954  31.862  30.227  1.00  0.00     0.167 HD
ATOM     26  C   UNL A   1      39.298  27.509  29.773  1.00  0.00     0.031 A 
ATOM     27  C   UNL A   1      41.553  34.061  30.561  1.00  0.00     0.031 A 
ATOM     28  C   UNL A   1      39.160  27.658  31.202  1.00  0.00     0.049 A 
ATOM     29  C   UNL A   1      41.885  32.834  31.321  1.00  0.00     0.074 A 
ATOM     30  C   UNL A   1      38.087  27.610  32.071  1.00  0.00     0.029 A 
ATOM     31  N   UNL A   1      40.157  28.335  31.867  1.00  0.00    -0.354 N 
ATOM     32  N   UNL A   1      41.330  32.517  32.455  1.00  0.00    -0.248 NA
ATOM     33  C   UNL A   1      42.502  31.736  30.594  1.00  0.00     0.031 C 
ATOM     34  C   UNL A   1      38.324  28.658  33.007  1.00  0.00     0.029 A 
ATOM     35  C   UNL A   1      39.560  29.238  32.713  1.00  0.00     0.049 A 
ATOM     36  H   UNL A   1      41.125  28.197  31.756  1.00  0.00     0.167 HD
ATOM     37  C   UNL A   1      41.131  31.146  32.377  1.00  0.00     0.074 A 
ATOM     38  C   UNL A   1      41.950  30.710  31.247  1.00  0.00     0.031 C 
ATOM     39  C   UNL A   1      40.113  30.535  33.053  1.00  0.00     0.031 A 
BRANCH  26  40
ATOM     40  C   UNL A   1      40.326  26.618  29.143  1.00  0.00    -0.014 A 
ATOM     41  C   UNL A   1      40.010  25.446  28.431  1.00  0.00     0.009 A 
ATOM     42  C   UNL A   1      41.648  27.083  29.044  1.00  0.00     0.009 A 
ATOM     43  C   UNL A   1      40.955  24.775  27.652  1.00  0.00     0.001 A 
ATOM     44  C   UNL A   1      42.588  26.437  28.234  1.00  0.00     0.001 A 
ATOM     45  C   UNL A   1      42.240  25.286  27.535  1.00  0.00     0.000 A 
ENDBRANCH  26  40
BRANCH  27  46
ATOM     46  C   UNL A   1      42.622  34.941  30.029  1.00  0.00    -0.014 A 
ATOM     47  C   UNL A   1      43.359  35.753  30.912  1.00  0.00     0.009 A 
ATOM     48  C   UNL A   1      42.690  35.244  28.657  1.00  0.00     0.009 A 
ATOM     49  C   UNL A   1      44.084  36.858  30.449  1.00  0.00     0.001 A 
ATOM     50  C   UNL A   1      43.419  36.350  28.194  1.00  0.00     0.001 A 
ATOM     51  C   UNL A   1      44.099  37.167  29.093  1.00  0.00     0.000 A 
ENDBRANCH  27  46
BRANCH  39  52
ATOM     52  C   UNL A   1      39.327  31.350  34.062  1.00  0.00    -0.014 A 
ATOM     53  C   UNL A   1      39.683  31.239  35.416  1.00  0.00     0.009 A 
ATOM     54  C   UNL A   1      38.149  32.050  33.745  1.00  0.00     0.009 A 
ATOM     55  C   UNL A   1      38.879  31.780  36.422  1.00  0.00     0.001 A 
ATOM     56  C   UNL A   1      37.355  32.617  34.752  1.00  0.00     0.001 A 
ATOM     57  C   UNL A   1      37.713  32.468  36.090  1.00  0.00     0.000 A 
ENDBRANCH  39  52
ENDBRANCH  13  14
ENDBRANCH   6   8
ENDBRANCH   3   4
ENDBRANCH   2   3
ENDBRANCH   1   2
BRANCH   1  58
ATOM     58  C   UNL A   1      32.249  25.527  26.119  1.00  0.00     0.002 C 
BRANCH  58  59
ATOM     59  C   UNL A   1      30.974  24.685  26.361  1.00  0.00     0.021 C 
BRANCH  59  60
ATOM     60  C   UNL A   1      30.988  23.161  26.156  1.00  0.00     0.116 C 
BRANCH  60  61
ATOM     61  N   UNL A   1      32.203  22.558  26.671  1.00  0.00    -0.354 N 
ATOM     62  C   UNL A   1      33.151  21.728  26.167  1.00  0.00     0.246 C 
ATOM     63  H   UNL A   1      32.382  22.811  27.606  1.00  0.00     0.163 HD
ATOM     64  O   UNL A   1      33.636  20.999  27.049  1.00  0.00    -0.272 OA
BRANCH  62  65
ATOM     65  C   UNL A   1      33.666  21.590  24.675  1.00  0.00     0.135 C 
ATOM     66  C   UNL A   1      34.648  22.661  24.141  1.00  0.00     0.101 C 
ATOM     67  C   UNL A   1      32.462  21.431  23.706  1.00  0.00     0.101 C 
ATOM     68  C   UNL A   1      34.059  23.846  23.401  1.00  0.00     0.265 C 
ATOM     69  C   UNL A   1      31.938  22.721  23.085  1.00  0.00     0.265 C 
ATOM     70  N   UNL A   1      33.023  23.477  22.450  1.00  0.00    -0.331 N 
ATOM     71  H   UNL A   1      33.448  22.837  21.779  1.00  0.00     0.348 HD
BRANCH  65  72
ATOM     72  N   UNL A   1      34.498  20.322  24.691  1.00  0.00    -0.315 N 
ATOM     73  C   UNL A   1      35.855  20.205  24.865  1.00  0.00     0.201 A 
ATOM     74  C   UNL A   1      34.007  19.029  24.530  1.00  0.00     0.069 A 
ATOM     75  N   UNL A   1      36.249  18.954  24.923  1.00  0.00    -0.237 NA
ATOM     76  C   UNL A   1      35.123  18.212  24.698  1.00  0.00     0.088 A 
ATOM     77  C   UNL A   1      32.738  18.499  24.248  1.00  0.00     0.028 A 
ATOM     78  C   UNL A   1      34.984  16.819  24.607  1.00  0.00     0.030 A 
ATOM     79  C   UNL A   1      32.619  17.107  24.161  1.00  0.00     0.002 A 
ATOM     80  C   UNL A   1      33.723  16.277  24.338  1.00  0.00     0.002 A 
ENDBRANCH  65  72
BRANCH  70  81
ATOM     81  C   UNL A   1      32.554  24.628  21.631  1.00  0.00     0.301 C 
BRANCH  81  82
ATOM     82  C   UNL A   1      32.070  25.778  22.464  1.00  0.00     0.038 A 
ATOM     83  C   UNL A   1      30.731  25.854  22.934  1.00  0.00     0.012 A 
ATOM     84  C   UNL A   1      32.784  26.991  22.534  1.00  0.00     0.144 A 
ATOM     85  C   UNL A   1      30.090  27.070  23.244  1.00  0.00     0.003 A 
ATOM     86  C   UNL A   1      32.121  28.231  22.825  1.00  0.00     0.135 A 
ATOM     87  N   UNL A   1      34.067  27.255  22.255  1.00  0.00    -0.049 NA
ATOM     88  C   UNL A   1      30.761  28.296  23.163  1.00  0.00     0.034 A 
ATOM     89  N   UNL A   1      32.988  29.219  22.601  1.00  0.00    -0.050 NA
ATOM     90  O   UNL A   1      34.201  28.624  22.349  1.00  0.00    -0.243 OA
ENDBRANCH  81  82
ENDBRANCH  70  81
ENDBRANCH  62  65
ENDBRANCH  60  61
ENDBRANCH  59  60
ENDBRANCH  58  59
ENDBRANCH   1  58
TORSDOF 16
ENDMDL
MODEL 3
REMARK VINA RESULT:     -12.4      2.768      8.726
REMARK SMILES O=C(NCCCCCCNC(=O)C1(n2cnc3ccccc32)CC[NH+](Cc2cccc3nonc23)CC1)c1ccc(-c2c3nc(c(-c4ccccc4)c4ccc([nH]4)c(-c4ccccc4)c4nc(c(-c5ccccc5)c5ccc2[nH]5)C=C4)C=C3)cc1
REMARK SMILES IDX 6 1 5 2 4 3 3 4 1 5 2 6 38 8 39 9 85 10 40 11 84 12 41 13
REMARK SMILES IDX 42 14 43 15 78 16 44 17 83 18 77 19 79 20 45 21 82 22 76 23
REMARK SMILES IDX 75 24 46 26 68 27 53 28 67 29 54 30 57 31 66 32 80 33 55 34
REMARK SMILES IDX 56 35 65 37 81 38 58 39 47 40 48 41 52 42 49 43 51 44 50 45
REMARK SMILES IDX 69 46 70 47 74 48 71 49 73 50 72 51 59 52 60 53 64 54 61 55
REMARK SMILES IDX 63 56 62 57 7 58 8 59 9 60 10 61 11 62 12 64 13 65 23 66
REMARK SMILES IDX 37 67 24 68 36 69 25 70 14 72 15 73 22 74 16 75 17 76 21 77
REMARK SMILES IDX 18 78 20 79 19 80 26 81 27 82 28 83 35 84 29 85 31 86 34 87
REMARK SMILES IDX 30 88 32 89 33 90
REMARK H PARENT 3 7 79 25 57 36 10 63 25 71
REMARK Flexibility Score: inf
ROOT
ATOM      1  C   UNL A   1      34.541  31.702  28.300  1.00  0.00     0.002 C 
ENDROOT
BRANCH   1   2
ATOM      2  C   UNL A   1      34.775  33.209  27.985  1.00  0.00     0.021 C 
BRANCH   2   3
ATOM      3  C   UNL A   1      35.920  33.909  28.699  1.00  0.00     0.116 C 
BRANCH   3   4
ATOM      4  N   UNL A   1      35.914  34.113  30.134  1.00  0.00    -0.352 N 
ATOM      5  O   UNL A   1      36.173  33.490  32.297  1.00  0.00    -0.269 OA
ATOM      6  C   UNL A   1      36.411  33.252  31.124  1.00  0.00     0.251 C 
ATOM      7  H   UNL A   1      35.515  34.955  30.452  1.00  0.00     0.163 HD
BRANCH   6   8
ATOM      8  C   UNL A   1      37.231  32.042  30.780  1.00  0.00     0.039 A 
ATOM      9  C   UNL A   1      36.677  30.753  30.725  1.00  0.00     0.014 A 
ATOM     10  C   UNL A   1      38.593  32.148  30.563  1.00  0.00     0.014 A 
ATOM     11  C   UNL A   1      37.521  29.638  30.561  1.00  0.00     0.010 A 
ATOM     12  C   UNL A   1      39.341  31.102  30.118  1.00  0.00     0.010 A 
ATOM     13  C   UNL A   1      38.884  29.836  30.318  1.00  0.00    -0.014 A 
BRANCH  13  14
ATOM     14  C   UNL A   1      39.901  28.798  30.227  1.00  0.00     0.031 A 
ATOM     15  C   UNL A   1      40.519  28.482  31.522  1.00  0.00     0.074 A 
ATOM     16  C   UNL A   1      40.168  28.038  29.135  1.00  0.00     0.049 A 
ATOM     17  N   UNL A   1      41.704  28.814  31.891  1.00  0.00    -0.248 NA
ATOM     18  C   UNL A   1      39.688  27.885  32.575  1.00  0.00     0.031 C 
ATOM     19  C   UNL A   1      39.450  27.921  27.856  1.00  0.00     0.029 A 
ATOM     20  N   UNL A   1      41.170  27.127  28.981  1.00  0.00    -0.354 N 
ATOM     21  C   UNL A   1      41.844  28.350  33.187  1.00  0.00     0.074 A 
ATOM     22  C   UNL A   1      40.533  27.918  33.607  1.00  0.00     0.031 C 
ATOM     23  C   UNL A   1      39.931  26.868  27.147  1.00  0.00     0.029 A 
ATOM     24  C   UNL A   1      41.096  26.344  27.834  1.00  0.00     0.049 A 
ATOM     25  H   UNL A   1      41.898  27.031  29.637  1.00  0.00     0.167 HD
ATOM     26  C   UNL A   1      43.077  28.203  33.739  1.00  0.00     0.031 A 
ATOM     27  C   UNL A   1      41.946  25.344  27.479  1.00  0.00     0.031 A 
ATOM     28  C   UNL A   1      44.086  28.881  32.960  1.00  0.00     0.049 A 
ATOM     29  C   UNL A   1      43.210  25.573  28.216  1.00  0.00     0.074 A 
ATOM     30  C   UNL A   1      44.321  30.204  32.641  1.00  0.00     0.029 A 
ATOM     31  N   UNL A   1      44.769  28.138  32.025  1.00  0.00    -0.354 N 
ATOM     32  N   UNL A   1      43.996  26.587  27.999  1.00  0.00    -0.248 NA
ATOM     33  C   UNL A   1      43.368  24.918  29.504  1.00  0.00     0.031 C 
ATOM     34  C   UNL A   1      44.727  30.187  31.276  1.00  0.00     0.029 A 
ATOM     35  C   UNL A   1      44.797  28.858  30.855  1.00  0.00     0.049 A 
ATOM     36  H   UNL A   1      45.168  27.250  32.169  1.00  0.00     0.167 HD
ATOM     37  C   UNL A   1      44.423  26.976  29.261  1.00  0.00     0.074 A 
ATOM     38  C   UNL A   1      44.072  25.859  30.138  1.00  0.00     0.031 C 
ATOM     39  C   UNL A   1      44.765  28.271  29.529  1.00  0.00     0.031 A 
BRANCH  26  40
ATOM     40  C   UNL A   1      43.406  27.183  34.787  1.00  0.00    -0.014 A 
ATOM     41  C   UNL A   1      43.427  27.460  36.166  1.00  0.00     0.009 A 
ATOM     42  C   UNL A   1      43.467  25.830  34.412  1.00  0.00     0.009 A 
ATOM     43  C   UNL A   1      43.492  26.448  37.124  1.00  0.00     0.001 A 
ATOM     44  C   UNL A   1      43.493  24.810  35.369  1.00  0.00     0.001 A 
ATOM     45  C   UNL A   1      43.502  25.119  36.725  1.00  0.00     0.000 A 
ENDBRANCH  26  40
BRANCH  27  46
ATOM     46  C   UNL A   1      41.627  24.015  26.904  1.00  0.00    -0.014 A 
ATOM     47  C   UNL A   1      40.640  23.213  27.507  1.00  0.00     0.009 A 
ATOM     48  C   UNL A   1      42.506  23.393  25.998  1.00  0.00     0.009 A 
ATOM     49  C   UNL A   1      40.573  21.836  27.262  1.00  0.00     0.001 A 
ATOM     50  C   UNL A   1      42.435  22.014  25.750  1.00  0.00     0.001 A 
ATOM     51  C   UNL A   1      41.481  21.233  26.398  1.00  0.00     0.000 A 
ENDBRANCH  27  46
BRANCH  39  52
ATOM     52  C   UNL A   1      44.876  29.242  28.369  1.00  0.00    -0.014 A 
ATOM     53  C   UNL A   1      46.159  29.558  27.897  1.00  0.00     0.009 A 
ATOM     54  C   UNL A   1      43.789  29.985  27.874  1.00  0.00     0.009 A 
ATOM     55  C   UNL A   1      46.359  30.599  26.987  1.00  0.00     0.001 A 
ATOM     56  C   UNL A   1      43.985  31.012  26.940  1.00  0.00     0.001 A 
ATOM     57  C   UNL A   1      45.271  31.328  26.509  1.00  0.00     0.000 A 
ENDBRANCH  39  52
ENDBRANCH  13  14
ENDBRANCH   6   8
ENDBRANCH   3   4
ENDBRANCH   2   3
ENDBRANCH   1   2
BRANCH   1  58
ATOM     58  C   UNL A   1      34.892  30.532  27.345  1.00  0.00     0.002 C 
BRANCH  58  59
ATOM     59  C   UNL A   1      34.126  29.189  27.296  1.00  0.00     0.021 C 
BRANCH  59  60
ATOM     60  C   UNL A   1      33.155  28.879  26.144  1.00  0.00     0.116 C 
BRANCH  60  61
ATOM     61  N   UNL A   1      32.409  27.657  26.381  1.00  0.00    -0.354 N 
ATOM     62  C   UNL A   1      31.573  26.884  25.642  1.00  0.00     0.246 C 
ATOM     63  H   UNL A   1      32.541  27.305  27.291  1.00  0.00     0.163 HD
ATOM     64  O   UNL A   1      30.716  26.330  26.351  1.00  0.00    -0.272 OA
BRANCH  62  65
ATOM     65  C   UNL A   1      31.568  26.633  24.077  1.00  0.00     0.135 C 
ATOM     66  C   UNL A   1      30.742  25.443  23.532  1.00  0.00     0.101 C 
ATOM     67  C   UNL A   1      33.025  26.570  23.541  1.00  0.00     0.101 C 
ATOM     68  C   UNL A   1      31.459  24.123  23.334  1.00  0.00     0.265 C 
ATOM     69  C   UNL A   1      33.638  25.176  23.456  1.00  0.00     0.265 C 
ATOM     70  N   UNL A   1      32.765  24.264  22.708  1.00  0.00    -0.331 N 
ATOM     71  H   UNL A   1      32.615  24.706  21.802  1.00  0.00     0.348 HD
BRANCH  65  72
ATOM     72  N   UNL A   1      30.854  27.849  23.516  1.00  0.00    -0.315 N 
ATOM     73  C   UNL A   1      31.413  28.987  22.990  1.00  0.00     0.201 A 
ATOM     74  C   UNL A   1      29.474  28.012  23.436  1.00  0.00     0.069 A 
ATOM     75  N   UNL A   1      30.514  29.809  22.502  1.00  0.00    -0.237 NA
ATOM     76  C   UNL A   1      29.308  29.233  22.786  1.00  0.00     0.088 A 
ATOM     77  C   UNL A   1      28.377  27.248  23.866  1.00  0.00     0.028 A 
ATOM     78  C   UNL A   1      28.015  29.713  22.528  1.00  0.00     0.030 A 
ATOM     79  C   UNL A   1      27.096  27.743  23.600  1.00  0.00     0.002 A 
ATOM     80  C   UNL A   1      26.914  28.956  22.940  1.00  0.00     0.002 A 
ENDBRANCH  65  72
BRANCH  70  81
ATOM     81  C   UNL A   1      33.397  22.954  22.390  1.00  0.00     0.301 C 
BRANCH  81  82
ATOM     82  C   UNL A   1      34.049  22.315  23.581  1.00  0.00     0.038 A 
ATOM     83  C   UNL A   1      35.429  22.494  23.867  1.00  0.00     0.012 A 
ATOM     84  C   UNL A   1      33.443  21.247  24.271  1.00  0.00     0.144 A 
ATOM     85  C   UNL A   1      36.191  21.566  24.605  1.00  0.00     0.003 A 
ATOM     86  C   UNL A   1      34.227  20.289  24.999  1.00  0.00     0.135 A 
ATOM     87  N   UNL A   1      32.164  20.852  24.298  1.00  0.00    -0.049 NA
ATOM     88  C   UNL A   1      35.614  20.418  25.160  1.00  0.00     0.034 A 
ATOM     89  N   UNL A   1      33.422  19.284  25.346  1.00  0.00    -0.050 NA
ATOM     90  O   UNL A   1      32.147  19.669  25.007  1.00  0.00    -0.243 OA
ENDBRANCH  81  82
ENDBRANCH  70  81
ENDBRANCH  62  65
ENDBRANCH  60  61
ENDBRANCH  59  60
ENDBRANCH  58  59
ENDBRANCH   1  58
TORSDOF 16
ENDMDL
