MODEL 1
REMARK VINA RESULT:     -11.7      0.000      0.000
REMARK SMILES Cc1ccc(C)c(S(=O)(=O)N[C@H](CC2=c3ccccc3=NC2)C(=O)NCCCCCCNC(=O)c2ccc(-c3c4nc(c(-c5ccccc5)c5ccc([nH]5)c(-c5ccccc5)c5nc(c(-c6ccccc6)c6ccc3[nH]6)C=C5)C=C4)cc2)c1
REMARK SMILES IDX 28 1 27 2 26 3 25 4 23 5 24 6 12 8 11 9 8 11 9 12 10 13 7 14
REMARK SMILES IDX 1 15 2 16 3 17 83 18 4 19 5 20 6 21 13 22 14 23 15 24 22 25
REMARK SMILES IDX 16 26 20 27 21 28 17 29 19 30 18 31 29 32 30 33 31 34 32 35
REMARK SMILES IDX 33 36 34 38 35 39 36 40 82 41 37 42 81 43 38 44 39 45 40 46
REMARK SMILES IDX 75 47 41 48 80 49 74 50 76 51 42 52 79 53 73 54 72 55 43 57
REMARK SMILES IDX 65 58 50 59 64 60 51 61 54 62 63 63 77 64 52 65 53 66 62 68
REMARK SMILES IDX 78 69 55 70 44 71 45 72 49 73 46 74 48 75 47 76 66 77 67 78
REMARK SMILES IDX 71 79 68 80 70 81 69 82 56 83 57 84 61 85 58 86 60 87 59 88
REMARK H PARENT 25 7 11 10 32 37 76 56 54 67
REMARK Flexibility Score: inf
ROOT
ATOM      1  C   UNL A   1      39.683  23.054  26.977  1.00  0.00     0.002 C 
ENDROOT
BRANCH   1   2
ATOM      2  C   UNL A   1      38.780  24.125  26.364  1.00  0.00     0.021 C 
BRANCH   2   3
ATOM      3  C   UNL A   1      37.357  23.702  25.955  1.00  0.00     0.116 C 
BRANCH   3   4
ATOM      4  N   UNL A   1      37.145  23.472  24.529  1.00  0.00    -0.355 N 
ATOM      5  C   UNL A   1      36.073  23.519  23.684  1.00  0.00     0.238 C 
ATOM      6  O   UNL A   1      36.278  23.134  22.526  1.00  0.00    -0.273 OA
ATOM      7  H   UNL A   1      37.977  23.222  24.065  1.00  0.00     0.163 HD
BRANCH   5   8
ATOM      8  C   UNL A   1      34.665  23.976  24.097  1.00  0.00     0.163 C 
BRANCH   8   9
ATOM      9  N   UNL A   1      34.243  25.163  23.300  1.00  0.00    -0.198 NA
ATOM     10  H   UNL A   1      34.087  25.923  23.962  1.00  0.00     0.142 HD
BRANCH   9  11
ATOM     11  S   UNL A   1      32.867  25.063  22.332  1.00  0.00     0.241 S 
ATOM     12  O   UNL A   1      32.185  23.840  22.655  1.00  0.00    -0.207 OA
ATOM     13  O   UNL A   1      33.351  25.354  20.994  1.00  0.00    -0.207 OA
BRANCH  11  14
ATOM     14  C   UNL A   1      31.866  26.443  22.833  1.00  0.00     0.085 A 
ATOM     15  C   UNL A   1      28.217  26.981  23.784  1.00  0.00     0.044 C 
ATOM     16  C   UNL A   1      29.654  27.256  23.459  1.00  0.00    -0.050 A 
ATOM     17  C   UNL A   1      30.131  28.563  23.369  1.00  0.00     0.004 A 
ATOM     18  C   UNL A   1      30.541  26.204  23.229  1.00  0.00     0.025 A 
ATOM     19  C   UNL A   1      31.471  28.808  23.047  1.00  0.00     0.005 A 
ATOM     20  C   UNL A   1      32.361  27.756  22.770  1.00  0.00    -0.031 A 
ATOM     21  C   UNL A   1      33.785  28.115  22.453  1.00  0.00     0.046 C 
ENDBRANCH  11  14
ENDBRANCH   9  11
ENDBRANCH   8   9
BRANCH   8  22
ATOM     22  C   UNL A   1      34.407  24.228  25.616  1.00  0.00     0.063 C 
BRANCH  22  23
ATOM     23  C   UNL A   1      33.281  25.128  26.034  1.00  0.00    -0.037 C 
ATOM     24  C   UNL A   1      33.203  26.447  26.215  1.00  0.00     0.001 A 
ATOM     25  C   UNL A   1      31.996  24.502  26.463  1.00  0.00     0.174 C 
ATOM     26  C   UNL A   1      34.092  27.565  26.200  1.00  0.00     0.010 A 
ATOM     27  C   UNL A   1      31.779  26.636  26.558  1.00  0.00     0.065 A 
ATOM     28  N   UNL A   1      31.058  25.583  26.779  1.00  0.00    -0.280 NA
ATOM     29  C   UNL A   1      33.593  28.789  26.455  1.00  0.00     0.001 A 
ATOM     30  C   UNL A   1      31.281  28.017  26.618  1.00  0.00     0.028 A 
ATOM     31  C   UNL A   1      32.167  29.020  26.608  1.00  0.00     0.002 A 
ENDBRANCH  22  23
ENDBRANCH   8  22
ENDBRANCH   5   8
ENDBRANCH   3   4
ENDBRANCH   2   3
ENDBRANCH   1   2
BRANCH   1  32
ATOM     32  C   UNL A   1      39.580  21.660  26.359  1.00  0.00     0.002 C 
BRANCH  32  33
ATOM     33  C   UNL A   1      40.877  20.849  26.209  1.00  0.00     0.021 C 
BRANCH  33  34
ATOM     34  C   UNL A   1      42.144  21.419  26.852  1.00  0.00     0.116 C 
BRANCH  34  35
ATOM     35  N   UNL A   1      43.074  21.990  25.875  1.00  0.00    -0.352 N 
ATOM     36  C   UNL A   1      43.262  23.269  25.388  1.00  0.00     0.251 C 
ATOM     37  H   UNL A   1      43.691  21.328  25.488  1.00  0.00     0.163 HD
ATOM     38  O   UNL A   1      43.814  23.408  24.298  1.00  0.00    -0.269 OA
BRANCH  36  39
ATOM     39  C   UNL A   1      42.853  24.475  26.145  1.00  0.00     0.039 A 
ATOM     40  C   UNL A   1      42.056  25.475  25.567  1.00  0.00     0.014 A 
ATOM     41  C   UNL A   1      43.350  24.678  27.422  1.00  0.00     0.014 A 
ATOM     42  C   UNL A   1      41.786  26.650  26.282  1.00  0.00     0.010 A 
ATOM     43  C   UNL A   1      42.948  25.731  28.194  1.00  0.00     0.010 A 
ATOM     44  C   UNL A   1      42.256  26.769  27.591  1.00  0.00    -0.014 A 
BRANCH  44  45
ATOM     45  C   UNL A   1      42.054  27.938  28.430  1.00  0.00     0.031 A 
ATOM     46  C   UNL A   1      42.956  29.072  28.182  1.00  0.00     0.074 A 
ATOM     47  C   UNL A   1      40.904  28.133  29.110  1.00  0.00     0.049 A 
ATOM     48  N   UNL A   1      43.765  29.607  29.032  1.00  0.00    -0.248 NA
ATOM     49  C   UNL A   1      43.032  29.632  26.826  1.00  0.00     0.031 C 
ATOM     50  C   UNL A   1      39.760  27.223  29.183  1.00  0.00     0.029 A 
ATOM     51  N   UNL A   1      40.449  29.256  29.743  1.00  0.00    -0.354 N 
ATOM     52  C   UNL A   1      44.317  30.696  28.377  1.00  0.00     0.074 A 
ATOM     53  C   UNL A   1      44.004  30.531  26.980  1.00  0.00     0.031 C 
ATOM     54  C   UNL A   1      38.687  27.909  29.623  1.00  0.00     0.029 A 
ATOM     55  C   UNL A   1      39.076  29.256  29.960  1.00  0.00     0.049 A 
ATOM     56  H   UNL A   1      41.038  29.994  30.018  1.00  0.00     0.167 HD
ATOM     57  C   UNL A   1      44.752  31.786  29.065  1.00  0.00     0.031 A 
ATOM     58  C   UNL A   1      38.295  30.289  30.360  1.00  0.00     0.031 A 
ATOM     59  C   UNL A   1      44.845  31.528  30.483  1.00  0.00     0.049 A 
ATOM     60  C   UNL A   1      39.166  31.252  31.057  1.00  0.00     0.074 A 
ATOM     61  C   UNL A   1      45.489  30.576  31.252  1.00  0.00     0.029 A 
ATOM     62  N   UNL A   1      43.878  32.070  31.297  1.00  0.00    -0.354 N 
ATOM     63  N   UNL A   1      39.749  30.994  32.191  1.00  0.00    -0.248 NA
ATOM     64  C   UNL A   1      39.738  32.345  30.290  1.00  0.00     0.031 C 
ATOM     65  C   UNL A   1      44.575  30.263  32.299  1.00  0.00     0.029 A 
ATOM     66  C   UNL A   1      43.458  31.087  32.157  1.00  0.00     0.049 A 
ATOM     67  H   UNL A   1      43.547  32.997  31.268  1.00  0.00     0.167 HD
ATOM     68  C   UNL A   1      41.018  31.531  32.045  1.00  0.00     0.074 A 
ATOM     69  C   UNL A   1      40.906  32.464  30.925  1.00  0.00     0.031 C 
ATOM     70  C   UNL A   1      42.100  30.948  32.639  1.00  0.00     0.031 A 
BRANCH  57  71
ATOM     71  C   UNL A   1      44.747  33.177  28.490  1.00  0.00    -0.014 A 
ATOM     72  C   UNL A   1      43.573  33.878  28.147  1.00  0.00     0.009 A 
ATOM     73  C   UNL A   1      45.944  33.910  28.476  1.00  0.00     0.009 A 
ATOM     74  C   UNL A   1      43.589  35.223  27.773  1.00  0.00     0.001 A 
ATOM     75  C   UNL A   1      45.958  35.273  28.156  1.00  0.00     0.001 A 
ATOM     76  C   UNL A   1      44.783  35.926  27.795  1.00  0.00     0.000 A 
ENDBRANCH  57  71
BRANCH  58  77
ATOM     77  C   UNL A   1      36.985  30.697  29.798  1.00  0.00    -0.014 A 
ATOM     78  C   UNL A   1      36.771  30.617  28.409  1.00  0.00     0.009 A 
ATOM     79  C   UNL A   1      36.078  31.453  30.556  1.00  0.00     0.009 A 
ATOM     80  C   UNL A   1      35.719  31.305  27.794  1.00  0.00     0.001 A 
ATOM     81  C   UNL A   1      35.015  32.132  29.941  1.00  0.00     0.001 A 
ATOM     82  C   UNL A   1      34.847  32.071  28.558  1.00  0.00     0.000 A 
ENDBRANCH  58  77
BRANCH  70  83
ATOM     83  C   UNL A   1      41.858  29.861  33.668  1.00  0.00    -0.014 A 
ATOM     84  C   UNL A   1      41.971  30.195  35.027  1.00  0.00     0.009 A 
ATOM     85  C   UNL A   1      41.703  28.502  33.337  1.00  0.00     0.009 A 
ATOM     86  C   UNL A   1      41.940  29.209  36.018  1.00  0.00     0.001 A 
ATOM     87  C   UNL A   1      41.644  27.516  34.330  1.00  0.00     0.001 A 
ATOM     88  C   UNL A   1      41.775  27.871  35.670  1.00  0.00     0.000 A 
ENDBRANCH  70  83
ENDBRANCH  44  45
ENDBRANCH  36  39
ENDBRANCH  34  35
ENDBRANCH  33  34
ENDBRANCH  32  33
ENDBRANCH   1  32
TORSDOF 18
ENDMDL
MODEL 2
REMARK VINA RESULT:     -11.2      1.774      2.978
REMARK SMILES Cc1ccc(C)c(S(=O)(=O)N[C@H](CC2=c3ccccc3=NC2)C(=O)NCCCCCCNC(=O)c2ccc(-c3c4nc(c(-c5ccccc5)c5ccc([nH]5)c(-c5ccccc5)c5nc(c(-c6ccccc6)c6ccc3[nH]6)C=C5)C=C4)cc2)c1
REMARK SMILES IDX 28 1 27 2 26 3 25 4 23 5 24 6 12 8 11 9 8 11 9 12 10 13 7 14
REMARK SMILES IDX 1 15 2 16 3 17 83 18 4 19 5 20 6 21 13 22 14 23 15 24 22 25
REMARK SMILES IDX 16 26 20 27 21 28 17 29 19 30 18 31 29 32 30 33 31 34 32 35
REMARK SMILES IDX 33 36 34 38 35 39 36 40 82 41 37 42 81 43 38 44 39 45 40 46
REMARK SMILES IDX 75 47 41 48 80 49 74 50 76 51 42 52 79 53 73 54 72 55 43 57
REMARK SMILES IDX 65 58 50 59 64 60 51 61 54 62 63 63 77 64 52 65 53 66 62 68
REMARK SMILES IDX 78 69 55 70 44 71 45 72 49 73 46 74 48 75 47 76 66 77 67 78
REMARK SMILES IDX 71 79 68 80 70 81 69 82 56 83 57 84 61 85 58 86 60 87 59 88
REMARK H PARENT 25 7 11 10 32 37 76 56 54 67
REMARK Flexibility Score: inf
ROOT
ATOM      1  C   UNL A   1      39.640  22.905  27.173  1.00  0.00     0.002 C 
ENDROOT
BRANCH   1   2
ATOM      2  C   UNL A   1      38.879  24.125  26.652  1.00  0.00     0.021 C 
BRANCH   2   3
ATOM      3  C   UNL A   1      37.465  23.890  26.088  1.00  0.00     0.116 C 
BRANCH   3   4
ATOM      4  N   UNL A   1      37.394  23.526  24.676  1.00  0.00    -0.355 N 
ATOM      5  C   UNL A   1      36.391  23.262  23.788  1.00  0.00     0.238 C 
ATOM      6  O   UNL A   1      36.745  22.865  22.672  1.00  0.00    -0.273 OA
ATOM      7  H   UNL A   1      38.286  23.455  24.265  1.00  0.00     0.163 HD
BRANCH   5   8
ATOM      8  C   UNL A   1      34.894  23.393  24.110  1.00  0.00     0.163 C 
BRANCH   8   9
ATOM      9  N   UNL A   1      34.504  24.827  24.220  1.00  0.00    -0.198 NA
ATOM     10  H   UNL A   1      34.213  24.982  25.185  1.00  0.00     0.142 HD
BRANCH   9  11
ATOM     11  S   UNL A   1      33.276  25.429  23.234  1.00  0.00     0.241 S 
ATOM     12  O   UNL A   1      32.219  24.457  23.200  1.00  0.00    -0.207 OA
ATOM     13  O   UNL A   1      33.967  25.869  22.035  1.00  0.00    -0.207 OA
BRANCH  11  14
ATOM     14  C   UNL A   1      32.705  26.890  24.070  1.00  0.00     0.085 A 
ATOM     15  C   UNL A   1      33.472  28.639  27.365  1.00  0.00     0.044 C 
ATOM     16  C   UNL A   1      32.832  28.304  26.051  1.00  0.00    -0.050 A 
ATOM     17  C   UNL A   1      31.710  29.000  25.602  1.00  0.00     0.004 A 
ATOM     18  C   UNL A   1      33.345  27.278  25.256  1.00  0.00     0.025 A 
ATOM     19  C   UNL A   1      31.111  28.667  24.382  1.00  0.00     0.005 A 
ATOM     20  C   UNL A   1      31.594  27.606  23.596  1.00  0.00    -0.031 A 
ATOM     21  C   UNL A   1      30.897  27.334  22.292  1.00  0.00     0.046 C 
ENDBRANCH  11  14
ENDBRANCH   9  11
ENDBRANCH   8   9
BRANCH   8  22
ATOM     22  C   UNL A   1      34.348  22.592  25.335  1.00  0.00     0.063 C 
BRANCH  22  23
ATOM     23  C   UNL A   1      33.739  21.237  25.119  1.00  0.00    -0.037 C 
ATOM     24  C   UNL A   1      34.274  20.029  24.934  1.00  0.00     0.001 A 
ATOM     25  C   UNL A   1      32.260  21.144  24.947  1.00  0.00     0.174 C 
ATOM     26  C   UNL A   1      35.579  19.472  24.764  1.00  0.00     0.010 A 
ATOM     27  C   UNL A   1      33.081  19.163  24.858  1.00  0.00     0.065 A 
ATOM     28  N   UNL A   1      31.917  19.728  24.793  1.00  0.00    -0.280 NA
ATOM     29  C   UNL A   1      35.693  18.142  24.586  1.00  0.00     0.001 A 
ATOM     30  C   UNL A   1      33.304  17.711  24.868  1.00  0.00     0.028 A 
ATOM     31  C   UNL A   1      34.550  17.252  24.697  1.00  0.00     0.002 A 
ENDBRANCH  22  23
ENDBRANCH   8  22
ENDBRANCH   5   8
ENDBRANCH   3   4
ENDBRANCH   2   3
ENDBRANCH   1   2
BRANCH   1  32
ATOM     32  C   UNL A   1      39.666  21.689  26.247  1.00  0.00     0.002 C 
BRANCH  32  33
ATOM     33  C   UNL A   1      40.760  20.635  26.484  1.00  0.00     0.021 C 
BRANCH  33  34
ATOM     34  C   UNL A   1      42.121  21.130  26.979  1.00  0.00     0.116 C 
BRANCH  34  35
ATOM     35  N   UNL A   1      42.954  21.679  25.908  1.00  0.00    -0.352 N 
ATOM     36  C   UNL A   1      43.079  22.942  25.364  1.00  0.00     0.251 C 
ATOM     37  H   UNL A   1      43.546  21.012  25.491  1.00  0.00     0.163 HD
ATOM     38  O   UNL A   1      43.533  23.051  24.226  1.00  0.00    -0.269 OA
BRANCH  36  39
ATOM     39  C   UNL A   1      42.718  24.169  26.113  1.00  0.00     0.039 A 
ATOM     40  C   UNL A   1      42.039  25.235  25.502  1.00  0.00     0.014 A 
ATOM     41  C   UNL A   1      43.147  24.318  27.422  1.00  0.00     0.014 A 
ATOM     42  C   UNL A   1      41.817  26.419  26.217  1.00  0.00     0.010 A 
ATOM     43  C   UNL A   1      42.779  25.391  28.183  1.00  0.00     0.010 A 
ATOM     44  C   UNL A   1      42.209  26.487  27.555  1.00  0.00    -0.014 A 
BRANCH  44  45
ATOM     45  C   UNL A   1      42.045  27.659  28.398  1.00  0.00     0.031 A 
ATOM     46  C   UNL A   1      42.978  28.767  28.148  1.00  0.00     0.074 A 
ATOM     47  C   UNL A   1      40.905  27.885  29.085  1.00  0.00     0.049 A 
ATOM     48  N   UNL A   1      43.806  29.277  28.994  1.00  0.00    -0.248 NA
ATOM     49  C   UNL A   1      43.063  29.329  26.793  1.00  0.00     0.031 C 
ATOM     50  C   UNL A   1      39.736  27.008  29.162  1.00  0.00     0.029 A 
ATOM     51  N   UNL A   1      40.486  29.019  29.723  1.00  0.00    -0.354 N 
ATOM     52  C   UNL A   1      44.386  30.351  28.340  1.00  0.00     0.074 A 
ATOM     53  C   UNL A   1      44.061  30.199  26.943  1.00  0.00     0.031 C 
ATOM     54  C   UNL A   1      38.685  27.723  29.609  1.00  0.00     0.029 A 
ATOM     55  C   UNL A   1      39.115  29.057  29.948  1.00  0.00     0.049 A 
ATOM     56  H   UNL A   1      41.098  29.739  29.997  1.00  0.00     0.167 HD
ATOM     57  C   UNL A   1      44.856  31.426  29.028  1.00  0.00     0.031 A 
ATOM     58  C   UNL A   1      38.366  30.111  30.355  1.00  0.00     0.031 A 
ATOM     59  C   UNL A   1      44.950  31.162  30.444  1.00  0.00     0.049 A 
ATOM     60  C   UNL A   1      39.268  31.047  31.050  1.00  0.00     0.074 A 
ATOM     61  C   UNL A   1      45.570  30.189  31.207  1.00  0.00     0.029 A 
ATOM     62  N   UNL A   1      44.003  31.729  31.265  1.00  0.00    -0.354 N 
ATOM     63  N   UNL A   1      39.850  30.769  32.179  1.00  0.00    -0.248 NA
ATOM     64  C   UNL A   1      39.866  32.125  30.282  1.00  0.00     0.031 C 
ATOM     65  C   UNL A   1      44.653  29.899  32.259  1.00  0.00     0.029 A 
ATOM     66  C   UNL A   1      43.560  30.756  32.125  1.00  0.00     0.049 A 
ATOM     67  H   UNL A   1      43.698  32.665  31.241  1.00  0.00     0.167 HD
ATOM     68  C   UNL A   1      41.132  31.269  32.028  1.00  0.00     0.074 A 
ATOM     69  C   UNL A   1      41.041  32.209  30.911  1.00  0.00     0.031 C 
ATOM     70  C   UNL A   1      42.200  30.654  32.615  1.00  0.00     0.031 A 
BRANCH  57  71
ATOM     71  C   UNL A   1      44.888  32.818  28.456  1.00  0.00    -0.014 A 
ATOM     72  C   UNL A   1      43.751  33.643  28.341  1.00  0.00     0.009 A 
ATOM     73  C   UNL A   1      46.130  33.422  28.210  1.00  0.00     0.009 A 
ATOM     74  C   UNL A   1      43.836  34.984  27.963  1.00  0.00     0.001 A 
ATOM     75  C   UNL A   1      46.226  34.781  27.884  1.00  0.00     0.001 A 
ATOM     76  C   UNL A   1      45.079  35.559  27.752  1.00  0.00     0.000 A 
ENDBRANCH  57  71
BRANCH  58  77
ATOM     77  C   UNL A   1      37.065  30.558  29.801  1.00  0.00    -0.014 A 
ATOM     78  C   UNL A   1      36.873  30.572  28.407  1.00  0.00     0.009 A 
ATOM     79  C   UNL A   1      36.146  31.262  30.594  1.00  0.00     0.009 A 
ATOM     80  C   UNL A   1      35.831  31.301  27.823  1.00  0.00     0.001 A 
ATOM     81  C   UNL A   1      35.093  31.983  30.009  1.00  0.00     0.001 A 
ATOM     82  C   UNL A   1      34.947  32.015  28.624  1.00  0.00     0.000 A 
ENDBRANCH  58  77
BRANCH  70  83
ATOM     83  C   UNL A   1      41.934  29.572  33.642  1.00  0.00    -0.014 A 
ATOM     84  C   UNL A   1      42.061  29.899  35.001  1.00  0.00     0.009 A 
ATOM     85  C   UNL A   1      41.739  28.218  33.308  1.00  0.00     0.009 A 
ATOM     86  C   UNL A   1      42.007  28.912  35.990  1.00  0.00     0.001 A 
ATOM     87  C   UNL A   1      41.658  27.232  34.299  1.00  0.00     0.001 A 
ATOM     88  C   UNL A   1      41.804  27.579  35.639  1.00  0.00     0.000 A 
ENDBRANCH  70  83
ENDBRANCH  44  45
ENDBRANCH  36  39
ENDBRANCH  34  35
ENDBRANCH  33  34
ENDBRANCH  32  33
ENDBRANCH   1  32
TORSDOF 18
ENDMDL
MODEL 3
REMARK VINA RESULT:     -11.2      2.769      7.642
REMARK SMILES Cc1ccc(C)c(S(=O)(=O)N[C@H](CC2=c3ccccc3=NC2)C(=O)NCCCCCCNC(=O)c2ccc(-c3c4nc(c(-c5ccccc5)c5ccc([nH]5)c(-c5ccccc5)c5nc(c(-c6ccccc6)c6ccc3[nH]6)C=C5)C=C4)cc2)c1
REMARK SMILES IDX 28 1 27 2 26 3 25 4 23 5 24 6 12 8 11 9 8 11 9 12 10 13 7 14
REMARK SMILES IDX 1 15 2 16 3 17 83 18 4 19 5 20 6 21 13 22 14 23 15 24 22 25
REMARK SMILES IDX 16 26 20 27 21 28 17 29 19 30 18 31 29 32 30 33 31 34 32 35
REMARK SMILES IDX 33 36 34 38 35 39 36 40 82 41 37 42 81 43 38 44 39 45 40 46
REMARK SMILES IDX 75 47 41 48 80 49 74 50 76 51 42 52 79 53 73 54 72 55 43 57
REMARK SMILES IDX 65 58 50 59 64 60 51 61 54 62 63 63 77 64 52 65 53 66 62 68
REMARK SMILES IDX 78 69 55 70 44 71 45 72 49 73 46 74 48 75 47 76 66 77 67 78
REMARK SMILES IDX 71 79 68 80 70 81 69 82 56 83 57 84 61 85 58 86 60 87 59 88
REMARK H PARENT 25 7 11 10 32 37 76 56 54 67
REMARK Flexibility Score: inf
ROOT
ATOM      1  C   UNL A   1      35.581  31.151  28.533  1.00  0.00     0.002 C 
ENDROOT
BRANCH   1   2
ATOM      2  C   UNL A   1      35.983  30.017  27.588  1.00  0.00     0.021 C 
BRANCH   2   3
ATOM      3  C   UNL A   1      34.851  29.251  26.878  1.00  0.00     0.116 C 
BRANCH   3   4
ATOM      4  N   UNL A   1      33.669  30.036  26.533  1.00  0.00    -0.355 N 
ATOM      5  C   UNL A   1      32.480  29.784  25.910  1.00  0.00     0.238 C 
ATOM      6  O   UNL A   1      31.761  30.767  25.696  1.00  0.00    -0.273 OA
ATOM      7  H   UNL A   1      33.750  30.975  26.819  1.00  0.00     0.163 HD
BRANCH   5   8
ATOM      8  C   UNL A   1      32.026  28.392  25.445  1.00  0.00     0.163 C 
BRANCH   8   9
ATOM      9  N   UNL A   1      31.049  28.505  24.325  1.00  0.00    -0.198 NA
ATOM     10  H   UNL A   1      30.201  28.022  24.622  1.00  0.00     0.142 HD
BRANCH   9  11
ATOM     11  S   UNL A   1      31.455  27.893  22.807  1.00  0.00     0.241 S 
ATOM     12  O   UNL A   1      32.797  28.309  22.506  1.00  0.00    -0.207 OA
ATOM     13  O   UNL A   1      30.324  28.247  21.968  1.00  0.00    -0.207 OA
BRANCH  11  14
ATOM     14  C   UNL A   1      31.418  26.128  23.010  1.00  0.00     0.085 A 
ATOM     15  C   UNL A   1      33.758  23.229  22.219  1.00  0.00     0.044 C 
ATOM     16  C   UNL A   1      32.547  23.997  22.657  1.00  0.00    -0.050 A 
ATOM     17  C   UNL A   1      31.376  23.338  23.028  1.00  0.00     0.004 A 
ATOM     18  C   UNL A   1      32.569  25.391  22.692  1.00  0.00     0.025 A 
ATOM     19  C   UNL A   1      30.246  24.066  23.419  1.00  0.00     0.005 A 
ATOM     20  C   UNL A   1      30.245  25.471  23.414  1.00  0.00    -0.031 A 
ATOM     21  C   UNL A   1      28.992  26.167  23.868  1.00  0.00     0.046 C 
ENDBRANCH  11  14
ENDBRANCH   9  11
ENDBRANCH   8   9
BRANCH   8  22
ATOM     22  C   UNL A   1      31.487  27.409  26.533  1.00  0.00     0.063 C 
BRANCH  22  23
ATOM     23  C   UNL A   1      31.908  25.969  26.501  1.00  0.00    -0.037 C 
ATOM     24  C   UNL A   1      33.045  25.372  26.142  1.00  0.00     0.001 A 
ATOM     25  C   UNL A   1      30.885  24.924  26.800  1.00  0.00     0.174 C 
ATOM     26  C   UNL A   1      34.296  25.752  25.565  1.00  0.00     0.010 A 
ATOM     27  C   UNL A   1      32.763  23.952  26.432  1.00  0.00     0.065 A 
ATOM     28  N   UNL A   1      31.550  23.620  26.743  1.00  0.00    -0.280 NA
ATOM     29  C   UNL A   1      35.220  24.798  25.342  1.00  0.00     0.001 A 
ATOM     30  C   UNL A   1      33.891  23.014  26.353  1.00  0.00     0.028 A 
ATOM     31  C   UNL A   1      35.034  23.430  25.794  1.00  0.00     0.002 A 
ENDBRANCH  22  23
ENDBRANCH   8  22
ENDBRANCH   5   8
ENDBRANCH   3   4
ENDBRANCH   2   3
ENDBRANCH   1   2
BRANCH   1  32
ATOM     32  C   UNL A   1      36.463  32.398  28.490  1.00  0.00     0.002 C 
BRANCH  32  33
ATOM     33  C   UNL A   1      36.077  33.576  29.400  1.00  0.00     0.021 C 
BRANCH  33  34
ATOM     34  C   UNL A   1      34.807  33.430  30.242  1.00  0.00     0.116 C 
BRANCH  34  35
ATOM     35  N   UNL A   1      35.071  33.444  31.682  1.00  0.00    -0.352 N 
ATOM     36  C   UNL A   1      35.762  32.594  32.523  1.00  0.00     0.251 C 
ATOM     37  H   UNL A   1      34.676  34.218  32.145  1.00  0.00     0.163 HD
ATOM     38  O   UNL A   1      35.492  32.605  33.723  1.00  0.00    -0.269 OA
BRANCH  36  39
ATOM     39  C   UNL A   1      36.835  31.696  32.036  1.00  0.00     0.039 A 
ATOM     40  C   UNL A   1      36.614  30.325  31.829  1.00  0.00     0.014 A 
ATOM     41  C   UNL A   1      38.119  32.192  31.876  1.00  0.00     0.014 A 
ATOM     42  C   UNL A   1      37.685  29.493  31.476  1.00  0.00     0.010 A 
ATOM     43  C   UNL A   1      39.127  31.430  31.359  1.00  0.00     0.010 A 
ATOM     44  C   UNL A   1      38.942  30.061  31.261  1.00  0.00    -0.014 A 
BRANCH  44  45
ATOM     45  C   UNL A   1      40.131  29.307  30.903  1.00  0.00     0.031 A 
ATOM     46  C   UNL A   1      40.920  28.778  32.026  1.00  0.00     0.074 A 
ATOM     47  C   UNL A   1      40.301  28.795  29.665  1.00  0.00     0.049 A 
ATOM     48  N   UNL A   1      42.154  29.043  32.286  1.00  0.00    -0.248 NA
ATOM     49  C   UNL A   1      40.254  27.920  33.016  1.00  0.00     0.031 C 
ATOM     50  C   UNL A   1      39.414  28.965  28.514  1.00  0.00     0.029 A 
ATOM     51  N   UNL A   1      41.215  27.881  29.222  1.00  0.00    -0.354 N 
ATOM     52  C   UNL A   1      42.483  28.238  33.365  1.00  0.00     0.074 A 
ATOM     53  C   UNL A   1      41.237  27.748  33.900  1.00  0.00     0.031 C 
ATOM     54  C   UNL A   1      39.707  28.022  27.597  1.00  0.00     0.029 A 
ATOM     55  C   UNL A   1      40.850  27.259  28.034  1.00  0.00     0.049 A 
ATOM     56  H   UNL A   1      42.053  27.683  29.699  1.00  0.00     0.167 HD
ATOM     57  C   UNL A   1      43.761  27.819  33.568  1.00  0.00     0.031 A 
ATOM     58  C   UNL A   1      41.417  26.173  27.452  1.00  0.00     0.031 A 
ATOM     59  C   UNL A   1      44.703  28.542  32.748  1.00  0.00     0.049 A 
ATOM     60  C   UNL A   1      42.799  26.079  27.956  1.00  0.00     0.074 A 
ATOM     61  C   UNL A   1      44.994  29.881  32.561  1.00  0.00     0.029 A 
ATOM     62  N   UNL A   1      45.234  27.891  31.659  1.00  0.00    -0.354 N 
ATOM     63  N   UNL A   1      43.719  26.956  27.680  1.00  0.00    -0.248 NA
ATOM     64  C   UNL A   1      43.053  25.243  29.116  1.00  0.00     0.031 C 
ATOM     65  C   UNL A   1      45.245  30.015  31.164  1.00  0.00     0.029 A 
ATOM     66  C   UNL A   1      45.167  28.747  30.588  1.00  0.00     0.049 A 
ATOM     67  H   UNL A   1      45.598  26.976  31.649  1.00  0.00     0.167 HD
ATOM     68  C   UNL A   1      44.394  27.122  28.877  1.00  0.00     0.074 A 
ATOM     69  C   UNL A   1      44.037  25.950  29.678  1.00  0.00     0.031 C 
ATOM     70  C   UNL A   1      44.927  28.331  29.222  1.00  0.00     0.031 A 
BRANCH  57  71
ATOM     71  C   UNL A   1      44.101  26.518  34.245  1.00  0.00    -0.014 A 
ATOM     72  C   UNL A   1      44.002  26.310  35.635  1.00  0.00     0.009 A 
ATOM     73  C   UNL A   1      44.333  25.382  33.454  1.00  0.00     0.009 A 
ATOM     74  C   UNL A   1      44.164  25.051  36.216  1.00  0.00     0.001 A 
ATOM     75  C   UNL A   1      44.440  24.108  34.026  1.00  0.00     0.001 A 
ATOM     76  C   UNL A   1      44.365  23.944  35.407  1.00  0.00     0.000 A 
ENDBRANCH  57  71
BRANCH  58  77
ATOM     77  C   UNL A   1      40.724  24.999  26.870  1.00  0.00    -0.014 A 
ATOM     78  C   UNL A   1      39.318  24.938  26.900  1.00  0.00     0.009 A 
ATOM     79  C   UNL A   1      41.422  23.816  26.585  1.00  0.00     0.009 A 
ATOM     80  C   UNL A   1      38.637  23.732  26.700  1.00  0.00     0.001 A 
ATOM     81  C   UNL A   1      40.739  22.609  26.372  1.00  0.00     0.001 A 
ATOM     82  C   UNL A   1      39.348  22.565  26.447  1.00  0.00     0.000 A 
ENDBRANCH  58  77
BRANCH  70  83
ATOM     83  C   UNL A   1      44.996  29.415  28.165  1.00  0.00    -0.014 A 
ATOM     84  C   UNL A   1      46.239  29.689  27.574  1.00  0.00     0.009 A 
ATOM     85  C   UNL A   1      43.924  30.279  27.871  1.00  0.00     0.009 A 
ATOM     86  C   UNL A   1      46.410  30.791  26.730  1.00  0.00     0.001 A 
ATOM     87  C   UNL A   1      44.087  31.367  27.004  1.00  0.00     0.001 A 
ATOM     88  C   UNL A   1      45.334  31.628  26.444  1.00  0.00     0.000 A 
ENDBRANCH  70  83
ENDBRANCH  44  45
ENDBRANCH  36  39
ENDBRANCH  34  35
ENDBRANCH  33  34
ENDBRANCH  32  33
ENDBRANCH   1  32
TORSDOF 18
ENDMDL
