MODEL 1
REMARK VINA RESULT:     -11.1      0.000      0.000
REMARK SMILES C[C@]([NH3+])(C(=O)N1[C@@H](C(=O)NCCCCCCNC(=O)c2ccc(-c3c4nc(c(-c5ccccc5)c5ccc([nH]5)c(-c5ccccc5)c5nc(c(-c6ccccc6)c6ccc3[nH]6)C=C5)C=C4)cc2)C[C@H]2CCCC[C@@H]21)C(F)(F)F
REMARK SMILES IDX 13 1 12 2 11 3 10 4 8 5 9 6 7 8 6 9 74 10 68 11 69 12 73 13
REMARK SMILES IDX 70 14 72 15 71 16 4 17 5 18 2 19 1 20 75 21 76 22 77 23
REMARK SMILES IDX 78 24 3 25 14 29 15 30 16 31 17 32 18 33 19 35 20 36 21 37
REMARK SMILES IDX 67 38 22 39 66 40 23 41 24 42 25 43 60 44 26 45 65 46 59 47
REMARK SMILES IDX 61 48 27 49 64 50 58 51 57 52 28 54 50 55 35 56 49 57 36 58
REMARK SMILES IDX 39 59 48 60 62 61 37 62 38 63 47 65 63 66 40 67 29 68 30 69
REMARK SMILES IDX 34 70 31 71 33 72 32 73 51 74 52 75 56 76 53 77 55 78 54 79
REMARK SMILES IDX 41 80 42 81 46 82 43 83 45 84 44 85
REMARK H PARENT 10 7 3 26 3 27 3 28 17 34 61 53 39 64
REMARK Flexibility Score: inf
ROOT
ATOM      1  C   UNL A   1      36.461  21.768  25.364  1.00  0.00     0.002 C 
ENDROOT
BRANCH   1   2
ATOM      2  C   UNL A   1      35.833  22.780  24.396  1.00  0.00     0.021 C 
BRANCH   2   3
ATOM      3  C   UNL A   1      34.523  22.296  23.771  1.00  0.00     0.116 C 
BRANCH   3   4
ATOM      4  N   UNL A   1      34.140  23.131  22.652  1.00  0.00    -0.354 N 
ATOM      5  C   UNL A   1      33.512  24.328  22.547  1.00  0.00     0.242 C 
ATOM      6  O   UNL A   1      33.292  24.703  21.385  1.00  0.00    -0.273 OA
ATOM      7  H   UNL A   1      34.390  22.748  21.780  1.00  0.00     0.163 HD
BRANCH   5   8
ATOM      8  C   UNL A   1      33.212  25.319  23.712  1.00  0.00     0.175 C 
ATOM      9  N   UNL A   1      31.833  25.064  24.174  1.00  0.00    -0.322 N 
ATOM     10  C   UNL A   1      30.960  26.041  23.558  1.00  0.00     0.089 C 
ATOM     11  C   UNL A   1      33.268  26.828  23.459  1.00  0.00     0.041 C 
ATOM     12  C   UNL A   1      31.826  27.302  23.663  1.00  0.00     0.014 C 
ATOM     13  C   UNL A   1      29.604  26.360  24.191  1.00  0.00     0.025 C 
ATOM     14  C   UNL A   1      31.267  28.397  22.774  1.00  0.00     0.006 C 
ATOM     15  C   UNL A   1      28.946  27.537  23.454  1.00  0.00     0.002 C 
ATOM     16  C   UNL A   1      29.862  28.758  23.274  1.00  0.00     0.000 C 
BRANCH   9  17
ATOM     17  C   UNL A   1      31.361  23.931  24.818  1.00  0.00     0.294 C 
ATOM     18  O   UNL A   1      30.845  23.033  24.150  1.00  0.00    -0.267 OA
BRANCH  17  19
ATOM     19  C   UNL A   1      31.350  23.899  26.373  1.00  0.00     0.267 C 
ATOM     20  C   UNL A   1      30.099  23.125  26.834  1.00  0.00     0.100 C 
BRANCH  19  21
ATOM     21  C   UNL A   1      32.600  23.086  26.820  1.00  0.00     0.453 C 
ATOM     22  F   UNL A   1      33.758  23.764  26.655  1.00  0.00    -0.164 F 
ATOM     23  F   UNL A   1      32.516  22.780  28.146  1.00  0.00    -0.164 F 
ATOM     24  F   UNL A   1      32.705  21.900  26.176  1.00  0.00    -0.164 F 
ENDBRANCH  19  21
BRANCH  19  25
ATOM     25  N   UNL A   1      31.318  25.269  26.976  1.00  0.00    -0.337 N 
ATOM     26  H   UNL A   1      31.059  25.949  26.261  1.00  0.00     0.345 HD
ATOM     27  H   UNL A   1      32.241  25.498  27.345  1.00  0.00     0.345 HD
ATOM     28  H   UNL A   1      30.634  25.293  27.732  1.00  0.00     0.345 HD
ENDBRANCH  19  25
ENDBRANCH  17  19
ENDBRANCH   9  17
ENDBRANCH   5   8
ENDBRANCH   3   4
ENDBRANCH   2   3
ENDBRANCH   1   2
BRANCH   1  29
ATOM     29  C   UNL A   1      36.286  20.295  24.968  1.00  0.00     0.002 C 
BRANCH  29  30
ATOM     30  C   UNL A   1      37.574  19.467  24.945  1.00  0.00     0.021 C 
BRANCH  30  31
ATOM     31  C   UNL A   1      38.793  20.172  25.531  1.00  0.00     0.116 C 
BRANCH  31  32
ATOM     32  N   UNL A   1      39.913  19.262  25.702  1.00  0.00    -0.352 N 
ATOM     33  C   UNL A   1      41.208  19.528  26.068  1.00  0.00     0.251 C 
ATOM     34  H   UNL A   1      39.713  18.315  25.530  1.00  0.00     0.163 HD
ATOM     35  O   UNL A   1      42.066  18.659  25.954  1.00  0.00    -0.269 OA
BRANCH  33  36
ATOM     36  C   UNL A   1      41.580  20.860  26.595  1.00  0.00     0.039 A 
ATOM     37  C   UNL A   1      41.437  21.104  27.965  1.00  0.00     0.014 A 
ATOM     38  C   UNL A   1      42.006  21.884  25.744  1.00  0.00     0.014 A 
ATOM     39  C   UNL A   1      41.747  22.364  28.482  1.00  0.00     0.010 A 
ATOM     40  C   UNL A   1      42.382  23.117  26.271  1.00  0.00     0.010 A 
ATOM     41  C   UNL A   1      42.233  23.377  27.642  1.00  0.00    -0.014 A 
BRANCH  41  42
ATOM     42  C   UNL A   1      42.535  24.730  28.174  1.00  0.00     0.031 A 
ATOM     43  C   UNL A   1      43.949  25.093  28.544  1.00  0.00     0.074 A 
ATOM     44  C   UNL A   1      41.542  25.625  28.345  1.00  0.00     0.049 A 
ATOM     45  N   UNL A   1      44.413  26.210  29.047  1.00  0.00    -0.248 NA
ATOM     46  C   UNL A   1      44.976  24.057  28.342  1.00  0.00     0.031 C 
ATOM     47  C   UNL A   1      40.128  25.391  28.048  1.00  0.00     0.029 A 
ATOM     48  N   UNL A   1      41.576  26.916  28.807  1.00  0.00    -0.354 N 
ATOM     49  C   UNL A   1      45.776  26.008  29.224  1.00  0.00     0.074 A 
ATOM     50  C   UNL A   1      46.055  24.643  28.836  1.00  0.00     0.031 C 
ATOM     51  C   UNL A   1      39.435  26.513  28.305  1.00  0.00     0.029 A 
ATOM     52  C   UNL A   1      40.348  27.531  28.814  1.00  0.00     0.049 A 
ATOM     53  H   UNL A   1      42.403  27.359  29.106  1.00  0.00     0.167 HD
ATOM     54  C   UNL A   1      46.720  26.884  29.645  1.00  0.00     0.031 A 
ATOM     55  C   UNL A   1      40.000  28.778  29.184  1.00  0.00     0.031 A 
ATOM     56  C   UNL A   1      46.447  28.244  30.024  1.00  0.00     0.049 A 
ATOM     57  C   UNL A   1      41.066  29.725  29.664  1.00  0.00     0.074 A 
ATOM     58  C   UNL A   1      47.335  29.216  30.453  1.00  0.00     0.029 A 
ATOM     59  N   UNL A   1      45.191  28.829  30.007  1.00  0.00    -0.354 N 
ATOM     60  N   UNL A   1      42.355  29.528  29.791  1.00  0.00    -0.248 NA
ATOM     61  C   UNL A   1      40.624  31.078  30.033  1.00  0.00     0.031 C 
ATOM     62  C   UNL A   1      46.611  30.381  30.727  1.00  0.00     0.029 A 
ATOM     63  C   UNL A   1      45.281  30.148  30.419  1.00  0.00     0.049 A 
ATOM     64  H   UNL A   1      44.360  28.374  29.743  1.00  0.00     0.167 HD
ATOM     65  C   UNL A   1      42.885  30.742  30.208  1.00  0.00     0.074 A 
ATOM     66  C   UNL A   1      41.778  31.672  30.302  1.00  0.00     0.031 C 
ATOM     67  C   UNL A   1      44.171  31.063  30.488  1.00  0.00     0.031 A 
BRANCH  54  68
ATOM     68  C   UNL A   1      48.139  26.393  29.702  1.00  0.00    -0.014 A 
ATOM     69  C   UNL A   1      49.004  26.559  28.608  1.00  0.00     0.009 A 
ATOM     70  C   UNL A   1      48.629  25.785  30.868  1.00  0.00     0.009 A 
ATOM     71  C   UNL A   1      50.319  26.093  28.667  1.00  0.00     0.001 A 
ATOM     72  C   UNL A   1      49.953  25.346  30.934  1.00  0.00     0.001 A 
ATOM     73  C   UNL A   1      50.794  25.492  29.832  1.00  0.00     0.000 A 
ENDBRANCH  54  68
BRANCH  55  74
ATOM     74  C   UNL A   1      38.586  29.226  29.092  1.00  0.00    -0.014 A 
ATOM     75  C   UNL A   1      38.092  29.780  27.901  1.00  0.00     0.009 A 
ATOM     76  C   UNL A   1      37.735  29.142  30.205  1.00  0.00     0.009 A 
ATOM     77  C   UNL A   1      36.790  30.283  27.838  1.00  0.00     0.001 A 
ATOM     78  C   UNL A   1      36.423  29.616  30.129  1.00  0.00     0.001 A 
ATOM     79  C   UNL A   1      35.957  30.199  28.952  1.00  0.00     0.000 A 
ENDBRANCH  55  74
BRANCH  67  80
ATOM     80  C   UNL A   1      44.456  32.492  30.852  1.00  0.00    -0.014 A 
ATOM     81  C   UNL A   1      44.753  33.456  29.876  1.00  0.00     0.009 A 
ATOM     82  C   UNL A   1      44.411  32.880  32.201  1.00  0.00     0.009 A 
ATOM     83  C   UNL A   1      45.047  34.770  30.250  1.00  0.00     0.001 A 
ATOM     84  C   UNL A   1      44.675  34.200  32.568  1.00  0.00     0.001 A 
ATOM     85  C   UNL A   1      45.005  35.140  31.593  1.00  0.00     0.000 A 
ENDBRANCH  67  80
ENDBRANCH  41  42
ENDBRANCH  33  36
ENDBRANCH  31  32
ENDBRANCH  30  31
ENDBRANCH  29  30
ENDBRANCH   1  29
TORSDOF 17
ENDMDL
MODEL 2
REMARK VINA RESULT:     -10.9      3.658      8.831
REMARK SMILES C[C@]([NH3+])(C(=O)N1[C@@H](C(=O)NCCCCCCNC(=O)c2ccc(-c3c4nc(c(-c5ccccc5)c5ccc([nH]5)c(-c5ccccc5)c5nc(c(-c6ccccc6)c6ccc3[nH]6)C=C5)C=C4)cc2)C[C@H]2CCCC[C@@H]21)C(F)(F)F
REMARK SMILES IDX 13 1 12 2 11 3 10 4 8 5 9 6 7 8 6 9 74 10 68 11 69 12 73 13
REMARK SMILES IDX 70 14 72 15 71 16 4 17 5 18 2 19 1 20 75 21 76 22 77 23
REMARK SMILES IDX 78 24 3 25 14 29 15 30 16 31 17 32 18 33 19 35 20 36 21 37
REMARK SMILES IDX 67 38 22 39 66 40 23 41 24 42 25 43 60 44 26 45 65 46 59 47
REMARK SMILES IDX 61 48 27 49 64 50 58 51 57 52 28 54 50 55 35 56 49 57 36 58
REMARK SMILES IDX 39 59 48 60 62 61 37 62 38 63 47 65 63 66 40 67 29 68 30 69
REMARK SMILES IDX 34 70 31 71 33 72 32 73 51 74 52 75 56 76 53 77 55 78 54 79
REMARK SMILES IDX 41 80 42 81 46 82 43 83 45 84 44 85
REMARK H PARENT 10 7 3 26 3 27 3 28 17 34 61 53 39 64
REMARK Flexibility Score: inf
ROOT
ATOM      1  C   UNL A   1      32.254  29.627  27.058  1.00  0.00     0.002 C 
ENDROOT
BRANCH   1   2
ATOM      2  C   UNL A   1      31.564  28.324  27.487  1.00  0.00     0.021 C 
BRANCH   2   3
ATOM      3  C   UNL A   1      31.466  27.287  26.366  1.00  0.00     0.116 C 
BRANCH   3   4
ATOM      4  N   UNL A   1      31.012  26.011  26.876  1.00  0.00    -0.354 N 
ATOM      5  C   UNL A   1      31.404  24.728  26.677  1.00  0.00     0.242 C 
ATOM      6  O   UNL A   1      30.709  23.874  27.249  1.00  0.00    -0.273 OA
ATOM      7  H   UNL A   1      30.257  26.092  27.502  1.00  0.00     0.163 HD
BRANCH   5   8
ATOM      8  C   UNL A   1      32.707  24.261  25.962  1.00  0.00     0.175 C 
ATOM      9  N   UNL A   1      32.367  23.964  24.557  1.00  0.00    -0.322 N 
ATOM     10  C   UNL A   1      32.176  22.534  24.428  1.00  0.00     0.089 C 
ATOM     11  C   UNL A   1      33.441  23.013  26.460  1.00  0.00     0.041 C 
ATOM     12  C   UNL A   1      33.324  22.016  25.303  1.00  0.00     0.014 C 
ATOM     13  C   UNL A   1      32.306  21.868  23.057  1.00  0.00     0.025 C 
ATOM     14  C   UNL A   1      33.127  20.541  25.605  1.00  0.00     0.006 C 
ATOM     15  C   UNL A   1      32.229  20.340  23.208  1.00  0.00     0.002 C 
ATOM     16  C   UNL A   1      33.168  19.766  24.281  1.00  0.00     0.000 C 
BRANCH   9  17
ATOM     17  C   UNL A   1      31.977  24.866  23.579  1.00  0.00     0.294 C 
ATOM     18  O   UNL A   1      30.775  25.047  23.374  1.00  0.00    -0.267 OA
BRANCH  17  19
ATOM     19  C   UNL A   1      33.064  25.502  22.665  1.00  0.00     0.267 C 
ATOM     20  C   UNL A   1      32.529  25.530  21.221  1.00  0.00     0.100 C 
BRANCH  19  21
ATOM     21  C   UNL A   1      33.246  26.976  23.132  1.00  0.00     0.453 C 
ATOM     22  F   UNL A   1      32.072  27.627  23.296  1.00  0.00    -0.164 F 
ATOM     23  F   UNL A   1      33.881  27.015  24.337  1.00  0.00    -0.164 F 
ATOM     24  F   UNL A   1      34.018  27.697  22.285  1.00  0.00    -0.164 F 
ENDBRANCH  19  21
BRANCH  19  25
ATOM     25  N   UNL A   1      34.351  24.737  22.687  1.00  0.00    -0.337 N 
ATOM     26  H   UNL A   1      34.156  23.741  22.590  1.00  0.00     0.345 HD
ATOM     27  H   UNL A   1      34.831  24.905  23.572  1.00  0.00     0.345 HD
ATOM     28  H   UNL A   1      34.943  25.045  21.916  1.00  0.00     0.345 HD
ENDBRANCH  19  25
ENDBRANCH  17  19
ENDBRANCH   9  17
ENDBRANCH   5   8
ENDBRANCH   3   4
ENDBRANCH   2   3
ENDBRANCH   1   2
BRANCH   1  29
ATOM     29  C   UNL A   1      31.422  30.529  26.137  1.00  0.00     0.002 C 
BRANCH  29  30
ATOM     30  C   UNL A   1      31.333  31.997  26.566  1.00  0.00     0.021 C 
BRANCH  30  31
ATOM     31  C   UNL A   1      32.661  32.616  26.990  1.00  0.00     0.116 C 
BRANCH  31  32
ATOM     32  N   UNL A   1      32.476  33.909  27.626  1.00  0.00    -0.352 N 
ATOM     33  C   UNL A   1      33.155  34.473  28.677  1.00  0.00     0.251 C 
ATOM     34  H   UNL A   1      31.757  34.463  27.248  1.00  0.00     0.163 HD
ATOM     35  O   UNL A   1      32.719  35.486  29.213  1.00  0.00    -0.269 OA
BRANCH  33  36
ATOM     36  C   UNL A   1      34.410  33.864  29.171  1.00  0.00     0.039 A 
ATOM     37  C   UNL A   1      35.610  34.183  28.527  1.00  0.00     0.014 A 
ATOM     38  C   UNL A   1      34.404  32.938  30.218  1.00  0.00     0.014 A 
ATOM     39  C   UNL A   1      36.804  33.594  28.952  1.00  0.00     0.010 A 
ATOM     40  C   UNL A   1      35.603  32.407  30.687  1.00  0.00     0.010 A 
ATOM     41  C   UNL A   1      36.812  32.711  30.042  1.00  0.00    -0.014 A 
BRANCH  41  42
ATOM     42  C   UNL A   1      38.069  32.053  30.482  1.00  0.00     0.031 A 
ATOM     43  C   UNL A   1      38.887  32.663  31.589  1.00  0.00     0.074 A 
ATOM     44  C   UNL A   1      38.487  30.925  29.878  1.00  0.00     0.049 A 
ATOM     45  N   UNL A   1      40.024  32.258  32.099  1.00  0.00    -0.248 NA
ATOM     46  C   UNL A   1      38.371  33.905  32.191  1.00  0.00     0.031 C 
ATOM     47  C   UNL A   1      37.800  30.245  28.777  1.00  0.00     0.029 A 
ATOM     48  N   UNL A   1      39.592  30.147  30.110  1.00  0.00    -0.354 N 
ATOM     49  C   UNL A   1      40.357  33.193  33.071  1.00  0.00     0.074 A 
ATOM     50  C   UNL A   1      39.339  34.220  33.038  1.00  0.00     0.031 C 
ATOM     51  C   UNL A   1      38.483  29.135  28.453  1.00  0.00     0.029 A 
ATOM     52  C   UNL A   1      39.670  29.042  29.297  1.00  0.00     0.049 A 
ATOM     53  H   UNL A   1      40.268  30.361  30.794  1.00  0.00     0.167 HD
ATOM     54  C   UNL A   1      41.400  33.188  33.936  1.00  0.00     0.031 A 
ATOM     55  C   UNL A   1      40.591  28.062  29.244  1.00  0.00     0.031 A 
ATOM     56  C   UNL A   1      42.410  32.166  33.977  1.00  0.00     0.049 A 
ATOM     57  C   UNL A   1      41.749  28.090  30.204  1.00  0.00     0.074 A 
ATOM     58  C   UNL A   1      43.502  32.063  34.823  1.00  0.00     0.029 A 
ATOM     59  N   UNL A   1      42.445  31.060  33.143  1.00  0.00    -0.354 N 
ATOM     60  N   UNL A   1      42.029  28.964  31.141  1.00  0.00    -0.248 NA
ATOM     61  C   UNL A   1      42.708  26.980  30.109  1.00  0.00     0.031 C 
ATOM     62  C   UNL A   1      44.216  30.910  34.479  1.00  0.00     0.029 A 
ATOM     63  C   UNL A   1      43.539  30.270  33.453  1.00  0.00     0.049 A 
ATOM     64  H   UNL A   1      41.790  30.866  32.435  1.00  0.00     0.167 HD
ATOM     65  C   UNL A   1      43.168  28.485  31.776  1.00  0.00     0.074 A 
ATOM     66  C   UNL A   1      43.519  27.240  31.125  1.00  0.00     0.031 C 
ATOM     67  C   UNL A   1      43.862  29.025  32.807  1.00  0.00     0.031 A 
BRANCH  54  68
ATOM     68  C   UNL A   1      41.488  34.324  34.915  1.00  0.00    -0.014 A 
ATOM     69  C   UNL A   1      42.167  35.510  34.587  1.00  0.00     0.009 A 
ATOM     70  C   UNL A   1      40.863  34.227  36.168  1.00  0.00     0.009 A 
ATOM     71  C   UNL A   1      42.250  36.558  35.507  1.00  0.00     0.001 A 
ATOM     72  C   UNL A   1      40.922  35.288  37.073  1.00  0.00     0.001 A 
ATOM     73  C   UNL A   1      41.623  36.447  36.746  1.00  0.00     0.000 A 
ENDBRANCH  54  68
BRANCH  55  74
ATOM     74  C   UNL A   1      40.452  26.947  28.270  1.00  0.00    -0.014 A 
ATOM     75  C   UNL A   1      39.720  25.798  28.605  1.00  0.00     0.009 A 
ATOM     76  C   UNL A   1      41.086  27.007  27.019  1.00  0.00     0.009 A 
ATOM     77  C   UNL A   1      39.662  24.712  27.727  1.00  0.00     0.001 A 
ATOM     78  C   UNL A   1      40.999  25.932  26.130  1.00  0.00     0.001 A 
ATOM     79  C   UNL A   1      40.300  24.781  26.491  1.00  0.00     0.000 A 
ENDBRANCH  55  74
BRANCH  67  80
ATOM     80  C   UNL A   1      45.025  28.235  33.336  1.00  0.00    -0.014 A 
ATOM     81  C   UNL A   1      46.325  28.419  32.842  1.00  0.00     0.009 A 
ATOM     82  C   UNL A   1      44.811  27.297  34.359  1.00  0.00     0.009 A 
ATOM     83  C   UNL A   1      47.381  27.644  33.330  1.00  0.00     0.001 A 
ATOM     84  C   UNL A   1      45.873  26.547  34.866  1.00  0.00     0.001 A 
ATOM     85  C   UNL A   1      47.153  26.712  34.341  1.00  0.00     0.000 A 
ENDBRANCH  67  80
ENDBRANCH  41  42
ENDBRANCH  33  36
ENDBRANCH  31  32
ENDBRANCH  30  31
ENDBRANCH  29  30
ENDBRANCH   1  29
TORSDOF 17
ENDMDL
MODEL 3
REMARK VINA RESULT:     -10.9      0.635      5.880
REMARK SMILES C[C@]([NH3+])(C(=O)N1[C@@H](C(=O)NCCCCCCNC(=O)c2ccc(-c3c4nc(c(-c5ccccc5)c5ccc([nH]5)c(-c5ccccc5)c5nc(c(-c6ccccc6)c6ccc3[nH]6)C=C5)C=C4)cc2)C[C@H]2CCCC[C@@H]21)C(F)(F)F
REMARK SMILES IDX 13 1 12 2 11 3 10 4 8 5 9 6 7 8 6 9 74 10 68 11 69 12 73 13
REMARK SMILES IDX 70 14 72 15 71 16 4 17 5 18 2 19 1 20 75 21 76 22 77 23
REMARK SMILES IDX 78 24 3 25 14 29 15 30 16 31 17 32 18 33 19 35 20 36 21 37
REMARK SMILES IDX 67 38 22 39 66 40 23 41 24 42 25 43 60 44 26 45 65 46 59 47
REMARK SMILES IDX 61 48 27 49 64 50 58 51 57 52 28 54 50 55 35 56 49 57 36 58
REMARK SMILES IDX 39 59 48 60 62 61 37 62 38 63 47 65 63 66 40 67 29 68 30 69
REMARK SMILES IDX 34 70 31 71 33 72 32 73 51 74 52 75 56 76 53 77 55 78 54 79
REMARK SMILES IDX 41 80 42 81 46 82 43 83 45 84 44 85
REMARK H PARENT 10 7 3 26 3 27 3 28 17 34 61 53 39 64
REMARK Flexibility Score: inf
ROOT
ATOM      1  C   UNL A   1      37.011  22.173  24.245  1.00  0.00     0.002 C 
ENDROOT
BRANCH   1   2
ATOM      2  C   UNL A   1      35.869  23.187  24.089  1.00  0.00     0.021 C 
BRANCH   2   3
ATOM      3  C   UNL A   1      34.578  22.574  23.541  1.00  0.00     0.116 C 
BRANCH   3   4
ATOM      4  N   UNL A   1      34.055  23.360  22.444  1.00  0.00    -0.354 N 
ATOM      5  C   UNL A   1      33.321  24.498  22.371  1.00  0.00     0.242 C 
ATOM      6  O   UNL A   1      32.996  24.837  21.222  1.00  0.00    -0.273 OA
ATOM      7  H   UNL A   1      34.280  22.987  21.561  1.00  0.00     0.163 HD
BRANCH   5   8
ATOM      8  C   UNL A   1      33.014  25.475  23.545  1.00  0.00     0.175 C 
ATOM      9  N   UNL A   1      31.677  25.138  24.071  1.00  0.00    -0.322 N 
ATOM     10  C   UNL A   1      30.716  26.054  23.493  1.00  0.00     0.089 C 
ATOM     11  C   UNL A   1      32.964  26.983  23.284  1.00  0.00     0.041 C 
ATOM     12  C   UNL A   1      31.506  27.367  23.554  1.00  0.00     0.014 C 
ATOM     13  C   UNL A   1      29.374  26.291  24.188  1.00  0.00     0.025 C 
ATOM     14  C   UNL A   1      30.838  28.420  22.687  1.00  0.00     0.006 C 
ATOM     15  C   UNL A   1      28.609  27.420  23.478  1.00  0.00     0.002 C 
ATOM     16  C   UNL A   1      29.438  28.695  23.251  1.00  0.00     0.000 C 
BRANCH   9  17
ATOM     17  C   UNL A   1      31.307  23.982  24.740  1.00  0.00     0.294 C 
ATOM     18  O   UNL A   1      30.829  23.044  24.098  1.00  0.00    -0.267 OA
BRANCH  17  19
ATOM     19  C   UNL A   1      31.356  23.963  26.295  1.00  0.00     0.267 C 
ATOM     20  C   UNL A   1      30.133  23.180  26.811  1.00  0.00     0.100 C 
BRANCH  19  21
ATOM     21  C   UNL A   1      32.632  23.168  26.700  1.00  0.00     0.453 C 
ATOM     22  F   UNL A   1      32.781  22.018  26.005  1.00  0.00    -0.164 F 
ATOM     23  F   UNL A   1      33.748  23.912  26.461  1.00  0.00    -0.164 F 
ATOM     24  F   UNL A   1      32.662  22.874  28.022  1.00  0.00    -0.164 F 
ENDBRANCH  19  21
BRANCH  19  25
ATOM     25  N   UNL A   1      31.332  25.338  26.887  1.00  0.00    -0.337 N 
ATOM     26  H   UNL A   1      32.288  25.682  26.987  1.00  0.00     0.345 HD
ATOM     27  H   UNL A   1      30.885  25.306  27.803  1.00  0.00     0.345 HD
ATOM     28  H   UNL A   1      30.809  25.963  26.274  1.00  0.00     0.345 HD
ENDBRANCH  19  25
ENDBRANCH  17  19
ENDBRANCH   9  17
ENDBRANCH   5   8
ENDBRANCH   3   4
ENDBRANCH   2   3
ENDBRANCH   1   2
BRANCH   1  29
ATOM     29  C   UNL A   1      36.579  20.773  24.700  1.00  0.00     0.002 C 
BRANCH  29  30
ATOM     30  C   UNL A   1      37.719  19.776  24.922  1.00  0.00     0.021 C 
BRANCH  30  31
ATOM     31  C   UNL A   1      38.893  20.323  25.728  1.00  0.00     0.116 C 
BRANCH  31  32
ATOM     32  N   UNL A   1      39.969  19.354  25.843  1.00  0.00    -0.352 N 
ATOM     33  C   UNL A   1      41.302  19.552  26.098  1.00  0.00     0.251 C 
ATOM     34  H   UNL A   1      39.701  18.415  25.720  1.00  0.00     0.163 HD
ATOM     35  O   UNL A   1      42.097  18.629  25.948  1.00  0.00    -0.269 OA
BRANCH  33  36
ATOM     36  C   UNL A   1      41.791  20.874  26.549  1.00  0.00     0.039 A 
ATOM     37  C   UNL A   1      41.774  21.166  27.916  1.00  0.00     0.014 A 
ATOM     38  C   UNL A   1      42.204  21.845  25.632  1.00  0.00     0.014 A 
ATOM     39  C   UNL A   1      42.196  22.419  28.364  1.00  0.00     0.010 A 
ATOM     40  C   UNL A   1      42.692  23.068  26.086  1.00  0.00     0.010 A 
ATOM     41  C   UNL A   1      42.670  23.377  27.454  1.00  0.00    -0.014 A 
BRANCH  41  42
ATOM     42  C   UNL A   1      43.090  24.725  27.915  1.00  0.00     0.031 A 
ATOM     43  C   UNL A   1      42.053  25.785  28.176  1.00  0.00     0.074 A 
ATOM     44  C   UNL A   1      44.397  25.004  28.078  1.00  0.00     0.049 A 
ATOM     45  N   UNL A   1      42.217  27.028  28.557  1.00  0.00    -0.248 NA
ATOM     46  C   UNL A   1      40.646  25.407  27.961  1.00  0.00     0.031 C 
ATOM     47  C   UNL A   1      45.502  24.075  27.836  1.00  0.00     0.029 A 
ATOM     48  N   UNL A   1      45.017  26.156  28.492  1.00  0.00    -0.354 N 
ATOM     49  C   UNL A   1      40.942  27.575  28.621  1.00  0.00     0.074 A 
ATOM     50  C   UNL A   1      40.019  26.552  28.179  1.00  0.00     0.031 C 
ATOM     51  C   UNL A   1      46.661  24.683  28.138  1.00  0.00     0.029 A 
ATOM     52  C   UNL A   1      46.384  26.052  28.562  1.00  0.00     0.049 A 
ATOM     53  H   UNL A   1      44.527  26.980  28.718  1.00  0.00     0.167 HD
ATOM     54  C   UNL A   1      40.564  28.808  29.037  1.00  0.00     0.031 A 
ATOM     55  C   UNL A   1      47.310  26.957  28.932  1.00  0.00     0.031 A 
ATOM     56  C   UNL A   1      41.477  29.825  29.484  1.00  0.00     0.049 A 
ATOM     57  C   UNL A   1      46.863  28.325  29.372  1.00  0.00     0.074 A 
ATOM     58  C   UNL A   1      41.193  31.102  29.936  1.00  0.00     0.029 A 
ATOM     59  N   UNL A   1      42.853  29.674  29.547  1.00  0.00    -0.354 N 
ATOM     60  N   UNL A   1      45.651  28.813  29.460  1.00  0.00    -0.248 NA
ATOM     61  C   UNL A   1      47.921  29.260  29.783  1.00  0.00     0.031 C 
ATOM     62  C   UNL A   1      42.402  31.737  30.243  1.00  0.00     0.029 A 
ATOM     63  C   UNL A   1      43.432  30.835  30.031  1.00  0.00     0.049 A 
ATOM     64  H   UNL A   1      43.344  28.862  29.287  1.00  0.00     0.167 HD
ATOM     65  C   UNL A   1      45.795  30.093  29.980  1.00  0.00     0.074 A 
ATOM     66  C   UNL A   1      47.212  30.300  30.198  1.00  0.00     0.031 C 
ATOM     67  C   UNL A   1      44.842  31.016  30.257  1.00  0.00     0.031 A 
BRANCH  54  68
ATOM     68  C   UNL A   1      39.093  29.114  29.036  1.00  0.00    -0.014 A 
ATOM     69  C   UNL A   1      38.310  28.897  30.182  1.00  0.00     0.009 A 
ATOM     70  C   UNL A   1      38.483  29.651  27.892  1.00  0.00     0.009 A 
ATOM     71  C   UNL A   1      36.941  29.176  30.170  1.00  0.00     0.001 A 
ATOM     72  C   UNL A   1      37.121  29.958  27.893  1.00  0.00     0.001 A 
ATOM     73  C   UNL A   1      36.350  29.712  29.027  1.00  0.00     0.000 A 
ENDBRANCH  54  68
BRANCH  55  74
ATOM     74  C   UNL A   1      48.754  26.603  28.934  1.00  0.00    -0.014 A 
ATOM     75  C   UNL A   1      49.364  26.119  30.102  1.00  0.00     0.009 A 
ATOM     76  C   UNL A   1      49.538  26.786  27.785  1.00  0.00     0.009 A 
ATOM     77  C   UNL A   1      50.739  25.870  30.133  1.00  0.00     0.001 A 
ATOM     78  C   UNL A   1      50.906  26.505  27.810  1.00  0.00     0.001 A 
ATOM     79  C   UNL A   1      51.507  26.062  28.988  1.00  0.00     0.000 A 
ENDBRANCH  55  74
BRANCH  67  80
ATOM     80  C   UNL A   1      45.298  32.301  30.888  1.00  0.00    -0.014 A 
ATOM     81  C   UNL A   1      45.387  32.447  32.280  1.00  0.00     0.009 A 
ATOM     82  C   UNL A   1      45.656  33.381  30.066  1.00  0.00     0.009 A 
ATOM     83  C   UNL A   1      45.781  33.665  32.838  1.00  0.00     0.001 A 
ATOM     84  C   UNL A   1      46.079  34.588  30.624  1.00  0.00     0.001 A 
ATOM     85  C   UNL A   1      46.128  34.732  32.010  1.00  0.00     0.000 A 
ENDBRANCH  67  80
ENDBRANCH  41  42
ENDBRANCH  33  36
ENDBRANCH  31  32
ENDBRANCH  30  31
ENDBRANCH  29  30
ENDBRANCH   1  29
TORSDOF 17
ENDMDL
