MODEL 1
REMARK VINA RESULT:      -8.4      0.000      0.000
REMARK SMILES C[C@@H](C(=O)NCCCCCCNC(=O)c1ccc(-c2c3nc(c(-c4ccccc4)c4ccc([nH]4)c(-c4ccccc4)c4nc(c(-c5ccccc5)c5ccc2[nH]5)C=C4)C=C3)cc1)c1ccc(-c2cccc(OC(=O)NC3CC3)c2)c(F)c1
REMARK SMILES IDX 7 1 6 2 5 3 3 4 4 5 2 7 1 8 63 9 64 10 82 11 65 12 80 13
REMARK SMILES IDX 66 14 81 15 67 16 68 17 79 18 69 19 71 20 70 21 72 22 73 23
REMARK SMILES IDX 74 24 75 25 76 27 77 28 78 29 8 30 9 31 10 32 11 33 12 34
REMARK SMILES IDX 13 35 14 37 15 38 16 39 62 40 17 41 61 42 18 43 19 44 20 45
REMARK SMILES IDX 55 46 21 47 60 48 54 49 56 50 22 51 59 52 53 53 52 54 23 56
REMARK SMILES IDX 45 57 30 58 44 59 31 60 34 61 43 62 57 63 32 64 33 65 42 67
REMARK SMILES IDX 58 68 35 69 24 70 25 71 29 72 26 73 28 74 27 75 46 76 47 77
REMARK SMILES IDX 51 78 48 79 50 80 49 81 36 82 37 83 41 84 38 85 40 86 39 87
REMARK H PARENT 5 6 75 26 12 36 56 55 34 66
REMARK Flexibility Score: inf
ROOT
ATOM      1  C   UNL A   1      37.907  34.161  31.470  1.00  0.00     0.021 C 
ENDROOT
BRANCH   1   2
ATOM      2  C   UNL A   1      39.260  33.934  32.146  1.00  0.00     0.116 C 
BRANCH   2   3
ATOM      3  N   UNL A   1      39.072  33.475  33.501  1.00  0.00    -0.356 N 
ATOM      4  C   UNL A   1      38.720  32.252  33.982  1.00  0.00     0.227 C 
ATOM      5  O   UNL A   1      38.563  32.195  35.203  1.00  0.00    -0.274 OA
ATOM      6  H   UNL A   1      39.223  34.159  34.192  1.00  0.00     0.163 HD
BRANCH   4   7
ATOM      7  C   UNL A   1      38.614  31.046  33.030  1.00  0.00     0.105 C 
ATOM      8  C   UNL A   1      37.325  30.233  33.196  1.00  0.00     0.023 C 
BRANCH   7   9
ATOM      9  C   UNL A   1      39.777  30.064  33.122  1.00  0.00    -0.033 A 
ATOM     10  C   UNL A   1      39.571  28.710  32.813  1.00  0.00     0.005 A 
ATOM     11  C   UNL A   1      41.024  30.447  33.631  1.00  0.00     0.044 A 
ATOM     12  C   UNL A   1      40.584  27.765  33.021  1.00  0.00     0.012 A 
ATOM     13  C   UNL A   1      42.033  29.512  33.804  1.00  0.00     0.131 A 
ATOM     14  C   UNL A   1      41.828  28.152  33.537  1.00  0.00     0.018 A 
ATOM     15  F   UNL A   1      43.212  29.942  34.283  1.00  0.00    -0.206 F 
BRANCH  14  16
ATOM     16  C   UNL A   1      42.847  27.164  33.902  1.00  0.00    -0.012 A 
ATOM     17  C   UNL A   1      43.874  26.782  33.029  1.00  0.00     0.009 A 
ATOM     18  C   UNL A   1      42.789  26.569  35.175  1.00  0.00     0.056 A 
ATOM     19  C   UNL A   1      44.828  25.841  33.426  1.00  0.00     0.004 A 
ATOM     20  C   UNL A   1      43.741  25.640  35.571  1.00  0.00     0.133 A 
ATOM     21  C   UNL A   1      44.763  25.270  34.699  1.00  0.00     0.047 A 
BRANCH  20  22
ATOM     22  O   UNL A   1      43.752  25.016  36.842  1.00  0.00    -0.410 OA
BRANCH  22  23
ATOM     23  C   UNL A   1      43.873  25.658  38.073  1.00  0.00     0.412 C 
ATOM     24  O   UNL A   1      43.346  26.719  38.399  1.00  0.00    -0.224 OA
ATOM     25  N   UNL A   1      44.679  25.003  38.966  1.00  0.00    -0.318 N 
ATOM     26  H   UNL A   1      44.812  25.464  39.826  1.00  0.00     0.167 HD
BRANCH  25  27
ATOM     27  C   UNL A   1      45.352  23.757  38.836  1.00  0.00     0.085 C 
ATOM     28  C   UNL A   1      46.657  23.366  39.469  1.00  0.00     0.027 C 
ATOM     29  C   UNL A   1      45.375  22.829  40.025  1.00  0.00     0.027 C 
ENDBRANCH  25  27
ENDBRANCH  22  23
ENDBRANCH  20  22
ENDBRANCH  14  16
ENDBRANCH   7   9
ENDBRANCH   4   7
ENDBRANCH   2   3
ENDBRANCH   1   2
BRANCH   1  30
ATOM     30  C   UNL A   1      37.554  33.107  30.411  1.00  0.00     0.002 C 
BRANCH  30  31
ATOM     31  C   UNL A   1      37.307  33.666  29.007  1.00  0.00     0.002 C 
BRANCH  31  32
ATOM     32  C   UNL A   1      35.863  33.544  28.522  1.00  0.00     0.021 C 
BRANCH  32  33
ATOM     33  C   UNL A   1      34.971  32.719  29.439  1.00  0.00     0.116 C 
BRANCH  33  34
ATOM     34  N   UNL A   1      34.168  31.764  28.696  1.00  0.00    -0.352 N 
ATOM     35  C   UNL A   1      34.572  30.623  28.049  1.00  0.00     0.251 C 
ATOM     36  H   UNL A   1      33.205  31.961  28.649  1.00  0.00     0.163 HD
ATOM     37  O   UNL A   1      33.813  30.039  27.284  1.00  0.00    -0.269 OA
BRANCH  35  38
ATOM     38  C   UNL A   1      35.940  30.112  28.270  1.00  0.00     0.039 A 
ATOM     39  C   UNL A   1      36.871  30.192  27.234  1.00  0.00     0.014 A 
ATOM     40  C   UNL A   1      36.299  29.558  29.503  1.00  0.00     0.014 A 
ATOM     41  C   UNL A   1      38.177  29.750  27.446  1.00  0.00     0.010 A 
ATOM     42  C   UNL A   1      37.621  29.204  29.741  1.00  0.00     0.010 A 
ATOM     43  C   UNL A   1      38.568  29.273  28.709  1.00  0.00    -0.014 A 
BRANCH  43  44
ATOM     44  C   UNL A   1      39.953  28.805  28.960  1.00  0.00     0.031 A 
ATOM     45  C   UNL A   1      40.956  29.736  29.586  1.00  0.00     0.074 A 
ATOM     46  C   UNL A   1      40.323  27.569  28.580  1.00  0.00     0.049 A 
ATOM     47  N   UNL A   1      42.220  29.528  29.856  1.00  0.00    -0.248 NA
ATOM     48  C   UNL A   1      40.483  31.088  29.927  1.00  0.00     0.031 C 
ATOM     49  C   UNL A   1      39.454  26.582  27.936  1.00  0.00     0.029 A 
ATOM     50  N   UNL A   1      41.532  26.929  28.686  1.00  0.00    -0.354 N 
ATOM     51  C   UNL A   1      42.695  30.727  30.373  1.00  0.00     0.074 A 
ATOM     52  C   UNL A   1      41.602  31.673  30.324  1.00  0.00     0.031 C 
ATOM     53  C   UNL A   1      40.147  25.448  27.742  1.00  0.00     0.029 A 
ATOM     54  C   UNL A   1      41.517  25.642  28.206  1.00  0.00     0.049 A 
ATOM     55  H   UNL A   1      42.334  27.353  29.069  1.00  0.00     0.167 HD
ATOM     56  C   UNL A   1      43.923  31.012  30.868  1.00  0.00     0.031 A 
ATOM     57  C   UNL A   1      42.498  24.723  28.146  1.00  0.00     0.031 A 
ATOM     58  C   UNL A   1      45.007  30.069  30.920  1.00  0.00     0.049 A 
ATOM     59  C   UNL A   1      43.862  25.068  28.676  1.00  0.00     0.074 A 
ATOM     60  C   UNL A   1      46.273  30.237  31.452  1.00  0.00     0.029 A 
ATOM     61  N   UNL A   1      44.955  28.779  30.411  1.00  0.00    -0.354 N 
ATOM     62  N   UNL A   1      44.278  26.182  29.228  1.00  0.00    -0.248 NA
ATOM     63  C   UNL A   1      44.887  24.020  28.586  1.00  0.00     0.031 C 
ATOM     64  C   UNL A   1      47.008  29.073  31.207  1.00  0.00     0.029 A 
ATOM     65  C   UNL A   1      46.177  28.152  30.589  1.00  0.00     0.049 A 
ATOM     66  H   UNL A   1      44.166  28.370  29.988  1.00  0.00     0.167 HD
ATOM     67  C   UNL A   1      45.600  25.957  29.587  1.00  0.00     0.074 A 
ATOM     68  C   UNL A   1      45.912  24.597  29.196  1.00  0.00     0.031 C 
ATOM     69  C   UNL A   1      46.475  26.798  30.193  1.00  0.00     0.031 A 
BRANCH  56  70
ATOM     70  C   UNL A   1      44.157  32.415  31.363  1.00  0.00    -0.014 A 
ATOM     71  C   UNL A   1      43.997  32.753  32.718  1.00  0.00     0.009 A 
ATOM     72  C   UNL A   1      44.544  33.416  30.459  1.00  0.00     0.009 A 
ATOM     73  C   UNL A   1      44.164  34.073  33.144  1.00  0.00     0.001 A 
ATOM     74  C   UNL A   1      44.747  34.727  30.894  1.00  0.00     0.001 A 
ATOM     75  C   UNL A   1      44.542  35.058  32.233  1.00  0.00     0.000 A 
ENDBRANCH  56  70
BRANCH  57  76
ATOM     76  C   UNL A   1      42.213  23.370  27.598  1.00  0.00    -0.014 A 
ATOM     77  C   UNL A   1      42.555  23.055  26.274  1.00  0.00     0.009 A 
ATOM     78  C   UNL A   1      41.609  22.385  28.395  1.00  0.00     0.009 A 
ATOM     79  C   UNL A   1      42.275  21.791  25.751  1.00  0.00     0.001 A 
ATOM     80  C   UNL A   1      41.358  21.111  27.879  1.00  0.00     0.001 A 
ATOM     81  C   UNL A   1      41.682  20.819  26.556  1.00  0.00     0.000 A 
ENDBRANCH  57  76
BRANCH  69  82
ATOM     82  C   UNL A   1      47.840  26.255  30.521  1.00  0.00    -0.014 A 
ATOM     83  C   UNL A   1      48.151  25.761  31.796  1.00  0.00     0.009 A 
ATOM     84  C   UNL A   1      48.820  26.205  29.515  1.00  0.00     0.009 A 
ATOM     85  C   UNL A   1      49.429  25.264  32.068  1.00  0.00     0.001 A 
ATOM     86  C   UNL A   1      50.083  25.676  29.780  1.00  0.00     0.001 A 
ATOM     87  C   UNL A   1      50.390  25.217  31.059  1.00  0.00     0.000 A 
ENDBRANCH  69  82
ENDBRANCH  43  44
ENDBRANCH  35  38
ENDBRANCH  33  34
ENDBRANCH  32  33
ENDBRANCH  31  32
ENDBRANCH  30  31
ENDBRANCH   1  30
TORSDOF 18
ENDMDL
MODEL 2
REMARK VINA RESULT:      -8.0      3.293      9.787
REMARK SMILES C[C@@H](C(=O)NCCCCCCNC(=O)c1ccc(-c2c3nc(c(-c4ccccc4)c4ccc([nH]4)c(-c4ccccc4)c4nc(c(-c5ccccc5)c5ccc2[nH]5)C=C4)C=C3)cc1)c1ccc(-c2cccc(OC(=O)NC3CC3)c2)c(F)c1
REMARK SMILES IDX 7 1 6 2 5 3 3 4 4 5 2 7 1 8 63 9 64 10 82 11 65 12 80 13
REMARK SMILES IDX 66 14 81 15 67 16 68 17 79 18 69 19 71 20 70 21 72 22 73 23
REMARK SMILES IDX 74 24 75 25 76 27 77 28 78 29 8 30 9 31 10 32 11 33 12 34
REMARK SMILES IDX 13 35 14 37 15 38 16 39 62 40 17 41 61 42 18 43 19 44 20 45
REMARK SMILES IDX 55 46 21 47 60 48 54 49 56 50 22 51 59 52 53 53 52 54 23 56
REMARK SMILES IDX 45 57 30 58 44 59 31 60 34 61 43 62 57 63 32 64 33 65 42 67
REMARK SMILES IDX 58 68 35 69 24 70 25 71 29 72 26 73 28 74 27 75 46 76 47 77
REMARK SMILES IDX 51 78 48 79 50 80 49 81 36 82 37 83 41 84 38 85 40 86 39 87
REMARK H PARENT 5 6 75 26 12 36 56 55 34 66
REMARK Flexibility Score: inf
ROOT
ATOM      1  C   UNL A   1      44.061  23.737  28.370  1.00  0.00     0.021 C 
ENDROOT
BRANCH   1   2
ATOM      2  C   UNL A   1      42.662  24.223  28.751  1.00  0.00     0.116 C 
BRANCH   2   3
ATOM      3  N   UNL A   1      41.658  23.369  28.164  1.00  0.00    -0.356 N 
ATOM      4  C   UNL A   1      40.641  23.656  27.308  1.00  0.00     0.227 C 
ATOM      5  O   UNL A   1      39.894  22.711  27.046  1.00  0.00    -0.274 OA
ATOM      6  H   UNL A   1      41.718  22.423  28.426  1.00  0.00     0.163 HD
BRANCH   4   7
ATOM      7  C   UNL A   1      40.525  25.060  26.685  1.00  0.00     0.105 C 
ATOM      8  C   UNL A   1      41.762  25.492  25.890  1.00  0.00     0.023 C 
BRANCH   7   9
ATOM      9  C   UNL A   1      40.223  26.172  27.683  1.00  0.00    -0.033 A 
ATOM     10  C   UNL A   1      39.299  25.948  28.716  1.00  0.00     0.005 A 
ATOM     11  C   UNL A   1      40.745  27.462  27.528  1.00  0.00     0.044 A 
ATOM     12  C   UNL A   1      38.901  26.991  29.561  1.00  0.00     0.012 A 
ATOM     13  C   UNL A   1      40.372  28.483  28.389  1.00  0.00     0.131 A 
ATOM     14  C   UNL A   1      39.422  28.282  29.398  1.00  0.00     0.018 A 
ATOM     15  F   UNL A   1      40.918  29.695  28.198  1.00  0.00    -0.206 F 
BRANCH  14  16
ATOM     16  C   UNL A   1      38.911  29.418  30.171  1.00  0.00    -0.012 A 
ATOM     17  C   UNL A   1      39.223  29.611  31.523  1.00  0.00     0.009 A 
ATOM     18  C   UNL A   1      38.069  30.346  29.535  1.00  0.00     0.056 A 
ATOM     19  C   UNL A   1      38.719  30.715  32.216  1.00  0.00     0.004 A 
ATOM     20  C   UNL A   1      37.573  31.446  30.221  1.00  0.00     0.133 A 
ATOM     21  C   UNL A   1      37.894  31.635  31.564  1.00  0.00     0.047 A 
BRANCH  20  22
ATOM     22  O   UNL A   1      36.735  32.427  29.638  1.00  0.00    -0.410 OA
BRANCH  22  23
ATOM     23  C   UNL A   1      37.111  33.720  29.277  1.00  0.00     0.412 C 
ATOM     24  O   UNL A   1      38.257  34.132  29.123  1.00  0.00    -0.224 OA
ATOM     25  N   UNL A   1      36.057  34.576  29.099  1.00  0.00    -0.318 N 
ATOM     26  H   UNL A   1      36.304  35.505  28.886  1.00  0.00     0.167 HD
BRANCH  25  27
ATOM     27  C   UNL A   1      34.659  34.324  29.175  1.00  0.00     0.085 C 
ATOM     28  C   UNL A   1      33.690  34.908  30.161  1.00  0.00     0.027 C 
ATOM     29  C   UNL A   1      33.710  35.419  28.754  1.00  0.00     0.027 C 
ENDBRANCH  25  27
ENDBRANCH  22  23
ENDBRANCH  20  22
ENDBRANCH  14  16
ENDBRANCH   7   9
ENDBRANCH   4   7
ENDBRANCH   2   3
ENDBRANCH   1   2
BRANCH   1  30
ATOM     30  C   UNL A   1      44.963  24.832  27.780  1.00  0.00     0.002 C 
BRANCH  30  31
ATOM     31  C   UNL A   1      46.465  24.567  27.916  1.00  0.00     0.002 C 
BRANCH  31  32
ATOM     32  C   UNL A   1      47.211  24.453  26.587  1.00  0.00     0.021 C 
BRANCH  32  33
ATOM     33  C   UNL A   1      46.366  24.812  25.373  1.00  0.00     0.116 C 
BRANCH  33  34
ATOM     34  N   UNL A   1      46.959  25.890  24.601  1.00  0.00    -0.352 N 
ATOM     35  C   UNL A   1      46.782  27.243  24.741  1.00  0.00     0.251 C 
ATOM     36  H   UNL A   1      47.571  25.613  23.882  1.00  0.00     0.163 HD
ATOM     37  O   UNL A   1      47.181  28.016  23.876  1.00  0.00    -0.269 OA
BRANCH  35  38
ATOM     38  C   UNL A   1      46.089  27.762  25.937  1.00  0.00     0.039 A 
ATOM     39  C   UNL A   1      46.846  28.179  27.032  1.00  0.00     0.014 A 
ATOM     40  C   UNL A   1      44.694  27.837  25.972  1.00  0.00     0.014 A 
ATOM     41  C   UNL A   1      46.204  28.709  28.152  1.00  0.00     0.010 A 
ATOM     42  C   UNL A   1      44.062  28.448  27.047  1.00  0.00     0.010 A 
ATOM     43  C   UNL A   1      44.808  28.868  28.159  1.00  0.00    -0.014 A 
BRANCH  43  44
ATOM     44  C   UNL A   1      44.104  29.436  29.334  1.00  0.00     0.031 A 
ATOM     45  C   UNL A   1      43.688  30.883  29.331  1.00  0.00     0.074 A 
ATOM     46  C   UNL A   1      43.885  28.672  30.420  1.00  0.00     0.049 A 
ATOM     47  N   UNL A   1      43.094  31.574  30.271  1.00  0.00    -0.248 NA
ATOM     48  C   UNL A   1      44.009  31.662  28.124  1.00  0.00     0.031 C 
ATOM     49  C   UNL A   1      44.266  27.265  30.560  1.00  0.00     0.029 A 
ATOM     50  N   UNL A   1      43.283  28.974  31.615  1.00  0.00    -0.354 N 
ATOM     51  C   UNL A   1      42.994  32.869  29.778  1.00  0.00     0.074 A 
ATOM     52  C   UNL A   1      43.639  32.881  28.484  1.00  0.00     0.031 C 
ATOM     53  C   UNL A   1      43.851  26.816  31.755  1.00  0.00     0.029 A 
ATOM     54  C   UNL A   1      43.217  27.911  32.481  1.00  0.00     0.049 A 
ATOM     55  H   UNL A   1      42.931  29.869  31.830  1.00  0.00     0.167 HD
ATOM     56  C   UNL A   1      42.397  33.948  30.338  1.00  0.00     0.031 A 
ATOM     57  C   UNL A   1      42.703  27.828  33.722  1.00  0.00     0.031 A 
ATOM     58  C   UNL A   1      41.752  33.933  31.623  1.00  0.00     0.049 A 
ATOM     59  C   UNL A   1      42.069  29.045  34.338  1.00  0.00     0.074 A 
ATOM     60  C   UNL A   1      41.069  34.954  32.258  1.00  0.00     0.029 A 
ATOM     61  N   UNL A   1      41.719  32.838  32.475  1.00  0.00    -0.354 N 
ATOM     62  N   UNL A   1      41.917  30.245  33.831  1.00  0.00    -0.248 NA
ATOM     63  C   UNL A   1      41.523  28.889  35.692  1.00  0.00     0.031 C 
ATOM     64  C   UNL A   1      40.679  34.499  33.522  1.00  0.00     0.029 A 
ATOM     65  C   UNL A   1      41.053  33.170  33.644  1.00  0.00     0.049 A 
ATOM     66  H   UNL A   1      42.109  31.957  32.278  1.00  0.00     0.167 HD
ATOM     67  C   UNL A   1      41.224  30.975  34.788  1.00  0.00     0.074 A 
ATOM     68  C   UNL A   1      40.979  30.079  35.899  1.00  0.00     0.031 C 
ATOM     69  C   UNL A   1      40.819  32.269  34.745  1.00  0.00     0.031 A 
BRANCH  56  70
ATOM     70  C   UNL A   1      42.448  35.240  29.567  1.00  0.00    -0.014 A 
ATOM     71  C   UNL A   1      41.499  35.542  28.575  1.00  0.00     0.009 A 
ATOM     72  C   UNL A   1      43.461  36.173  29.837  1.00  0.00     0.009 A 
ATOM     73  C   UNL A   1      41.600  36.721  27.832  1.00  0.00     0.001 A 
ATOM     74  C   UNL A   1      43.537  37.367  29.119  1.00  0.00     0.001 A 
ATOM     75  C   UNL A   1      42.616  37.634  28.107  1.00  0.00     0.000 A 
ENDBRANCH  56  70
BRANCH  57  76
ATOM     76  C   UNL A   1      42.730  26.533  34.452  1.00  0.00    -0.014 A 
ATOM     77  C   UNL A   1      43.953  25.944  34.807  1.00  0.00     0.009 A 
ATOM     78  C   UNL A   1      41.537  25.882  34.804  1.00  0.00     0.009 A 
ATOM     79  C   UNL A   1      43.983  24.719  35.477  1.00  0.00     0.001 A 
ATOM     80  C   UNL A   1      41.569  24.672  35.502  1.00  0.00     0.001 A 
ATOM     81  C   UNL A   1      42.791  24.088  35.829  1.00  0.00     0.000 A 
ENDBRANCH  57  76
BRANCH  69  82
ATOM     82  C   UNL A   1      40.022  32.781  35.914  1.00  0.00    -0.014 A 
ATOM     83  C   UNL A   1      40.637  33.382  37.022  1.00  0.00     0.009 A 
ATOM     84  C   UNL A   1      38.619  32.691  35.882  1.00  0.00     0.009 A 
ATOM     85  C   UNL A   1      39.868  33.846  38.092  1.00  0.00     0.001 A 
ATOM     86  C   UNL A   1      37.852  33.188  36.936  1.00  0.00     0.001 A 
ATOM     87  C   UNL A   1      38.477  33.754  38.045  1.00  0.00     0.000 A 
ENDBRANCH  69  82
ENDBRANCH  43  44
ENDBRANCH  35  38
ENDBRANCH  33  34
ENDBRANCH  32  33
ENDBRANCH  31  32
ENDBRANCH  30  31
ENDBRANCH   1  30
TORSDOF 18
ENDMDL
MODEL 3
REMARK VINA RESULT:      -7.7      3.288     10.592
REMARK SMILES C[C@@H](C(=O)NCCCCCCNC(=O)c1ccc(-c2c3nc(c(-c4ccccc4)c4ccc([nH]4)c(-c4ccccc4)c4nc(c(-c5ccccc5)c5ccc2[nH]5)C=C4)C=C3)cc1)c1ccc(-c2cccc(OC(=O)NC3CC3)c2)c(F)c1
REMARK SMILES IDX 7 1 6 2 5 3 3 4 4 5 2 7 1 8 63 9 64 10 82 11 65 12 80 13
REMARK SMILES IDX 66 14 81 15 67 16 68 17 79 18 69 19 71 20 70 21 72 22 73 23
REMARK SMILES IDX 74 24 75 25 76 27 77 28 78 29 8 30 9 31 10 32 11 33 12 34
REMARK SMILES IDX 13 35 14 37 15 38 16 39 62 40 17 41 61 42 18 43 19 44 20 45
REMARK SMILES IDX 55 46 21 47 60 48 54 49 56 50 22 51 59 52 53 53 52 54 23 56
REMARK SMILES IDX 45 57 30 58 44 59 31 60 34 61 43 62 57 63 32 64 33 65 42 67
REMARK SMILES IDX 58 68 35 69 24 70 25 71 29 72 26 73 28 74 27 75 46 76 47 77
REMARK SMILES IDX 51 78 48 79 50 80 49 81 36 82 37 83 41 84 38 85 40 86 39 87
REMARK H PARENT 5 6 75 26 12 36 56 55 34 66
REMARK Flexibility Score: inf
ROOT
ATOM      1  C   UNL A   1      44.259  23.702  28.496  1.00  0.00     0.021 C 
ENDROOT
BRANCH   1   2
ATOM      2  C   UNL A   1      42.859  24.134  28.935  1.00  0.00     0.116 C 
BRANCH   2   3
ATOM      3  N   UNL A   1      41.869  23.219  28.421  1.00  0.00    -0.356 N 
ATOM      4  C   UNL A   1      40.830  23.425  27.567  1.00  0.00     0.227 C 
ATOM      5  O   UNL A   1      40.105  22.446  27.379  1.00  0.00    -0.274 OA
ATOM      6  H   UNL A   1      41.958  22.294  28.742  1.00  0.00     0.163 HD
BRANCH   4   7
ATOM      7  C   UNL A   1      40.667  24.782  26.857  1.00  0.00     0.105 C 
ATOM      8  C   UNL A   1      41.864  25.174  25.982  1.00  0.00     0.023 C 
BRANCH   7   9
ATOM      9  C   UNL A   1      40.392  25.955  27.792  1.00  0.00    -0.033 A 
ATOM     10  C   UNL A   1      39.500  25.796  28.864  1.00  0.00     0.005 A 
ATOM     11  C   UNL A   1      40.907  27.233  27.541  1.00  0.00     0.044 A 
ATOM     12  C   UNL A   1      39.125  26.891  29.652  1.00  0.00     0.012 A 
ATOM     13  C   UNL A   1      40.557  28.306  28.346  1.00  0.00     0.131 A 
ATOM     14  C   UNL A   1      39.638  28.168  29.393  1.00  0.00     0.018 A 
ATOM     15  F   UNL A   1      41.095  29.504  28.063  1.00  0.00    -0.206 F 
BRANCH  14  16
ATOM     16  C   UNL A   1      39.147  29.351  30.107  1.00  0.00    -0.012 A 
ATOM     17  C   UNL A   1      39.626  29.721  31.371  1.00  0.00     0.009 A 
ATOM     18  C   UNL A   1      38.151  30.141  29.507  1.00  0.00     0.056 A 
ATOM     19  C   UNL A   1      39.134  30.863  32.009  1.00  0.00     0.004 A 
ATOM     20  C   UNL A   1      37.667  31.278  30.137  1.00  0.00     0.133 A 
ATOM     21  C   UNL A   1      38.154  31.644  31.391  1.00  0.00     0.047 A 
BRANCH  20  22
ATOM     22  O   UNL A   1      36.679  32.127  29.583  1.00  0.00    -0.410 OA
BRANCH  22  23
ATOM     23  C   UNL A   1      35.337  32.180  29.957  1.00  0.00     0.412 C 
ATOM     24  O   UNL A   1      34.887  32.648  30.999  1.00  0.00    -0.224 OA
ATOM     25  N   UNL A   1      34.481  31.634  29.039  1.00  0.00    -0.318 N 
ATOM     26  H   UNL A   1      33.533  31.623  29.304  1.00  0.00     0.167 HD
BRANCH  25  27
ATOM     27  C   UNL A   1      34.756  31.080  27.757  1.00  0.00     0.085 C 
ATOM     28  C   UNL A   1      35.246  29.692  27.462  1.00  0.00     0.027 C 
ATOM     29  C   UNL A   1      33.812  30.039  27.210  1.00  0.00     0.027 C 
ENDBRANCH  25  27
ENDBRANCH  22  23
ENDBRANCH  20  22
ENDBRANCH  14  16
ENDBRANCH   7   9
ENDBRANCH   4   7
ENDBRANCH   2   3
ENDBRANCH   1   2
BRANCH   1  30
ATOM     30  C   UNL A   1      45.175  24.869  28.096  1.00  0.00     0.002 C 
BRANCH  30  31
ATOM     31  C   UNL A   1      46.673  24.579  28.219  1.00  0.00     0.002 C 
BRANCH  31  32
ATOM     32  C   UNL A   1      47.432  24.589  26.892  1.00  0.00     0.021 C 
BRANCH  32  33
ATOM     33  C   UNL A   1      46.530  24.620  25.667  1.00  0.00     0.116 C 
BRANCH  33  34
ATOM     34  N   UNL A   1      46.959  25.620  24.705  1.00  0.00    -0.352 N 
ATOM     35  C   UNL A   1      46.684  26.964  24.684  1.00  0.00     0.251 C 
ATOM     36  H   UNL A   1      47.524  25.290  23.970  1.00  0.00     0.163 HD
ATOM     37  O   UNL A   1      46.937  27.636  23.691  1.00  0.00    -0.269 OA
BRANCH  35  38
ATOM     38  C   UNL A   1      46.062  27.593  25.867  1.00  0.00     0.039 A 
ATOM     39  C   UNL A   1      46.881  28.095  26.878  1.00  0.00     0.014 A 
ATOM     40  C   UNL A   1      44.671  27.686  25.971  1.00  0.00     0.014 A 
ATOM     41  C   UNL A   1      46.305  28.728  27.980  1.00  0.00     0.010 A 
ATOM     42  C   UNL A   1      44.104  28.396  27.022  1.00  0.00     0.010 A 
ATOM     43  C   UNL A   1      44.913  28.903  28.050  1.00  0.00    -0.014 A 
BRANCH  43  44
ATOM     44  C   UNL A   1      44.279  29.579  29.208  1.00  0.00     0.031 A 
ATOM     45  C   UNL A   1      43.937  28.789  30.442  1.00  0.00     0.074 A 
ATOM     46  C   UNL A   1      43.963  30.885  29.133  1.00  0.00     0.049 A 
ATOM     47  N   UNL A   1      43.351  29.187  31.543  1.00  0.00    -0.248 NA
ATOM     48  C   UNL A   1      44.271  27.355  30.424  1.00  0.00     0.031 C 
ATOM     49  C   UNL A   1      44.214  31.755  27.981  1.00  0.00     0.029 A 
ATOM     50  N   UNL A   1      43.364  31.711  30.049  1.00  0.00    -0.354 N 
ATOM     51  C   UNL A   1      43.227  28.052  32.333  1.00  0.00     0.074 A 
ATOM     52  C   UNL A   1      43.742  26.940  31.564  1.00  0.00     0.031 C 
ATOM     53  C   UNL A   1      43.810  33.001  28.278  1.00  0.00     0.029 A 
ATOM     54  C   UNL A   1      43.232  33.008  29.618  1.00  0.00     0.049 A 
ATOM     55  H   UNL A   1      43.057  31.402  30.933  1.00  0.00     0.167 HD
ATOM     56  C   UNL A   1      42.749  27.943  33.596  1.00  0.00     0.031 A 
ATOM     57  C   UNL A   1      42.705  34.082  30.234  1.00  0.00     0.031 A 
ATOM     58  C   UNL A   1      42.242  29.050  34.362  1.00  0.00     0.049 A 
ATOM     59  C   UNL A   1      42.155  33.935  31.625  1.00  0.00     0.074 A 
ATOM     60  C   UNL A   1      41.787  29.060  35.667  1.00  0.00     0.029 A 
ATOM     61  N   UNL A   1      42.114  30.346  33.882  1.00  0.00    -0.354 N 
ATOM     62  N   UNL A   1      42.109  32.870  32.388  1.00  0.00    -0.248 NA
ATOM     63  C   UNL A   1      41.598  35.145  32.243  1.00  0.00     0.031 C 
ATOM     64  C   UNL A   1      41.322  30.347  35.958  1.00  0.00     0.029 A 
ATOM     65  C   UNL A   1      41.557  31.157  34.858  1.00  0.00     0.049 A 
ATOM     66  H   UNL A   1      42.380  30.645  32.984  1.00  0.00     0.167 HD
ATOM     67  C   UNL A   1      41.554  33.289  33.591  1.00  0.00     0.074 A 
ATOM     68  C   UNL A   1      41.290  34.707  33.456  1.00  0.00     0.031 C 
ATOM     69  C   UNL A   1      41.296  32.567  34.710  1.00  0.00     0.031 A 
BRANCH  56  70
ATOM     70  C   UNL A   1      42.730  26.568  34.209  1.00  0.00    -0.014 A 
ATOM     71  C   UNL A   1      41.595  26.076  34.875  1.00  0.00     0.009 A 
ATOM     72  C   UNL A   1      43.868  25.751  34.120  1.00  0.00     0.009 A 
ATOM     73  C   UNL A   1      41.621  24.820  35.487  1.00  0.00     0.001 A 
ATOM     74  C   UNL A   1      43.878  24.481  34.699  1.00  0.00     0.001 A 
ATOM     75  C   UNL A   1      42.760  24.022  35.395  1.00  0.00     0.000 A 
ENDBRANCH  56  70
BRANCH  57  76
ATOM     76  C   UNL A   1      42.709  35.404  29.552  1.00  0.00    -0.014 A 
ATOM     77  C   UNL A   1      41.715  35.721  28.613  1.00  0.00     0.009 A 
ATOM     78  C   UNL A   1      43.698  36.357  29.840  1.00  0.00     0.009 A 
ATOM     79  C   UNL A   1      41.725  36.954  27.959  1.00  0.00     0.001 A 
ATOM     80  C   UNL A   1      43.688  37.603  29.207  1.00  0.00     0.001 A 
ATOM     81  C   UNL A   1      42.707  37.896  28.261  1.00  0.00     0.000 A 
ENDBRANCH  57  76
BRANCH  69  82
ATOM     82  C   UNL A   1      40.744  33.308  35.897  1.00  0.00    -0.014 A 
ATOM     83  C   UNL A   1      41.582  33.937  36.829  1.00  0.00     0.009 A 
ATOM     84  C   UNL A   1      39.352  33.406  36.061  1.00  0.00     0.009 A 
ATOM     85  C   UNL A   1      41.038  34.616  37.923  1.00  0.00     0.001 A 
ATOM     86  C   UNL A   1      38.811  34.115  37.134  1.00  0.00     0.001 A 
ATOM     87  C   UNL A   1      39.655  34.709  38.070  1.00  0.00     0.000 A 
ENDBRANCH  69  82
ENDBRANCH  43  44
ENDBRANCH  35  38
ENDBRANCH  33  34
ENDBRANCH  32  33
ENDBRANCH  31  32
ENDBRANCH  30  31
ENDBRANCH   1  30
TORSDOF 18
ENDMDL
