MODEL 1
REMARK VINA RESULT:     -10.9      0.000      0.000
REMARK SMILES CCNC(=O)c1ccc(N[C@@H]2COC[C@@]2(C)C(=O)NCCCCCCNC(=O)c2ccc(-c3c4nc(c(-c5ccccc5)c5ccc([nH]5)c(-c5ccccc5)c5nc(c(-c6ccccc6)c6ccc3[nH]6)C=C5)C=C4)cc2)nn1
REMARK SMILES IDX 21 1 20 2 19 3 17 4 18 5 15 7 11 8 12 9 13 10 14 11 16 12
REMARK SMILES IDX 10 13 9 15 6 16 7 17 78 18 8 19 77 20 4 21 3 22 5 24 2 25
REMARK SMILES IDX 1 26 22 27 23 28 24 29 25 30 26 31 27 32 28 34 29 35 30 36
REMARK SMILES IDX 76 37 31 38 75 39 32 40 33 41 34 42 69 43 35 44 74 45 68 46
REMARK SMILES IDX 70 47 36 48 73 49 67 50 66 51 37 53 59 54 44 55 58 56 45 57
REMARK SMILES IDX 48 58 57 59 71 60 46 61 47 62 56 64 72 65 49 66 38 67 39 68
REMARK SMILES IDX 43 69 40 70 42 71 41 72 60 73 61 74 65 75 62 76 64 77 63 78
REMARK SMILES IDX 50 79 51 80 55 81 52 82 54 83 53 84
REMARK H PARENT 19 6 10 14 3 23 26 33 70 52 48 63
REMARK Flexibility Score: inf
ROOT
ATOM      1  C   UNL A   1      32.947  28.587  26.619  1.00  0.00     0.021 C 
ENDROOT
BRANCH   1   2
ATOM      2  C   UNL A   1      32.329  27.283  26.136  1.00  0.00     0.116 C 
BRANCH   2   3
ATOM      3  N   UNL A   1      33.165  26.619  25.155  1.00  0.00    -0.355 N 
ATOM      4  C   UNL A   1      32.926  26.282  23.856  1.00  0.00     0.230 C 
ATOM      5  O   UNL A   1      33.852  25.734  23.251  1.00  0.00    -0.274 OA
ATOM      6  H   UNL A   1      34.058  26.368  25.484  1.00  0.00     0.163 HD
BRANCH   4   7
ATOM      7  C   UNL A   1      31.589  26.601  23.180  1.00  0.00     0.092 C 
ATOM      8  C   UNL A   1      30.428  25.955  23.968  1.00  0.00     0.124 C 
ATOM      9  C   UNL A   1      29.254  26.880  23.709  1.00  0.00     0.186 C 
ATOM     10  O   UNL A   1      29.813  28.200  23.633  1.00  0.00    -0.378 OA
ATOM     11  C   UNL A   1      31.219  28.082  23.359  1.00  0.00     0.179 C 
ATOM     12  C   UNL A   1      31.657  26.229  21.690  1.00  0.00     0.026 C 
BRANCH   8  13
ATOM     13  N   UNL A   1      30.187  24.524  23.794  1.00  0.00    -0.362 N 
ATOM     14  H   UNL A   1      29.327  24.254  23.399  1.00  0.00     0.162 HD
BRANCH  13  15
ATOM     15  C   UNL A   1      31.068  23.523  24.138  1.00  0.00     0.149 A 
ATOM     16  C   UNL A   1      32.301  21.172  24.734  1.00  0.00     0.150 A 
ATOM     17  C   UNL A   1      32.298  21.585  23.416  1.00  0.00     0.040 A 
ATOM     18  N   UNL A   1      31.794  21.919  25.731  1.00  0.00    -0.143 NA
ATOM     19  C   UNL A   1      31.678  22.795  23.121  1.00  0.00     0.051 A 
ATOM     20  N   UNL A   1      31.184  23.108  25.417  1.00  0.00    -0.132 NA
BRANCH  16  21
ATOM     21  C   UNL A   1      32.869  19.864  25.106  1.00  0.00     0.271 C 
ATOM     22  N   UNL A   1      34.224  19.771  25.317  1.00  0.00    -0.351 N 
ATOM     23  H   UNL A   1      34.577  18.868  25.487  1.00  0.00     0.163 HD
ATOM     24  O   UNL A   1      32.150  18.873  25.181  1.00  0.00    -0.267 OA
BRANCH  22  25
ATOM     25  C   UNL A   1      35.194  20.849  25.316  1.00  0.00     0.113 C 
ATOM     26  C   UNL A   1      36.576  20.338  24.961  1.00  0.00     0.027 C 
ENDBRANCH  22  25
ENDBRANCH  16  21
ENDBRANCH  13  15
ENDBRANCH   8  13
ENDBRANCH   4   7
ENDBRANCH   2   3
ENDBRANCH   1   2
BRANCH   1  27
ATOM     27  C   UNL A   1      31.934  29.601  27.151  1.00  0.00     0.002 C 
BRANCH  27  28
ATOM     28  C   UNL A   1      31.419  30.607  26.116  1.00  0.00     0.002 C 
BRANCH  28  29
ATOM     29  C   UNL A   1      31.304  32.052  26.610  1.00  0.00     0.021 C 
BRANCH  29  30
ATOM     30  C   UNL A   1      32.628  32.695  27.004  1.00  0.00     0.116 C 
BRANCH  30  31
ATOM     31  N   UNL A   1      32.436  33.951  27.709  1.00  0.00    -0.352 N 
ATOM     32  C   UNL A   1      33.157  34.481  28.749  1.00  0.00     0.251 C 
ATOM     33  H   UNL A   1      31.682  34.500  27.395  1.00  0.00     0.163 HD
ATOM     34  O   UNL A   1      32.743  35.462  29.353  1.00  0.00    -0.269 OA
BRANCH  32  35
ATOM     35  C   UNL A   1      34.432  33.848  29.149  1.00  0.00     0.039 A 
ATOM     36  C   UNL A   1      35.601  34.205  28.478  1.00  0.00     0.014 A 
ATOM     37  C   UNL A   1      34.469  32.903  30.179  1.00  0.00     0.014 A 
ATOM     38  C   UNL A   1      36.820  33.653  28.873  1.00  0.00     0.010 A 
ATOM     39  C   UNL A   1      35.693  32.413  30.623  1.00  0.00     0.010 A 
ATOM     40  C   UNL A   1      36.881  32.776  29.969  1.00  0.00    -0.014 A 
BRANCH  40  41
ATOM     41  C   UNL A   1      38.174  32.216  30.436  1.00  0.00     0.031 A 
ATOM     42  C   UNL A   1      38.674  30.909  29.880  1.00  0.00     0.074 A 
ATOM     43  C   UNL A   1      38.878  32.859  31.388  1.00  0.00     0.049 A 
ATOM     44  N   UNL A   1      39.744  30.230  30.205  1.00  0.00    -0.248 NA
ATOM     45  C   UNL A   1      37.852  30.271  28.837  1.00  0.00     0.031 C 
ATOM     46  C   UNL A   1      38.492  34.121  32.025  1.00  0.00     0.029 A 
ATOM     47  N   UNL A   1      40.070  32.538  31.989  1.00  0.00    -0.354 N 
ATOM     48  C   UNL A   1      39.723  29.090  29.411  1.00  0.00     0.074 A 
ATOM     49  C   UNL A   1      38.504  29.135  28.634  1.00  0.00     0.031 C 
ATOM     50  C   UNL A   1      39.441  34.479  32.905  1.00  0.00     0.029 A 
ATOM     51  C   UNL A   1      40.478  33.452  32.931  1.00  0.00     0.049 A 
ATOM     52  H   UNL A   1      40.583  31.727  31.767  1.00  0.00     0.167 HD
ATOM     53  C   UNL A   1      40.647  28.104  29.316  1.00  0.00     0.031 A 
ATOM     54  C   UNL A   1      41.560  33.456  33.732  1.00  0.00     0.031 A 
ATOM     55  C   UNL A   1      41.861  28.058  30.085  1.00  0.00     0.049 A 
ATOM     56  C   UNL A   1      42.543  32.318  33.640  1.00  0.00     0.074 A 
ATOM     57  C   UNL A   1      42.871  27.112  30.043  1.00  0.00     0.029 A 
ATOM     58  N   UNL A   1      42.233  28.999  31.031  1.00  0.00    -0.354 N 
ATOM     59  N   UNL A   1      42.533  31.276  32.846  1.00  0.00    -0.248 NA
ATOM     60  C   UNL A   1      43.697  32.369  34.550  1.00  0.00     0.031 C 
ATOM     61  C   UNL A   1      43.831  27.456  30.999  1.00  0.00     0.029 A 
ATOM     62  C   UNL A   1      43.449  28.648  31.590  1.00  0.00     0.049 A 
ATOM     63  H   UNL A   1      41.710  29.799  31.270  1.00  0.00     0.167 HD
ATOM     64  C   UNL A   1      43.694  30.571  33.132  1.00  0.00     0.074 A 
ATOM     65  C   UNL A   1      44.395  31.313  34.158  1.00  0.00     0.031 C 
ATOM     66  C   UNL A   1      44.142  29.409  32.596  1.00  0.00     0.031 A 
BRANCH  53  67
ATOM     67  C   UNL A   1      40.387  26.997  28.333  1.00  0.00    -0.014 A 
ATOM     68  C   UNL A   1      40.910  27.052  27.031  1.00  0.00     0.009 A 
ATOM     69  C   UNL A   1      39.668  25.858  28.729  1.00  0.00     0.009 A 
ATOM     70  C   UNL A   1      40.697  26.000  26.138  1.00  0.00     0.001 A 
ATOM     71  C   UNL A   1      39.483  24.795  27.844  1.00  0.00     0.001 A 
ATOM     72  C   UNL A   1      39.991  24.869  26.548  1.00  0.00     0.000 A 
ENDBRANCH  53  67
BRANCH  54  73
ATOM     73  C   UNL A   1      41.786  34.563  34.700  1.00  0.00    -0.014 A 
ATOM     74  C   UNL A   1      42.533  35.693  34.333  1.00  0.00     0.009 A 
ATOM     75  C   UNL A   1      41.306  34.469  36.016  1.00  0.00     0.009 A 
ATOM     76  C   UNL A   1      42.840  36.678  35.275  1.00  0.00     0.001 A 
ATOM     77  C   UNL A   1      41.581  35.475  36.946  1.00  0.00     0.001 A 
ATOM     78  C   UNL A   1      42.362  36.569  36.580  1.00  0.00     0.000 A 
ENDBRANCH  54  73
BRANCH  66  79
ATOM     79  C   UNL A   1      45.479  28.905  33.063  1.00  0.00    -0.014 A 
ATOM     80  C   UNL A   1      46.672  29.303  32.441  1.00  0.00     0.009 A 
ATOM     81  C   UNL A   1      45.543  28.045  34.172  1.00  0.00     0.009 A 
ATOM     82  C   UNL A   1      47.901  28.817  32.895  1.00  0.00     0.001 A 
ATOM     83  C   UNL A   1      46.773  27.590  34.645  1.00  0.00     0.001 A 
ATOM     84  C   UNL A   1      47.950  27.967  34.000  1.00  0.00     0.000 A 
ENDBRANCH  66  79
ENDBRANCH  40  41
ENDBRANCH  32  35
ENDBRANCH  30  31
ENDBRANCH  29  30
ENDBRANCH  28  29
ENDBRANCH  27  28
ENDBRANCH   1  27
TORSDOF 17
ENDMDL
MODEL 2
REMARK VINA RESULT:     -10.9      3.419      8.300
REMARK SMILES CCNC(=O)c1ccc(N[C@@H]2COC[C@@]2(C)C(=O)NCCCCCCNC(=O)c2ccc(-c3c4nc(c(-c5ccccc5)c5ccc([nH]5)c(-c5ccccc5)c5nc(c(-c6ccccc6)c6ccc3[nH]6)C=C5)C=C4)cc2)nn1
REMARK SMILES IDX 21 1 20 2 19 3 17 4 18 5 15 7 11 8 12 9 13 10 14 11 16 12
REMARK SMILES IDX 10 13 9 15 6 16 7 17 78 18 8 19 77 20 4 21 3 22 5 24 2 25
REMARK SMILES IDX 1 26 22 27 23 28 24 29 25 30 26 31 27 32 28 34 29 35 30 36
REMARK SMILES IDX 76 37 31 38 75 39 32 40 33 41 34 42 69 43 35 44 74 45 68 46
REMARK SMILES IDX 70 47 36 48 73 49 67 50 66 51 37 53 59 54 44 55 58 56 45 57
REMARK SMILES IDX 48 58 57 59 71 60 46 61 47 62 56 64 72 65 49 66 38 67 39 68
REMARK SMILES IDX 43 69 40 70 42 71 41 72 60 73 61 74 65 75 62 76 64 77 63 78
REMARK SMILES IDX 50 79 51 80 55 81 52 82 54 83 53 84
REMARK H PARENT 19 6 10 14 3 23 26 33 70 52 48 63
REMARK Flexibility Score: inf
ROOT
ATOM      1  C   UNL A   1      35.831  22.584  26.085  1.00  0.00     0.021 C 
ENDROOT
BRANCH   1   2
ATOM      2  C   UNL A   1      34.967  23.802  25.795  1.00  0.00     0.116 C 
BRANCH   2   3
ATOM      3  N   UNL A   1      34.829  24.041  24.371  1.00  0.00    -0.355 N 
ATOM      4  C   UNL A   1      33.831  24.630  23.654  1.00  0.00     0.230 C 
ATOM      5  O   UNL A   1      34.005  24.715  22.435  1.00  0.00    -0.274 OA
ATOM      6  H   UNL A   1      35.587  23.723  23.830  1.00  0.00     0.163 HD
BRANCH   4   7
ATOM      7  C   UNL A   1      32.577  25.186  24.337  1.00  0.00     0.092 C 
ATOM      8  C   UNL A   1      32.069  24.191  25.405  1.00  0.00     0.124 C 
ATOM      9  C   UNL A   1      31.396  25.078  26.435  1.00  0.00     0.186 C 
ATOM     10  O   UNL A   1      32.168  26.288  26.466  1.00  0.00    -0.378 OA
ATOM     11  C   UNL A   1      32.924  26.375  25.247  1.00  0.00     0.179 C 
ATOM     12  C   UNL A   1      31.543  25.592  23.274  1.00  0.00     0.026 C 
BRANCH   8  13
ATOM     13  N   UNL A   1      31.319  23.020  24.956  1.00  0.00    -0.362 N 
ATOM     14  H   UNL A   1      30.336  23.071  24.989  1.00  0.00     0.162 HD
BRANCH  13  15
ATOM     15  C   UNL A   1      31.877  21.850  24.492  1.00  0.00     0.149 A 
ATOM     16  C   UNL A   1      32.382  19.406  23.406  1.00  0.00     0.150 A 
ATOM     17  C   UNL A   1      32.441  20.508  22.575  1.00  0.00     0.040 A 
ATOM     18  N   UNL A   1      32.167  19.506  24.731  1.00  0.00    -0.143 NA
ATOM     19  C   UNL A   1      32.195  21.756  23.140  1.00  0.00     0.051 A 
ATOM     20  N   UNL A   1      31.924  20.745  25.266  1.00  0.00    -0.132 NA
BRANCH  16  21
ATOM     21  C   UNL A   1      32.552  18.048  22.861  1.00  0.00     0.271 C 
ATOM     22  N   UNL A   1      33.456  17.205  23.462  1.00  0.00    -0.351 N 
ATOM     23  H   UNL A   1      33.598  16.336  23.024  1.00  0.00     0.163 HD
ATOM     24  O   UNL A   1      31.932  17.698  21.862  1.00  0.00    -0.267 OA
BRANCH  22  25
ATOM     25  C   UNL A   1      34.223  17.449  24.668  1.00  0.00     0.113 C 
ATOM     26  C   UNL A   1      35.032  16.227  25.056  1.00  0.00     0.027 C 
ENDBRANCH  22  25
ENDBRANCH  16  21
ENDBRANCH  13  15
ENDBRANCH   8  13
ENDBRANCH   4   7
ENDBRANCH   2   3
ENDBRANCH   1   2
BRANCH   1  27
ATOM     27  C   UNL A   1      36.312  21.845  24.835  1.00  0.00     0.002 C 
BRANCH  27  28
ATOM     28  C   UNL A   1      36.381  20.320  24.971  1.00  0.00     0.002 C 
BRANCH  28  29
ATOM     29  C   UNL A   1      37.762  19.705  24.725  1.00  0.00     0.021 C 
BRANCH  29  30
ATOM     30  C   UNL A   1      38.856  20.205  25.662  1.00  0.00     0.116 C 
BRANCH  30  31
ATOM     31  N   UNL A   1      39.949  19.256  25.778  1.00  0.00    -0.352 N 
ATOM     32  C   UNL A   1      41.262  19.482  26.110  1.00  0.00     0.251 C 
ATOM     33  H   UNL A   1      39.716  18.318  25.595  1.00  0.00     0.163 HD
ATOM     34  O   UNL A   1      42.096  18.596  25.974  1.00  0.00    -0.269 OA
BRANCH  32  35
ATOM     35  C   UNL A   1      41.668  20.811  26.615  1.00  0.00     0.039 A 
ATOM     36  C   UNL A   1      42.220  21.731  25.723  1.00  0.00     0.014 A 
ATOM     37  C   UNL A   1      41.507  21.144  27.963  1.00  0.00     0.014 A 
ATOM     38  C   UNL A   1      42.565  23.006  26.173  1.00  0.00     0.010 A 
ATOM     39  C   UNL A   1      41.778  22.439  28.393  1.00  0.00     0.010 A 
ATOM     40  C   UNL A   1      42.318  23.381  27.504  1.00  0.00    -0.014 A 
BRANCH  40  41
ATOM     41  C   UNL A   1      42.634  24.749  27.988  1.00  0.00     0.031 A 
ATOM     42  C   UNL A   1      44.048  25.111  28.354  1.00  0.00     0.074 A 
ATOM     43  C   UNL A   1      41.644  25.650  28.140  1.00  0.00     0.049 A 
ATOM     44  N   UNL A   1      44.511  26.229  28.852  1.00  0.00    -0.248 NA
ATOM     45  C   UNL A   1      45.075  24.074  28.153  1.00  0.00     0.031 C 
ATOM     46  C   UNL A   1      40.228  25.417  27.844  1.00  0.00     0.029 A 
ATOM     47  N   UNL A   1      41.678  26.949  28.584  1.00  0.00    -0.354 N 
ATOM     48  C   UNL A   1      45.874  26.030  29.024  1.00  0.00     0.074 A 
ATOM     49  C   UNL A   1      46.157  24.666  28.637  1.00  0.00     0.031 C 
ATOM     50  C   UNL A   1      39.535  26.542  28.089  1.00  0.00     0.029 A 
ATOM     51  C   UNL A   1      40.446  27.560  28.602  1.00  0.00     0.049 A 
ATOM     52  H   UNL A   1      42.507  27.400  28.865  1.00  0.00     0.167 HD
ATOM     53  C   UNL A   1      46.815  26.910  29.442  1.00  0.00     0.031 A 
ATOM     54  C   UNL A   1      40.091  28.796  28.998  1.00  0.00     0.031 A 
ATOM     55  C   UNL A   1      46.538  28.268  29.824  1.00  0.00     0.049 A 
ATOM     56  C   UNL A   1      41.153  29.735  29.507  1.00  0.00     0.074 A 
ATOM     57  C   UNL A   1      47.428  29.245  30.239  1.00  0.00     0.029 A 
ATOM     58  N   UNL A   1      45.278  28.845  29.833  1.00  0.00    -0.354 N 
ATOM     59  N   UNL A   1      42.445  29.546  29.613  1.00  0.00    -0.248 NA
ATOM     60  C   UNL A   1      40.703  31.067  29.940  1.00  0.00     0.031 C 
ATOM     61  C   UNL A   1      46.699  30.397  30.546  1.00  0.00     0.029 A 
ATOM     62  C   UNL A   1      45.365  30.157  30.262  1.00  0.00     0.049 A 
ATOM     63  H   UNL A   1      44.445  28.388  29.573  1.00  0.00     0.167 HD
ATOM     64  C   UNL A   1      42.965  30.744  30.084  1.00  0.00     0.074 A 
ATOM     65  C   UNL A   1      41.853  31.659  30.226  1.00  0.00     0.031 C 
ATOM     66  C   UNL A   1      44.250  31.060  30.377  1.00  0.00     0.031 A 
BRANCH  53  67
ATOM     67  C   UNL A   1      48.240  26.436  29.495  1.00  0.00    -0.014 A 
ATOM     68  C   UNL A   1      49.102  26.616  28.401  1.00  0.00     0.009 A 
ATOM     69  C   UNL A   1      48.748  25.861  30.671  1.00  0.00     0.009 A 
ATOM     70  C   UNL A   1      50.435  26.207  28.474  1.00  0.00     0.001 A 
ATOM     71  C   UNL A   1      50.088  25.481  30.752  1.00  0.00     0.001 A 
ATOM     72  C   UNL A   1      50.929  25.648  29.653  1.00  0.00     0.000 A 
ENDBRANCH  53  67
BRANCH  54  73
ATOM     73  C   UNL A   1      38.670  29.234  28.940  1.00  0.00    -0.014 A 
ATOM     74  C   UNL A   1      37.838  29.116  30.065  1.00  0.00     0.009 A 
ATOM     75  C   UNL A   1      38.120  29.717  27.742  1.00  0.00     0.009 A 
ATOM     76  C   UNL A   1      36.478  29.421  29.978  1.00  0.00     0.001 A 
ATOM     77  C   UNL A   1      36.767  30.057  27.668  1.00  0.00     0.001 A 
ATOM     78  C   UNL A   1      35.944  29.893  28.781  1.00  0.00     0.000 A 
ENDBRANCH  54  73
BRANCH  66  79
ATOM     79  C   UNL A   1      44.530  32.470  30.818  1.00  0.00    -0.014 A 
ATOM     80  C   UNL A   1      44.549  32.826  32.175  1.00  0.00     0.009 A 
ATOM     81  C   UNL A   1      44.818  33.450  29.853  1.00  0.00     0.009 A 
ATOM     82  C   UNL A   1      44.811  34.144  32.555  1.00  0.00     0.001 A 
ATOM     83  C   UNL A   1      45.114  34.758  30.238  1.00  0.00     0.001 A 
ATOM     84  C   UNL A   1      45.099  35.106  31.587  1.00  0.00     0.000 A 
ENDBRANCH  66  79
ENDBRANCH  40  41
ENDBRANCH  32  35
ENDBRANCH  30  31
ENDBRANCH  29  30
ENDBRANCH  28  29
ENDBRANCH  27  28
ENDBRANCH   1  27
TORSDOF 17
ENDMDL
MODEL 3
REMARK VINA RESULT:     -10.7      3.415      8.320
REMARK SMILES CCNC(=O)c1ccc(N[C@@H]2COC[C@@]2(C)C(=O)NCCCCCCNC(=O)c2ccc(-c3c4nc(c(-c5ccccc5)c5ccc([nH]5)c(-c5ccccc5)c5nc(c(-c6ccccc6)c6ccc3[nH]6)C=C5)C=C4)cc2)nn1
REMARK SMILES IDX 21 1 20 2 19 3 17 4 18 5 15 7 11 8 12 9 13 10 14 11 16 12
REMARK SMILES IDX 10 13 9 15 6 16 7 17 78 18 8 19 77 20 4 21 3 22 5 24 2 25
REMARK SMILES IDX 1 26 22 27 23 28 24 29 25 30 26 31 27 32 28 34 29 35 30 36
REMARK SMILES IDX 76 37 31 38 75 39 32 40 33 41 34 42 69 43 35 44 74 45 68 46
REMARK SMILES IDX 70 47 36 48 73 49 67 50 66 51 37 53 59 54 44 55 58 56 45 57
REMARK SMILES IDX 48 58 57 59 71 60 46 61 47 62 56 64 72 65 49 66 38 67 39 68
REMARK SMILES IDX 43 69 40 70 42 71 41 72 60 73 61 74 65 75 62 76 64 77 63 78
REMARK SMILES IDX 50 79 51 80 55 81 52 82 54 83 53 84
REMARK H PARENT 19 6 10 14 3 23 26 33 70 52 48 63
REMARK Flexibility Score: inf
ROOT
ATOM      1  C   UNL A   1      35.271  22.501  25.929  1.00  0.00     0.021 C 
ENDROOT
BRANCH   1   2
ATOM      2  C   UNL A   1      35.114  23.988  25.652  1.00  0.00     0.116 C 
BRANCH   2   3
ATOM      3  N   UNL A   1      34.913  24.257  24.241  1.00  0.00    -0.355 N 
ATOM      4  C   UNL A   1      33.891  24.874  23.583  1.00  0.00     0.230 C 
ATOM      5  O   UNL A   1      34.010  24.981  22.359  1.00  0.00    -0.274 OA
ATOM      6  H   UNL A   1      35.641  23.941  23.659  1.00  0.00     0.163 HD
BRANCH   4   7
ATOM      7  C   UNL A   1      32.678  25.432  24.335  1.00  0.00     0.092 C 
ATOM      8  C   UNL A   1      32.161  24.392  25.354  1.00  0.00     0.124 C 
ATOM      9  C   UNL A   1      31.549  25.238  26.456  1.00  0.00     0.186 C 
ATOM     10  O   UNL A   1      32.368  26.414  26.538  1.00  0.00    -0.378 OA
ATOM     11  C   UNL A   1      33.095  26.548  25.305  1.00  0.00     0.179 C 
ATOM     12  C   UNL A   1      31.632  25.941  23.329  1.00  0.00     0.026 C 
BRANCH   8  13
ATOM     13  N   UNL A   1      31.355  23.280  24.856  1.00  0.00    -0.362 N 
ATOM     14  H   UNL A   1      30.376  23.391  24.860  1.00  0.00     0.162 HD
BRANCH  13  15
ATOM     15  C   UNL A   1      31.854  22.086  24.383  1.00  0.00     0.149 A 
ATOM     16  C   UNL A   1      32.229  19.601  23.340  1.00  0.00     0.150 A 
ATOM     17  C   UNL A   1      32.224  20.675  22.471  1.00  0.00     0.040 A 
ATOM     18  N   UNL A   1      32.136  19.747  24.675  1.00  0.00    -0.143 NA
ATOM     19  C   UNL A   1      32.046  21.943  23.012  1.00  0.00     0.051 A 
ATOM     20  N   UNL A   1      31.958  21.007  25.187  1.00  0.00    -0.132 NA
BRANCH  16  21
ATOM     21  C   UNL A   1      32.332  18.224  22.828  1.00  0.00     0.271 C 
ATOM     22  N   UNL A   1      32.526  17.200  23.725  1.00  0.00    -0.351 N 
ATOM     23  H   UNL A   1      32.668  16.306  23.340  1.00  0.00     0.163 HD
ATOM     24  O   UNL A   1      32.291  18.005  21.622  1.00  0.00    -0.267 OA
BRANCH  22  25
ATOM     25  C   UNL A   1      32.547  17.287  25.172  1.00  0.00     0.113 C 
ATOM     26  C   UNL A   1      33.532  16.298  25.763  1.00  0.00     0.027 C 
ENDBRANCH  22  25
ENDBRANCH  16  21
ENDBRANCH  13  15
ENDBRANCH   8  13
ENDBRANCH   4   7
ENDBRANCH   2   3
ENDBRANCH   1   2
BRANCH   1  27
ATOM     27  C   UNL A   1      36.296  21.802  25.035  1.00  0.00     0.002 C 
BRANCH  27  28
ATOM     28  C   UNL A   1      36.158  20.277  24.960  1.00  0.00     0.002 C 
BRANCH  28  29
ATOM     29  C   UNL A   1      37.476  19.506  24.851  1.00  0.00     0.021 C 
BRANCH  29  30
ATOM     30  C   UNL A   1      38.669  20.194  25.505  1.00  0.00     0.116 C 
BRANCH  30  31
ATOM     31  N   UNL A   1      39.786  19.284  25.694  1.00  0.00    -0.352 N 
ATOM     32  C   UNL A   1      41.071  19.559  26.092  1.00  0.00     0.251 C 
ATOM     33  H   UNL A   1      39.594  18.336  25.513  1.00  0.00     0.163 HD
ATOM     34  O   UNL A   1      41.939  18.700  26.014  1.00  0.00    -0.269 OA
BRANCH  32  35
ATOM     35  C   UNL A   1      41.404  20.907  26.598  1.00  0.00     0.039 A 
ATOM     36  C   UNL A   1      41.237  21.177  27.957  1.00  0.00     0.014 A 
ATOM     37  C   UNL A   1      41.874  21.900  25.733  1.00  0.00     0.014 A 
ATOM     38  C   UNL A   1      41.591  22.430  28.460  1.00  0.00     0.010 A 
ATOM     39  C   UNL A   1      42.300  23.121  26.248  1.00  0.00     0.010 A 
ATOM     40  C   UNL A   1      42.155  23.401  27.616  1.00  0.00    -0.014 A 
BRANCH  40  41
ATOM     41  C   UNL A   1      42.582  24.722  28.142  1.00  0.00     0.031 A 
ATOM     42  C   UNL A   1      41.572  25.823  28.327  1.00  0.00     0.074 A 
ATOM     43  C   UNL A   1      43.883  24.946  28.412  1.00  0.00     0.049 A 
ATOM     44  N   UNL A   1      41.760  27.059  28.714  1.00  0.00    -0.248 NA
ATOM     45  C   UNL A   1      40.169  25.499  28.018  1.00  0.00     0.031 C 
ATOM     46  C   UNL A   1      44.965  23.971  28.253  1.00  0.00     0.029 A 
ATOM     47  N   UNL A   1      44.519  26.070  28.879  1.00  0.00    -0.354 N 
ATOM     48  C   UNL A   1      40.507  27.656  28.692  1.00  0.00     0.074 A 
ATOM     49  C   UNL A   1      39.574  26.669  28.196  1.00  0.00     0.031 C 
ATOM     50  C   UNL A   1      46.123  24.530  28.641  1.00  0.00     0.029 A 
ATOM     51  C   UNL A   1      45.876  25.914  29.031  1.00  0.00     0.049 A 
ATOM     52  H   UNL A   1      44.047  26.909  29.083  1.00  0.00     0.167 HD
ATOM     53  C   UNL A   1      40.155  28.906  29.076  1.00  0.00     0.031 A 
ATOM     54  C   UNL A   1      46.817  26.792  29.429  1.00  0.00     0.031 A 
ATOM     55  C   UNL A   1      41.079  29.889  29.574  1.00  0.00     0.049 A 
ATOM     56  C   UNL A   1      46.401  28.191  29.799  1.00  0.00     0.074 A 
ATOM     57  C   UNL A   1      40.815  31.176  30.010  1.00  0.00     0.029 A 
ATOM     58  N   UNL A   1      42.444  29.693  29.706  1.00  0.00    -0.354 N 
ATOM     59  N   UNL A   1      45.203  28.722  29.823  1.00  0.00    -0.248 NA
ATOM     60  C   UNL A   1      47.473  29.110  30.212  1.00  0.00     0.031 C 
ATOM     61  C   UNL A   1      42.028  31.776  30.360  1.00  0.00     0.029 A 
ATOM     62  C   UNL A   1      43.037  30.840  30.202  1.00  0.00     0.049 A 
ATOM     63  H   UNL A   1      42.921  28.861  29.482  1.00  0.00     0.167 HD
ATOM     64  C   UNL A   1      45.372  30.019  30.289  1.00  0.00     0.074 A 
ATOM     65  C   UNL A   1      46.785  30.189  30.555  1.00  0.00     0.031 C 
ATOM     66  C   UNL A   1      44.442  30.986  30.480  1.00  0.00     0.031 A 
BRANCH  53  67
ATOM     67  C   UNL A   1      38.702  29.281  28.987  1.00  0.00    -0.014 A 
ATOM     68  C   UNL A   1      38.152  29.754  27.784  1.00  0.00     0.009 A 
ATOM     69  C   UNL A   1      37.859  29.100  30.094  1.00  0.00     0.009 A 
ATOM     70  C   UNL A   1      36.793  30.062  27.700  1.00  0.00     0.001 A 
ATOM     71  C   UNL A   1      36.494  29.380  29.999  1.00  0.00     0.001 A 
ATOM     72  C   UNL A   1      35.964  29.866  28.805  1.00  0.00     0.000 A 
ENDBRANCH  53  67
BRANCH  54  73
ATOM     73  C   UNL A   1      48.248  26.393  29.501  1.00  0.00    -0.014 A 
ATOM     74  C   UNL A   1      48.784  25.859  30.684  1.00  0.00     0.009 A 
ATOM     75  C   UNL A   1      49.102  26.600  28.406  1.00  0.00     0.009 A 
ATOM     76  C   UNL A   1      50.151  25.590  30.787  1.00  0.00     0.001 A 
ATOM     77  C   UNL A   1      50.463  26.294  28.499  1.00  0.00     0.001 A 
ATOM     78  C   UNL A   1      50.988  25.806  29.694  1.00  0.00     0.000 A 
ENDBRANCH  54  73
BRANCH  66  79
ATOM     79  C   UNL A   1      44.913  32.291  31.060  1.00  0.00    -0.014 A 
ATOM     80  C   UNL A   1      44.938  32.513  32.445  1.00  0.00     0.009 A 
ATOM     81  C   UNL A   1      45.376  33.300  30.200  1.00  0.00     0.009 A 
ATOM     82  C   UNL A   1      45.379  33.736  32.955  1.00  0.00     0.001 A 
ATOM     83  C   UNL A   1      45.850  34.507  30.714  1.00  0.00     0.001 A 
ATOM     84  C   UNL A   1      45.840  34.728  32.090  1.00  0.00     0.000 A 
ENDBRANCH  66  79
ENDBRANCH  40  41
ENDBRANCH  32  35
ENDBRANCH  30  31
ENDBRANCH  29  30
ENDBRANCH  28  29
ENDBRANCH  27  28
ENDBRANCH   1  27
TORSDOF 17
ENDMDL
