MODEL 1
REMARK VINA RESULT:     -11.7      0.000      0.000
REMARK SMILES CCOC(=O)c1c(-c2cccc3ccccc23)csc1NC(=O)[C@H]1CC=CC[C@H]1C(=O)NCCCCCCNC(=O)c1ccc(-c2c3nc(c(-c4ccccc4)c4ccc([nH]4)c(-c4ccccc4)c4nc(c(-c5ccccc5)c5ccc2[nH]5)C=C4)C=C3)cc1
REMARK SMILES IDX 34 1 33 2 32 3 30 4 31 5 29 7 24 8 25 9 26 10 28 11 27 12
REMARK SMILES IDX 22 13 21 14 23 16 20 17 6 18 7 19 18 20 19 21 4 22 5 23 3 24
REMARK SMILES IDX 2 25 1 26 8 27 9 28 17 29 10 30 12 31 16 32 11 33 13 34
REMARK SMILES IDX 15 35 14 36 35 37 36 38 37 39 38 40 39 41 40 42 41 44 42 45
REMARK SMILES IDX 43 46 89 47 44 48 88 49 45 50 46 51 47 52 82 53 48 54 87 55
REMARK SMILES IDX 81 56 83 57 49 58 86 59 80 60 79 61 50 63 72 64 57 65 71 66
REMARK SMILES IDX 58 67 61 68 70 69 84 70 59 71 60 72 69 74 85 75 62 76 51 77
REMARK SMILES IDX 52 78 56 79 53 80 55 81 54 82 73 83 74 84 78 85 75 86 77 87
REMARK SMILES IDX 76 88 63 89 64 90 68 91 65 92 67 93 66 94
REMARK H PARENT 32 6 21 15 39 43 83 62 61 73
REMARK Flexibility Score: inf
ROOT
ATOM      1  C   UNL A   1      34.411  31.993  28.702  1.00  0.00     0.021 C 
ENDROOT
BRANCH   1   2
ATOM      2  C   UNL A   1      34.051  31.002  27.593  1.00  0.00     0.116 C 
BRANCH   2   3
ATOM      3  N   UNL A   1      32.707  30.444  27.690  1.00  0.00    -0.356 N 
ATOM      4  C   UNL A   1      32.197  29.286  27.166  1.00  0.00     0.224 C 
ATOM      5  O   UNL A   1      31.458  28.633  27.914  1.00  0.00    -0.275 OA
ATOM      6  H   UNL A   1      32.069  30.982  28.211  1.00  0.00     0.163 HD
BRANCH   4   7
ATOM      7  C   UNL A   1      32.293  28.908  25.680  1.00  0.00     0.095 C 
ATOM      8  C   UNL A   1      32.584  27.476  25.254  1.00  0.00     0.095 C 
ATOM      9  C   UNL A   1      33.309  27.592  23.869  1.00  0.00     0.041 C 
ATOM     10  C   UNL A   1      32.480  28.353  22.871  1.00  0.00    -0.030 C 
ATOM     11  C   UNL A   1      31.354  29.646  24.693  1.00  0.00     0.041 C 
ATOM     12  C   UNL A   1      31.581  29.271  23.252  1.00  0.00    -0.030 C 
BRANCH   8  13
ATOM     13  C   UNL A   1      31.532  26.355  25.116  1.00  0.00     0.229 C 
ATOM     14  N   UNL A   1      31.553  25.160  24.494  1.00  0.00    -0.317 N 
ATOM     15  H   UNL A   1      30.625  24.884  24.316  1.00  0.00     0.170 HD
ATOM     16  O   UNL A   1      30.362  26.657  25.436  1.00  0.00    -0.274 OA
BRANCH  14  17
ATOM     17  C   UNL A   1      32.402  24.183  24.016  1.00  0.00     0.110 A 
ATOM     18  C   UNL A   1      32.901  23.117  24.770  1.00  0.00     0.102 A 
ATOM     19  C   UNL A   1      33.927  22.404  24.038  1.00  0.00     0.010 A 
ATOM     20  C   UNL A   1      34.074  22.890  22.758  1.00  0.00     0.076 A 
ATOM     21  S   UNL A   1      33.026  24.175  22.464  1.00  0.00    -0.125 S 
BRANCH  18  22
ATOM     22  C   UNL A   1      32.347  22.802  26.089  1.00  0.00     0.341 C 
ATOM     23  O   UNL A   1      33.035  22.861  27.100  1.00  0.00    -0.246 OA
BRANCH  22  24
ATOM     24  O   UNL A   1      31.021  22.521  26.082  1.00  0.00    -0.462 OA
BRANCH  24  25
ATOM     25  C   UNL A   1      30.237  22.961  27.206  1.00  0.00     0.230 C 
ATOM     26  C   UNL A   1      28.835  22.379  27.301  1.00  0.00     0.049 C 
ENDBRANCH  24  25
ENDBRANCH  22  24
ENDBRANCH  18  22
BRANCH  19  27
ATOM     27  C   UNL A   1      34.709  21.232  24.406  1.00  0.00    -0.009 A 
ATOM     28  C   UNL A   1      36.063  21.423  24.721  1.00  0.00     0.009 A 
ATOM     29  C   UNL A   1      34.152  19.927  24.344  1.00  0.00    -0.010 A 
ATOM     30  C   UNL A   1      36.883  20.330  24.974  1.00  0.00     0.001 A 
ATOM     31  C   UNL A   1      34.998  18.826  24.614  1.00  0.00    -0.018 A 
ATOM     32  C   UNL A   1      32.802  19.662  24.005  1.00  0.00     0.009 A 
ATOM     33  C   UNL A   1      36.352  19.042  24.921  1.00  0.00     0.009 A 
ATOM     34  C   UNL A   1      34.481  17.523  24.554  1.00  0.00     0.009 A 
ATOM     35  C   UNL A   1      32.303  18.362  23.953  1.00  0.00     0.001 A 
ATOM     36  C   UNL A   1      33.143  17.292  24.229  1.00  0.00     0.001 A 
ENDBRANCH  19  27
ENDBRANCH  14  17
ENDBRANCH   8  13
ENDBRANCH   4   7
ENDBRANCH   2   3
ENDBRANCH   1   2
BRANCH   1  37
ATOM     37  C   UNL A   1      35.368  33.116  28.266  1.00  0.00     0.002 C 
BRANCH  37  38
ATOM     38  C   UNL A   1      35.059  34.538  28.756  1.00  0.00     0.002 C 
BRANCH  38  39
ATOM     39  C   UNL A   1      33.595  34.861  29.057  1.00  0.00     0.021 C 
BRANCH  39  40
ATOM     40  C   UNL A   1      33.291  36.273  29.553  1.00  0.00     0.116 C 
BRANCH  40  41
ATOM     41  N   UNL A   1      32.454  36.298  30.741  1.00  0.00    -0.352 N 
ATOM     42  C   UNL A   1      32.593  35.697  31.967  1.00  0.00     0.251 C 
ATOM     43  H   UNL A   1      31.639  36.843  30.649  1.00  0.00     0.163 HD
ATOM     44  O   UNL A   1      31.669  35.795  32.773  1.00  0.00    -0.269 OA
BRANCH  42  45
ATOM     45  C   UNL A   1      33.808  34.931  32.354  1.00  0.00     0.039 A 
ATOM     46  C   UNL A   1      35.028  35.620  32.404  1.00  0.00     0.014 A 
ATOM     47  C   UNL A   1      33.799  33.553  32.578  1.00  0.00     0.014 A 
ATOM     48  C   UNL A   1      36.217  34.941  32.691  1.00  0.00     0.010 A 
ATOM     49  C   UNL A   1      34.975  32.888  32.939  1.00  0.00     0.010 A 
ATOM     50  C   UNL A   1      36.201  33.567  32.972  1.00  0.00    -0.014 A 
BRANCH  50  51
ATOM     51  C   UNL A   1      37.465  32.830  33.242  1.00  0.00     0.031 A 
ATOM     52  C   UNL A   1      38.213  33.050  34.532  1.00  0.00     0.074 A 
ATOM     53  C   UNL A   1      37.958  31.975  32.325  1.00  0.00     0.049 A 
ATOM     54  N   UNL A   1      39.327  32.499  34.948  1.00  0.00    -0.248 NA
ATOM     55  C   UNL A   1      37.647  34.033  35.469  1.00  0.00     0.031 C 
ATOM     56  C   UNL A   1      37.359  31.694  31.019  1.00  0.00     0.029 A 
ATOM     57  N   UNL A   1      39.078  31.181  32.355  1.00  0.00    -0.354 N 
ATOM     58  C   UNL A   1      39.603  33.083  36.179  1.00  0.00     0.074 A 
ATOM     59  C   UNL A   1      38.567  34.063  36.422  1.00  0.00     0.031 C 
ATOM     60  C   UNL A   1      38.100  30.768  30.388  1.00  0.00     0.029 A 
ATOM     61  C   UNL A   1      39.238  30.411  31.230  1.00  0.00     0.049 A 
ATOM     62  H   UNL A   1      39.707  31.164  33.113  1.00  0.00     0.167 HD
ATOM     63  C   UNL A   1      40.612  32.817  37.044  1.00  0.00     0.031 A 
ATOM     64  C   UNL A   1      40.189  29.513  30.912  1.00  0.00     0.031 A 
ATOM     65  C   UNL A   1      41.636  31.831  36.819  1.00  0.00     0.049 A 
ATOM     66  C   UNL A   1      41.288  29.220  31.895  1.00  0.00     0.074 A 
ATOM     67  C   UNL A   1      42.671  31.454  37.658  1.00  0.00     0.029 A 
ATOM     68  N   UNL A   1      41.750  31.063  35.672  1.00  0.00    -0.354 N 
ATOM     69  N   UNL A   1      41.497  29.738  33.080  1.00  0.00    -0.248 NA
ATOM     70  C   UNL A   1      42.273  28.203  31.498  1.00  0.00     0.031 C 
ATOM     71  C   UNL A   1      43.435  30.483  37.001  1.00  0.00     0.029 A 
ATOM     72  C   UNL A   1      42.846  30.222  35.775  1.00  0.00     0.049 A 
ATOM     73  H   UNL A   1      41.144  31.108  34.899  1.00  0.00     0.167 HD
ATOM     74  C   UNL A   1      42.619  29.091  33.583  1.00  0.00     0.074 A 
ATOM     75  C   UNL A   1      43.033  28.130  32.582  1.00  0.00     0.031 C 
ATOM     76  C   UNL A   1      43.249  29.274  34.769  1.00  0.00     0.031 A 
BRANCH  63  77
ATOM     77  C   UNL A   1      40.656  33.617  38.317  1.00  0.00    -0.014 A 
ATOM     78  C   UNL A   1      41.349  34.837  38.387  1.00  0.00     0.009 A 
ATOM     79  C   UNL A   1      39.978  33.157  39.457  1.00  0.00     0.009 A 
ATOM     80  C   UNL A   1      41.397  35.557  39.582  1.00  0.00     0.001 A 
ATOM     81  C   UNL A   1      40.004  33.893  40.643  1.00  0.00     0.001 A 
ATOM     82  C   UNL A   1      40.722  35.087  40.708  1.00  0.00     0.000 A 
ENDBRANCH  63  77
BRANCH  64  83
ATOM     83  C   UNL A   1      40.128  28.790  29.614  1.00  0.00    -0.014 A 
ATOM     84  C   UNL A   1      40.703  29.348  28.462  1.00  0.00     0.009 A 
ATOM     85  C   UNL A   1      39.487  27.546  29.519  1.00  0.00     0.009 A 
ATOM     86  C   UNL A   1      40.613  28.688  27.235  1.00  0.00     0.001 A 
ATOM     87  C   UNL A   1      39.423  26.875  28.296  1.00  0.00     0.001 A 
ATOM     88  C   UNL A   1      39.977  27.450  27.153  1.00  0.00     0.000 A 
ENDBRANCH  64  83
BRANCH  76  89
ATOM     89  C   UNL A   1      44.433  28.395  35.056  1.00  0.00    -0.014 A 
ATOM     90  C   UNL A   1      44.284  27.158  35.701  1.00  0.00     0.009 A 
ATOM     91  C   UNL A   1      45.716  28.807  34.662  1.00  0.00     0.009 A 
ATOM     92  C   UNL A   1      45.402  26.370  35.984  1.00  0.00     0.001 A 
ATOM     93  C   UNL A   1      46.829  28.005  34.921  1.00  0.00     0.001 A 
ATOM     94  C   UNL A   1      46.672  26.793  35.591  1.00  0.00     0.000 A 
ENDBRANCH  76  89
ENDBRANCH  50  51
ENDBRANCH  42  45
ENDBRANCH  40  41
ENDBRANCH  39  40
ENDBRANCH  38  39
ENDBRANCH  37  38
ENDBRANCH   1  37
TORSDOF 19
ENDMDL
MODEL 2
REMARK VINA RESULT:     -11.5      0.872      5.692
REMARK SMILES CCOC(=O)c1c(-c2cccc3ccccc23)csc1NC(=O)[C@H]1CC=CC[C@H]1C(=O)NCCCCCCNC(=O)c1ccc(-c2c3nc(c(-c4ccccc4)c4ccc([nH]4)c(-c4ccccc4)c4nc(c(-c5ccccc5)c5ccc2[nH]5)C=C4)C=C3)cc1
REMARK SMILES IDX 34 1 33 2 32 3 30 4 31 5 29 7 24 8 25 9 26 10 28 11 27 12
REMARK SMILES IDX 22 13 21 14 23 16 20 17 6 18 7 19 18 20 19 21 4 22 5 23 3 24
REMARK SMILES IDX 2 25 1 26 8 27 9 28 17 29 10 30 12 31 16 32 11 33 13 34
REMARK SMILES IDX 15 35 14 36 35 37 36 38 37 39 38 40 39 41 40 42 41 44 42 45
REMARK SMILES IDX 43 46 89 47 44 48 88 49 45 50 46 51 47 52 82 53 48 54 87 55
REMARK SMILES IDX 81 56 83 57 49 58 86 59 80 60 79 61 50 63 72 64 57 65 71 66
REMARK SMILES IDX 58 67 61 68 70 69 84 70 59 71 60 72 69 74 85 75 62 76 51 77
REMARK SMILES IDX 52 78 56 79 53 80 55 81 54 82 73 83 74 84 78 85 75 86 77 87
REMARK SMILES IDX 76 88 63 89 64 90 68 91 65 92 67 93 66 94
REMARK H PARENT 32 6 21 15 39 43 83 62 61 73
REMARK Flexibility Score: inf
ROOT
ATOM      1  C   UNL A   1      35.942  32.032  28.240  1.00  0.00     0.021 C 
ENDROOT
BRANCH   1   2
ATOM      2  C   UNL A   1      35.189  30.731  27.954  1.00  0.00     0.116 C 
BRANCH   2   3
ATOM      3  N   UNL A   1      33.880  30.911  27.338  1.00  0.00    -0.356 N 
ATOM      4  C   UNL A   1      32.960  29.977  26.941  1.00  0.00     0.224 C 
ATOM      5  O   UNL A   1      31.779  30.233  27.206  1.00  0.00    -0.275 OA
ATOM      6  H   UNL A   1      33.617  31.846  27.184  1.00  0.00     0.163 HD
BRANCH   4   7
ATOM      7  C   UNL A   1      33.287  28.804  26.004  1.00  0.00     0.095 C 
ATOM      8  C   UNL A   1      32.970  27.371  26.404  1.00  0.00     0.095 C 
ATOM      9  C   UNL A   1      34.025  26.485  25.656  1.00  0.00     0.041 C 
ATOM     10  C   UNL A   1      33.986  26.711  24.170  1.00  0.00    -0.030 C 
ATOM     11  C   UNL A   1      33.142  29.045  24.480  1.00  0.00     0.041 C 
ATOM     12  C   UNL A   1      33.566  27.868  23.642  1.00  0.00    -0.030 C 
BRANCH   8  13
ATOM     13  C   UNL A   1      31.602  26.678  26.230  1.00  0.00     0.229 C 
ATOM     14  N   UNL A   1      31.187  25.668  25.439  1.00  0.00    -0.317 N 
ATOM     15  H   UNL A   1      30.211  25.732  25.337  1.00  0.00     0.170 HD
ATOM     16  O   UNL A   1      30.620  27.266  26.733  1.00  0.00    -0.274 OA
BRANCH  14  17
ATOM     17  C   UNL A   1      31.634  24.579  24.720  1.00  0.00     0.110 A 
ATOM     18  C   UNL A   1      32.262  23.459  25.272  1.00  0.00     0.102 A 
ATOM     19  C   UNL A   1      32.797  22.605  24.232  1.00  0.00     0.010 A 
ATOM     20  C   UNL A   1      32.463  23.057  22.975  1.00  0.00     0.076 A 
ATOM     21  S   UNL A   1      31.556  24.474  23.052  1.00  0.00    -0.125 S 
BRANCH  18  22
ATOM     22  C   UNL A   1      32.266  23.232  26.719  1.00  0.00     0.341 C 
ATOM     23  O   UNL A   1      33.306  23.020  27.328  1.00  0.00    -0.246 OA
BRANCH  22  24
ATOM     24  O   UNL A   1      31.049  23.355  27.304  1.00  0.00    -0.462 OA
BRANCH  24  25
ATOM     25  C   UNL A   1      29.977  22.540  26.799  1.00  0.00     0.230 C 
ATOM     26  C   UNL A   1      28.734  22.470  27.671  1.00  0.00     0.049 C 
ENDBRANCH  24  25
ENDBRANCH  22  24
ENDBRANCH  18  22
BRANCH  19  27
ATOM     27  C   UNL A   1      33.508  21.336  24.323  1.00  0.00    -0.009 A 
ATOM     28  C   UNL A   1      32.746  20.158  24.296  1.00  0.00     0.009 A 
ATOM     29  C   UNL A   1      34.910  21.294  24.539  1.00  0.00    -0.010 A 
ATOM     30  C   UNL A   1      33.359  18.926  24.488  1.00  0.00     0.001 A 
ATOM     31  C   UNL A   1      35.520  20.030  24.721  1.00  0.00    -0.018 A 
ATOM     32  C   UNL A   1      35.734  22.445  24.604  1.00  0.00     0.009 A 
ATOM     33  C   UNL A   1      34.735  18.864  24.698  1.00  0.00     0.009 A 
ATOM     34  C   UNL A   1      36.904  19.953  24.944  1.00  0.00     0.009 A 
ATOM     35  C   UNL A   1      37.106  22.351  24.824  1.00  0.00     0.001 A 
ATOM     36  C   UNL A   1      37.692  21.104  24.992  1.00  0.00     0.001 A 
ENDBRANCH  19  27
ENDBRANCH  14  17
ENDBRANCH   8  13
ENDBRANCH   4   7
ENDBRANCH   2   3
ENDBRANCH   1   2
BRANCH   1  37
ATOM     37  C   UNL A   1      35.217  33.305  27.772  1.00  0.00     0.002 C 
BRANCH  37  38
ATOM     38  C   UNL A   1      34.935  34.386  28.824  1.00  0.00     0.002 C 
BRANCH  38  39
ATOM     39  C   UNL A   1      33.475  34.794  29.020  1.00  0.00     0.021 C 
BRANCH  39  40
ATOM     40  C   UNL A   1      33.222  36.155  29.665  1.00  0.00     0.116 C 
BRANCH  40  41
ATOM     41  N   UNL A   1      32.459  36.073  30.900  1.00  0.00    -0.352 N 
ATOM     42  C   UNL A   1      32.721  35.450  32.094  1.00  0.00     0.251 C 
ATOM     43  H   UNL A   1      31.598  36.550  30.874  1.00  0.00     0.163 HD
ATOM     44  O   UNL A   1      31.843  35.445  32.956  1.00  0.00    -0.269 OA
BRANCH  42  45
ATOM     45  C   UNL A   1      34.017  34.779  32.384  1.00  0.00     0.039 A 
ATOM     46  C   UNL A   1      33.987  33.426  32.751  1.00  0.00     0.014 A 
ATOM     47  C   UNL A   1      35.238  35.455  32.396  1.00  0.00     0.014 A 
ATOM     48  C   UNL A   1      35.163  32.759  33.106  1.00  0.00     0.010 A 
ATOM     49  C   UNL A   1      36.424  34.770  32.677  1.00  0.00     0.010 A 
ATOM     50  C   UNL A   1      36.398  33.422  33.063  1.00  0.00    -0.014 A 
BRANCH  50  51
ATOM     51  C   UNL A   1      37.650  32.730  33.474  1.00  0.00     0.031 A 
ATOM     52  C   UNL A   1      38.308  31.737  32.551  1.00  0.00     0.074 A 
ATOM     53  C   UNL A   1      38.191  32.974  34.683  1.00  0.00     0.049 A 
ATOM     54  N   UNL A   1      39.402  31.037  32.730  1.00  0.00    -0.248 NA
ATOM     55  C   UNL A   1      37.639  31.480  31.265  1.00  0.00     0.031 C 
ATOM     56  C   UNL A   1      37.641  33.882  35.691  1.00  0.00     0.029 A 
ATOM     57  N   UNL A   1      39.331  32.480  35.267  1.00  0.00    -0.354 N 
ATOM     58  C   UNL A   1      39.537  30.247  31.595  1.00  0.00     0.074 A 
ATOM     59  C   UNL A   1      38.391  30.516  30.754  1.00  0.00     0.031 C 
ATOM     60  C   UNL A   1      38.461  33.904  36.755  1.00  0.00     0.029 A 
ATOM     61  C   UNL A   1      39.577  32.994  36.516  1.00  0.00     0.049 A 
ATOM     62  H   UNL A   1      39.918  31.820  34.831  1.00  0.00     0.167 HD
ATOM     63  C   UNL A   1      40.532  29.388  31.266  1.00  0.00     0.031 A 
ATOM     64  C   UNL A   1      40.590  32.764  37.373  1.00  0.00     0.031 A 
ATOM     65  C   UNL A   1      41.685  29.128  32.087  1.00  0.00     0.049 A 
ATOM     66  C   UNL A   1      41.694  31.823  36.979  1.00  0.00     0.074 A 
ATOM     67  C   UNL A   1      42.772  28.313  31.817  1.00  0.00     0.029 A 
ATOM     68  N   UNL A   1      41.901  29.682  33.338  1.00  0.00    -0.354 N 
ATOM     69  N   UNL A   1      41.836  31.131  35.874  1.00  0.00    -0.248 NA
ATOM     70  C   UNL A   1      42.786  31.646  37.946  1.00  0.00     0.031 C 
ATOM     71  C   UNL A   1      43.628  28.346  32.924  1.00  0.00     0.029 A 
ATOM     72  C   UNL A   1      43.097  29.218  33.859  1.00  0.00     0.049 A 
ATOM     73  H   UNL A   1      41.295  30.312  33.790  1.00  0.00     0.167 HD
ATOM     74  C   UNL A   1      43.045  30.460  36.002  1.00  0.00     0.074 A 
ATOM     75  C   UNL A   1      43.605  30.843  37.282  1.00  0.00     0.031 C 
ATOM     76  C   UNL A   1      43.640  29.603  35.136  1.00  0.00     0.031 A 
BRANCH  63  77
ATOM     77  C   UNL A   1      40.411  28.662  29.954  1.00  0.00    -0.014 A 
ATOM     78  C   UNL A   1      39.716  27.444  29.859  1.00  0.00     0.009 A 
ATOM     79  C   UNL A   1      40.977  29.212  28.793  1.00  0.00     0.009 A 
ATOM     80  C   UNL A   1      39.629  26.772  28.638  1.00  0.00     0.001 A 
ATOM     81  C   UNL A   1      40.864  28.552  27.568  1.00  0.00     0.001 A 
ATOM     82  C   UNL A   1      40.199  27.327  27.493  1.00  0.00     0.000 A 
ENDBRANCH  63  77
BRANCH  64  83
ATOM     83  C   UNL A   1      40.633  33.468  38.681  1.00  0.00    -0.014 A 
ATOM     84  C   UNL A   1      40.005  32.915  39.808  1.00  0.00     0.009 A 
ATOM     85  C   UNL A   1      41.293  34.700  38.809  1.00  0.00     0.009 A 
ATOM     86  C   UNL A   1      40.013  33.593  41.028  1.00  0.00     0.001 A 
ATOM     87  C   UNL A   1      41.323  35.363  40.037  1.00  0.00     0.001 A 
ATOM     88  C   UNL A   1      40.674  34.814  41.143  1.00  0.00     0.000 A 
ENDBRANCH  64  83
BRANCH  76  89
ATOM     89  C   UNL A   1      44.979  29.050  35.535  1.00  0.00    -0.014 A 
ATOM     90  C   UNL A   1      46.168  29.732  35.238  1.00  0.00     0.009 A 
ATOM     91  C   UNL A   1      45.048  27.833  36.231  1.00  0.00     0.009 A 
ATOM     92  C   UNL A   1      47.404  29.185  35.592  1.00  0.00     0.001 A 
ATOM     93  C   UNL A   1      46.282  27.302  36.610  1.00  0.00     0.001 A 
ATOM     94  C   UNL A   1      47.459  27.973  36.280  1.00  0.00     0.000 A 
ENDBRANCH  76  89
ENDBRANCH  50  51
ENDBRANCH  42  45
ENDBRANCH  40  41
ENDBRANCH  39  40
ENDBRANCH  38  39
ENDBRANCH  37  38
ENDBRANCH   1  37
TORSDOF 19
ENDMDL
MODEL 3
REMARK VINA RESULT:     -11.3      1.361      5.944
REMARK SMILES CCOC(=O)c1c(-c2cccc3ccccc23)csc1NC(=O)[C@H]1CC=CC[C@H]1C(=O)NCCCCCCNC(=O)c1ccc(-c2c3nc(c(-c4ccccc4)c4ccc([nH]4)c(-c4ccccc4)c4nc(c(-c5ccccc5)c5ccc2[nH]5)C=C4)C=C3)cc1
REMARK SMILES IDX 34 1 33 2 32 3 30 4 31 5 29 7 24 8 25 9 26 10 28 11 27 12
REMARK SMILES IDX 22 13 21 14 23 16 20 17 6 18 7 19 18 20 19 21 4 22 5 23 3 24
REMARK SMILES IDX 2 25 1 26 8 27 9 28 17 29 10 30 12 31 16 32 11 33 13 34
REMARK SMILES IDX 15 35 14 36 35 37 36 38 37 39 38 40 39 41 40 42 41 44 42 45
REMARK SMILES IDX 43 46 89 47 44 48 88 49 45 50 46 51 47 52 82 53 48 54 87 55
REMARK SMILES IDX 81 56 83 57 49 58 86 59 80 60 79 61 50 63 72 64 57 65 71 66
REMARK SMILES IDX 58 67 61 68 70 69 84 70 59 71 60 72 69 74 85 75 62 76 51 77
REMARK SMILES IDX 52 78 56 79 53 80 55 81 54 82 73 83 74 84 78 85 75 86 77 87
REMARK SMILES IDX 76 88 63 89 64 90 68 91 65 92 67 93 66 94
REMARK H PARENT 32 6 21 15 39 43 83 62 61 73
REMARK Flexibility Score: inf
ROOT
ATOM      1  C   UNL A   1      34.843  31.205  27.988  1.00  0.00     0.021 C 
ENDROOT
BRANCH   1   2
ATOM      2  C   UNL A   1      34.425  29.809  27.521  1.00  0.00     0.116 C 
BRANCH   2   3
ATOM      3  N   UNL A   1      33.009  29.508  27.699  1.00  0.00    -0.356 N 
ATOM      4  C   UNL A   1      32.279  28.432  27.269  1.00  0.00     0.224 C 
ATOM      5  O   UNL A   1      31.470  27.968  28.081  1.00  0.00    -0.275 OA
ATOM      6  H   UNL A   1      32.500  30.182  28.204  1.00  0.00     0.163 HD
BRANCH   4   7
ATOM      7  C   UNL A   1      32.241  27.957  25.809  1.00  0.00     0.095 C 
ATOM      8  C   UNL A   1      33.024  26.730  25.364  1.00  0.00     0.095 C 
ATOM      9  C   UNL A   1      33.353  26.970  23.850  1.00  0.00     0.041 C 
ATOM     10  C   UNL A   1      32.106  27.206  23.042  1.00  0.00    -0.030 C 
ATOM     11  C   UNL A   1      30.909  28.127  25.036  1.00  0.00     0.041 C 
ATOM     12  C   UNL A   1      30.994  27.713  23.591  1.00  0.00    -0.030 C 
BRANCH   8  13
ATOM     13  C   UNL A   1      32.542  25.269  25.490  1.00  0.00     0.229 C 
ATOM     14  N   UNL A   1      33.032  24.106  25.020  1.00  0.00    -0.317 N 
ATOM     15  H   UNL A   1      32.301  23.448  24.989  1.00  0.00     0.170 HD
ATOM     16  O   UNL A   1      31.375  25.111  25.909  1.00  0.00    -0.274 OA
BRANCH  14  17
ATOM     17  C   UNL A   1      34.186  23.501  24.566  1.00  0.00     0.110 A 
ATOM     18  C   UNL A   1      35.026  22.696  25.341  1.00  0.00     0.102 A 
ATOM     19  C   UNL A   1      36.253  22.400  24.631  1.00  0.00     0.010 A 
ATOM     20  C   UNL A   1      36.235  22.897  23.347  1.00  0.00     0.076 A 
ATOM     21  S   UNL A   1      34.796  23.709  23.022  1.00  0.00    -0.125 S 
BRANCH  18  22
ATOM     22  C   UNL A   1      34.603  22.210  26.656  1.00  0.00     0.341 C 
ATOM     23  O   UNL A   1      34.666  22.923  27.649  1.00  0.00    -0.246 OA
BRANCH  22  24
ATOM     24  O   UNL A   1      34.080  20.959  26.645  1.00  0.00    -0.462 OA
BRANCH  24  25
ATOM     25  C   UNL A   1      33.327  20.558  25.486  1.00  0.00     0.230 C 
ATOM     26  C   UNL A   1      33.856  19.340  24.745  1.00  0.00     0.049 C 
ENDBRANCH  24  25
ENDBRANCH  22  24
ENDBRANCH  18  22
BRANCH  19  27
ATOM     27  C   UNL A   1      37.402  21.596  25.025  1.00  0.00    -0.009 A 
ATOM     28  C   UNL A   1      37.408  20.241  24.656  1.00  0.00     0.009 A 
ATOM     29  C   UNL A   1      38.430  22.133  25.844  1.00  0.00    -0.010 A 
ATOM     30  C   UNL A   1      38.424  19.402  25.096  1.00  0.00     0.001 A 
ATOM     31  C   UNL A   1      39.463  21.267  26.274  1.00  0.00    -0.018 A 
ATOM     32  C   UNL A   1      38.471  23.482  26.275  1.00  0.00     0.009 A 
ATOM     33  C   UNL A   1      39.443  19.913  25.898  1.00  0.00     0.009 A 
ATOM     34  C   UNL A   1      40.490  21.764  27.091  1.00  0.00     0.009 A 
ATOM     35  C   UNL A   1      39.499  23.961  27.083  1.00  0.00     0.001 A 
ATOM     36  C   UNL A   1      40.511  23.102  27.490  1.00  0.00     0.001 A 
ENDBRANCH  19  27
ENDBRANCH  14  17
ENDBRANCH   8  13
ENDBRANCH   4   7
ENDBRANCH   2   3
ENDBRANCH   1   2
BRANCH   1  37
ATOM     37  C   UNL A   1      33.689  32.218  28.079  1.00  0.00     0.002 C 
BRANCH  37  38
ATOM     38  C   UNL A   1      34.060  33.702  28.213  1.00  0.00     0.002 C 
BRANCH  38  39
ATOM     39  C   UNL A   1      33.811  34.354  29.573  1.00  0.00     0.021 C 
BRANCH  39  40
ATOM     40  C   UNL A   1      33.225  35.765  29.561  1.00  0.00     0.116 C 
BRANCH  40  41
ATOM     41  N   UNL A   1      32.446  36.074  30.749  1.00  0.00    -0.352 N 
ATOM     42  C   UNL A   1      32.618  35.734  32.067  1.00  0.00     0.251 C 
ATOM     43  H   UNL A   1      31.648  36.625  30.576  1.00  0.00     0.163 HD
ATOM     44  O   UNL A   1      31.737  36.039  32.870  1.00  0.00    -0.269 OA
BRANCH  42  45
ATOM     45  C   UNL A   1      33.821  35.009  32.560  1.00  0.00     0.039 A 
ATOM     46  C   UNL A   1      35.057  35.666  32.487  1.00  0.00     0.014 A 
ATOM     47  C   UNL A   1      33.784  33.685  33.000  1.00  0.00     0.014 A 
ATOM     48  C   UNL A   1      36.234  35.012  32.867  1.00  0.00     0.010 A 
ATOM     49  C   UNL A   1      34.949  33.056  33.451  1.00  0.00     0.010 A 
ATOM     50  C   UNL A   1      36.190  33.701  33.363  1.00  0.00    -0.014 A 
BRANCH  50  51
ATOM     51  C   UNL A   1      37.441  32.985  33.735  1.00  0.00     0.031 A 
ATOM     52  C   UNL A   1      38.064  31.999  32.781  1.00  0.00     0.074 A 
ATOM     53  C   UNL A   1      38.012  33.201  34.936  1.00  0.00     0.049 A 
ATOM     54  N   UNL A   1      39.151  31.281  32.924  1.00  0.00    -0.248 NA
ATOM     55  C   UNL A   1      37.363  31.773  31.506  1.00  0.00     0.031 C 
ATOM     56  C   UNL A   1      37.497  34.099  35.971  1.00  0.00     0.029 A 
ATOM     57  N   UNL A   1      39.158  32.681  35.486  1.00  0.00    -0.354 N 
ATOM     58  C   UNL A   1      39.251  30.508  31.773  1.00  0.00     0.074 A 
ATOM     59  C   UNL A   1      38.091  30.808  30.963  1.00  0.00     0.031 C 
ATOM     60  C   UNL A   1      38.340  34.091  37.016  1.00  0.00     0.029 A 
ATOM     61  C   UNL A   1      39.438  33.170  36.738  1.00  0.00     0.049 A 
ATOM     62  H   UNL A   1      39.725  32.021  35.025  1.00  0.00     0.167 HD
ATOM     63  C   UNL A   1      40.226  29.642  31.407  1.00  0.00     0.031 A 
ATOM     64  C   UNL A   1      40.466  32.911  37.568  1.00  0.00     0.031 A 
ATOM     65  C   UNL A   1      41.393  29.351  32.198  1.00  0.00     0.049 A 
ATOM     66  C   UNL A   1      41.547  31.961  37.133  1.00  0.00     0.074 A 
ATOM     67  C   UNL A   1      42.462  28.527  31.890  1.00  0.00     0.029 A 
ATOM     68  N   UNL A   1      41.644  29.880  33.453  1.00  0.00    -0.354 N 
ATOM     69  N   UNL A   1      41.655  31.287  36.014  1.00  0.00    -0.248 NA
ATOM     70  C   UNL A   1      42.658  31.753  38.073  1.00  0.00     0.031 C 
ATOM     71  C   UNL A   1      43.343  28.528  32.978  1.00  0.00     0.029 A 
ATOM     72  C   UNL A   1      42.845  29.391  33.940  1.00  0.00     0.049 A 
ATOM     73  H   UNL A   1      41.057  30.511  33.929  1.00  0.00     0.167 HD
ATOM     74  C   UNL A   1      42.858  30.597  36.104  1.00  0.00     0.074 A 
ATOM     75  C   UNL A   1      43.451  30.950  37.377  1.00  0.00     0.031 C 
ATOM     76  C   UNL A   1      43.421  29.747  35.210  1.00  0.00     0.031 A 
BRANCH  63  77
ATOM     77  C   UNL A   1      40.065  28.940  30.086  1.00  0.00    -0.014 A 
ATOM     78  C   UNL A   1      40.539  29.514  28.895  1.00  0.00     0.009 A 
ATOM     79  C   UNL A   1      39.453  27.678  30.034  1.00  0.00     0.009 A 
ATOM     80  C   UNL A   1      40.364  28.858  27.674  1.00  0.00     0.001 A 
ATOM     81  C   UNL A   1      39.305  27.012  28.816  1.00  0.00     0.001 A 
ATOM     82  C   UNL A   1      39.751  27.607  27.635  1.00  0.00     0.000 A 
ENDBRANCH  63  77
BRANCH  64  83
ATOM     83  C   UNL A   1      40.548  33.592  38.886  1.00  0.00    -0.014 A 
ATOM     84  C   UNL A   1      39.940  33.026  40.018  1.00  0.00     0.009 A 
ATOM     85  C   UNL A   1      41.225  34.814  39.019  1.00  0.00     0.009 A 
ATOM     86  C   UNL A   1      39.984  33.683  41.249  1.00  0.00     0.001 A 
ATOM     87  C   UNL A   1      41.292  35.455  40.257  1.00  0.00     0.001 A 
ATOM     88  C   UNL A   1      40.663  34.895  41.369  1.00  0.00     0.000 A 
ENDBRANCH  64  83
BRANCH  76  89
ATOM     89  C   UNL A   1      44.760  29.168  35.570  1.00  0.00    -0.014 A 
ATOM     90  C   UNL A   1      44.868  27.955  36.266  1.00  0.00     0.009 A 
ATOM     91  C   UNL A   1      45.932  29.844  35.194  1.00  0.00     0.009 A 
ATOM     92  C   UNL A   1      46.123  27.450  36.615  1.00  0.00     0.001 A 
ATOM     93  C   UNL A   1      47.185  29.323  35.520  1.00  0.00     0.001 A 
ATOM     94  C   UNL A   1      47.279  28.133  36.239  1.00  0.00     0.000 A 
ENDBRANCH  76  89
ENDBRANCH  50  51
ENDBRANCH  42  45
ENDBRANCH  40  41
ENDBRANCH  39  40
ENDBRANCH  38  39
ENDBRANCH  37  38
ENDBRANCH   1  37
TORSDOF 19
ENDMDL
