MODEL 1
REMARK VINA RESULT:     -10.8      0.000      0.000
REMARK SMILES COCCN1C(=O)CC[C@@H](C(=O)NCCCCCCNC(=O)c2ccc(-c3c4nc(c(-c5ccccc5)c5ccc([nH]5)c(-c5ccccc5)c5nc(c(-c6ccccc6)c6ccc3[nH]6)C=C5)C=C4)cc2)[C@H]1c1ccccc1C
REMARK SMILES IDX 16 1 15 2 14 3 13 4 11 5 12 6 10 8 5 9 6 10 71 11 7 12 8 13
REMARK SMILES IDX 9 14 4 15 3 16 2 17 1 18 72 19 73 20 77 21 74 22 76 23 78 24
REMARK SMILES IDX 75 25 17 26 18 27 19 28 20 29 21 30 22 32 23 33 24 34 70 35
REMARK SMILES IDX 25 36 69 37 26 38 27 39 28 40 63 41 29 42 68 43 62 44 64 45
REMARK SMILES IDX 30 46 67 47 61 48 60 49 31 51 53 52 38 53 52 54 39 55 42 56
REMARK SMILES IDX 51 57 65 58 40 59 41 60 50 62 66 63 43 64 32 65 33 66 37 67
REMARK SMILES IDX 34 68 36 69 35 70 54 71 55 72 59 73 56 74 58 75 57 76 44 77
REMARK SMILES IDX 45 78 49 79 46 80 48 81 47 82
REMARK H PARENT 13 7 20 31 64 50 42 61
REMARK Flexibility Score: inf
ROOT
ATOM      1  C   UNL A   1      36.977  22.047  24.800  1.00  0.00     0.002 C 
ENDROOT
BRANCH   1   2
ATOM      2  C   UNL A   1      36.900  22.502  23.340  1.00  0.00     0.021 C 
BRANCH   2   3
ATOM      3  C   UNL A   1      35.758  23.461  23.047  1.00  0.00     0.116 C 
BRANCH   3   4
ATOM      4  N   UNL A   1      34.452  22.870  23.243  1.00  0.00    -0.356 N 
ATOM      5  C   UNL A   1      33.446  23.090  24.117  1.00  0.00     0.225 C 
ATOM      6  O   UNL A   1      32.351  22.623  23.766  1.00  0.00    -0.275 OA
ATOM      7  H   UNL A   1      34.253  22.151  22.600  1.00  0.00     0.163 HD
BRANCH   5   8
ATOM      8  C   UNL A   1      33.523  23.835  25.456  1.00  0.00     0.106 C 
ATOM      9  N   UNL A   1      31.322  24.975  25.854  1.00  0.00    -0.333 N 
ATOM     10  C   UNL A   1      30.924  23.986  26.769  1.00  0.00     0.223 C 
ATOM     11  C   UNL A   1      32.775  25.179  25.665  1.00  0.00     0.128 C 
ATOM     12  O   UNL A   1      29.764  23.872  27.172  1.00  0.00    -0.275 OA
ATOM     13  C   UNL A   1      31.961  23.023  27.330  1.00  0.00     0.101 C 
ATOM     14  C   UNL A   1      33.323  22.926  26.664  1.00  0.00     0.026 C 
BRANCH   9  15
ATOM     15  C   UNL A   1      30.295  26.027  25.624  1.00  0.00     0.148 C 
BRANCH  15  16
ATOM     16  C   UNL A   1      29.569  26.226  24.282  1.00  0.00     0.181 C 
BRANCH  16  17
ATOM     17  O   UNL A   1      29.496  27.589  23.865  1.00  0.00    -0.383 OA
ATOM     18  C   UNL A   1      30.117  27.805  22.605  1.00  0.00     0.194 C 
ENDBRANCH  16  17
ENDBRANCH  15  16
ENDBRANCH   9  15
BRANCH  11  19
ATOM     19  C   UNL A   1      33.226  26.367  24.803  1.00  0.00    -0.022 A 
ATOM     20  C   UNL A   1      33.360  26.240  23.406  1.00  0.00     0.006 A 
ATOM     21  C   UNL A   1      33.500  27.648  25.357  1.00  0.00    -0.046 A 
ATOM     22  C   UNL A   1      33.677  27.319  22.577  1.00  0.00     0.000 A 
ATOM     23  C   UNL A   1      33.811  28.730  24.503  1.00  0.00     0.004 A 
ATOM     24  C   UNL A   1      33.512  27.961  26.832  1.00  0.00     0.045 C 
ATOM     25  C   UNL A   1      33.880  28.572  23.123  1.00  0.00     0.000 A 
ENDBRANCH  11  19
ENDBRANCH   5   8
ENDBRANCH   3   4
ENDBRANCH   2   3
ENDBRANCH   1   2
BRANCH   1  26
ATOM     26  C   UNL A   1      36.649  20.566  25.013  1.00  0.00     0.002 C 
BRANCH  26  27
ATOM     27  C   UNL A   1      37.869  19.642  25.070  1.00  0.00     0.021 C 
BRANCH  27  28
ATOM     28  C   UNL A   1      39.069  20.233  25.804  1.00  0.00     0.116 C 
BRANCH  28  29
ATOM     29  N   UNL A   1      40.182  19.296  25.843  1.00  0.00    -0.352 N 
ATOM     30  C   UNL A   1      41.515  19.561  26.037  1.00  0.00     0.251 C 
ATOM     31  H   UNL A   1      39.949  18.348  25.712  1.00  0.00     0.163 HD
ATOM     32  O   UNL A   1      42.371  18.722  25.787  1.00  0.00    -0.269 OA
BRANCH  30  33
ATOM     33  C   UNL A   1      41.900  20.888  26.551  1.00  0.00     0.039 A 
ATOM     34  C   UNL A   1      42.221  21.905  25.652  1.00  0.00     0.014 A 
ATOM     35  C   UNL A   1      41.918  21.121  27.930  1.00  0.00     0.014 A 
ATOM     36  C   UNL A   1      42.516  23.179  26.139  1.00  0.00     0.010 A 
ATOM     37  C   UNL A   1      42.136  22.406  28.407  1.00  0.00     0.010 A 
ATOM     38  C   UNL A   1      42.451  23.444  27.517  1.00  0.00    -0.014 A 
BRANCH  38  39
ATOM     39  C   UNL A   1      42.727  24.800  28.049  1.00  0.00     0.031 A 
ATOM     40  C   UNL A   1      44.119  25.168  28.477  1.00  0.00     0.074 A 
ATOM     41  C   UNL A   1      41.715  25.677  28.199  1.00  0.00     0.049 A 
ATOM     42  N   UNL A   1      44.555  26.288  28.998  1.00  0.00    -0.248 NA
ATOM     43  C   UNL A   1      45.156  24.134  28.325  1.00  0.00     0.031 C 
ATOM     44  C   UNL A   1      40.313  25.418  27.868  1.00  0.00     0.029 A 
ATOM     45  N   UNL A   1      41.713  26.961  28.677  1.00  0.00    -0.354 N 
ATOM     46  C   UNL A   1      45.907  26.086  29.246  1.00  0.00     0.074 A 
ATOM     47  C   UNL A   1      46.207  24.721  28.876  1.00  0.00     0.031 C 
ATOM     48  C   UNL A   1      39.591  26.520  28.128  1.00  0.00     0.029 A 
ATOM     49  C   UNL A   1      40.470  27.546  28.679  1.00  0.00     0.049 A 
ATOM     50  H   UNL A   1      42.525  27.423  28.990  1.00  0.00     0.167 HD
ATOM     51  C   UNL A   1      46.823  26.965  29.716  1.00  0.00     0.031 A 
ATOM     52  C   UNL A   1      40.082  28.770  29.082  1.00  0.00     0.031 A 
ATOM     53  C   UNL A   1      46.521  28.322  30.083  1.00  0.00     0.049 A 
ATOM     54  C   UNL A   1      41.115  29.726  29.611  1.00  0.00     0.074 A 
ATOM     55  C   UNL A   1      47.384  29.310  30.522  1.00  0.00     0.029 A 
ATOM     56  N   UNL A   1      45.252  28.879  30.058  1.00  0.00    -0.354 N 
ATOM     57  N   UNL A   1      42.405  29.547  29.767  1.00  0.00    -0.248 NA
ATOM     58  C   UNL A   1      40.640  31.060  30.006  1.00  0.00     0.031 C 
ATOM     59  C   UNL A   1      46.628  30.450  30.815  1.00  0.00     0.029 A 
ATOM     60  C   UNL A   1      45.303  30.192  30.498  1.00  0.00     0.049 A 
ATOM     61  H   UNL A   1      44.434  28.412  29.770  1.00  0.00     0.167 HD
ATOM     62  C   UNL A   1      42.898  30.750  30.253  1.00  0.00     0.074 A 
ATOM     63  C   UNL A   1      41.773  31.657  30.347  1.00  0.00     0.031 C 
ATOM     64  C   UNL A   1      44.170  31.076  30.591  1.00  0.00     0.031 A 
BRANCH  51  65
ATOM     65  C   UNL A   1      48.237  26.472  29.866  1.00  0.00    -0.014 A 
ATOM     66  C   UNL A   1      48.679  25.885  31.063  1.00  0.00     0.009 A 
ATOM     67  C   UNL A   1      49.135  26.584  28.794  1.00  0.00     0.009 A 
ATOM     68  C   UNL A   1      50.004  25.463  31.199  1.00  0.00     0.001 A 
ATOM     69  C   UNL A   1      50.450  26.131  28.920  1.00  0.00     0.001 A 
ATOM     70  C   UNL A   1      50.886  25.582  30.125  1.00  0.00     0.000 A 
ENDBRANCH  51  65
BRANCH  52  71
ATOM     71  C   UNL A   1      38.653  29.165  28.985  1.00  0.00    -0.014 A 
ATOM     72  C   UNL A   1      37.809  29.075  30.103  1.00  0.00     0.009 A 
ATOM     73  C   UNL A   1      38.124  29.636  27.774  1.00  0.00     0.009 A 
ATOM     74  C   UNL A   1      36.461  29.426  30.003  1.00  0.00     0.001 A 
ATOM     75  C   UNL A   1      36.783  30.015  27.684  1.00  0.00     0.001 A 
ATOM     76  C   UNL A   1      35.950  29.901  28.796  1.00  0.00     0.000 A 
ENDBRANCH  52  71
BRANCH  64  77
ATOM     77  C   UNL A   1      44.414  32.481  31.065  1.00  0.00    -0.014 A 
ATOM     78  C   UNL A   1      44.365  32.813  32.428  1.00  0.00     0.009 A 
ATOM     79  C   UNL A   1      44.739  33.481  30.134  1.00  0.00     0.009 A 
ATOM     80  C   UNL A   1      44.599  34.124  32.844  1.00  0.00     0.001 A 
ATOM     81  C   UNL A   1      45.003  34.784  30.556  1.00  0.00     0.001 A 
ATOM     82  C   UNL A   1      44.923  35.107  31.909  1.00  0.00     0.000 A 
ENDBRANCH  64  77
ENDBRANCH  38  39
ENDBRANCH  30  33
ENDBRANCH  28  29
ENDBRANCH  27  28
ENDBRANCH  26  27
ENDBRANCH   1  26
TORSDOF 17
ENDMDL
MODEL 2
REMARK VINA RESULT:     -10.7      3.133      8.625
REMARK SMILES COCCN1C(=O)CC[C@@H](C(=O)NCCCCCCNC(=O)c2ccc(-c3c4nc(c(-c5ccccc5)c5ccc([nH]5)c(-c5ccccc5)c5nc(c(-c6ccccc6)c6ccc3[nH]6)C=C5)C=C4)cc2)[C@H]1c1ccccc1C
REMARK SMILES IDX 16 1 15 2 14 3 13 4 11 5 12 6 10 8 5 9 6 10 71 11 7 12 8 13
REMARK SMILES IDX 9 14 4 15 3 16 2 17 1 18 72 19 73 20 77 21 74 22 76 23 78 24
REMARK SMILES IDX 75 25 17 26 18 27 19 28 20 29 21 30 22 32 23 33 24 34 70 35
REMARK SMILES IDX 25 36 69 37 26 38 27 39 28 40 63 41 29 42 68 43 62 44 64 45
REMARK SMILES IDX 30 46 67 47 61 48 60 49 31 51 53 52 38 53 52 54 39 55 42 56
REMARK SMILES IDX 51 57 65 58 40 59 41 60 50 62 66 63 43 64 32 65 33 66 37 67
REMARK SMILES IDX 34 68 36 69 35 70 54 71 55 72 59 73 56 74 58 75 57 76 44 77
REMARK SMILES IDX 45 78 49 79 46 80 48 81 47 82
REMARK H PARENT 13 7 20 31 64 50 42 61
REMARK Flexibility Score: inf
ROOT
ATOM      1  C   UNL A   1      32.417  30.331  26.707  1.00  0.00     0.002 C 
ENDROOT
BRANCH   1   2
ATOM      2  C   UNL A   1      31.943  28.983  27.259  1.00  0.00     0.021 C 
BRANCH   2   3
ATOM      3  C   UNL A   1      32.850  27.815  26.911  1.00  0.00     0.116 C 
BRANCH   3   4
ATOM      4  N   UNL A   1      33.702  28.075  25.770  1.00  0.00    -0.356 N 
ATOM      5  C   UNL A   1      33.635  27.755  24.460  1.00  0.00     0.225 C 
ATOM      6  O   UNL A   1      34.369  28.437  23.728  1.00  0.00    -0.275 OA
ATOM      7  H   UNL A   1      34.504  28.599  25.998  1.00  0.00     0.163 HD
BRANCH   5   8
ATOM      8  C   UNL A   1      32.771  26.666  23.811  1.00  0.00     0.106 C 
ATOM      9  N   UNL A   1      31.959  25.122  25.618  1.00  0.00    -0.333 N 
ATOM     10  C   UNL A   1      30.685  25.714  25.614  1.00  0.00     0.223 C 
ATOM     11  C   UNL A   1      32.756  25.218  24.375  1.00  0.00     0.128 C 
ATOM     12  O   UNL A   1      29.850  25.515  26.499  1.00  0.00    -0.275 OA
ATOM     13  C   UNL A   1      30.283  26.618  24.457  1.00  0.00     0.101 C 
ATOM     14  C   UNL A   1      31.351  27.127  23.504  1.00  0.00     0.026 C 
BRANCH   9  15
ATOM     15  C   UNL A   1      32.113  24.036  26.624  1.00  0.00     0.148 C 
BRANCH  15  16
ATOM     16  C   UNL A   1      31.893  22.547  26.307  1.00  0.00     0.181 C 
BRANCH  16  17
ATOM     17  O   UNL A   1      33.074  21.754  26.423  1.00  0.00    -0.383 OA
ATOM     18  C   UNL A   1      33.865  22.121  27.546  1.00  0.00     0.194 C 
ENDBRANCH  16  17
ENDBRANCH  15  16
ENDBRANCH   9  15
BRANCH  11  19
ATOM     19  C   UNL A   1      34.072  24.431  24.304  1.00  0.00    -0.022 A 
ATOM     20  C   UNL A   1      35.122  24.690  25.209  1.00  0.00     0.006 A 
ATOM     21  C   UNL A   1      34.288  23.394  23.355  1.00  0.00    -0.046 A 
ATOM     22  C   UNL A   1      36.297  23.935  25.237  1.00  0.00     0.000 A 
ATOM     23  C   UNL A   1      35.479  22.635  23.404  1.00  0.00     0.004 A 
ATOM     24  C   UNL A   1      33.334  23.035  22.245  1.00  0.00     0.045 C 
ATOM     25  C   UNL A   1      36.467  22.889  24.349  1.00  0.00     0.000 A 
ENDBRANCH  11  19
ENDBRANCH   5   8
ENDBRANCH   3   4
ENDBRANCH   2   3
ENDBRANCH   1   2
BRANCH   1  26
ATOM     26  C   UNL A   1      31.290  31.223  26.179  1.00  0.00     0.002 C 
BRANCH  26  27
ATOM     27  C   UNL A   1      31.326  32.668  26.685  1.00  0.00     0.021 C 
BRANCH  27  28
ATOM     28  C   UNL A   1      32.685  33.110  27.223  1.00  0.00     0.116 C 
BRANCH  28  29
ATOM     29  N   UNL A   1      32.569  34.309  28.039  1.00  0.00    -0.352 N 
ATOM     30  C   UNL A   1      33.310  34.669  29.136  1.00  0.00     0.251 C 
ATOM     31  H   UNL A   1      31.867  34.945  27.769  1.00  0.00     0.163 HD
ATOM     32  O   UNL A   1      32.943  35.567  29.882  1.00  0.00    -0.269 OA
BRANCH  30  33
ATOM     33  C   UNL A   1      34.566  33.944  29.406  1.00  0.00     0.039 A 
ATOM     34  C   UNL A   1      35.700  34.230  28.645  1.00  0.00     0.014 A 
ATOM     35  C   UNL A   1      34.614  32.998  30.434  1.00  0.00     0.014 A 
ATOM     36  C   UNL A   1      36.903  33.594  28.949  1.00  0.00     0.010 A 
ATOM     37  C   UNL A   1      35.829  32.424  30.784  1.00  0.00     0.010 A 
ATOM     38  C   UNL A   1      36.983  32.707  30.036  1.00  0.00    -0.014 A 
BRANCH  38  39
ATOM     39  C   UNL A   1      38.261  32.050  30.395  1.00  0.00     0.031 A 
ATOM     40  C   UNL A   1      39.213  32.727  31.341  1.00  0.00     0.074 A 
ATOM     41  C   UNL A   1      38.589  30.873  29.828  1.00  0.00     0.049 A 
ATOM     42  N   UNL A   1      40.393  32.332  31.751  1.00  0.00    -0.248 NA
ATOM     43  C   UNL A   1      38.799  34.034  31.876  1.00  0.00     0.031 C 
ATOM     44  C   UNL A   1      37.772  30.142  28.858  1.00  0.00     0.029 A 
ATOM     45  N   UNL A   1      39.703  30.089  29.982  1.00  0.00    -0.354 N 
ATOM     46  C   UNL A   1      40.862  33.345  32.578  1.00  0.00     0.074 A 
ATOM     47  C   UNL A   1      39.871  34.397  32.564  1.00  0.00     0.031 C 
ATOM     48  C   UNL A   1      38.400  29.004  28.524  1.00  0.00     0.029 A 
ATOM     49  C   UNL A   1      39.679  28.943  29.225  1.00  0.00     0.049 A 
ATOM     50  H   UNL A   1      40.451  30.324  30.579  1.00  0.00     0.167 HD
ATOM     51  C   UNL A   1      42.004  33.385  33.303  1.00  0.00     0.031 A 
ATOM     52  C   UNL A   1      40.586  27.956  29.106  1.00  0.00     0.031 A 
ATOM     53  C   UNL A   1      42.988  32.336  33.314  1.00  0.00     0.049 A 
ATOM     54  C   UNL A   1      41.853  28.028  29.914  1.00  0.00     0.074 A 
ATOM     55  C   UNL A   1      44.155  32.255  34.052  1.00  0.00     0.029 A 
ATOM     56  N   UNL A   1      42.920  31.187  32.542  1.00  0.00    -0.354 N 
ATOM     57  N   UNL A   1      42.248  28.956  30.752  1.00  0.00    -0.248 NA
ATOM     58  C   UNL A   1      42.792  26.907  29.769  1.00  0.00     0.031 C 
ATOM     59  C   UNL A   1      44.821  31.080  33.686  1.00  0.00     0.029 A 
ATOM     60  C   UNL A   1      44.037  30.400  32.768  1.00  0.00     0.049 A 
ATOM     61  H   UNL A   1      42.186  30.961  31.926  1.00  0.00     0.167 HD
ATOM     62  C   UNL A   1      43.466  28.520  31.253  1.00  0.00     0.074 A 
ATOM     63  C   UNL A   1      43.736  27.235  30.640  1.00  0.00     0.031 C 
ATOM     64  C   UNL A   1      44.291  29.127  32.142  1.00  0.00     0.031 A 
BRANCH  51  65
ATOM     65  C   UNL A   1      42.247  34.615  34.136  1.00  0.00    -0.014 A 
ATOM     66  C   UNL A   1      42.885  35.744  33.598  1.00  0.00     0.009 A 
ATOM     67  C   UNL A   1      41.822  34.650  35.473  1.00  0.00     0.009 A 
ATOM     68  C   UNL A   1      43.134  36.865  34.393  1.00  0.00     0.001 A 
ATOM     69  C   UNL A   1      42.042  35.784  36.257  1.00  0.00     0.001 A 
ATOM     70  C   UNL A   1      42.708  36.886  35.721  1.00  0.00     0.000 A 
ENDBRANCH  51  65
BRANCH  52  71
ATOM     71  C   UNL A   1      40.321  26.810  28.199  1.00  0.00    -0.014 A 
ATOM     72  C   UNL A   1      39.558  25.715  28.634  1.00  0.00     0.009 A 
ATOM     73  C   UNL A   1      40.827  26.805  26.890  1.00  0.00     0.009 A 
ATOM     74  C   UNL A   1      39.329  24.629  27.786  1.00  0.00     0.001 A 
ATOM     75  C   UNL A   1      40.572  25.731  26.035  1.00  0.00     0.001 A 
ATOM     76  C   UNL A   1      39.832  24.640  26.486  1.00  0.00     0.000 A 
ENDBRANCH  52  71
BRANCH  64  77
ATOM     77  C   UNL A   1      45.545  28.394  32.526  1.00  0.00    -0.014 A 
ATOM     78  C   UNL A   1      46.756  28.615  31.852  1.00  0.00     0.009 A 
ATOM     79  C   UNL A   1      45.522  27.498  33.606  1.00  0.00     0.009 A 
ATOM     80  C   UNL A   1      47.910  27.925  32.230  1.00  0.00     0.001 A 
ATOM     81  C   UNL A   1      46.683  26.833  34.001  1.00  0.00     0.001 A 
ATOM     82  C   UNL A   1      47.873  27.039  33.306  1.00  0.00     0.000 A 
ENDBRANCH  64  77
ENDBRANCH  38  39
ENDBRANCH  30  33
ENDBRANCH  28  29
ENDBRANCH  27  28
ENDBRANCH  26  27
ENDBRANCH   1  26
TORSDOF 17
ENDMDL
MODEL 3
REMARK VINA RESULT:     -10.6      4.133      9.056
REMARK SMILES COCCN1C(=O)CC[C@@H](C(=O)NCCCCCCNC(=O)c2ccc(-c3c4nc(c(-c5ccccc5)c5ccc([nH]5)c(-c5ccccc5)c5nc(c(-c6ccccc6)c6ccc3[nH]6)C=C5)C=C4)cc2)[C@H]1c1ccccc1C
REMARK SMILES IDX 16 1 15 2 14 3 13 4 11 5 12 6 10 8 5 9 6 10 71 11 7 12 8 13
REMARK SMILES IDX 9 14 4 15 3 16 2 17 1 18 72 19 73 20 77 21 74 22 76 23 78 24
REMARK SMILES IDX 75 25 17 26 18 27 19 28 20 29 21 30 22 32 23 33 24 34 70 35
REMARK SMILES IDX 25 36 69 37 26 38 27 39 28 40 63 41 29 42 68 43 62 44 64 45
REMARK SMILES IDX 30 46 67 47 61 48 60 49 31 51 53 52 38 53 52 54 39 55 42 56
REMARK SMILES IDX 51 57 65 58 40 59 41 60 50 62 66 63 43 64 32 65 33 66 37 67
REMARK SMILES IDX 34 68 36 69 35 70 54 71 55 72 59 73 56 74 58 75 57 76 44 77
REMARK SMILES IDX 45 78 49 79 46 80 48 81 47 82
REMARK H PARENT 13 7 20 31 64 50 42 61
REMARK Flexibility Score: inf
ROOT
ATOM      1  C   UNL A   1      32.776  30.172  26.836  1.00  0.00     0.002 C 
ENDROOT
BRANCH   1   2
ATOM      2  C   UNL A   1      32.432  28.809  27.446  1.00  0.00     0.021 C 
BRANCH   2   3
ATOM      3  C   UNL A   1      33.171  27.641  26.817  1.00  0.00     0.116 C 
BRANCH   3   4
ATOM      4  N   UNL A   1      33.856  27.993  25.592  1.00  0.00    -0.356 N 
ATOM      5  C   UNL A   1      33.641  27.719  24.287  1.00  0.00     0.225 C 
ATOM      6  O   UNL A   1      34.237  28.471  23.500  1.00  0.00    -0.275 OA
ATOM      7  H   UNL A   1      34.651  28.554  25.741  1.00  0.00     0.163 HD
BRANCH   5   8
ATOM      8  C   UNL A   1      32.760  26.607  23.703  1.00  0.00     0.106 C 
ATOM      9  N   UNL A   1      32.013  25.122  25.585  1.00  0.00    -0.333 N 
ATOM     10  C   UNL A   1      30.737  25.710  25.603  1.00  0.00     0.223 C 
ATOM     11  C   UNL A   1      32.769  25.179  24.314  1.00  0.00     0.128 C 
ATOM     12  O   UNL A   1      29.931  25.538  26.520  1.00  0.00    -0.275 OA
ATOM     13  C   UNL A   1      30.294  26.574  24.430  1.00  0.00     0.101 C 
ATOM     14  C   UNL A   1      31.329  27.053  23.426  1.00  0.00     0.026 C 
BRANCH   9  15
ATOM     15  C   UNL A   1      32.203  24.071  26.622  1.00  0.00     0.148 C 
BRANCH  15  16
ATOM     16  C   UNL A   1      31.862  22.587  26.399  1.00  0.00     0.181 C 
BRANCH  16  17
ATOM     17  O   UNL A   1      33.008  21.758  26.206  1.00  0.00    -0.383 OA
ATOM     18  C   UNL A   1      33.863  21.742  27.340  1.00  0.00     0.194 C 
ENDBRANCH  16  17
ENDBRANCH  15  16
ENDBRANCH   9  15
BRANCH  11  19
ATOM     19  C   UNL A   1      34.085  24.394  24.227  1.00  0.00    -0.022 A 
ATOM     20  C   UNL A   1      35.110  24.589  25.176  1.00  0.00     0.006 A 
ATOM     21  C   UNL A   1      34.325  23.421  23.219  1.00  0.00    -0.046 A 
ATOM     22  C   UNL A   1      36.283  23.830  25.186  1.00  0.00     0.000 A 
ATOM     23  C   UNL A   1      35.513  22.655  23.250  1.00  0.00     0.004 A 
ATOM     24  C   UNL A   1      33.401  23.138  22.062  1.00  0.00     0.045 C 
ATOM     25  C   UNL A   1      36.475  22.844  24.236  1.00  0.00     0.000 A 
ENDBRANCH  11  19
ENDBRANCH   5   8
ENDBRANCH   3   4
ENDBRANCH   2   3
ENDBRANCH   1   2
BRANCH   1  26
ATOM     26  C   UNL A   1      31.588  30.885  26.185  1.00  0.00     0.002 C 
BRANCH  26  27
ATOM     27  C   UNL A   1      31.398  32.341  26.622  1.00  0.00     0.021 C 
BRANCH  27  28
ATOM     28  C   UNL A   1      32.583  32.926  27.386  1.00  0.00     0.116 C 
BRANCH  28  29
ATOM     29  N   UNL A   1      32.397  34.346  27.646  1.00  0.00    -0.352 N 
ATOM     30  C   UNL A   1      32.985  35.119  28.615  1.00  0.00     0.251 C 
ATOM     31  H   UNL A   1      31.767  34.812  27.050  1.00  0.00     0.163 HD
ATOM     32  O   UNL A   1      32.550  36.229  28.891  1.00  0.00    -0.269 OA
BRANCH  30  33
ATOM     33  C   UNL A   1      34.159  34.582  29.328  1.00  0.00     0.039 A 
ATOM     34  C   UNL A   1      33.987  33.981  30.576  1.00  0.00     0.014 A 
ATOM     35  C   UNL A   1      35.425  34.658  28.740  1.00  0.00     0.014 A 
ATOM     36  C   UNL A   1      35.088  33.410  31.215  1.00  0.00     0.010 A 
ATOM     37  C   UNL A   1      36.503  34.023  29.342  1.00  0.00     0.010 A 
ATOM     38  C   UNL A   1      36.347  33.404  30.592  1.00  0.00    -0.014 A 
BRANCH  38  39
ATOM     39  C   UNL A   1      37.519  32.772  31.241  1.00  0.00     0.031 A 
ATOM     40  C   UNL A   1      38.163  31.566  30.617  1.00  0.00     0.074 A 
ATOM     41  C   UNL A   1      37.967  33.247  32.419  1.00  0.00     0.049 A 
ATOM     42  N   UNL A   1      39.173  30.852  31.047  1.00  0.00    -0.248 NA
ATOM     43  C   UNL A   1      37.580  31.081  29.355  1.00  0.00     0.031 C 
ATOM     44  C   UNL A   1      37.394  34.380  33.150  1.00  0.00     0.029 A 
ATOM     45  N   UNL A   1      39.005  32.831  33.212  1.00  0.00    -0.354 N 
ATOM     46  C   UNL A   1      39.334  29.831  30.118  1.00  0.00     0.074 A 
ATOM     47  C   UNL A   1      38.284  29.982  29.136  1.00  0.00     0.031 C 
ATOM     48  C   UNL A   1      38.105  34.583  34.270  1.00  0.00     0.029 A 
ATOM     49  C   UNL A   1      39.157  33.576  34.356  1.00  0.00     0.049 A 
ATOM     50  H   UNL A   1      39.588  32.070  32.984  1.00  0.00     0.167 HD
ATOM     51  C   UNL A   1      40.285  28.869  30.073  1.00  0.00     0.031 A 
ATOM     52  C   UNL A   1      40.042  33.458  35.363  1.00  0.00     0.031 A 
ATOM     53  C   UNL A   1      41.328  28.722  31.052  1.00  0.00     0.049 A 
ATOM     54  C   UNL A   1      41.083  32.375  35.297  1.00  0.00     0.074 A 
ATOM     55  C   UNL A   1      42.371  27.814  31.073  1.00  0.00     0.029 A 
ATOM     56  N   UNL A   1      41.454  29.505  32.190  1.00  0.00    -0.354 N 
ATOM     57  N   UNL A   1      41.272  31.464  34.372  1.00  0.00    -0.248 NA
ATOM     58  C   UNL A   1      42.043  32.313  36.408  1.00  0.00     0.031 C 
ATOM     59  C   UNL A   1      43.097  28.012  32.252  1.00  0.00     0.029 A 
ATOM     60  C   UNL A   1      42.544  29.084  32.934  1.00  0.00     0.049 A 
ATOM     61  H   UNL A   1      40.858  30.250  32.433  1.00  0.00     0.167 HD
ATOM     62  C   UNL A   1      42.384  30.739  34.775  1.00  0.00     0.074 A 
ATOM     63  C   UNL A   1      42.841  31.328  36.017  1.00  0.00     0.031 C 
ATOM     64  C   UNL A   1      42.978  29.680  34.172  1.00  0.00     0.031 A 
BRANCH  51  65
ATOM     65  C   UNL A   1      40.227  27.897  28.926  1.00  0.00    -0.014 A 
ATOM     66  C   UNL A   1      39.524  26.686  29.033  1.00  0.00     0.009 A 
ATOM     67  C   UNL A   1      40.873  28.200  27.717  1.00  0.00     0.009 A 
ATOM     68  C   UNL A   1      39.508  25.779  27.971  1.00  0.00     0.001 A 
ATOM     69  C   UNL A   1      40.828  27.307  26.646  1.00  0.00     0.001 A 
ATOM     70  C   UNL A   1      40.155  26.092  26.777  1.00  0.00     0.000 A 
ENDBRANCH  51  65
BRANCH  52  71
ATOM     71  C   UNL A   1      39.991  34.400  36.511  1.00  0.00    -0.014 A 
ATOM     72  C   UNL A   1      39.193  34.120  37.631  1.00  0.00     0.009 A 
ATOM     73  C   UNL A   1      40.742  35.586  36.493  1.00  0.00     0.009 A 
ATOM     74  C   UNL A   1      39.130  35.019  38.699  1.00  0.00     0.001 A 
ATOM     75  C   UNL A   1      40.701  36.468  37.575  1.00  0.00     0.001 A 
ATOM     76  C   UNL A   1      39.888  36.189  38.672  1.00  0.00     0.000 A 
ENDBRANCH  52  71
BRANCH  64  77
ATOM     77  C   UNL A   1      44.202  29.111  34.833  1.00  0.00    -0.014 A 
ATOM     78  C   UNL A   1      44.113  28.052  35.749  1.00  0.00     0.009 A 
ATOM     79  C   UNL A   1      45.468  29.619  34.501  1.00  0.00     0.009 A 
ATOM     80  C   UNL A   1      45.265  27.538  36.347  1.00  0.00     0.001 A 
ATOM     81  C   UNL A   1      46.620  29.082  35.077  1.00  0.00     0.001 A 
ATOM     82  C   UNL A   1      46.517  28.049  36.007  1.00  0.00     0.000 A 
ENDBRANCH  64  77
ENDBRANCH  38  39
ENDBRANCH  30  33
ENDBRANCH  28  29
ENDBRANCH  27  28
ENDBRANCH  26  27
ENDBRANCH   1  26
TORSDOF 17
ENDMDL
