MODEL 1
REMARK VINA RESULT:     -11.5      0.000      0.000
REMARK SMILES Cc1cccc(OCC(=O)Nc2cc(C(=O)NCCCCCCNC(=O)c3ccc(-c4c5nc(c(-c6ccccc6)c6ccc([nH]6)c(-c6ccccc6)c6nc(c(-c7ccccc7)c7ccc4[nH]7)C=C6)C=C5)cc3)c(Cl)cc2Cl)c1
REMARK SMILES IDX 19 1 18 2 17 3 15 4 16 5 14 7 12 8 13 9 78 10 77 11 79 12
REMARK SMILES IDX 75 13 76 14 11 15 9 16 10 17 8 19 7 20 6 21 1 22 2 23 3 24
REMARK SMILES IDX 80 25 4 26 5 27 20 28 21 29 22 30 23 31 24 32 25 33 26 35
REMARK SMILES IDX 27 36 28 37 74 38 29 39 73 40 30 41 31 42 32 43 67 44 33 45
REMARK SMILES IDX 72 46 66 47 68 48 34 49 71 50 65 51 64 52 35 54 57 55 42 56
REMARK SMILES IDX 56 57 43 58 46 59 55 60 69 61 44 62 45 63 54 65 70 66 47 67
REMARK SMILES IDX 36 68 37 69 41 70 38 71 40 72 39 73 58 74 59 75 63 76 60 77
REMARK SMILES IDX 62 78 61 79 48 80 49 81 53 82 50 83 52 84 51 85
REMARK H PARENT 17 6 11 18 24 34 68 53 46 64
REMARK Flexibility Score: inf
ROOT
ATOM      1  C   UNL A   1      33.014  29.425  25.813  1.00  0.00     0.021 C 
ENDROOT
BRANCH   1   2
ATOM      2  C   UNL A   1      31.637  28.835  25.492  1.00  0.00     0.116 C 
BRANCH   2   3
ATOM      3  N   UNL A   1      31.136  29.068  24.159  1.00  0.00    -0.352 N 
ATOM      4  C   UNL A   1      30.944  28.178  23.121  1.00  0.00     0.252 C 
ATOM      5  O   UNL A   1      30.312  28.568  22.142  1.00  0.00    -0.269 OA
ATOM      6  H   UNL A   1      30.895  30.001  23.959  1.00  0.00     0.163 HD
BRANCH   4   7
ATOM      7  C   UNL A   1      31.467  26.773  23.135  1.00  0.00     0.060 A 
ATOM      8  C   UNL A   1      31.252  24.409  23.765  1.00  0.00     0.061 A 
ATOM      9  C   UNL A   1      30.758  25.723  23.768  1.00  0.00     0.043 A 
ATOM     10  C   UNL A   1      32.438  24.147  23.043  1.00  0.00     0.066 A 
ATOM     11  C   UNL A   1      33.118  25.157  22.370  1.00  0.00     0.044 A 
ATOM     12  Cl  UNL A   1      33.095  22.543  22.950  1.00  0.00    -0.082 Cl
ATOM     13  C   UNL A   1      32.649  26.471  22.430  1.00  0.00     0.055 A 
ATOM     14  Cl  UNL A   1      33.633  27.657  21.644  1.00  0.00    -0.083 Cl
BRANCH   8  15
ATOM     15  N   UNL A   1      30.699  23.316  24.465  1.00  0.00    -0.322 N 
ATOM     16  C   UNL A   1      30.676  22.856  25.744  1.00  0.00     0.262 C 
ATOM     17  O   UNL A   1      30.129  21.763  25.934  1.00  0.00    -0.271 OA
ATOM     18  H   UNL A   1      30.193  22.723  23.863  1.00  0.00     0.170 HD
BRANCH  16  19
ATOM     19  C   UNL A   1      31.201  23.656  26.932  1.00  0.00     0.329 C 
BRANCH  19  20
ATOM     20  O   UNL A   1      32.410  23.232  27.537  1.00  0.00    -0.484 OA
BRANCH  20  21
ATOM     21  C   UNL A   1      33.532  23.246  26.759  1.00  0.00     0.120 A 
ATOM     22  C   UNL A   1      36.350  21.202  25.235  1.00  0.00     0.044 C 
ATOM     23  C   UNL A   1      35.431  22.339  25.569  1.00  0.00    -0.047 A 
ATOM     24  C   UNL A   1      35.741  23.617  25.088  1.00  0.00     0.003 A 
ATOM     25  C   UNL A   1      34.315  22.154  26.405  1.00  0.00     0.049 A 
ATOM     26  C   UNL A   1      34.998  24.714  25.489  1.00  0.00     0.004 A 
ATOM     27  C   UNL A   1      33.918  24.513  26.332  1.00  0.00     0.046 A 
ENDBRANCH  20  21
ENDBRANCH  19  20
ENDBRANCH  16  19
ENDBRANCH   8  15
ENDBRANCH   4   7
ENDBRANCH   2   3
ENDBRANCH   1   2
BRANCH   1  28
ATOM     28  C   UNL A   1      34.012  28.708  26.749  1.00  0.00     0.002 C 
BRANCH  28  29
ATOM     29  C   UNL A   1      35.260  29.392  27.322  1.00  0.00     0.002 C 
BRANCH  29  30
ATOM     30  C   UNL A   1      35.104  30.555  28.310  1.00  0.00     0.021 C 
BRANCH  30  31
ATOM     31  C   UNL A   1      35.032  31.977  27.736  1.00  0.00     0.116 C 
BRANCH  31  32
ATOM     32  N   UNL A   1      34.088  32.870  28.412  1.00  0.00    -0.352 N 
ATOM     33  C   UNL A   1      34.255  33.647  29.561  1.00  0.00     0.251 C 
ATOM     34  H   UNL A   1      33.200  32.933  27.993  1.00  0.00     0.163 HD
ATOM     35  O   UNL A   1      33.377  34.374  29.952  1.00  0.00    -0.269 OA
BRANCH  33  36
ATOM     36  C   UNL A   1      35.585  33.662  30.231  1.00  0.00     0.039 A 
ATOM     37  C   UNL A   1      36.654  34.273  29.563  1.00  0.00     0.014 A 
ATOM     38  C   UNL A   1      35.814  32.921  31.381  1.00  0.00     0.014 A 
ATOM     39  C   UNL A   1      37.959  33.884  29.865  1.00  0.00     0.010 A 
ATOM     40  C   UNL A   1      37.100  32.483  31.632  1.00  0.00     0.010 A 
ATOM     41  C   UNL A   1      38.153  32.878  30.807  1.00  0.00    -0.014 A 
BRANCH  41  42
ATOM     42  C   UNL A   1      39.335  32.020  30.836  1.00  0.00     0.031 A 
ATOM     43  C   UNL A   1      39.393  30.741  30.107  1.00  0.00     0.074 A 
ATOM     44  C   UNL A   1      40.436  32.447  31.496  1.00  0.00     0.049 A 
ATOM     45  N   UNL A   1      40.182  29.766  30.419  1.00  0.00    -0.248 NA
ATOM     46  C   UNL A   1      38.519  30.439  28.982  1.00  0.00     0.031 C 
ATOM     47  C   UNL A   1      41.795  31.912  31.424  1.00  0.00     0.029 A 
ATOM     48  N   UNL A   1      40.516  33.359  32.530  1.00  0.00    -0.354 N 
ATOM     49  C   UNL A   1      40.144  28.858  29.389  1.00  0.00     0.074 A 
ATOM     50  C   UNL A   1      39.022  29.269  28.575  1.00  0.00     0.031 C 
ATOM     51  C   UNL A   1      42.476  32.307  32.514  1.00  0.00     0.029 A 
ATOM     52  C   UNL A   1      41.531  32.971  33.398  1.00  0.00     0.049 A 
ATOM     53  H   UNL A   1      39.946  34.155  32.635  1.00  0.00     0.167 HD
ATOM     54  C   UNL A   1      41.156  27.953  29.252  1.00  0.00     0.031 A 
ATOM     55  C   UNL A   1      41.276  32.585  34.683  1.00  0.00     0.031 A 
ATOM     56  C   UNL A   1      42.120  28.032  30.352  1.00  0.00     0.049 A 
ATOM     57  C   UNL A   1      41.702  31.163  34.997  1.00  0.00     0.074 A 
ATOM     58  C   UNL A   1      43.390  28.576  30.457  1.00  0.00     0.029 A 
ATOM     59  N   UNL A   1      41.713  27.734  31.647  1.00  0.00    -0.354 N 
ATOM     60  N   UNL A   1      41.937  30.250  34.096  1.00  0.00    -0.248 NA
ATOM     61  C   UNL A   1      41.839  30.648  36.357  1.00  0.00     0.031 C 
ATOM     62  C   UNL A   1      43.727  28.648  31.834  1.00  0.00     0.029 A 
ATOM     63  C   UNL A   1      42.671  28.128  32.562  1.00  0.00     0.049 A 
ATOM     64  H   UNL A   1      40.859  27.304  31.881  1.00  0.00     0.167 HD
ATOM     65  C   UNL A   1      42.227  29.059  34.711  1.00  0.00     0.074 A 
ATOM     66  C   UNL A   1      42.175  29.367  36.128  1.00  0.00     0.031 C 
ATOM     67  C   UNL A   1      42.461  27.921  33.990  1.00  0.00     0.031 A 
BRANCH  54  68
ATOM     68  C   UNL A   1      41.434  27.193  27.972  1.00  0.00    -0.014 A 
ATOM     69  C   UNL A   1      42.237  27.779  26.973  1.00  0.00     0.009 A 
ATOM     70  C   UNL A   1      40.898  25.934  27.654  1.00  0.00     0.009 A 
ATOM     71  C   UNL A   1      42.401  27.198  25.707  1.00  0.00     0.001 A 
ATOM     72  C   UNL A   1      41.025  25.362  26.381  1.00  0.00     0.001 A 
ATOM     73  C   UNL A   1      41.767  26.001  25.400  1.00  0.00     0.000 A 
ENDBRANCH  54  68
BRANCH  55  74
ATOM     74  C   UNL A   1      40.078  33.231  35.290  1.00  0.00    -0.014 A 
ATOM     75  C   UNL A   1      38.834  32.579  35.188  1.00  0.00     0.009 A 
ATOM     76  C   UNL A   1      40.217  34.264  36.228  1.00  0.00     0.009 A 
ATOM     77  C   UNL A   1      37.796  32.873  36.076  1.00  0.00     0.001 A 
ATOM     78  C   UNL A   1      39.168  34.568  37.105  1.00  0.00     0.001 A 
ATOM     79  C   UNL A   1      37.974  33.850  37.051  1.00  0.00     0.000 A 
ENDBRANCH  55  74
BRANCH  67  80
ATOM     80  C   UNL A   1      42.577  26.511  34.532  1.00  0.00    -0.014 A 
ATOM     81  C   UNL A   1      41.606  25.866  35.307  1.00  0.00     0.009 A 
ATOM     82  C   UNL A   1      43.690  25.725  34.149  1.00  0.00     0.009 A 
ATOM     83  C   UNL A   1      41.756  24.530  35.714  1.00  0.00     0.001 A 
ATOM     84  C   UNL A   1      43.823  24.382  34.512  1.00  0.00     0.001 A 
ATOM     85  C   UNL A   1      42.858  23.787  35.307  1.00  0.00     0.000 A 
ENDBRANCH  67  80
ENDBRANCH  41  42
ENDBRANCH  33  36
ENDBRANCH  31  32
ENDBRANCH  30  31
ENDBRANCH  29  30
ENDBRANCH  28  29
ENDBRANCH   1  28
TORSDOF 17
ENDMDL
MODEL 2
REMARK VINA RESULT:     -11.4      1.557      2.060
REMARK SMILES Cc1cccc(OCC(=O)Nc2cc(C(=O)NCCCCCCNC(=O)c3ccc(-c4c5nc(c(-c6ccccc6)c6ccc([nH]6)c(-c6ccccc6)c6nc(c(-c7ccccc7)c7ccc4[nH]7)C=C6)C=C5)cc3)c(Cl)cc2Cl)c1
REMARK SMILES IDX 19 1 18 2 17 3 15 4 16 5 14 7 12 8 13 9 78 10 77 11 79 12
REMARK SMILES IDX 75 13 76 14 11 15 9 16 10 17 8 19 7 20 6 21 1 22 2 23 3 24
REMARK SMILES IDX 80 25 4 26 5 27 20 28 21 29 22 30 23 31 24 32 25 33 26 35
REMARK SMILES IDX 27 36 28 37 74 38 29 39 73 40 30 41 31 42 32 43 67 44 33 45
REMARK SMILES IDX 72 46 66 47 68 48 34 49 71 50 65 51 64 52 35 54 57 55 42 56
REMARK SMILES IDX 56 57 43 58 46 59 55 60 69 61 44 62 45 63 54 65 70 66 47 67
REMARK SMILES IDX 36 68 37 69 41 70 38 71 40 72 39 73 58 74 59 75 63 76 60 77
REMARK SMILES IDX 62 78 61 79 48 80 49 81 53 82 50 83 52 84 51 85
REMARK H PARENT 17 6 11 18 24 34 68 53 46 64
REMARK Flexibility Score: inf
ROOT
ATOM      1  C   UNL A   1      31.700  29.095  25.874  1.00  0.00     0.021 C 
ENDROOT
BRANCH   1   2
ATOM      2  C   UNL A   1      32.493  29.227  24.569  1.00  0.00     0.116 C 
BRANCH   2   3
ATOM      3  N   UNL A   1      31.717  29.294  23.355  1.00  0.00    -0.352 N 
ATOM      4  C   UNL A   1      31.088  28.285  22.653  1.00  0.00     0.252 C 
ATOM      5  O   UNL A   1      30.312  28.609  21.757  1.00  0.00    -0.269 OA
ATOM      6  H   UNL A   1      31.623  30.194  22.967  1.00  0.00     0.163 HD
BRANCH   4   7
ATOM      7  C   UNL A   1      31.307  26.829  22.932  1.00  0.00     0.060 A 
ATOM      8  C   UNL A   1      32.752  24.843  22.961  1.00  0.00     0.061 A 
ATOM      9  C   UNL A   1      32.556  26.205  22.686  1.00  0.00     0.043 A 
ATOM     10  C   UNL A   1      31.695  24.128  23.567  1.00  0.00     0.066 A 
ATOM     11  C   UNL A   1      30.480  24.739  23.864  1.00  0.00     0.044 A 
ATOM     12  Cl  UNL A   1      31.868  22.451  23.981  1.00  0.00    -0.082 Cl
ATOM     13  C   UNL A   1      30.276  26.079  23.531  1.00  0.00     0.055 A 
ATOM     14  Cl  UNL A   1      28.694  26.701  23.853  1.00  0.00    -0.083 Cl
BRANCH   8  15
ATOM     15  N   UNL A   1      33.904  24.093  22.643  1.00  0.00    -0.322 N 
ATOM     16  C   UNL A   1      35.044  23.697  23.269  1.00  0.00     0.262 C 
ATOM     17  O   UNL A   1      35.879  23.097  22.580  1.00  0.00    -0.271 OA
ATOM     18  H   UNL A   1      33.874  23.766  21.714  1.00  0.00     0.170 HD
BRANCH  16  19
ATOM     19  C   UNL A   1      35.287  23.879  24.763  1.00  0.00     0.329 C 
BRANCH  19  20
ATOM     20  O   UNL A   1      35.805  22.779  25.492  1.00  0.00    -0.484 OA
BRANCH  20  21
ATOM     21  C   UNL A   1      37.109  22.856  25.887  1.00  0.00     0.120 A 
ATOM     22  C   UNL A   1      40.407  21.010  26.287  1.00  0.00     0.044 C 
ATOM     23  C   UNL A   1      39.376  22.098  26.254  1.00  0.00    -0.047 A 
ATOM     24  C   UNL A   1      39.725  23.369  26.727  1.00  0.00     0.003 A 
ATOM     25  C   UNL A   1      38.060  21.843  25.827  1.00  0.00     0.049 A 
ATOM     26  C   UNL A   1      38.765  24.359  26.844  1.00  0.00     0.004 A 
ATOM     27  C   UNL A   1      37.469  24.081  26.440  1.00  0.00     0.046 A 
ENDBRANCH  20  21
ENDBRANCH  19  20
ENDBRANCH  16  19
ENDBRANCH   8  15
ENDBRANCH   4   7
ENDBRANCH   2   3
ENDBRANCH   1   2
BRANCH   1  28
ATOM     28  C   UNL A   1      32.387  28.757  27.216  1.00  0.00     0.002 C 
BRANCH  28  29
ATOM     29  C   UNL A   1      33.902  28.558  27.353  1.00  0.00     0.002 C 
BRANCH  29  30
ATOM     30  C   UNL A   1      34.755  29.644  28.021  1.00  0.00     0.021 C 
BRANCH  30  31
ATOM     31  C   UNL A   1      34.890  30.992  27.301  1.00  0.00     0.116 C 
BRANCH  31  32
ATOM     32  N   UNL A   1      33.941  32.021  27.732  1.00  0.00    -0.352 N 
ATOM     33  C   UNL A   1      34.051  32.974  28.748  1.00  0.00     0.251 C 
ATOM     34  H   UNL A   1      33.096  32.046  27.228  1.00  0.00     0.163 HD
ATOM     35  O   UNL A   1      33.183  33.789  28.931  1.00  0.00    -0.269 OA
BRANCH  33  36
ATOM     36  C   UNL A   1      35.319  33.052  29.525  1.00  0.00     0.039 A 
ATOM     37  C   UNL A   1      36.391  33.763  28.970  1.00  0.00     0.014 A 
ATOM     38  C   UNL A   1      35.509  32.279  30.662  1.00  0.00     0.014 A 
ATOM     39  C   UNL A   1      37.692  33.451  29.364  1.00  0.00     0.010 A 
ATOM     40  C   UNL A   1      36.799  31.920  31.001  1.00  0.00     0.010 A 
ATOM     41  C   UNL A   1      37.883  32.422  30.281  1.00  0.00    -0.014 A 
BRANCH  41  42
ATOM     42  C   UNL A   1      39.117  31.647  30.376  1.00  0.00     0.031 A 
ATOM     43  C   UNL A   1      39.274  30.339  29.714  1.00  0.00     0.074 A 
ATOM     44  C   UNL A   1      40.173  32.177  31.034  1.00  0.00     0.049 A 
ATOM     45  N   UNL A   1      40.118  29.436  30.090  1.00  0.00    -0.248 NA
ATOM     46  C   UNL A   1      38.446  29.925  28.589  1.00  0.00     0.031 C 
ATOM     47  C   UNL A   1      41.565  31.731  31.014  1.00  0.00     0.029 A 
ATOM     48  N   UNL A   1      40.171  33.142  32.021  1.00  0.00    -0.354 N 
ATOM     49  C   UNL A   1      40.162  28.477  29.106  1.00  0.00     0.074 A 
ATOM     50  C   UNL A   1      39.033  28.772  28.252  1.00  0.00     0.031 C 
ATOM     51  C   UNL A   1      42.195  32.223  32.095  1.00  0.00     0.029 A 
ATOM     52  C   UNL A   1      41.190  32.866  32.926  1.00  0.00     0.049 A 
ATOM     53  H   UNL A   1      39.548  33.903  32.075  1.00  0.00     0.167 HD
ATOM     54  C   UNL A   1      41.233  27.635  29.034  1.00  0.00     0.031 A 
ATOM     55  C   UNL A   1      40.932  32.527  34.225  1.00  0.00     0.031 A 
ATOM     56  C   UNL A   1      42.166  27.832  30.146  1.00  0.00     0.049 A 
ATOM     57  C   UNL A   1      41.443  31.154  34.618  1.00  0.00     0.074 A 
ATOM     58  C   UNL A   1      43.395  28.464  30.248  1.00  0.00     0.029 A 
ATOM     59  N   UNL A   1      41.751  27.573  31.447  1.00  0.00    -0.354 N 
ATOM     60  N   UNL A   1      41.757  30.216  33.769  1.00  0.00    -0.248 NA
ATOM     61  C   UNL A   1      41.583  30.717  36.005  1.00  0.00     0.031 C 
ATOM     62  C   UNL A   1      43.697  28.626  31.625  1.00  0.00     0.029 A 
ATOM     63  C   UNL A   1      42.661  28.073  32.358  1.00  0.00     0.049 A 
ATOM     64  H   UNL A   1      40.922  27.099  31.686  1.00  0.00     0.167 HD
ATOM     65  C   UNL A   1      42.110  29.078  34.449  1.00  0.00     0.074 A 
ATOM     66  C   UNL A   1      42.007  29.451  35.848  1.00  0.00     0.031 C 
ATOM     67  C   UNL A   1      42.433  27.923  33.791  1.00  0.00     0.031 A 
BRANCH  54  68
ATOM     68  C   UNL A   1      41.588  26.833  27.799  1.00  0.00    -0.014 A 
ATOM     69  C   UNL A   1      42.415  25.697  27.919  1.00  0.00     0.009 A 
ATOM     70  C   UNL A   1      41.202  27.163  26.490  1.00  0.00     0.009 A 
ATOM     71  C   UNL A   1      42.907  25.008  26.802  1.00  0.00     0.001 A 
ATOM     72  C   UNL A   1      41.717  26.504  25.365  1.00  0.00     0.001 A 
ATOM     73  C   UNL A   1      42.582  25.432  25.520  1.00  0.00     0.000 A 
ENDBRANCH  54  68
BRANCH  55  74
ATOM     74  C   UNL A   1      39.682  33.122  34.775  1.00  0.00    -0.014 A 
ATOM     75  C   UNL A   1      38.449  32.521  34.453  1.00  0.00     0.009 A 
ATOM     76  C   UNL A   1      39.727  34.022  35.849  1.00  0.00     0.009 A 
ATOM     77  C   UNL A   1      37.322  32.727  35.253  1.00  0.00     0.001 A 
ATOM     78  C   UNL A   1      38.590  34.239  36.638  1.00  0.00     0.001 A 
ATOM     79  C   UNL A   1      37.401  33.566  36.361  1.00  0.00     0.000 A 
ENDBRANCH  55  74
BRANCH  67  80
ATOM     80  C   UNL A   1      42.629  26.553  34.406  1.00  0.00    -0.014 A 
ATOM     81  C   UNL A   1      41.669  25.866  35.158  1.00  0.00     0.009 A 
ATOM     82  C   UNL A   1      43.821  25.845  34.122  1.00  0.00     0.009 A 
ATOM     83  C   UNL A   1      41.901  24.565  35.636  1.00  0.00     0.001 A 
ATOM     84  C   UNL A   1      44.039  24.534  34.556  1.00  0.00     0.001 A 
ATOM     85  C   UNL A   1      43.080  23.897  35.326  1.00  0.00     0.000 A 
ENDBRANCH  67  80
ENDBRANCH  41  42
ENDBRANCH  33  36
ENDBRANCH  31  32
ENDBRANCH  30  31
ENDBRANCH  29  30
ENDBRANCH  28  29
ENDBRANCH   1  28
TORSDOF 17
ENDMDL
MODEL 3
REMARK VINA RESULT:     -11.3      1.548      2.397
REMARK SMILES Cc1cccc(OCC(=O)Nc2cc(C(=O)NCCCCCCNC(=O)c3ccc(-c4c5nc(c(-c6ccccc6)c6ccc([nH]6)c(-c6ccccc6)c6nc(c(-c7ccccc7)c7ccc4[nH]7)C=C6)C=C5)cc3)c(Cl)cc2Cl)c1
REMARK SMILES IDX 19 1 18 2 17 3 15 4 16 5 14 7 12 8 13 9 78 10 77 11 79 12
REMARK SMILES IDX 75 13 76 14 11 15 9 16 10 17 8 19 7 20 6 21 1 22 2 23 3 24
REMARK SMILES IDX 80 25 4 26 5 27 20 28 21 29 22 30 23 31 24 32 25 33 26 35
REMARK SMILES IDX 27 36 28 37 74 38 29 39 73 40 30 41 31 42 32 43 67 44 33 45
REMARK SMILES IDX 72 46 66 47 68 48 34 49 71 50 65 51 64 52 35 54 57 55 42 56
REMARK SMILES IDX 56 57 43 58 46 59 55 60 69 61 44 62 45 63 54 65 70 66 47 67
REMARK SMILES IDX 36 68 37 69 41 70 38 71 40 72 39 73 58 74 59 75 63 76 60 77
REMARK SMILES IDX 62 78 61 79 48 80 49 81 53 82 50 83 52 84 51 85
REMARK H PARENT 17 6 11 18 24 34 68 53 46 64
REMARK Flexibility Score: inf
ROOT
ATOM      1  C   UNL A   1      33.453  29.410  27.027  1.00  0.00     0.021 C 
ENDROOT
BRANCH   1   2
ATOM      2  C   UNL A   1      32.819  29.655  25.654  1.00  0.00     0.116 C 
BRANCH   2   3
ATOM      3  N   UNL A   1      33.564  29.184  24.512  1.00  0.00    -0.352 N 
ATOM      4  C   UNL A   1      33.526  27.958  23.879  1.00  0.00     0.252 C 
ATOM      5  O   UNL A   1      34.101  27.853  22.797  1.00  0.00    -0.269 OA
ATOM      6  H   UNL A   1      34.196  29.834  24.127  1.00  0.00     0.163 HD
BRANCH   4   7
ATOM      7  C   UNL A   1      32.822  26.761  24.444  1.00  0.00     0.060 A 
ATOM      8  C   UNL A   1      32.735  24.855  25.991  1.00  0.00     0.061 A 
ATOM      9  C   UNL A   1      33.408  25.967  25.461  1.00  0.00     0.043 A 
ATOM     10  C   UNL A   1      31.421  24.596  25.539  1.00  0.00     0.066 A 
ATOM     11  C   UNL A   1      30.811  25.398  24.580  1.00  0.00     0.044 A 
ATOM     12  Cl  UNL A   1      30.501  23.269  26.173  1.00  0.00    -0.082 Cl
ATOM     13  C   UNL A   1      31.513  26.466  24.017  1.00  0.00     0.055 A 
ATOM     14  Cl  UNL A   1      30.692  27.327  22.760  1.00  0.00    -0.083 Cl
BRANCH   8  15
ATOM     15  N   UNL A   1      33.268  23.926  26.909  1.00  0.00    -0.322 N 
ATOM     16  C   UNL A   1      34.343  23.098  26.984  1.00  0.00     0.262 C 
ATOM     17  O   UNL A   1      34.403  22.347  27.965  1.00  0.00    -0.271 OA
ATOM     18  H   UNL A   1      32.708  23.858  27.716  1.00  0.00     0.170 HD
BRANCH  16  19
ATOM     19  C   UNL A   1      35.492  23.124  25.980  1.00  0.00     0.329 C 
BRANCH  19  20
ATOM     20  O   UNL A   1      35.434  22.233  24.879  1.00  0.00    -0.484 OA
BRANCH  20  21
ATOM     21  C   UNL A   1      34.403  22.398  24.000  1.00  0.00     0.120 A 
ATOM     22  C   UNL A   1      32.903  24.553  21.253  1.00  0.00     0.044 C 
ATOM     23  C   UNL A   1      33.141  23.426  22.212  1.00  0.00    -0.047 A 
ATOM     24  C   UNL A   1      32.187  22.404  22.298  1.00  0.00     0.003 A 
ATOM     25  C   UNL A   1      34.258  23.418  23.067  1.00  0.00     0.049 A 
ATOM     26  C   UNL A   1      32.298  21.423  23.268  1.00  0.00     0.004 A 
ATOM     27  C   UNL A   1      33.394  21.446  24.115  1.00  0.00     0.046 A 
ENDBRANCH  20  21
ENDBRANCH  19  20
ENDBRANCH  16  19
ENDBRANCH   8  15
ENDBRANCH   4   7
ENDBRANCH   2   3
ENDBRANCH   1   2
BRANCH   1  28
ATOM     28  C   UNL A   1      34.493  30.380  27.632  1.00  0.00     0.002 C 
BRANCH  28  29
ATOM     29  C   UNL A   1      34.201  31.864  27.890  1.00  0.00     0.002 C 
BRANCH  29  30
ATOM     30  C   UNL A   1      35.360  32.830  28.166  1.00  0.00     0.021 C 
BRANCH  30  31
ATOM     31  C   UNL A   1      35.044  34.331  28.218  1.00  0.00     0.116 C 
BRANCH  31  32
ATOM     32  N   UNL A   1      33.873  34.689  29.024  1.00  0.00    -0.352 N 
ATOM     33  C   UNL A   1      33.653  34.548  30.397  1.00  0.00     0.251 C 
ATOM     34  H   UNL A   1      33.128  35.089  28.522  1.00  0.00     0.163 HD
ATOM     35  O   UNL A   1      32.639  34.952  30.907  1.00  0.00    -0.269 OA
BRANCH  33  36
ATOM     36  C   UNL A   1      34.748  34.006  31.248  1.00  0.00     0.039 A 
ATOM     37  C   UNL A   1      35.894  34.791  31.430  1.00  0.00     0.014 A 
ATOM     38  C   UNL A   1      34.730  32.688  31.681  1.00  0.00     0.014 A 
ATOM     39  C   UNL A   1      37.101  34.171  31.752  1.00  0.00     0.010 A 
ATOM     40  C   UNL A   1      35.937  32.065  31.929  1.00  0.00     0.010 A 
ATOM     41  C   UNL A   1      37.131  32.784  31.856  1.00  0.00    -0.014 A 
BRANCH  41  42
ATOM     42  C   UNL A   1      38.337  31.986  31.651  1.00  0.00     0.031 A 
ATOM     43  C   UNL A   1      38.317  30.710  30.916  1.00  0.00     0.074 A 
ATOM     44  C   UNL A   1      39.522  32.469  32.089  1.00  0.00     0.049 A 
ATOM     45  N   UNL A   1      39.199  29.777  31.063  1.00  0.00    -0.248 NA
ATOM     46  C   UNL A   1      37.258  30.361  29.979  1.00  0.00     0.031 C 
ATOM     47  C   UNL A   1      40.866  32.004  31.752  1.00  0.00     0.029 A 
ATOM     48  N   UNL A   1      39.755  33.387  33.094  1.00  0.00    -0.354 N 
ATOM     49  C   UNL A   1      39.008  28.865  30.053  1.00  0.00     0.074 A 
ATOM     50  C   UNL A   1      37.731  29.216  29.474  1.00  0.00     0.031 C 
ATOM     51  C   UNL A   1      41.724  32.436  32.693  1.00  0.00     0.029 A 
ATOM     52  C   UNL A   1      40.936  33.053  33.747  1.00  0.00     0.049 A 
ATOM     53  H   UNL A   1      39.176  34.154  33.313  1.00  0.00     0.167 HD
ATOM     54  C   UNL A   1      40.018  28.011  29.717  1.00  0.00     0.031 A 
ATOM     55  C   UNL A   1      40.953  32.659  35.055  1.00  0.00     0.031 A 
ATOM     56  C   UNL A   1      41.172  28.141  30.611  1.00  0.00     0.049 A 
ATOM     57  C   UNL A   1      41.503  31.261  35.271  1.00  0.00     0.074 A 
ATOM     58  C   UNL A   1      42.409  28.749  30.473  1.00  0.00     0.029 A 
ATOM     59  N   UNL A   1      41.038  27.828  31.958  1.00  0.00    -0.354 N 
ATOM     60  N   UNL A   1      41.605  30.359  34.335  1.00  0.00    -0.248 NA
ATOM     61  C   UNL A   1      41.925  30.757  36.575  1.00  0.00     0.031 C 
ATOM     62  C   UNL A   1      43.002  28.842  31.759  1.00  0.00     0.029 A 
ATOM     63  C   UNL A   1      42.133  28.272  32.673  1.00  0.00     0.049 A 
ATOM     64  H   UNL A   1      40.267  27.356  32.349  1.00  0.00     0.167 HD
ATOM     65  C   UNL A   1      42.067  29.185  34.874  1.00  0.00     0.074 A 
ATOM     66  C   UNL A   1      42.274  29.494  36.277  1.00  0.00     0.031 C 
ATOM     67  C   UNL A   1      42.213  28.058  34.114  1.00  0.00     0.031 A 
BRANCH  54  68
ATOM     68  C   UNL A   1      40.081  27.262  28.402  1.00  0.00    -0.014 A 
ATOM     69  C   UNL A   1      39.483  25.991  28.294  1.00  0.00     0.009 A 
ATOM     70  C   UNL A   1      40.757  27.712  27.256  1.00  0.00     0.009 A 
ATOM     71  C   UNL A   1      39.642  25.182  27.159  1.00  0.00     0.001 A 
ATOM     72  C   UNL A   1      40.953  26.898  26.131  1.00  0.00     0.001 A 
ATOM     73  C   UNL A   1      40.406  25.625  26.087  1.00  0.00     0.000 A 
ENDBRANCH  54  68
BRANCH  55  74
ATOM     74  C   UNL A   1      39.865  33.246  35.886  1.00  0.00    -0.014 A 
ATOM     75  C   UNL A   1      38.721  32.467  36.148  1.00  0.00     0.009 A 
ATOM     76  C   UNL A   1      40.096  34.382  36.674  1.00  0.00     0.009 A 
ATOM     77  C   UNL A   1      37.896  32.752  37.239  1.00  0.00     0.001 A 
ATOM     78  C   UNL A   1      39.256  34.675  37.756  1.00  0.00     0.001 A 
ATOM     79  C   UNL A   1      38.180  33.841  38.059  1.00  0.00     0.000 A 
ENDBRANCH  55  74
BRANCH  67  80
ATOM     80  C   UNL A   1      42.502  26.658  34.613  1.00  0.00    -0.014 A 
ATOM     81  C   UNL A   1      43.721  25.987  34.464  1.00  0.00     0.009 A 
ATOM     82  C   UNL A   1      41.519  25.996  35.389  1.00  0.00     0.009 A 
ATOM     83  C   UNL A   1      43.934  24.714  35.018  1.00  0.00     0.001 A 
ATOM     84  C   UNL A   1      41.741  24.750  35.981  1.00  0.00     0.001 A 
ATOM     85  C   UNL A   1      42.949  24.102  35.784  1.00  0.00     0.000 A 
ENDBRANCH  67  80
ENDBRANCH  41  42
ENDBRANCH  33  36
ENDBRANCH  31  32
ENDBRANCH  30  31
ENDBRANCH  29  30
ENDBRANCH  28  29
ENDBRANCH   1  28
TORSDOF 17
ENDMDL
