MODEL 1
REMARK VINA RESULT:     -13.8      0.000      0.000
REMARK SMILES O=C1C[C@H](c2cn[nH]c2C(=O)NCCCCCCNC(=O)c2ccc(-c3c4nc(c(-c5ccccc5)c5ccc([nH]5)c(-c5ccccc5)c5nc(c(-c6ccccc6)c6ccc3[nH]6)C=C5)C=C4)cc2)c2c(-c3cccs3)n[nH]c2N1
REMARK SMILES IDX 15 1 14 2 13 3 12 4 10 5 11 6 9 8 5 9 6 10 7 11 8 12 4 14
REMARK SMILES IDX 1 15 2 16 3 17 80 18 79 19 70 21 78 22 71 23 77 24 72 26
REMARK SMILES IDX 73 27 76 28 74 29 75 30 16 31 17 32 18 33 19 34 20 35 21 37
REMARK SMILES IDX 22 38 23 39 69 40 24 41 68 42 25 43 26 44 27 45 62 46 28 47
REMARK SMILES IDX 67 48 61 49 63 50 29 51 66 52 60 53 59 54 30 56 52 57 37 58
REMARK SMILES IDX 51 59 38 60 41 61 50 62 64 63 39 64 40 65 49 67 65 68 42 69
REMARK SMILES IDX 31 70 32 71 36 72 33 73 35 74 34 75 53 76 54 77 58 78 55 79
REMARK SMILES IDX 57 80 56 81 43 82 44 83 48 84 45 85 47 86 46 87
REMARK H PARENT 12 7 8 13 80 20 78 25 19 36 63 55 41 66
REMARK Flexibility Score: inf
ROOT
ATOM      1  C   UNL A   1      36.398  21.824  24.182  1.00  0.00     0.002 C 
ENDROOT
BRANCH   1   2
ATOM      2  C   UNL A   1      37.110  22.998  24.867  1.00  0.00     0.021 C 
BRANCH   2   3
ATOM      3  C   UNL A   1      36.126  23.881  26.016  1.00  0.00     0.116 C 
BRANCH   3   4
ATOM      4  N   UNL A   1      34.292  23.260  26.974  1.00  0.00    -0.351 N 
ATOM      5  C   UNL A   1      32.905  23.240  27.280  1.00  0.00     0.269 C 
ATOM      6  O   UNL A   1      32.551  22.375  28.087  1.00  0.00    -0.268 OA
ATOM      7  H   UNL A   1      34.623  22.550  27.569  1.00  0.00     0.163 HD
BRANCH   5   8
ATOM      8  C   UNL A   1      31.925  24.088  26.651  1.00  0.00     0.126 A 
ATOM      9  C   UNL A   1      31.983  24.905  25.534  1.00  0.00     0.011 A 
ATOM     10  C   UNL A   1      30.673  25.400  25.382  1.00  0.00     0.140 A 
ATOM     11  N   UNL A   1      29.848  24.951  26.330  1.00  0.00    -0.183 NA
ATOM     12  N   UNL A   1      30.628  24.152  27.079  1.00  0.00    -0.273 N 
ATOM     13  H   UNL A   1      30.297  23.659  27.865  1.00  0.00     0.190 HD
BRANCH   9  14
ATOM     14  C   UNL A   1      33.195  25.112  24.700  1.00  0.00     0.069 C 
ATOM     15  O   UNL A   1      32.829  22.539  21.918  1.00  0.00    -0.275 OA
ATOM     16  C   UNL A   1      32.710  23.632  22.486  1.00  0.00     0.226 C 
ATOM     17  C   UNL A   1      33.514  23.902  23.792  1.00  0.00     0.114 C 
ATOM     18  N   UNL A   1      31.959  24.601  21.863  1.00  0.00    -0.311 N 
ATOM     19  C   UNL A   1      32.004  25.871  22.352  1.00  0.00     0.132 A 
ATOM     20  H   UNL A   1      31.402  24.382  21.081  1.00  0.00     0.171 HD
ATOM     21  C   UNL A   1      32.870  26.255  23.838  1.00  0.00     0.031 A 
ATOM     22  N   UNL A   1      31.257  27.435  21.702  1.00  0.00    -0.262 N 
ATOM     23  C   UNL A   1      32.681  28.165  24.157  1.00  0.00     0.108 A 
ATOM     24  N   UNL A   1      31.716  28.864  22.848  1.00  0.00    -0.173 NA
ATOM     25  H   UNL A   1      30.708  27.510  20.889  1.00  0.00     0.192 HD
BRANCH  23  26
ATOM     26  C   UNL A   1      33.037  28.818  25.441  1.00  0.00     0.055 A 
ATOM     27  C   UNL A   1      34.113  28.450  26.213  1.00  0.00     0.022 A 
ATOM     28  S   UNL A   1      32.214  30.172  26.057  1.00  0.00    -0.142 S 
ATOM     29  C   UNL A   1      34.297  29.348  27.307  1.00  0.00     0.012 A 
ATOM     30  C   UNL A   1      33.297  30.294  27.376  1.00  0.00     0.065 A 
ENDBRANCH  23  26
ENDBRANCH   9  14
ENDBRANCH   5   8
ENDBRANCH   3   4
ENDBRANCH   2   3
ENDBRANCH   1   2
BRANCH   1  31
ATOM     31  C   UNL A   1      36.348  20.496  24.946  1.00  0.00     0.002 C 
BRANCH  31  32
ATOM     32  C   UNL A   1      37.604  19.613  24.908  1.00  0.00     0.021 C 
BRANCH  32  33
ATOM     33  C   UNL A   1      38.841  20.248  25.520  1.00  0.00     0.116 C 
BRANCH  33  34
ATOM     34  N   UNL A   1      39.934  19.287  25.689  1.00  0.00    -0.352 N 
ATOM     35  C   UNL A   1      41.268  19.498  25.966  1.00  0.00     0.251 C 
ATOM     36  H   UNL A   1      39.675  18.342  25.591  1.00  0.00     0.163 HD
ATOM     37  O   UNL A   1      42.103  18.625  25.762  1.00  0.00    -0.269 OA
BRANCH  35  38
ATOM     38  C   UNL A   1      41.675  20.787  26.542  1.00  0.00     0.039 A 
ATOM     39  C   UNL A   1      42.431  21.728  25.838  1.00  0.00     0.014 A 
ATOM     40  C   UNL A   1      41.257  21.044  27.841  1.00  0.00     0.014 A 
ATOM     41  C   UNL A   1      42.750  22.923  26.475  1.00  0.00     0.010 A 
ATOM     42  C   UNL A   1      41.296  22.311  28.324  1.00  0.00     0.010 A 
ATOM     43  C   UNL A   1      42.183  23.183  27.729  1.00  0.00    -0.014 A 
BRANCH  43  44
ATOM     44  C   UNL A   1      42.437  24.389  28.485  1.00  0.00     0.031 A 
ATOM     45  C   UNL A   1      41.435  25.446  28.253  1.00  0.00     0.074 A 
ATOM     46  C   UNL A   1      43.331  24.416  29.498  1.00  0.00     0.049 A 
ATOM     47  N   UNL A   1      41.603  26.534  27.584  1.00  0.00    -0.248 NA
ATOM     48  C   UNL A   1      40.038  25.183  28.636  1.00  0.00     0.031 C 
ATOM     49  C   UNL A   1      44.128  23.322  30.073  1.00  0.00     0.029 A 
ATOM     50  N   UNL A   1      43.628  25.450  30.319  1.00  0.00    -0.354 N 
ATOM     51  C   UNL A   1      40.386  27.199  27.634  1.00  0.00     0.074 A 
ATOM     52  C   UNL A   1      39.420  26.232  28.090  1.00  0.00     0.031 C 
ATOM     53  C   UNL A   1      44.625  23.706  31.274  1.00  0.00     0.029 A 
ATOM     54  C   UNL A   1      44.316  25.110  31.475  1.00  0.00     0.049 A 
ATOM     55  H   UNL A   1      43.375  26.378  30.110  1.00  0.00     0.167 HD
ATOM     56  C   UNL A   1      40.323  28.555  27.546  1.00  0.00     0.031 A 
ATOM     57  C   UNL A   1      44.560  25.932  32.528  1.00  0.00     0.031 A 
ATOM     58  C   UNL A   1      41.596  29.108  27.144  1.00  0.00     0.049 A 
ATOM     59  C   UNL A   1      44.392  27.325  32.034  1.00  0.00     0.074 A 
ATOM     60  C   UNL A   1      42.389  28.983  26.020  1.00  0.00     0.029 A 
ATOM     61  N   UNL A   1      42.428  29.548  28.150  1.00  0.00    -0.354 N 
ATOM     62  N   UNL A   1      45.175  27.857  31.137  1.00  0.00    -0.248 NA
ATOM     63  C   UNL A   1      43.068  27.924  32.137  1.00  0.00     0.031 C 
ATOM     64  C   UNL A   1      43.719  28.875  26.525  1.00  0.00     0.029 A 
ATOM     65  C   UNL A   1      43.679  29.037  27.912  1.00  0.00     0.049 A 
ATOM     66  H   UNL A   1      42.170  30.126  28.904  1.00  0.00     0.167 HD
ATOM     67  C   UNL A   1      44.323  28.535  30.275  1.00  0.00     0.074 A 
ATOM     68  C   UNL A   1      43.046  28.612  30.989  1.00  0.00     0.031 C 
ATOM     69  C   UNL A   1      44.629  28.694  28.951  1.00  0.00     0.031 A 
BRANCH  56  70
ATOM     70  C   UNL A   1      39.266  29.396  28.208  1.00  0.00    -0.014 A 
ATOM     71  C   UNL A   1      38.106  29.707  27.478  1.00  0.00     0.009 A 
ATOM     72  C   UNL A   1      39.465  30.105  29.408  1.00  0.00     0.009 A 
ATOM     73  C   UNL A   1      37.238  30.725  27.887  1.00  0.00     0.001 A 
ATOM     74  C   UNL A   1      38.581  31.096  29.840  1.00  0.00     0.001 A 
ATOM     75  C   UNL A   1      37.482  31.426  29.064  1.00  0.00     0.000 A 
ENDBRANCH  56  70
BRANCH  57  76
ATOM     76  C   UNL A   1      44.573  25.593  33.971  1.00  0.00    -0.014 A 
ATOM     77  C   UNL A   1      45.594  26.055  34.820  1.00  0.00     0.009 A 
ATOM     78  C   UNL A   1      43.426  25.047  34.577  1.00  0.00     0.009 A 
ATOM     79  C   UNL A   1      45.452  26.004  36.216  1.00  0.00     0.001 A 
ATOM     80  C   UNL A   1      43.284  24.997  35.969  1.00  0.00     0.001 A 
ATOM     81  C   UNL A   1      44.292  25.489  36.789  1.00  0.00     0.000 A 
ENDBRANCH  57  76
BRANCH  69  82
ATOM     82  C   UNL A   1      46.000  28.252  28.483  1.00  0.00    -0.014 A 
ATOM     83  C   UNL A   1      47.116  29.111  28.431  1.00  0.00     0.009 A 
ATOM     84  C   UNL A   1      46.212  26.886  28.254  1.00  0.00     0.009 A 
ATOM     85  C   UNL A   1      48.393  28.619  28.136  1.00  0.00     0.001 A 
ATOM     86  C   UNL A   1      47.490  26.391  27.980  1.00  0.00     0.001 A 
ATOM     87  C   UNL A   1      48.579  27.257  27.916  1.00  0.00     0.000 A 
ENDBRANCH  69  82
ENDBRANCH  43  44
ENDBRANCH  35  38
ENDBRANCH  33  34
ENDBRANCH  32  33
ENDBRANCH  31  32
ENDBRANCH   1  31
TORSDOF 15
ENDMDL
MODEL 2
REMARK VINA RESULT:     -13.3      2.045      5.273
REMARK SMILES O=C1C[C@H](c2cn[nH]c2C(=O)NCCCCCCNC(=O)c2ccc(-c3c4nc(c(-c5ccccc5)c5ccc([nH]5)c(-c5ccccc5)c5nc(c(-c6ccccc6)c6ccc3[nH]6)C=C5)C=C4)cc2)c2c(-c3cccs3)n[nH]c2N1
REMARK SMILES IDX 15 1 14 2 13 3 12 4 10 5 11 6 9 8 5 9 6 10 7 11 8 12 4 14
REMARK SMILES IDX 1 15 2 16 3 17 80 18 79 19 70 21 78 22 71 23 77 24 72 26
REMARK SMILES IDX 73 27 76 28 74 29 75 30 16 31 17 32 18 33 19 34 20 35 21 37
REMARK SMILES IDX 22 38 23 39 69 40 24 41 68 42 25 43 26 44 27 45 62 46 28 47
REMARK SMILES IDX 67 48 61 49 63 50 29 51 66 52 60 53 59 54 30 56 52 57 37 58
REMARK SMILES IDX 51 59 38 60 41 61 50 62 64 63 39 64 40 65 49 67 65 68 42 69
REMARK SMILES IDX 31 70 32 71 36 72 33 73 35 74 34 75 53 76 54 77 58 78 55 79
REMARK SMILES IDX 57 80 56 81 43 82 44 83 48 84 45 85 47 86 46 87
REMARK H PARENT 12 7 8 13 80 20 78 25 19 36 63 55 41 66
REMARK Flexibility Score: inf
ROOT
ATOM      1  C   UNL A   1      40.213  22.241  27.408  1.00  0.00     0.002 C 
ENDROOT
BRANCH   1   2
ATOM      2  C   UNL A   1      39.582  22.593  26.055  1.00  0.00     0.021 C 
BRANCH   2   3
ATOM      3  C   UNL A   1      37.894  23.058  26.133  1.00  0.00     0.116 C 
BRANCH   3   4
ATOM      4  N   UNL A   1      36.143  21.817  25.880  1.00  0.00    -0.351 N 
ATOM      5  C   UNL A   1      34.775  21.440  25.935  1.00  0.00     0.269 C 
ATOM      6  O   UNL A   1      34.508  20.338  25.449  1.00  0.00    -0.268 OA
ATOM      7  H   UNL A   1      36.541  21.014  25.474  1.00  0.00     0.163 HD
BRANCH   5   8
ATOM      8  C   UNL A   1      33.721  22.287  26.432  1.00  0.00     0.126 A 
ATOM      9  C   UNL A   1      33.072  23.381  25.884  1.00  0.00     0.011 A 
ATOM     10  C   UNL A   1      32.076  23.715  26.822  1.00  0.00     0.140 A 
ATOM     11  N   UNL A   1      32.093  22.914  27.888  1.00  0.00    -0.183 NA
ATOM     12  N   UNL A   1      33.092  22.052  27.623  1.00  0.00    -0.273 N 
ATOM     13  H   UNL A   1      33.347  21.321  28.231  1.00  0.00     0.190 HD
BRANCH   9  14
ATOM     14  C   UNL A   1      33.388  23.974  24.559  1.00  0.00     0.069 C 
ATOM     15  O   UNL A   1      32.292  21.296  22.085  1.00  0.00    -0.275 OA
ATOM     16  C   UNL A   1      32.189  22.297  22.805  1.00  0.00     0.226 C 
ATOM     17  C   UNL A   1      33.471  22.919  23.432  1.00  0.00     0.114 C 
ATOM     18  N   UNL A   1      30.949  22.883  22.915  1.00  0.00    -0.311 N 
ATOM     19  C   UNL A   1      30.860  24.105  23.509  1.00  0.00     0.132 A 
ATOM     20  H   UNL A   1      30.145  22.430  22.573  1.00  0.00     0.171 HD
ATOM     21  C   UNL A   1      32.258  24.866  24.265  1.00  0.00     0.031 A 
ATOM     22  N   UNL A   1      29.413  25.243  23.704  1.00  0.00    -0.262 N 
ATOM     23  C   UNL A   1      31.687  26.586  24.974  1.00  0.00     0.108 A 
ATOM     24  N   UNL A   1      29.968  26.802  24.612  1.00  0.00    -0.173 NA
ATOM     25  H   UNL A   1      28.499  25.063  23.385  1.00  0.00     0.192 HD
BRANCH  23  26
ATOM     26  C   UNL A   1      32.504  27.396  25.911  1.00  0.00     0.055 A 
ATOM     27  C   UNL A   1      33.875  27.464  25.865  1.00  0.00     0.022 A 
ATOM     28  S   UNL A   1      31.829  28.419  27.089  1.00  0.00    -0.142 S 
ATOM     29  C   UNL A   1      34.377  28.434  26.784  1.00  0.00     0.012 A 
ATOM     30  C   UNL A   1      33.376  28.982  27.557  1.00  0.00     0.065 A 
ENDBRANCH  23  26
ENDBRANCH   9  14
ENDBRANCH   5   8
ENDBRANCH   3   4
ENDBRANCH   2   3
ENDBRANCH   1   2
BRANCH   1  31
ATOM     31  C   UNL A   1      40.889  20.870  27.527  1.00  0.00     0.002 C 
BRANCH  31  32
ATOM     32  C   UNL A   1      41.646  20.349  26.296  1.00  0.00     0.021 C 
BRANCH  32  33
ATOM     33  C   UNL A   1      42.924  19.593  26.613  1.00  0.00     0.116 C 
BRANCH  33  34
ATOM     34  N   UNL A   1      43.931  19.734  25.558  1.00  0.00    -0.352 N 
ATOM     35  C   UNL A   1      44.335  20.852  24.859  1.00  0.00     0.251 C 
ATOM     36  H   UNL A   1      44.393  18.900  25.310  1.00  0.00     0.163 HD
ATOM     37  O   UNL A   1      44.949  20.751  23.803  1.00  0.00    -0.269 OA
BRANCH  35  38
ATOM     38  C   UNL A   1      44.044  22.179  25.418  1.00  0.00     0.039 A 
ATOM     39  C   UNL A   1      43.162  23.080  24.814  1.00  0.00     0.014 A 
ATOM     40  C   UNL A   1      44.684  22.505  26.606  1.00  0.00     0.014 A 
ATOM     41  C   UNL A   1      42.947  24.305  25.437  1.00  0.00     0.010 A 
ATOM     42  C   UNL A   1      44.232  23.542  27.354  1.00  0.00     0.010 A 
ATOM     43  C   UNL A   1      43.510  24.520  26.701  1.00  0.00    -0.014 A 
BRANCH  43  44
ATOM     44  C   UNL A   1      43.355  25.749  27.446  1.00  0.00     0.031 A 
ATOM     45  C   UNL A   1      44.343  26.783  27.080  1.00  0.00     0.074 A 
ATOM     46  C   UNL A   1      42.246  26.000  28.177  1.00  0.00     0.049 A 
ATOM     47  N   UNL A   1      45.347  27.172  27.787  1.00  0.00    -0.248 NA
ATOM     48  C   UNL A   1      44.335  27.303  25.704  1.00  0.00     0.031 C 
ATOM     49  C   UNL A   1      41.020  25.203  28.322  1.00  0.00     0.029 A 
ATOM     50  N   UNL A   1      41.945  27.120  28.873  1.00  0.00    -0.354 N 
ATOM     51  C   UNL A   1      45.986  28.143  27.029  1.00  0.00     0.074 A 
ATOM     52  C   UNL A   1      45.462  28.018  25.693  1.00  0.00     0.031 C 
ATOM     53  C   UNL A   1      40.041  25.970  28.861  1.00  0.00     0.029 A 
ATOM     54  C   UNL A   1      40.613  27.249  29.241  1.00  0.00     0.049 A 
ATOM     55  H   UNL A   1      42.622  27.796  29.104  1.00  0.00     0.167 HD
ATOM     56  C   UNL A   1      46.701  29.138  27.622  1.00  0.00     0.031 A 
ATOM     57  C   UNL A   1      40.037  28.357  29.775  1.00  0.00     0.031 A 
ATOM     58  C   UNL A   1      46.896  28.869  29.028  1.00  0.00     0.049 A 
ATOM     59  C   UNL A   1      41.139  29.194  30.319  1.00  0.00     0.074 A 
ATOM     60  C   UNL A   1      47.530  27.869  29.739  1.00  0.00     0.029 A 
ATOM     61  N   UNL A   1      46.002  29.450  29.901  1.00  0.00    -0.354 N 
ATOM     62  N   UNL A   1      41.888  28.817  31.318  1.00  0.00    -0.248 NA
ATOM     63  C   UNL A   1      41.738  30.184  29.434  1.00  0.00     0.031 C 
ATOM     64  C   UNL A   1      46.648  27.581  30.823  1.00  0.00     0.029 A 
ATOM     65  C   UNL A   1      45.579  28.479  30.774  1.00  0.00     0.049 A 
ATOM     66  H   UNL A   1      45.718  30.393  29.898  1.00  0.00     0.167 HD
ATOM     67  C   UNL A   1      43.181  29.164  30.947  1.00  0.00     0.074 A 
ATOM     68  C   UNL A   1      43.016  30.079  29.814  1.00  0.00     0.031 C 
ATOM     69  C   UNL A   1      44.262  28.445  31.378  1.00  0.00     0.031 A 
BRANCH  56  70
ATOM     70  C   UNL A   1      46.861  30.519  27.048  1.00  0.00    -0.014 A 
ATOM     71  C   UNL A   1      48.137  31.109  27.076  1.00  0.00     0.009 A 
ATOM     72  C   UNL A   1      45.783  31.362  26.719  1.00  0.00     0.009 A 
ATOM     73  C   UNL A   1      48.310  32.481  26.865  1.00  0.00     0.001 A 
ATOM     74  C   UNL A   1      45.957  32.725  26.468  1.00  0.00     0.001 A 
ATOM     75  C   UNL A   1      47.218  33.290  26.570  1.00  0.00     0.000 A 
ENDBRANCH  56  70
BRANCH  57  76
ATOM     76  C   UNL A   1      38.674  28.889  29.531  1.00  0.00    -0.014 A 
ATOM     77  C   UNL A   1      37.772  29.094  30.589  1.00  0.00     0.009 A 
ATOM     78  C   UNL A   1      38.356  29.464  28.287  1.00  0.00     0.009 A 
ATOM     79  C   UNL A   1      36.618  29.875  30.413  1.00  0.00     0.001 A 
ATOM     80  C   UNL A   1      37.206  30.243  28.112  1.00  0.00     0.001 A 
ATOM     81  C   UNL A   1      36.344  30.460  29.179  1.00  0.00     0.000 A 
ENDBRANCH  57  76
BRANCH  69  82
ATOM     82  C   UNL A   1      44.025  27.357  32.404  1.00  0.00    -0.014 A 
ATOM     83  C   UNL A   1      44.041  25.982  32.094  1.00  0.00     0.009 A 
ATOM     84  C   UNL A   1      43.957  27.724  33.755  1.00  0.00     0.009 A 
ATOM     85  C   UNL A   1      43.968  25.013  33.102  1.00  0.00     0.001 A 
ATOM     86  C   UNL A   1      43.904  26.757  34.763  1.00  0.00     0.001 A 
ATOM     87  C   UNL A   1      43.904  25.403  34.437  1.00  0.00     0.000 A 
ENDBRANCH  69  82
ENDBRANCH  43  44
ENDBRANCH  35  38
ENDBRANCH  33  34
ENDBRANCH  32  33
ENDBRANCH  31  32
ENDBRANCH   1  31
TORSDOF 15
ENDMDL
MODEL 3
REMARK VINA RESULT:     -13.1      2.784      7.834
REMARK SMILES O=C1C[C@H](c2cn[nH]c2C(=O)NCCCCCCNC(=O)c2ccc(-c3c4nc(c(-c5ccccc5)c5ccc([nH]5)c(-c5ccccc5)c5nc(c(-c6ccccc6)c6ccc3[nH]6)C=C5)C=C4)cc2)c2c(-c3cccs3)n[nH]c2N1
REMARK SMILES IDX 15 1 14 2 13 3 12 4 10 5 11 6 9 8 5 9 6 10 7 11 8 12 4 14
REMARK SMILES IDX 1 15 2 16 3 17 80 18 79 19 70 21 78 22 71 23 77 24 72 26
REMARK SMILES IDX 73 27 76 28 74 29 75 30 16 31 17 32 18 33 19 34 20 35 21 37
REMARK SMILES IDX 22 38 23 39 69 40 24 41 68 42 25 43 26 44 27 45 62 46 28 47
REMARK SMILES IDX 67 48 61 49 63 50 29 51 66 52 60 53 59 54 30 56 52 57 37 58
REMARK SMILES IDX 51 59 38 60 41 61 50 62 64 63 39 64 40 65 49 67 65 68 42 69
REMARK SMILES IDX 31 70 32 71 36 72 33 73 35 74 34 75 53 76 54 77 58 78 55 79
REMARK SMILES IDX 57 80 56 81 43 82 44 83 48 84 45 85 47 86 46 87
REMARK H PARENT 12 7 8 13 80 20 78 25 19 36 63 55 41 66
REMARK Flexibility Score: inf
ROOT
ATOM      1  C   UNL A   1      36.586  30.160  27.870  1.00  0.00     0.002 C 
ENDROOT
BRANCH   1   2
ATOM      2  C   UNL A   1      35.070  30.017  27.683  1.00  0.00     0.021 C 
BRANCH   2   3
ATOM      3  C   UNL A   1      34.568  28.549  26.869  1.00  0.00     0.116 C 
BRANCH   3   4
ATOM      4  N   UNL A   1      33.426  28.345  25.046  1.00  0.00    -0.351 N 
ATOM      5  C   UNL A   1      32.908  27.727  23.876  1.00  0.00     0.269 C 
ATOM      6  O   UNL A   1      32.104  28.404  23.229  1.00  0.00    -0.268 OA
ATOM      7  H   UNL A   1      32.999  29.230  24.992  1.00  0.00     0.163 HD
BRANCH   5   8
ATOM      8  C   UNL A   1      33.201  26.374  23.478  1.00  0.00     0.126 A 
ATOM      9  C   UNL A   1      33.301  25.195  24.198  1.00  0.00     0.011 A 
ATOM     10  C   UNL A   1      33.519  24.198  23.227  1.00  0.00     0.140 A 
ATOM     11  N   UNL A   1      33.569  24.696  21.991  1.00  0.00    -0.183 NA
ATOM     12  N   UNL A   1      33.365  26.014  22.169  1.00  0.00    -0.273 N 
ATOM     13  H   UNL A   1      33.336  26.659  21.427  1.00  0.00     0.190 HD
BRANCH   9  14
ATOM     14  C   UNL A   1      33.142  25.088  25.672  1.00  0.00     0.069 C 
ATOM     15  O   UNL A   1      29.412  25.612  26.220  1.00  0.00    -0.275 OA
ATOM     16  C   UNL A   1      30.460  24.985  26.021  1.00  0.00     0.226 C 
ATOM     17  C   UNL A   1      31.825  25.717  26.182  1.00  0.00     0.114 C 
ATOM     18  N   UNL A   1      30.366  23.633  25.785  1.00  0.00    -0.311 N 
ATOM     19  C   UNL A   1      31.508  22.892  25.793  1.00  0.00     0.132 A 
ATOM     20  H   UNL A   1      29.493  23.212  25.614  1.00  0.00     0.171 HD
ATOM     21  C   UNL A   1      33.094  23.646  25.944  1.00  0.00     0.031 A 
ATOM     22  N   UNL A   1      31.752  21.063  25.660  1.00  0.00    -0.262 N 
ATOM     23  C   UNL A   1      34.428  22.230  25.917  1.00  0.00     0.108 A 
ATOM     24  N   UNL A   1      33.597  20.675  25.760  1.00  0.00    -0.173 NA
ATOM     25  H   UNL A   1      31.034  20.397  25.553  1.00  0.00     0.192 HD
BRANCH  23  26
ATOM     26  C   UNL A   1      35.881  22.479  25.750  1.00  0.00     0.055 A 
ATOM     27  C   UNL A   1      36.508  23.636  26.145  1.00  0.00     0.022 A 
ATOM     28  S   UNL A   1      36.962  21.315  25.143  1.00  0.00    -0.142 S 
ATOM     29  C   UNL A   1      37.924  23.534  25.999  1.00  0.00     0.012 A 
ATOM     30  C   UNL A   1      38.300  22.348  25.407  1.00  0.00     0.065 A 
ENDBRANCH  23  26
ENDBRANCH   9  14
ENDBRANCH   5   8
ENDBRANCH   3   4
ENDBRANCH   2   3
ENDBRANCH   1   2
BRANCH   1  31
ATOM     31  C   UNL A   1      37.110  31.537  28.295  1.00  0.00     0.002 C 
BRANCH  31  32
ATOM     32  C   UNL A   1      36.085  32.544  28.838  1.00  0.00     0.021 C 
BRANCH  32  33
ATOM     33  C   UNL A   1      36.651  33.558  29.816  1.00  0.00     0.116 C 
BRANCH  33  34
ATOM     34  N   UNL A   1      36.116  33.386  31.169  1.00  0.00    -0.352 N 
ATOM     35  C   UNL A   1      36.198  32.310  32.027  1.00  0.00     0.251 C 
ATOM     36  H   UNL A   1      35.621  34.161  31.521  1.00  0.00     0.163 HD
ATOM     37  O   UNL A   1      35.437  32.202  32.982  1.00  0.00    -0.269 OA
BRANCH  35  38
ATOM     38  C   UNL A   1      37.239  31.299  31.796  1.00  0.00     0.039 A 
ATOM     39  C   UNL A   1      36.951  29.947  31.591  1.00  0.00     0.014 A 
ATOM     40  C   UNL A   1      38.550  31.754  31.777  1.00  0.00     0.014 A 
ATOM     41  C   UNL A   1      38.014  29.077  31.368  1.00  0.00     0.010 A 
ATOM     42  C   UNL A   1      39.527  30.975  31.250  1.00  0.00     0.010 A 
ATOM     43  C   UNL A   1      39.298  29.615  31.219  1.00  0.00    -0.014 A 
BRANCH  43  44
ATOM     44  C   UNL A   1      40.477  28.813  30.982  1.00  0.00     0.031 A 
ATOM     45  C   UNL A   1      41.271  28.565  32.201  1.00  0.00     0.074 A 
ATOM     46  C   UNL A   1      40.654  28.138  29.824  1.00  0.00     0.049 A 
ATOM     47  N   UNL A   1      42.408  29.090  32.499  1.00  0.00    -0.248 NA
ATOM     48  C   UNL A   1      40.650  27.805  33.298  1.00  0.00     0.031 C 
ATOM     49  C   UNL A   1      39.752  28.005  28.670  1.00  0.00     0.029 A 
ATOM     50  N   UNL A   1      41.673  27.313  29.490  1.00  0.00    -0.354 N 
ATOM     51  C   UNL A   1      42.751  28.567  33.738  1.00  0.00     0.074 A 
ATOM     52  C   UNL A   1      41.550  27.974  34.269  1.00  0.00     0.031 C 
ATOM     53  C   UNL A   1      40.165  26.978  27.889  1.00  0.00     0.029 A 
ATOM     54  C   UNL A   1      41.435  26.491  28.397  1.00  0.00     0.049 A 
ATOM     55  H   UNL A   1      42.523  27.297  29.986  1.00  0.00     0.167 HD
ATOM     56  C   UNL A   1      44.054  28.436  34.107  1.00  0.00     0.031 A 
ATOM     57  C   UNL A   1      42.221  25.462  27.988  1.00  0.00     0.031 A 
ATOM     58  C   UNL A   1      44.926  29.134  33.191  1.00  0.00     0.049 A 
ATOM     59  C   UNL A   1      43.560  25.674  28.600  1.00  0.00     0.074 A 
ATOM     60  C   UNL A   1      45.073  30.455  32.816  1.00  0.00     0.029 A 
ATOM     61  N   UNL A   1      45.488  28.387  32.179  1.00  0.00    -0.354 N 
ATOM     62  N   UNL A   1      44.325  26.685  28.295  1.00  0.00    -0.248 NA
ATOM     63  C   UNL A   1      43.810  25.077  29.904  1.00  0.00     0.031 C 
ATOM     64  C   UNL A   1      45.259  30.413  31.403  1.00  0.00     0.029 A 
ATOM     65  C   UNL A   1      45.315  29.075  31.004  1.00  0.00     0.049 A 
ATOM     66  H   UNL A   1      45.935  27.515  32.281  1.00  0.00     0.167 HD
ATOM     67  C   UNL A   1      44.830  27.131  29.509  1.00  0.00     0.074 A 
ATOM     68  C   UNL A   1      44.546  26.049  30.456  1.00  0.00     0.031 C 
ATOM     69  C   UNL A   1      45.146  28.446  29.709  1.00  0.00     0.031 A 
BRANCH  56  70
ATOM     70  C   UNL A   1      44.567  27.363  35.028  1.00  0.00    -0.014 A 
ATOM     71  C   UNL A   1      44.525  26.029  34.586  1.00  0.00     0.009 A 
ATOM     72  C   UNL A   1      44.847  27.568  36.392  1.00  0.00     0.009 A 
ATOM     73  C   UNL A   1      44.676  24.961  35.478  1.00  0.00     0.001 A 
ATOM     74  C   UNL A   1      45.038  26.505  37.279  1.00  0.00     0.001 A 
ATOM     75  C   UNL A   1      44.923  25.200  36.826  1.00  0.00     0.000 A 
ENDBRANCH  56  70
BRANCH  57  76
ATOM     76  C   UNL A   1      41.800  24.160  27.417  1.00  0.00    -0.014 A 
ATOM     77  C   UNL A   1      42.281  23.720  26.172  1.00  0.00     0.009 A 
ATOM     78  C   UNL A   1      41.143  23.215  28.228  1.00  0.00     0.009 A 
ATOM     79  C   UNL A   1      42.140  22.380  25.775  1.00  0.00     0.001 A 
ATOM     80  C   UNL A   1      41.004  21.879  27.832  1.00  0.00     0.001 A 
ATOM     81  C   UNL A   1      41.515  21.459  26.610  1.00  0.00     0.000 A 
ENDBRANCH  57  76
BRANCH  69  82
ATOM     82  C   UNL A   1      45.083  29.378  28.517  1.00  0.00    -0.014 A 
ATOM     83  C   UNL A   1      43.913  30.056  28.122  1.00  0.00     0.009 A 
ATOM     84  C   UNL A   1      46.285  29.718  27.879  1.00  0.00     0.009 A 
ATOM     85  C   UNL A   1      43.943  31.021  27.108  1.00  0.00     0.001 A 
ATOM     86  C   UNL A   1      46.319  30.695  26.881  1.00  0.00     0.001 A 
ATOM     87  C   UNL A   1      45.149  31.343  26.491  1.00  0.00     0.000 A 
ENDBRANCH  69  82
ENDBRANCH  43  44
ENDBRANCH  35  38
ENDBRANCH  33  34
ENDBRANCH  32  33
ENDBRANCH  31  32
ENDBRANCH   1  31
TORSDOF 15
ENDMDL
