MODEL 1
REMARK VINA RESULT:     -11.4      0.000      0.000
REMARK SMILES O=C(NCCCCCCNC(=O)c1ccc(S(=O)(=O)N[C@@H]2CC[N@@H+]3CCC[C@H]23)cc1)c1ccc(-c2c3nc(c(-c4ccccc4)c4ccc([nH]4)c(-c4ccccc4)c4nc(c(-c5ccccc5)c5ccc2[nH]5)C=C4)C=C3)cc1
REMARK SMILES IDX 7 1 6 2 5 3 4 4 3 5 1 6 2 7 31 9 32 10 78 11 33 12 77 13
REMARK SMILES IDX 34 14 35 15 36 16 71 17 37 18 76 19 70 20 72 21 38 22 75 23
REMARK SMILES IDX 69 24 68 25 39 27 61 28 46 29 60 30 47 31 50 32 59 33 73 34
REMARK SMILES IDX 48 35 49 36 58 38 74 39 51 40 40 41 41 42 45 43 42 44 44 45
REMARK SMILES IDX 43 46 62 47 63 48 67 49 64 50 66 51 65 52 52 53 53 54 57 55
REMARK SMILES IDX 54 56 56 57 55 58 8 59 9 60 10 61 11 62 12 64 13 65 14 66
REMARK SMILES IDX 30 67 15 68 29 69 16 70 17 71 18 72 19 73 20 74 21 76 22 77
REMARK SMILES IDX 28 78 23 79 24 80 27 81 25 82 26 84
REMARK H PARENT 3 8 72 26 50 37 10 63 20 75 24 83
REMARK Flexibility Score: inf
ROOT
ATOM      1  C   UNL A   1      35.917  21.517  25.381  1.00  0.00     0.002 C 
ENDROOT
BRANCH   1   2
ATOM      2  C   UNL A   1      36.294  20.093  24.963  1.00  0.00     0.002 C 
BRANCH   2   3
ATOM      3  C   UNL A   1      37.768  19.832  24.646  1.00  0.00     0.021 C 
BRANCH   3   4
ATOM      4  C   UNL A   1      38.765  20.130  25.759  1.00  0.00     0.116 C 
BRANCH   4   5
ATOM      5  N   UNL A   1      39.927  19.267  25.737  1.00  0.00    -0.352 N 
ATOM      6  O   UNL A   1      42.108  18.721  25.892  1.00  0.00    -0.269 OA
ATOM      7  C   UNL A   1      41.229  19.562  26.059  1.00  0.00     0.251 C 
ATOM      8  H   UNL A   1      39.762  18.340  25.450  1.00  0.00     0.163 HD
BRANCH   7   9
ATOM      9  C   UNL A   1      41.590  20.903  26.577  1.00  0.00     0.039 A 
ATOM     10  C   UNL A   1      41.980  21.939  25.723  1.00  0.00     0.014 A 
ATOM     11  C   UNL A   1      41.495  21.133  27.954  1.00  0.00     0.014 A 
ATOM     12  C   UNL A   1      42.370  23.168  26.253  1.00  0.00     0.010 A 
ATOM     13  C   UNL A   1      41.834  22.383  28.480  1.00  0.00     0.010 A 
ATOM     14  C   UNL A   1      42.294  23.404  27.635  1.00  0.00    -0.014 A 
BRANCH  14  15
ATOM     15  C   UNL A   1      42.637  24.742  28.175  1.00  0.00     0.031 A 
ATOM     16  C   UNL A   1      44.057  25.113  28.491  1.00  0.00     0.074 A 
ATOM     17  C   UNL A   1      41.649  25.635  28.372  1.00  0.00     0.049 A 
ATOM     18  N   UNL A   1      44.528  26.249  28.944  1.00  0.00    -0.248 NA
ATOM     19  C   UNL A   1      45.081  24.080  28.277  1.00  0.00     0.031 C 
ATOM     20  C   UNL A   1      40.228  25.393  28.118  1.00  0.00     0.029 A 
ATOM     21  N   UNL A   1      41.693  26.931  28.818  1.00  0.00    -0.354 N 
ATOM     22  C   UNL A   1      45.896  26.064  29.085  1.00  0.00     0.074 A 
ATOM     23  C   UNL A   1      46.181  24.702  28.683  1.00  0.00     0.031 C 
ATOM     24  C   UNL A   1      39.540  26.516  28.373  1.00  0.00     0.029 A 
ATOM     25  C   UNL A   1      40.465  27.542  28.843  1.00  0.00     0.049 A 
ATOM     26  H   UNL A   1      42.526  27.379  29.093  1.00  0.00     0.167 HD
ATOM     27  C   UNL A   1      46.831  26.947  29.508  1.00  0.00     0.031 A 
ATOM     28  C   UNL A   1      40.117  28.790  29.205  1.00  0.00     0.031 A 
ATOM     29  C   UNL A   1      46.559  28.303  29.904  1.00  0.00     0.049 A 
ATOM     30  C   UNL A   1      41.171  29.745  29.677  1.00  0.00     0.074 A 
ATOM     31  C   UNL A   1      47.451  29.280  30.313  1.00  0.00     0.029 A 
ATOM     32  N   UNL A   1      45.297  28.873  29.943  1.00  0.00    -0.354 N 
ATOM     33  N   UNL A   1      42.463  29.560  29.776  1.00  0.00    -0.248 NA
ATOM     34  C   UNL A   1      40.714  31.078  30.094  1.00  0.00     0.031 C 
ATOM     35  C   UNL A   1      46.724  30.434  30.627  1.00  0.00     0.029 A 
ATOM     36  C   UNL A   1      45.385  30.183  30.387  1.00  0.00     0.049 A 
ATOM     37  H   UNL A   1      44.462  28.416  29.694  1.00  0.00     0.167 HD
ATOM     38  C   UNL A   1      42.977  30.754  30.262  1.00  0.00     0.074 A 
ATOM     39  C   UNL A   1      41.859  31.661  30.421  1.00  0.00     0.031 C 
ATOM     40  C   UNL A   1      44.262  31.067  30.554  1.00  0.00     0.031 A 
BRANCH  27  41
ATOM     41  C   UNL A   1      48.250  26.463  29.584  1.00  0.00    -0.014 A 
ATOM     42  C   UNL A   1      48.736  25.834  30.740  1.00  0.00     0.009 A 
ATOM     43  C   UNL A   1      49.094  26.598  28.472  1.00  0.00     0.009 A 
ATOM     44  C   UNL A   1      50.053  25.369  30.788  1.00  0.00     0.001 A 
ATOM     45  C   UNL A   1      50.404  26.120  28.517  1.00  0.00     0.001 A 
ATOM     46  C   UNL A   1      50.884  25.511  29.676  1.00  0.00     0.000 A 
ENDBRANCH  27  41
BRANCH  28  47
ATOM     47  C   UNL A   1      38.696  29.203  29.126  1.00  0.00    -0.014 A 
ATOM     48  C   UNL A   1      37.856  29.060  30.240  1.00  0.00     0.009 A 
ATOM     49  C   UNL A   1      38.185  29.771  27.950  1.00  0.00     0.009 A 
ATOM     50  C   UNL A   1      36.523  29.470  30.172  1.00  0.00     0.001 A 
ATOM     51  C   UNL A   1      36.857  30.195  27.892  1.00  0.00     0.001 A 
ATOM     52  C   UNL A   1      36.026  30.042  29.001  1.00  0.00     0.000 A 
ENDBRANCH  28  47
BRANCH  40  53
ATOM     53  C   UNL A   1      44.518  32.448  31.076  1.00  0.00    -0.014 A 
ATOM     54  C   UNL A   1      44.770  33.510  30.195  1.00  0.00     0.009 A 
ATOM     55  C   UNL A   1      44.489  32.692  32.457  1.00  0.00     0.009 A 
ATOM     56  C   UNL A   1      45.015  34.792  30.691  1.00  0.00     0.001 A 
ATOM     57  C   UNL A   1      44.719  33.978  32.948  1.00  0.00     0.001 A 
ATOM     58  C   UNL A   1      44.988  35.025  32.066  1.00  0.00     0.000 A 
ENDBRANCH  40  53
ENDBRANCH  14  15
ENDBRANCH   7   9
ENDBRANCH   4   5
ENDBRANCH   3   4
ENDBRANCH   2   3
ENDBRANCH   1   2
BRANCH   1  59
ATOM     59  C   UNL A   1      35.283  21.686  26.763  1.00  0.00     0.021 C 
BRANCH  59  60
ATOM     60  C   UNL A   1      33.762  21.763  26.795  1.00  0.00     0.116 C 
BRANCH  60  61
ATOM     61  N   UNL A   1      33.131  20.700  26.037  1.00  0.00    -0.352 N 
ATOM     62  C   UNL A   1      32.426  20.780  24.864  1.00  0.00     0.251 C 
ATOM     63  H   UNL A   1      33.221  19.797  26.418  1.00  0.00     0.163 HD
ATOM     64  O   UNL A   1      31.836  19.796  24.427  1.00  0.00    -0.269 OA
BRANCH  62  65
ATOM     65  C   UNL A   1      32.368  22.055  24.114  1.00  0.00     0.039 A 
ATOM     66  C   UNL A   1      33.335  22.309  23.134  1.00  0.00     0.015 A 
ATOM     67  C   UNL A   1      31.401  23.021  24.419  1.00  0.00     0.015 A 
ATOM     68  C   UNL A   1      33.326  23.521  22.441  1.00  0.00     0.022 A 
ATOM     69  C   UNL A   1      31.363  24.213  23.702  1.00  0.00     0.022 A 
ATOM     70  C   UNL A   1      32.339  24.468  22.733  1.00  0.00     0.082 A 
BRANCH  70  71
ATOM     71  S   UNL A   1      32.405  26.063  21.962  1.00  0.00     0.241 S 
ATOM     72  O   UNL A   1      33.712  26.281  21.389  1.00  0.00    -0.207 OA
ATOM     73  O   UNL A   1      31.207  26.174  21.157  1.00  0.00    -0.207 OA
BRANCH  71  74
ATOM     74  N   UNL A   1      32.192  27.125  23.214  1.00  0.00    -0.202 NA
ATOM     75  H   UNL A   1      31.672  26.584  23.904  1.00  0.00     0.141 HD
BRANCH  74  76
ATOM     76  C   UNL A   1      33.151  27.883  24.019  1.00  0.00     0.133 C 
ATOM     77  C   UNL A   1      33.748  27.017  25.124  1.00  0.00     0.087 C 
ATOM     78  C   UNL A   1      32.930  29.282  24.628  1.00  0.00     0.202 C 
ATOM     79  C   UNL A   1      33.735  27.902  26.354  1.00  0.00     0.264 C 
ATOM     80  N   UNL A   1      33.836  29.263  25.808  1.00  0.00    -0.331 N 
ATOM     81  C   UNL A   1      31.604  29.827  25.154  1.00  0.00     0.072 C 
ATOM     82  C   UNL A   1      33.336  30.273  26.744  1.00  0.00     0.262 C 
ATOM     83  H   UNL A   1      34.812  29.477  25.602  1.00  0.00     0.348 HD
ATOM     84  C   UNL A   1      31.831  30.236  26.600  1.00  0.00     0.068 C 
ENDBRANCH  74  76
ENDBRANCH  71  74
ENDBRANCH  70  71
ENDBRANCH  62  65
ENDBRANCH  60  61
ENDBRANCH  59  60
ENDBRANCH   1  59
TORSDOF 16
ENDMDL
MODEL 2
REMARK VINA RESULT:     -11.2      1.687      2.261
REMARK SMILES O=C(NCCCCCCNC(=O)c1ccc(S(=O)(=O)N[C@@H]2CC[N@@H+]3CCC[C@H]23)cc1)c1ccc(-c2c3nc(c(-c4ccccc4)c4ccc([nH]4)c(-c4ccccc4)c4nc(c(-c5ccccc5)c5ccc2[nH]5)C=C4)C=C3)cc1
REMARK SMILES IDX 7 1 6 2 5 3 4 4 3 5 1 6 2 7 31 9 32 10 78 11 33 12 77 13
REMARK SMILES IDX 34 14 35 15 36 16 71 17 37 18 76 19 70 20 72 21 38 22 75 23
REMARK SMILES IDX 69 24 68 25 39 27 61 28 46 29 60 30 47 31 50 32 59 33 73 34
REMARK SMILES IDX 48 35 49 36 58 38 74 39 51 40 40 41 41 42 45 43 42 44 44 45
REMARK SMILES IDX 43 46 62 47 63 48 67 49 64 50 66 51 65 52 52 53 53 54 57 55
REMARK SMILES IDX 54 56 56 57 55 58 8 59 9 60 10 61 11 62 12 64 13 65 14 66
REMARK SMILES IDX 30 67 15 68 29 69 16 70 17 71 18 72 19 73 20 74 21 76 22 77
REMARK SMILES IDX 28 78 23 79 24 80 27 81 25 82 26 84
REMARK H PARENT 3 8 72 26 50 37 10 63 20 75 24 83
REMARK Flexibility Score: inf
ROOT
ATOM      1  C   UNL A   1      35.566  21.358  25.960  1.00  0.00     0.002 C 
ENDROOT
BRANCH   1   2
ATOM      2  C   UNL A   1      36.069  20.601  24.728  1.00  0.00     0.002 C 
BRANCH   2   3
ATOM      3  C   UNL A   1      37.268  19.672  24.928  1.00  0.00     0.021 C 
BRANCH   3   4
ATOM      4  C   UNL A   1      38.509  20.293  25.558  1.00  0.00     0.116 C 
BRANCH   4   5
ATOM      5  N   UNL A   1      39.641  19.391  25.606  1.00  0.00    -0.352 N 
ATOM      6  O   UNL A   1      41.785  18.768  25.914  1.00  0.00    -0.269 OA
ATOM      7  C   UNL A   1      40.924  19.636  26.031  1.00  0.00     0.251 C 
ATOM      8  H   UNL A   1      39.468  18.475  25.290  1.00  0.00     0.163 HD
BRANCH   7   9
ATOM      9  C   UNL A   1      41.288  20.955  26.599  1.00  0.00     0.039 A 
ATOM     10  C   UNL A   1      41.176  21.222  27.968  1.00  0.00     0.014 A 
ATOM     11  C   UNL A   1      41.792  21.936  25.738  1.00  0.00     0.014 A 
ATOM     12  C   UNL A   1      41.470  22.495  28.455  1.00  0.00     0.010 A 
ATOM     13  C   UNL A   1      42.138  23.195  26.236  1.00  0.00     0.010 A 
ATOM     14  C   UNL A   1      41.960  23.490  27.595  1.00  0.00    -0.014 A 
BRANCH  14  15
ATOM     15  C   UNL A   1      42.344  24.814  28.143  1.00  0.00     0.031 A 
ATOM     16  C   UNL A   1      43.776  25.142  28.455  1.00  0.00     0.074 A 
ATOM     17  C   UNL A   1      41.383  25.735  28.350  1.00  0.00     0.049 A 
ATOM     18  N   UNL A   1      44.281  26.260  28.913  1.00  0.00    -0.248 NA
ATOM     19  C   UNL A   1      44.768  24.081  28.230  1.00  0.00     0.031 C 
ATOM     20  C   UNL A   1      39.955  25.535  28.100  1.00  0.00     0.029 A 
ATOM     21  N   UNL A   1      41.467  27.026  28.804  1.00  0.00    -0.354 N 
ATOM     22  C   UNL A   1      45.644  26.035  29.047  1.00  0.00     0.074 A 
ATOM     23  C   UNL A   1      45.887  24.668  28.635  1.00  0.00     0.031 C 
ATOM     24  C   UNL A   1      39.301  26.677  28.365  1.00  0.00     0.029 A 
ATOM     25  C   UNL A   1      40.258  27.672  28.838  1.00  0.00     0.049 A 
ATOM     26  H   UNL A   1      42.314  27.448  29.078  1.00  0.00     0.167 HD
ATOM     27  C   UNL A   1      46.606  26.887  29.473  1.00  0.00     0.031 A 
ATOM     28  C   UNL A   1      39.947  28.927  29.209  1.00  0.00     0.031 A 
ATOM     29  C   UNL A   1      46.375  28.248  29.878  1.00  0.00     0.049 A 
ATOM     30  C   UNL A   1      41.030  29.848  29.683  1.00  0.00     0.074 A 
ATOM     31  C   UNL A   1      47.297  29.196  30.290  1.00  0.00     0.029 A 
ATOM     32  N   UNL A   1      45.130  28.854  29.927  1.00  0.00    -0.354 N 
ATOM     33  N   UNL A   1      42.317  29.625  29.775  1.00  0.00    -0.248 NA
ATOM     34  C   UNL A   1      40.614  31.191  30.110  1.00  0.00     0.031 C 
ATOM     35  C   UNL A   1      46.606  30.369  30.615  1.00  0.00     0.029 A 
ATOM     36  C   UNL A   1      45.258  30.158  30.379  1.00  0.00     0.049 A 
ATOM     37  H   UNL A   1      44.282  28.424  29.678  1.00  0.00     0.167 HD
ATOM     38  C   UNL A   1      42.868  30.800  30.268  1.00  0.00     0.074 A 
ATOM     39  C   UNL A   1      41.778  31.738  30.437  1.00  0.00     0.031 C 
ATOM     40  C   UNL A   1      44.163  31.073  30.556  1.00  0.00     0.031 A 
BRANCH  27  41
ATOM     41  C   UNL A   1      48.010  26.362  29.539  1.00  0.00    -0.014 A 
ATOM     42  C   UNL A   1      48.504  25.770  30.712  1.00  0.00     0.009 A 
ATOM     43  C   UNL A   1      48.833  26.421  28.404  1.00  0.00     0.009 A 
ATOM     44  C   UNL A   1      49.806  25.265  30.752  1.00  0.00     0.001 A 
ATOM     45  C   UNL A   1      50.128  25.903  28.443  1.00  0.00     0.001 A 
ATOM     46  C   UNL A   1      50.615  25.331  29.617  1.00  0.00     0.000 A 
ENDBRANCH  27  41
BRANCH  28  47
ATOM     47  C   UNL A   1      38.539  29.382  29.139  1.00  0.00    -0.014 A 
ATOM     48  C   UNL A   1      37.707  29.281  30.263  1.00  0.00     0.009 A 
ATOM     49  C   UNL A   1      38.033  29.948  27.960  1.00  0.00     0.009 A 
ATOM     50  C   UNL A   1      36.386  29.730  30.204  1.00  0.00     0.001 A 
ATOM     51  C   UNL A   1      36.718  30.412  27.909  1.00  0.00     0.001 A 
ATOM     52  C   UNL A   1      35.895  30.300  29.030  1.00  0.00     0.000 A 
ENDBRANCH  28  47
BRANCH  40  53
ATOM     53  C   UNL A   1      44.461  32.443  31.086  1.00  0.00    -0.014 A 
ATOM     54  C   UNL A   1      44.428  32.700  32.465  1.00  0.00     0.009 A 
ATOM     55  C   UNL A   1      44.794  33.479  30.201  1.00  0.00     0.009 A 
ATOM     56  C   UNL A   1      44.700  33.981  32.947  1.00  0.00     0.001 A 
ATOM     57  C   UNL A   1      45.080  34.755  30.689  1.00  0.00     0.001 A 
ATOM     58  C   UNL A   1      45.027  35.006  32.059  1.00  0.00     0.000 A 
ENDBRANCH  40  53
ENDBRANCH  14  15
ENDBRANCH   7   9
ENDBRANCH   4   5
ENDBRANCH   3   4
ENDBRANCH   2   3
ENDBRANCH   1   2
BRANCH   1  59
ATOM     59  C   UNL A   1      34.099  21.793  25.952  1.00  0.00     0.021 C 
BRANCH  59  60
ATOM     60  C   UNL A   1      33.674  22.731  27.075  1.00  0.00     0.116 C 
BRANCH  60  61
ATOM     61  N   UNL A   1      32.276  22.583  27.429  1.00  0.00    -0.352 N 
ATOM     62  C   UNL A   1      31.184  23.238  26.918  1.00  0.00     0.251 C 
ATOM     63  H   UNL A   1      32.084  21.923  28.133  1.00  0.00     0.163 HD
ATOM     64  O   UNL A   1      30.078  23.094  27.430  1.00  0.00    -0.269 OA
BRANCH  62  65
ATOM     65  C   UNL A   1      31.331  24.129  25.744  1.00  0.00     0.039 A 
ATOM     66  C   UNL A   1      31.062  23.617  24.469  1.00  0.00     0.015 A 
ATOM     67  C   UNL A   1      31.791  25.442  25.895  1.00  0.00     0.015 A 
ATOM     68  C   UNL A   1      31.231  24.424  23.342  1.00  0.00     0.022 A 
ATOM     69  C   UNL A   1      31.921  26.263  24.779  1.00  0.00     0.022 A 
ATOM     70  C   UNL A   1      31.663  25.744  23.506  1.00  0.00     0.082 A 
BRANCH  70  71
ATOM     71  S   UNL A   1      32.018  26.730  22.075  1.00  0.00     0.241 S 
ATOM     72  O   UNL A   1      33.132  27.607  22.344  1.00  0.00    -0.207 OA
ATOM     73  O   UNL A   1      32.036  25.819  20.950  1.00  0.00    -0.207 OA
BRANCH  71  74
ATOM     74  N   UNL A   1      30.657  27.650  21.873  1.00  0.00    -0.202 NA
ATOM     75  H   UNL A   1      29.970  26.989  21.509  1.00  0.00     0.141 HD
BRANCH  74  76
ATOM     76  C   UNL A   1      29.887  28.468  22.812  1.00  0.00     0.133 C 
ATOM     77  C   UNL A   1      28.563  27.799  23.167  1.00  0.00     0.087 C 
ATOM     78  C   UNL A   1      29.598  29.976  22.686  1.00  0.00     0.202 C 
ATOM     79  C   UNL A   1      27.542  28.917  23.112  1.00  0.00     0.264 C 
ATOM     80  N   UNL A   1      28.321  30.120  23.438  1.00  0.00    -0.331 N 
ATOM     81  C   UNL A   1      29.379  30.738  21.381  1.00  0.00     0.072 C 
ATOM     82  C   UNL A   1      27.679  31.344  22.953  1.00  0.00     0.262 C 
ATOM     83  H   UNL A   1      28.427  30.196  24.449  1.00  0.00     0.348 HD
ATOM     84  C   UNL A   1      28.022  31.416  21.482  1.00  0.00     0.068 C 
ENDBRANCH  74  76
ENDBRANCH  71  74
ENDBRANCH  70  71
ENDBRANCH  62  65
ENDBRANCH  60  61
ENDBRANCH  59  60
ENDBRANCH   1  59
TORSDOF 16
ENDMDL
MODEL 3
REMARK VINA RESULT:     -11.2      1.697      6.201
REMARK SMILES O=C(NCCCCCCNC(=O)c1ccc(S(=O)(=O)N[C@@H]2CC[N@@H+]3CCC[C@H]23)cc1)c1ccc(-c2c3nc(c(-c4ccccc4)c4ccc([nH]4)c(-c4ccccc4)c4nc(c(-c5ccccc5)c5ccc2[nH]5)C=C4)C=C3)cc1
REMARK SMILES IDX 7 1 6 2 5 3 4 4 3 5 1 6 2 7 31 9 32 10 78 11 33 12 77 13
REMARK SMILES IDX 34 14 35 15 36 16 71 17 37 18 76 19 70 20 72 21 38 22 75 23
REMARK SMILES IDX 69 24 68 25 39 27 61 28 46 29 60 30 47 31 50 32 59 33 73 34
REMARK SMILES IDX 48 35 49 36 58 38 74 39 51 40 40 41 41 42 45 43 42 44 44 45
REMARK SMILES IDX 43 46 62 47 63 48 67 49 64 50 66 51 65 52 52 53 53 54 57 55
REMARK SMILES IDX 54 56 56 57 55 58 8 59 9 60 10 61 11 62 12 64 13 65 14 66
REMARK SMILES IDX 30 67 15 68 29 69 16 70 17 71 18 72 19 73 20 74 21 76 22 77
REMARK SMILES IDX 28 78 23 79 24 80 27 81 25 82 26 84
REMARK H PARENT 3 8 72 26 50 37 10 63 20 75 24 83
REMARK Flexibility Score: inf
ROOT
ATOM      1  C   UNL A   1      35.648  21.404  25.998  1.00  0.00     0.002 C 
ENDROOT
BRANCH   1   2
ATOM      2  C   UNL A   1      36.110  20.611  24.772  1.00  0.00     0.002 C 
BRANCH   2   3
ATOM      3  C   UNL A   1      37.300  19.670  24.965  1.00  0.00     0.021 C 
BRANCH   3   4
ATOM      4  C   UNL A   1      38.562  20.283  25.560  1.00  0.00     0.116 C 
BRANCH   4   5
ATOM      5  N   UNL A   1      39.667  19.352  25.649  1.00  0.00    -0.352 N 
ATOM      6  O   UNL A   1      41.794  18.683  25.975  1.00  0.00    -0.269 OA
ATOM      7  C   UNL A   1      40.960  19.581  26.052  1.00  0.00     0.251 C 
ATOM      8  H   UNL A   1      39.465  18.426  25.383  1.00  0.00     0.163 HD
BRANCH   7   9
ATOM      9  C   UNL A   1      41.367  20.917  26.546  1.00  0.00     0.039 A 
ATOM     10  C   UNL A   1      42.001  21.846  25.715  1.00  0.00     0.014 A 
ATOM     11  C   UNL A   1      41.068  21.258  27.870  1.00  0.00     0.014 A 
ATOM     12  C   UNL A   1      42.424  23.070  26.233  1.00  0.00     0.010 A 
ATOM     13  C   UNL A   1      41.444  22.506  28.375  1.00  0.00     0.010 A 
ATOM     14  C   UNL A   1      42.143  23.413  27.566  1.00  0.00    -0.014 A 
BRANCH  14  15
ATOM     15  C   UNL A   1      42.529  24.750  28.080  1.00  0.00     0.031 A 
ATOM     16  C   UNL A   1      41.504  25.827  28.293  1.00  0.00     0.074 A 
ATOM     17  C   UNL A   1      43.822  24.987  28.366  1.00  0.00     0.049 A 
ATOM     18  N   UNL A   1      41.672  27.039  28.760  1.00  0.00    -0.248 NA
ATOM     19  C   UNL A   1      40.114  25.508  27.934  1.00  0.00     0.031 C 
ATOM     20  C   UNL A   1      44.916  24.030  28.190  1.00  0.00     0.029 A 
ATOM     21  N   UNL A   1      44.433  26.103  28.880  1.00  0.00    -0.354 N 
ATOM     22  C   UNL A   1      40.417  27.633  28.736  1.00  0.00     0.074 A 
ATOM     23  C   UNL A   1      39.498  26.653  28.196  1.00  0.00     0.031 C 
ATOM     24  C   UNL A   1      46.057  24.584  28.627  1.00  0.00     0.029 A 
ATOM     25  C   UNL A   1      45.781  25.945  29.077  1.00  0.00     0.049 A 
ATOM     26  H   UNL A   1      43.950  26.936  29.087  1.00  0.00     0.167 HD
ATOM     27  C   UNL A   1      40.062  28.879  29.129  1.00  0.00     0.031 A 
ATOM     28  C   UNL A   1      46.700  26.798  29.564  1.00  0.00     0.031 A 
ATOM     29  C   UNL A   1      40.967  29.857  29.673  1.00  0.00     0.049 A 
ATOM     30  C   UNL A   1      46.281  28.175  29.985  1.00  0.00     0.074 A 
ATOM     31  C   UNL A   1      40.687  31.133  30.131  1.00  0.00     0.029 A 
ATOM     32  N   UNL A   1      42.331  29.667  29.827  1.00  0.00    -0.354 N 
ATOM     33  N   UNL A   1      45.084  28.707  29.981  1.00  0.00    -0.248 NA
ATOM     34  C   UNL A   1      47.342  29.067  30.470  1.00  0.00     0.031 C 
ATOM     35  C   UNL A   1      41.888  31.727  30.538  1.00  0.00     0.029 A 
ATOM     36  C   UNL A   1      42.909  30.810  30.358  1.00  0.00     0.049 A 
ATOM     37  H   UNL A   1      42.817  28.844  29.595  1.00  0.00     0.167 HD
ATOM     38  C   UNL A   1      45.246  29.997  30.467  1.00  0.00     0.074 A 
ATOM     39  C   UNL A   1      46.653  30.160  30.771  1.00  0.00     0.031 C 
ATOM     40  C   UNL A   1      44.311  30.961  30.640  1.00  0.00     0.031 A 
BRANCH  27  41
ATOM     41  C   UNL A   1      38.622  29.267  28.967  1.00  0.00    -0.014 A 
ATOM     42  C   UNL A   1      38.139  29.753  27.743  1.00  0.00     0.009 A 
ATOM     43  C   UNL A   1      37.730  29.103  30.038  1.00  0.00     0.009 A 
ATOM     44  C   UNL A   1      36.790  30.089  27.601  1.00  0.00     0.001 A 
ATOM     45  C   UNL A   1      36.381  29.426  29.889  1.00  0.00     0.001 A 
ATOM     46  C   UNL A   1      35.913  29.923  28.673  1.00  0.00     0.000 A 
ENDBRANCH  27  41
BRANCH  28  47
ATOM     47  C   UNL A   1      48.111  26.364  29.682  1.00  0.00    -0.014 A 
ATOM     48  C   UNL A   1      48.995  26.534  28.607  1.00  0.00     0.009 A 
ATOM     49  C   UNL A   1      48.586  25.808  30.878  1.00  0.00     0.009 A 
ATOM     50  C   UNL A   1      50.330  26.145  28.726  1.00  0.00     0.001 A 
ATOM     51  C   UNL A   1      49.925  25.436  31.000  1.00  0.00     0.001 A 
ATOM     52  C   UNL A   1      50.796  25.602  29.923  1.00  0.00     0.000 A 
ENDBRANCH  28  47
BRANCH  40  53
ATOM     53  C   UNL A   1      44.787  32.273  31.183  1.00  0.00    -0.014 A 
ATOM     54  C   UNL A   1      44.839  32.499  32.567  1.00  0.00     0.009 A 
ATOM     55  C   UNL A   1      45.205  33.285  30.306  1.00  0.00     0.009 A 
ATOM     56  C   UNL A   1      45.278  33.728  33.063  1.00  0.00     0.001 A 
ATOM     57  C   UNL A   1      45.657  34.507  30.806  1.00  0.00     0.001 A 
ATOM     58  C   UNL A   1      45.687  34.730  32.182  1.00  0.00     0.000 A 
ENDBRANCH  40  53
ENDBRANCH  14  15
ENDBRANCH   7   9
ENDBRANCH   4   5
ENDBRANCH   3   4
ENDBRANCH   2   3
ENDBRANCH   1   2
BRANCH   1  59
ATOM     59  C   UNL A   1      34.236  21.992  25.949  1.00  0.00     0.021 C 
BRANCH  59  60
ATOM     60  C   UNL A   1      33.804  22.793  27.170  1.00  0.00     0.116 C 
BRANCH  60  61
ATOM     61  N   UNL A   1      32.408  22.589  27.508  1.00  0.00    -0.352 N 
ATOM     62  C   UNL A   1      31.297  23.205  26.992  1.00  0.00     0.251 C 
ATOM     63  H   UNL A   1      32.236  21.915  28.204  1.00  0.00     0.163 HD
ATOM     64  O   UNL A   1      30.193  23.013  27.492  1.00  0.00    -0.269 OA
BRANCH  62  65
ATOM     65  C   UNL A   1      31.421  24.111  25.827  1.00  0.00     0.039 A 
ATOM     66  C   UNL A   1      31.054  23.639  24.561  1.00  0.00     0.015 A 
ATOM     67  C   UNL A   1      31.953  25.397  25.974  1.00  0.00     0.015 A 
ATOM     68  C   UNL A   1      31.198  24.460  23.441  1.00  0.00     0.022 A 
ATOM     69  C   UNL A   1      32.060  26.234  24.867  1.00  0.00     0.022 A 
ATOM     70  C   UNL A   1      31.705  25.754  23.602  1.00  0.00     0.082 A 
BRANCH  70  71
ATOM     71  S   UNL A   1      32.025  26.750  22.171  1.00  0.00     0.241 S 
ATOM     72  O   UNL A   1      33.094  27.680  22.446  1.00  0.00    -0.207 OA
ATOM     73  O   UNL A   1      32.098  25.836  21.050  1.00  0.00    -0.207 OA
BRANCH  71  74
ATOM     74  N   UNL A   1      30.624  27.603  21.951  1.00  0.00    -0.202 NA
ATOM     75  H   UNL A   1      29.954  26.894  21.652  1.00  0.00     0.141 HD
BRANCH  74  76
ATOM     76  C   UNL A   1      29.849  28.451  22.859  1.00  0.00     0.133 C 
ATOM     77  C   UNL A   1      28.509  27.808  23.204  1.00  0.00     0.087 C 
ATOM     78  C   UNL A   1      29.584  29.960  22.697  1.00  0.00     0.202 C 
ATOM     79  C   UNL A   1      27.506  28.939  23.107  1.00  0.00     0.264 C 
ATOM     80  N   UNL A   1      28.296  30.138  23.422  1.00  0.00    -0.331 N 
ATOM     81  C   UNL A   1      29.400  30.697  21.373  1.00  0.00     0.072 C 
ATOM     82  C   UNL A   1      27.681  31.360  22.900  1.00  0.00     0.262 C 
ATOM     83  H   UNL A   1      28.384  30.233  24.434  1.00  0.00     0.348 HD
ATOM     84  C   UNL A   1      28.052  31.397  21.435  1.00  0.00     0.068 C 
ENDBRANCH  74  76
ENDBRANCH  71  74
ENDBRANCH  70  71
ENDBRANCH  62  65
ENDBRANCH  60  61
ENDBRANCH  59  60
ENDBRANCH   1  59
TORSDOF 16
ENDMDL
