MODEL 1
REMARK VINA RESULT:     -12.1      0.000      0.000
REMARK SMILES Cc1cccc(NC(=O)C[C@H]([NH2+]C(C)C)C(=O)NCCCCCCNC(=O)c2ccc(-c3c4nc(c(-c5ccccc5)c5ccc([nH]5)c(-c5ccccc5)c5nc(c(-c6ccccc6)c6ccc3[nH]6)C=C5)C=C4)cc2)c1
REMARK SMILES IDX 21 1 20 2 19 3 18 4 16 5 17 6 11 8 10 9 8 10 7 11 9 13 6 14
REMARK SMILES IDX 1 15 2 16 3 17 76 18 4 19 5 20 12 21 13 24 14 25 15 26 22 27
REMARK SMILES IDX 23 28 24 29 25 30 26 31 27 33 28 34 29 35 75 36 30 37 74 38
REMARK SMILES IDX 31 39 32 40 33 41 68 42 34 43 73 44 67 45 69 46 35 47 72 48
REMARK SMILES IDX 66 49 65 50 36 52 58 53 43 54 57 55 44 56 47 57 56 58 70 59
REMARK SMILES IDX 45 60 46 61 55 63 71 64 48 65 37 66 38 67 42 68 39 69 41 70
REMARK SMILES IDX 40 71 59 72 60 73 64 74 61 75 63 76 62 77 49 78 50 79 54 80
REMARK SMILES IDX 51 81 53 82 52 83
REMARK H PARENT 18 7 7 12 12 22 12 23 25 32 69 51 47 62
REMARK Flexibility Score: inf
ROOT
ATOM      1  C   UNL A   1      35.102  30.998  27.564  1.00  0.00     0.002 C 
ENDROOT
BRANCH   1   2
ATOM      2  C   UNL A   1      33.726  30.357  27.745  1.00  0.00     0.021 C 
BRANCH   2   3
ATOM      3  C   UNL A   1      32.693  30.507  26.363  1.00  0.00     0.116 C 
BRANCH   3   4
ATOM      4  N   UNL A   1      32.743  29.570  24.511  1.00  0.00    -0.351 N 
ATOM      5  C   UNL A   1      32.240  29.186  23.262  1.00  0.00     0.278 C 
ATOM      6  O   UNL A   1      33.146  28.848  22.473  1.00  0.00    -0.268 OA
ATOM      7  H   UNL A   1      33.636  29.156  24.511  1.00  0.00     0.163 HD
BRANCH   5   8
ATOM      8  C   UNL A   1      30.789  29.038  22.761  1.00  0.00     0.282 C 
BRANCH   8   9
ATOM      9  C   UNL A   1      30.278  27.611  22.429  1.00  0.00     0.175 C 
BRANCH   9  10
ATOM     10  C   UNL A   1      29.297  26.931  23.391  1.00  0.00     0.230 C 
ATOM     11  N   UNL A   1      29.608  25.786  24.072  1.00  0.00    -0.326 N 
ATOM     12  H   UNL A   1      28.875  25.315  24.530  1.00  0.00     0.169 HD
ATOM     13  O   UNL A   1      28.169  27.407  23.563  1.00  0.00    -0.274 OA
BRANCH  11  14
ATOM     14  C   UNL A   1      30.887  25.235  24.163  1.00  0.00     0.041 A 
ATOM     15  C   UNL A   1      32.376  21.000  23.769  1.00  0.00     0.044 C 
ATOM     16  C   UNL A   1      32.312  22.439  24.184  1.00  0.00    -0.049 A 
ATOM     17  C   UNL A   1      33.370  23.013  25.544  1.00  0.00     0.003 A 
ATOM     18  C   UNL A   1      31.023  23.536  23.534  1.00  0.00     0.029 A 
ATOM     19  C   UNL A   1      33.270  24.737  26.119  1.00  0.00     0.002 A 
ATOM     20  C   UNL A   1      32.034  25.855  25.434  1.00  0.00     0.026 A 
ENDBRANCH  11  14
ENDBRANCH   9  10
ENDBRANCH   8   9
BRANCH   8  21
ATOM     21  N   UNL A   1      30.417  30.100  21.751  1.00  0.00    -0.334 N 
ATOM     22  H   UNL A   1      30.288  29.642  20.849  1.00  0.00     0.347 HD
ATOM     23  H   UNL A   1      31.180  30.778  21.769  1.00  0.00     0.347 HD
BRANCH  21  24
ATOM     24  C   UNL A   1      29.188  30.873  22.049  1.00  0.00     0.176 C 
ATOM     25  C   UNL A   1      28.030  30.364  21.177  1.00  0.00     0.075 C 
ATOM     26  C   UNL A   1      28.766  30.988  23.507  1.00  0.00     0.075 C 
ENDBRANCH  21  24
ENDBRANCH   8  21
ENDBRANCH   5   8
ENDBRANCH   3   4
ENDBRANCH   2   3
ENDBRANCH   1   2
BRANCH   1  27
ATOM     27  C   UNL A   1      35.188  32.443  28.055  1.00  0.00     0.002 C 
BRANCH  27  28
ATOM     28  C   UNL A   1      34.389  32.755  29.331  1.00  0.00     0.021 C 
BRANCH  28  29
ATOM     29  C   UNL A   1      33.904  34.194  29.456  1.00  0.00     0.116 C 
BRANCH  29  30
ATOM     30  N   UNL A   1      33.828  34.588  30.858  1.00  0.00    -0.352 N 
ATOM     31  C   UNL A   1      34.145  33.889  31.992  1.00  0.00     0.251 C 
ATOM     32  H   UNL A   1      33.496  35.502  31.014  1.00  0.00     0.163 HD
ATOM     33  O   UNL A   1      33.365  33.840  32.937  1.00  0.00    -0.269 OA
BRANCH  31  34
ATOM     34  C   UNL A   1      35.574  33.572  32.197  1.00  0.00     0.039 A 
ATOM     35  C   UNL A   1      36.559  34.347  31.566  1.00  0.00     0.014 A 
ATOM     36  C   UNL A   1      35.908  32.346  32.753  1.00  0.00     0.014 A 
ATOM     37  C   UNL A   1      37.830  33.809  31.378  1.00  0.00     0.010 A 
ATOM     38  C   UNL A   1      37.124  31.795  32.546  1.00  0.00     0.010 A 
ATOM     39  C   UNL A   1      38.048  32.503  31.805  1.00  0.00    -0.014 A 
BRANCH  39  40
ATOM     40  C   UNL A   1      39.261  31.741  31.687  1.00  0.00     0.031 A 
ATOM     41  C   UNL A   1      39.161  30.611  30.768  1.00  0.00     0.074 A 
ATOM     42  C   UNL A   1      40.363  32.326  32.205  1.00  0.00     0.049 A 
ATOM     43  N   UNL A   1      39.672  29.454  30.969  1.00  0.00    -0.248 NA
ATOM     44  C   UNL A   1      38.327  30.665  29.557  1.00  0.00     0.031 C 
ATOM     45  C   UNL A   1      41.778  32.052  32.030  1.00  0.00     0.029 A 
ATOM     46  N   UNL A   1      40.347  33.310  33.192  1.00  0.00    -0.354 N 
ATOM     47  C   UNL A   1      39.655  28.848  29.732  1.00  0.00     0.074 A 
ATOM     48  C   UNL A   1      38.593  29.482  28.997  1.00  0.00     0.031 C 
ATOM     49  C   UNL A   1      42.445  32.563  33.088  1.00  0.00     0.029 A 
ATOM     50  C   UNL A   1      41.464  33.122  34.012  1.00  0.00     0.049 A 
ATOM     51  H   UNL A   1      39.667  34.015  33.293  1.00  0.00     0.167 HD
ATOM     52  C   UNL A   1      40.756  28.147  29.344  1.00  0.00     0.031 A 
ATOM     53  C   UNL A   1      41.231  32.691  35.292  1.00  0.00     0.031 A 
ATOM     54  C   UNL A   1      41.795  28.254  30.373  1.00  0.00     0.049 A 
ATOM     55  C   UNL A   1      41.578  31.223  35.418  1.00  0.00     0.074 A 
ATOM     56  C   UNL A   1      42.931  29.045  30.455  1.00  0.00     0.029 A 
ATOM     57  N   UNL A   1      41.515  27.832  31.667  1.00  0.00    -0.354 N 
ATOM     58  N   UNL A   1      41.561  30.379  34.420  1.00  0.00    -0.248 NA
ATOM     59  C   UNL A   1      42.043  30.617  36.660  1.00  0.00     0.031 C 
ATOM     60  C   UNL A   1      43.290  29.145  31.829  1.00  0.00     0.029 A 
ATOM     61  C   UNL A   1      42.375  28.421  32.572  1.00  0.00     0.049 A 
ATOM     62  H   UNL A   1      40.801  27.199  31.905  1.00  0.00     0.167 HD
ATOM     63  C   UNL A   1      42.059  29.174  34.837  1.00  0.00     0.074 A 
ATOM     64  C   UNL A   1      42.325  29.367  36.252  1.00  0.00     0.031 C 
ATOM     65  C   UNL A   1      42.251  28.118  33.992  1.00  0.00     0.031 A 
BRANCH  52  66
ATOM     66  C   UNL A   1      41.040  27.671  27.943  1.00  0.00    -0.014 A 
ATOM     67  C   UNL A   1      40.705  26.348  27.601  1.00  0.00     0.009 A 
ATOM     68  C   UNL A   1      41.601  28.450  26.917  1.00  0.00     0.009 A 
ATOM     69  C   UNL A   1      40.945  25.821  26.328  1.00  0.00     0.001 A 
ATOM     70  C   UNL A   1      41.863  27.924  25.643  1.00  0.00     0.001 A 
ATOM     71  C   UNL A   1      41.532  26.608  25.348  1.00  0.00     0.000 A 
ENDBRANCH  52  66
BRANCH  53  72
ATOM     72  C   UNL A   1      40.014  33.362  35.875  1.00  0.00    -0.014 A 
ATOM     73  C   UNL A   1      38.859  32.560  36.031  1.00  0.00     0.009 A 
ATOM     74  C   UNL A   1      40.141  34.499  36.689  1.00  0.00     0.009 A 
ATOM     75  C   UNL A   1      37.980  32.763  37.102  1.00  0.00     0.001 A 
ATOM     76  C   UNL A   1      39.238  34.712  37.742  1.00  0.00     0.001 A 
ATOM     77  C   UNL A   1      38.199  33.813  37.986  1.00  0.00     0.000 A 
ENDBRANCH  53  72
BRANCH  65  78
ATOM     78  C   UNL A   1      42.422  26.682  34.423  1.00  0.00    -0.014 A 
ATOM     79  C   UNL A   1      43.569  25.920  34.171  1.00  0.00     0.009 A 
ATOM     80  C   UNL A   1      41.445  26.089  35.257  1.00  0.00     0.009 A 
ATOM     81  C   UNL A   1      43.697  24.615  34.658  1.00  0.00     0.001 A 
ATOM     82  C   UNL A   1      41.603  24.820  35.810  1.00  0.00     0.001 A 
ATOM     83  C   UNL A   1      42.720  24.070  35.486  1.00  0.00     0.000 A 
ENDBRANCH  65  78
ENDBRANCH  39  40
ENDBRANCH  31  34
ENDBRANCH  29  30
ENDBRANCH  28  29
ENDBRANCH  27  28
ENDBRANCH   1  27
TORSDOF 18
ENDMDL
MODEL 2
REMARK VINA RESULT:     -11.9      2.559      4.625
REMARK SMILES Cc1cccc(NC(=O)C[C@H]([NH2+]C(C)C)C(=O)NCCCCCCNC(=O)c2ccc(-c3c4nc(c(-c5ccccc5)c5ccc([nH]5)c(-c5ccccc5)c5nc(c(-c6ccccc6)c6ccc3[nH]6)C=C5)C=C4)cc2)c1
REMARK SMILES IDX 21 1 20 2 19 3 18 4 16 5 17 6 11 8 10 9 8 10 7 11 9 13 6 14
REMARK SMILES IDX 1 15 2 16 3 17 76 18 4 19 5 20 12 21 13 24 14 25 15 26 22 27
REMARK SMILES IDX 23 28 24 29 25 30 26 31 27 33 28 34 29 35 75 36 30 37 74 38
REMARK SMILES IDX 31 39 32 40 33 41 68 42 34 43 73 44 67 45 69 46 35 47 72 48
REMARK SMILES IDX 66 49 65 50 36 52 58 53 43 54 57 55 44 56 47 57 56 58 70 59
REMARK SMILES IDX 45 60 46 61 55 63 71 64 48 65 37 66 38 67 42 68 39 69 41 70
REMARK SMILES IDX 40 71 59 72 60 73 64 74 61 75 63 76 62 77 49 78 50 79 54 80
REMARK SMILES IDX 51 81 53 82 52 83
REMARK H PARENT 18 7 7 12 12 22 12 23 25 32 69 51 47 62
REMARK Flexibility Score: inf
ROOT
ATOM      1  C   UNL A   1      33.075  28.030  24.210  1.00  0.00     0.002 C 
ENDROOT
BRANCH   1   2
ATOM      2  C   UNL A   1      31.632  27.714  23.814  1.00  0.00     0.021 C 
BRANCH   2   3
ATOM      3  C   UNL A   1      31.492  26.754  22.379  1.00  0.00     0.116 C 
BRANCH   3   4
ATOM      4  N   UNL A   1      32.553  25.088  21.741  1.00  0.00    -0.351 N 
ATOM      5  C   UNL A   1      33.061  23.787  21.833  1.00  0.00     0.278 C 
ATOM      6  O   UNL A   1      33.385  23.327  20.720  1.00  0.00    -0.268 OA
ATOM      7  H   UNL A   1      32.897  25.382  20.866  1.00  0.00     0.163 HD
BRANCH   5   8
ATOM      8  C   UNL A   1      33.353  22.903  23.064  1.00  0.00     0.282 C 
BRANCH   8   9
ATOM      9  C   UNL A   1      32.291  21.847  23.468  1.00  0.00     0.175 C 
BRANCH   9  10
ATOM     10  C   UNL A   1      32.025  21.595  24.956  1.00  0.00     0.230 C 
ATOM     11  N   UNL A   1      32.258  20.386  25.552  1.00  0.00    -0.326 N 
ATOM     12  H   UNL A   1      31.901  20.248  26.459  1.00  0.00     0.169 HD
ATOM     13  O   UNL A   1      31.564  22.498  25.664  1.00  0.00    -0.274 OA
BRANCH  11  14
ATOM     14  C   UNL A   1      32.964  19.333  24.968  1.00  0.00     0.041 A 
ATOM     15  C   UNL A   1      32.641  14.863  25.443  1.00  0.00     0.044 C 
ATOM     16  C   UNL A   1      33.229  16.211  25.155  1.00  0.00    -0.049 A 
ATOM     17  C   UNL A   1      35.034  16.380  25.042  1.00  0.00     0.003 A 
ATOM     18  C   UNL A   1      32.195  17.700  25.181  1.00  0.00     0.029 A 
ATOM     19  C   UNL A   1      35.786  18.013  24.762  1.00  0.00     0.002 A 
ATOM     20  C   UNL A   1      34.760  19.495  24.721  1.00  0.00     0.026 A 
ENDBRANCH  11  14
ENDBRANCH   9  10
ENDBRANCH   8   9
BRANCH   8  21
ATOM     21  N   UNL A   1      33.938  23.693  24.213  1.00  0.00    -0.334 N 
ATOM     22  H   UNL A   1      33.691  23.214  25.079  1.00  0.00     0.347 HD
ATOM     23  H   UNL A   1      33.548  24.633  24.131  1.00  0.00     0.347 HD
BRANCH  21  24
ATOM     24  C   UNL A   1      35.411  23.867  24.195  1.00  0.00     0.176 C 
ATOM     25  C   UNL A   1      35.930  24.061  25.627  1.00  0.00     0.075 C 
ATOM     26  C   UNL A   1      36.232  22.824  23.451  1.00  0.00     0.075 C 
ENDBRANCH  21  24
ENDBRANCH   8  21
ENDBRANCH   5   8
ENDBRANCH   3   4
ENDBRANCH   2   3
ENDBRANCH   1   2
BRANCH   1  27
ATOM     27  C   UNL A   1      33.539  27.335  25.490  1.00  0.00     0.002 C 
BRANCH  27  28
ATOM     28  C   UNL A   1      34.416  28.188  26.423  1.00  0.00     0.021 C 
BRANCH  28  29
ATOM     29  C   UNL A   1      33.654  29.062  27.410  1.00  0.00     0.116 C 
BRANCH  29  30
ATOM     30  N   UNL A   1      33.816  30.472  27.076  1.00  0.00    -0.352 N 
ATOM     31  C   UNL A   1      33.987  31.559  27.892  1.00  0.00     0.251 C 
ATOM     32  H   UNL A   1      33.802  30.675  26.114  1.00  0.00     0.163 HD
ATOM     33  O   UNL A   1      33.308  32.569  27.739  1.00  0.00    -0.269 OA
BRANCH  31  34
ATOM     34  C   UNL A   1      35.254  31.629  28.648  1.00  0.00     0.039 A 
ATOM     35  C   UNL A   1      36.176  32.651  28.373  1.00  0.00     0.014 A 
ATOM     36  C   UNL A   1      35.646  30.525  29.389  1.00  0.00     0.014 A 
ATOM     37  C   UNL A   1      37.512  32.474  28.725  1.00  0.00     0.010 A 
ATOM     38  C   UNL A   1      36.944  30.320  29.704  1.00  0.00     0.010 A 
ATOM     39  C   UNL A   1      37.871  31.265  29.311  1.00  0.00    -0.014 A 
BRANCH  39  40
ATOM     40  C   UNL A   1      39.185  30.854  29.724  1.00  0.00     0.031 A 
ATOM     41  C   UNL A   1      39.678  29.668  29.033  1.00  0.00     0.074 A 
ATOM     42  C   UNL A   1      39.867  31.759  30.461  1.00  0.00     0.049 A 
ATOM     43  N   UNL A   1      40.331  28.715  29.585  1.00  0.00    -0.248 NA
ATOM     44  C   UNL A   1      39.341  29.391  27.627  1.00  0.00     0.031 C 
ATOM     45  C   UNL A   1      41.273  31.868  30.801  1.00  0.00     0.029 A 
ATOM     46  N   UNL A   1      39.277  32.780  31.203  1.00  0.00    -0.354 N 
ATOM     47  C   UNL A   1      40.894  28.026  28.533  1.00  0.00     0.074 A 
ATOM     48  C   UNL A   1      40.050  28.282  27.397  1.00  0.00     0.031 C 
ATOM     49  C   UNL A   1      41.386  32.628  31.913  1.00  0.00     0.029 A 
ATOM     50  C   UNL A   1      40.040  32.974  32.360  1.00  0.00     0.049 A 
ATOM     51  H   UNL A   1      38.465  33.279  30.957  1.00  0.00     0.167 HD
ATOM     52  C   UNL A   1      42.189  27.621  28.649  1.00  0.00     0.031 A 
ATOM     53  C   UNL A   1      39.470  32.605  33.550  1.00  0.00     0.031 A 
ATOM     54  C   UNL A   1      42.740  28.093  29.923  1.00  0.00     0.049 A 
ATOM     55  C   UNL A   1      40.072  31.303  34.034  1.00  0.00     0.074 A 
ATOM     56  C   UNL A   1      43.561  29.167  30.229  1.00  0.00     0.029 A 
ATOM     57  N   UNL A   1      42.121  27.721  31.110  1.00  0.00    -0.354 N 
ATOM     58  N   UNL A   1      40.604  30.405  33.246  1.00  0.00    -0.248 NA
ATOM     59  C   UNL A   1      40.189  30.953  35.444  1.00  0.00     0.031 C 
ATOM     60  C   UNL A   1      43.374  29.477  31.606  1.00  0.00     0.029 A 
ATOM     61  C   UNL A   1      42.444  28.596  32.128  1.00  0.00     0.049 A 
ATOM     62  H   UNL A   1      41.532  26.940  31.211  1.00  0.00     0.167 HD
ATOM     63  C   UNL A   1      41.180  29.422  34.003  1.00  0.00     0.074 A 
ATOM     64  C   UNL A   1      40.873  29.798  35.372  1.00  0.00     0.031 C 
ATOM     65  C   UNL A   1      41.895  28.390  33.462  1.00  0.00     0.031 A 
BRANCH  52  66
ATOM     66  C   UNL A   1      43.054  27.125  27.520  1.00  0.00    -0.014 A 
ATOM     67  C   UNL A   1      43.182  25.736  27.330  1.00  0.00     0.009 A 
ATOM     68  C   UNL A   1      43.742  27.938  26.603  1.00  0.00     0.009 A 
ATOM     69  C   UNL A   1      43.975  25.191  26.315  1.00  0.00     0.001 A 
ATOM     70  C   UNL A   1      44.553  27.399  25.593  1.00  0.00     0.001 A 
ATOM     71  C   UNL A   1      44.668  26.023  25.448  1.00  0.00     0.000 A 
ENDBRANCH  52  66
BRANCH  53  72
ATOM     72  C   UNL A   1      38.008  32.965  33.584  1.00  0.00    -0.014 A 
ATOM     73  C   UNL A   1      37.680  34.321  33.346  1.00  0.00     0.009 A 
ATOM     74  C   UNL A   1      37.023  31.997  33.332  1.00  0.00     0.009 A 
ATOM     75  C   UNL A   1      36.500  34.671  32.679  1.00  0.00     0.001 A 
ATOM     76  C   UNL A   1      35.829  32.360  32.690  1.00  0.00     0.001 A 
ATOM     77  C   UNL A   1      35.596  33.682  32.309  1.00  0.00     0.000 A 
ENDBRANCH  53  72
BRANCH  65  78
ATOM     78  C   UNL A   1      42.222  27.097  34.166  1.00  0.00    -0.014 A 
ATOM     79  C   UNL A   1      41.310  26.377  34.946  1.00  0.00     0.009 A 
ATOM     80  C   UNL A   1      43.470  26.475  33.926  1.00  0.00     0.009 A 
ATOM     81  C   UNL A   1      41.652  25.147  35.517  1.00  0.00     0.001 A 
ATOM     82  C   UNL A   1      43.787  25.214  34.425  1.00  0.00     0.001 A 
ATOM     83  C   UNL A   1      42.885  24.560  35.247  1.00  0.00     0.000 A 
ENDBRANCH  65  78
ENDBRANCH  39  40
ENDBRANCH  31  34
ENDBRANCH  29  30
ENDBRANCH  28  29
ENDBRANCH  27  28
ENDBRANCH   1  27
TORSDOF 18
ENDMDL
MODEL 3
REMARK VINA RESULT:     -11.8      3.219      5.109
REMARK SMILES Cc1cccc(NC(=O)C[C@H]([NH2+]C(C)C)C(=O)NCCCCCCNC(=O)c2ccc(-c3c4nc(c(-c5ccccc5)c5ccc([nH]5)c(-c5ccccc5)c5nc(c(-c6ccccc6)c6ccc3[nH]6)C=C5)C=C4)cc2)c1
REMARK SMILES IDX 21 1 20 2 19 3 18 4 16 5 17 6 11 8 10 9 8 10 7 11 9 13 6 14
REMARK SMILES IDX 1 15 2 16 3 17 76 18 4 19 5 20 12 21 13 24 14 25 15 26 22 27
REMARK SMILES IDX 23 28 24 29 25 30 26 31 27 33 28 34 29 35 75 36 30 37 74 38
REMARK SMILES IDX 31 39 32 40 33 41 68 42 34 43 73 44 67 45 69 46 35 47 72 48
REMARK SMILES IDX 66 49 65 50 36 52 58 53 43 54 57 55 44 56 47 57 56 58 70 59
REMARK SMILES IDX 45 60 46 61 55 63 71 64 48 65 37 66 38 67 42 68 39 69 41 70
REMARK SMILES IDX 40 71 59 72 60 73 64 74 61 75 63 76 62 77 49 78 50 79 54 80
REMARK SMILES IDX 51 81 53 82 52 83
REMARK H PARENT 18 7 7 12 12 22 12 23 25 32 69 51 47 62
REMARK Flexibility Score: inf
ROOT
ATOM      1  C   UNL A   1      34.165  32.049  27.278  1.00  0.00     0.002 C 
ENDROOT
BRANCH   1   2
ATOM      2  C   UNL A   1      32.886  31.253  27.537  1.00  0.00     0.021 C 
BRANCH   2   3
ATOM      3  C   UNL A   1      32.281  30.424  26.142  1.00  0.00     0.116 C 
BRANCH   3   4
ATOM      4  N   UNL A   1      33.266  29.499  24.566  1.00  0.00    -0.351 N 
ATOM      5  C   UNL A   1      33.395  28.631  23.476  1.00  0.00     0.278 C 
ATOM      6  O   UNL A   1      34.352  28.939  22.737  1.00  0.00    -0.268 OA
ATOM      7  H   UNL A   1      34.161  29.909  24.611  1.00  0.00     0.163 HD
BRANCH   5   8
ATOM      8  C   UNL A   1      32.619  27.348  23.112  1.00  0.00     0.282 C 
BRANCH   8   9
ATOM      9  C   UNL A   1      33.433  26.046  22.889  1.00  0.00     0.175 C 
BRANCH   9  10
ATOM     10  C   UNL A   1      33.111  25.168  21.674  1.00  0.00     0.230 C 
ATOM     11  N   UNL A   1      33.046  23.804  21.748  1.00  0.00    -0.326 N 
ATOM     12  H   UNL A   1      33.010  23.303  20.902  1.00  0.00     0.169 HD
ATOM     13  O   UNL A   1      32.916  25.688  20.570  1.00  0.00    -0.274 OA
BRANCH  11  14
ATOM     14  C   UNL A   1      33.029  23.070  22.935  1.00  0.00     0.041 A 
ATOM     15  C   UNL A   1      30.290  23.193  26.512  1.00  0.00     0.044 C 
ATOM     16  C   UNL A   1      31.520  22.967  25.685  1.00  0.00    -0.049 A 
ATOM     17  C   UNL A   1      33.110  22.702  26.522  1.00  0.00     0.003 A 
ATOM     18  C   UNL A   1      31.490  23.214  23.889  1.00  0.00     0.029 A 
ATOM     19  C   UNL A   1      34.634  22.492  25.550  1.00  0.00     0.002 A 
ATOM     20  C   UNL A   1      34.604  22.672  23.757  1.00  0.00     0.026 A 
ENDBRANCH  11  14
ENDBRANCH   9  10
ENDBRANCH   8   9
BRANCH   8  21
ATOM     21  N   UNL A   1      31.531  27.603  22.092  1.00  0.00    -0.334 N 
ATOM     22  H   UNL A   1      31.523  26.819  21.441  1.00  0.00     0.347 HD
ATOM     23  H   UNL A   1      31.760  28.500  21.662  1.00  0.00     0.347 HD
BRANCH  21  24
ATOM     24  C   UNL A   1      30.160  27.758  22.635  1.00  0.00     0.176 C 
ATOM     25  C   UNL A   1      29.991  26.875  23.880  1.00  0.00     0.075 C 
ATOM     26  C   UNL A   1      29.664  29.173  22.896  1.00  0.00     0.075 C 
ENDBRANCH  21  24
ENDBRANCH   8  21
ENDBRANCH   5   8
ENDBRANCH   3   4
ENDBRANCH   2   3
ENDBRANCH   1   2
BRANCH   1  27
ATOM     27  C   UNL A   1      34.628  32.893  28.466  1.00  0.00     0.002 C 
BRANCH  27  28
ATOM     28  C   UNL A   1      35.953  32.452  29.111  1.00  0.00     0.021 C 
BRANCH  28  29
ATOM     29  C   UNL A   1      35.835  31.324  30.128  1.00  0.00     0.116 C 
BRANCH  29  30
ATOM     30  N   UNL A   1      35.717  30.037  29.452  1.00  0.00    -0.352 N 
ATOM     31  C   UNL A   1      36.379  29.550  28.356  1.00  0.00     0.251 C 
ATOM     32  H   UNL A   1      35.059  29.420  29.846  1.00  0.00     0.163 HD
ATOM     33  O   UNL A   1      35.762  29.031  27.432  1.00  0.00    -0.269 OA
BRANCH  31  34
ATOM     34  C   UNL A   1      37.825  29.293  28.514  1.00  0.00     0.039 A 
ATOM     35  C   UNL A   1      38.698  29.522  27.439  1.00  0.00     0.014 A 
ATOM     36  C   UNL A   1      38.251  28.550  29.605  1.00  0.00     0.014 A 
ATOM     37  C   UNL A   1      39.932  28.877  27.416  1.00  0.00     0.010 A 
ATOM     38  C   UNL A   1      39.428  27.888  29.581  1.00  0.00     0.010 A 
ATOM     39  C   UNL A   1      40.225  28.006  28.460  1.00  0.00    -0.014 A 
BRANCH  39  40
ATOM     40  C   UNL A   1      41.414  27.216  28.626  1.00  0.00     0.031 A 
ATOM     41  C   UNL A   1      41.205  25.785  28.430  1.00  0.00     0.074 A 
ATOM     42  C   UNL A   1      42.571  27.914  28.656  1.00  0.00     0.049 A 
ATOM     43  N   UNL A   1      41.735  24.862  29.141  1.00  0.00    -0.248 NA
ATOM     44  C   UNL A   1      40.233  25.268  27.453  1.00  0.00     0.031 C 
ATOM     45  C   UNL A   1      43.954  27.504  28.503  1.00  0.00     0.029 A 
ATOM     46  N   UNL A   1      42.672  29.262  28.997  1.00  0.00    -0.354 N 
ATOM     47  C   UNL A   1      41.571  23.714  28.397  1.00  0.00     0.074 A 
ATOM     48  C   UNL A   1      40.430  23.951  27.554  1.00  0.00     0.031 C 
ATOM     49  C   UNL A   1      44.743  28.439  29.077  1.00  0.00     0.029 A 
ATOM     50  C   UNL A   1      43.878  29.449  29.679  1.00  0.00     0.049 A 
ATOM     51  H   UNL A   1      42.010  29.961  28.792  1.00  0.00     0.167 HD
ATOM     52  C   UNL A   1      42.617  22.846  28.314  1.00  0.00     0.031 A 
ATOM     53  C   UNL A   1      43.799  29.743  31.015  1.00  0.00     0.031 A 
ATOM     54  C   UNL A   1      43.772  23.398  29.031  1.00  0.00     0.049 A 
ATOM     55  C   UNL A   1      44.157  28.525  31.838  1.00  0.00     0.074 A 
ATOM     56  C   UNL A   1      44.910  24.049  28.581  1.00  0.00     0.029 A 
ATOM     57  N   UNL A   1      43.648  23.709  30.379  1.00  0.00    -0.354 N 
ATOM     58  N   UNL A   1      44.022  27.293  31.421  1.00  0.00    -0.248 NA
ATOM     59  C   UNL A   1      44.766  28.606  33.161  1.00  0.00     0.031 C 
ATOM     60  C   UNL A   1      45.430  24.811  29.665  1.00  0.00     0.029 A 
ATOM     61  C   UNL A   1      44.609  24.623  30.763  1.00  0.00     0.049 A 
ATOM     62  H   UNL A   1      42.966  23.330  30.979  1.00  0.00     0.167 HD
ATOM     63  C   UNL A   1      44.565  26.439  32.342  1.00  0.00     0.074 A 
ATOM     64  C   UNL A   1      44.997  27.307  33.423  1.00  0.00     0.031 C 
ATOM     65  C   UNL A   1      44.654  25.090  32.142  1.00  0.00     0.031 A 
BRANCH  52  66
ATOM     66  C   UNL A   1      42.733  21.708  27.333  1.00  0.00    -0.014 A 
ATOM     67  C   UNL A   1      43.656  21.822  26.277  1.00  0.00     0.009 A 
ATOM     68  C   UNL A   1      42.006  20.507  27.390  1.00  0.00     0.009 A 
ATOM     69  C   UNL A   1      43.819  20.819  25.316  1.00  0.00     0.001 A 
ATOM     70  C   UNL A   1      42.150  19.504  26.420  1.00  0.00     0.001 A 
ATOM     71  C   UNL A   1      43.059  19.660  25.383  1.00  0.00     0.000 A 
ENDBRANCH  52  66
BRANCH  53  72
ATOM     72  C   UNL A   1      42.661  30.690  31.293  1.00  0.00    -0.014 A 
ATOM     73  C   UNL A   1      42.612  31.872  30.516  1.00  0.00     0.009 A 
ATOM     74  C   UNL A   1      41.464  30.228  31.863  1.00  0.00     0.009 A 
ATOM     75  C   UNL A   1      41.387  32.441  30.145  1.00  0.00     0.001 A 
ATOM     76  C   UNL A   1      40.243  30.823  31.511  1.00  0.00     0.001 A 
ATOM     77  C   UNL A   1      40.199  31.884  30.607  1.00  0.00     0.000 A 
ENDBRANCH  53  72
BRANCH  65  78
ATOM     78  C   UNL A   1      44.875  24.065  33.227  1.00  0.00    -0.014 A 
ATOM     79  C   UNL A   1      43.875  23.220  33.720  1.00  0.00     0.009 A 
ATOM     80  C   UNL A   1      46.189  23.819  33.689  1.00  0.00     0.009 A 
ATOM     81  C   UNL A   1      44.157  22.240  34.677  1.00  0.00     0.001 A 
ATOM     82  C   UNL A   1      46.489  22.792  34.581  1.00  0.00     0.001 A 
ATOM     83  C   UNL A   1      45.465  22.018  35.099  1.00  0.00     0.000 A 
ENDBRANCH  65  78
ENDBRANCH  39  40
ENDBRANCH  31  34
ENDBRANCH  29  30
ENDBRANCH  28  29
ENDBRANCH  27  28
ENDBRANCH   1  27
TORSDOF 18
ENDMDL
