MODEL 1
REMARK VINA RESULT:     -11.9      0.000      0.000
REMARK SMILES O=C(NCCCCCCNC(=O)[C@H]1CC[C@H]2CCCC[C@@H]2[N@H+]1C[C@@H]1CCCCO1)c1ccc(-c2c3nc(c(-c4ccccc4)c4ccc([nH]4)c(-c4ccccc4)c4nc(c(-c5ccccc5)c5ccc2[nH]5)C=C4)C=C3)cc1
REMARK SMILES IDX 6 1 5 2 4 3 3 4 1 5 2 6 30 8 31 9 77 10 32 11 76 12 33 13
REMARK SMILES IDX 34 14 35 15 70 16 36 17 75 18 69 19 71 20 37 21 74 22 68 23
REMARK SMILES IDX 67 24 38 26 60 27 45 28 59 29 46 30 49 31 58 32 72 33 47 34
REMARK SMILES IDX 48 35 57 37 73 38 50 39 39 40 40 41 44 42 41 43 43 44 42 45
REMARK SMILES IDX 61 46 62 47 66 48 63 49 65 50 64 51 51 52 52 53 56 54 53 55
REMARK SMILES IDX 55 56 54 57 7 58 8 59 9 60 10 61 11 62 12 64 13 65 14 66
REMARK SMILES IDX 22 67 15 68 21 69 16 71 20 72 17 73 19 74 18 75 23 76 24 77
REMARK SMILES IDX 25 78 29 79 26 80 28 81 27 82
REMARK H PARENT 3 7 71 25 49 36 10 63 22 70
REMARK Flexibility Score: inf
ROOT
ATOM      1  C   UNL A   1      31.397  30.875  26.030  1.00  0.00     0.002 C 
ENDROOT
BRANCH   1   2
ATOM      2  C   UNL A   1      31.314  32.329  26.504  1.00  0.00     0.021 C 
BRANCH   2   3
ATOM      3  C   UNL A   1      32.609  32.848  27.113  1.00  0.00     0.116 C 
BRANCH   3   4
ATOM      4  N   UNL A   1      32.451  34.203  27.626  1.00  0.00    -0.352 N 
ATOM      5  O   UNL A   1      32.605  35.854  29.155  1.00  0.00    -0.269 OA
ATOM      6  C   UNL A   1      33.044  34.804  28.703  1.00  0.00     0.251 C 
ATOM      7  H   UNL A   1      31.824  34.771  27.123  1.00  0.00     0.163 HD
BRANCH   6   8
ATOM      8  C   UNL A   1      34.219  34.160  29.310  1.00  0.00     0.039 A 
ATOM      9  C   UNL A   1      35.492  34.442  28.810  1.00  0.00     0.014 A 
ATOM     10  C   UNL A   1      34.049  33.268  30.370  1.00  0.00     0.014 A 
ATOM     11  C   UNL A   1      36.578  33.714  29.259  1.00  0.00     0.010 A 
ATOM     12  C   UNL A   1      35.165  32.631  30.908  1.00  0.00     0.010 A 
ATOM     13  C   UNL A   1      36.435  32.836  30.343  1.00  0.00    -0.014 A 
BRANCH  13  14
ATOM     14  C   UNL A   1      37.649  32.227  30.931  1.00  0.00     0.031 A 
ATOM     15  C   UNL A   1      38.274  32.776  32.177  1.00  0.00     0.074 A 
ATOM     16  C   UNL A   1      38.176  31.150  30.317  1.00  0.00     0.049 A 
ATOM     17  N   UNL A   1      39.338  32.351  32.811  1.00  0.00    -0.248 NA
ATOM     18  C   UNL A   1      37.638  33.953  32.787  1.00  0.00     0.031 C 
ATOM     19  C   UNL A   1      37.647  30.528  29.097  1.00  0.00     0.029 A 
ATOM     20  N   UNL A   1      39.257  30.374  30.639  1.00  0.00    -0.354 N 
ATOM     21  C   UNL A   1      39.509  33.216  33.883  1.00  0.00     0.074 A 
ATOM     22  C   UNL A   1      38.462  34.210  33.794  1.00  0.00     0.031 C 
ATOM     23  C   UNL A   1      38.371  29.441  28.807  1.00  0.00     0.029 A 
ATOM     24  C   UNL A   1      39.468  29.340  29.760  1.00  0.00     0.049 A 
ATOM     25  H   UNL A   1      39.829  30.541  31.423  1.00  0.00     0.167 HD
ATOM     26  C   UNL A   1      40.455  33.178  34.852  1.00  0.00     0.031 A 
ATOM     27  C   UNL A   1      40.453  28.427  29.701  1.00  0.00     0.031 A 
ATOM     28  C   UNL A   1      41.508  32.196  34.914  1.00  0.00     0.049 A 
ATOM     29  C   UNL A   1      41.530  28.462  30.744  1.00  0.00     0.074 A 
ATOM     30  C   UNL A   1      42.499  32.059  35.871  1.00  0.00     0.029 A 
ATOM     31  N   UNL A   1      41.722  31.199  33.973  1.00  0.00    -0.354 N 
ATOM     32  N   UNL A   1      41.654  29.259  31.778  1.00  0.00    -0.248 NA
ATOM     33  C   UNL A   1      42.602  27.469  30.612  1.00  0.00     0.031 C 
ATOM     34  C   UNL A   1      43.362  31.039  35.463  1.00  0.00     0.029 A 
ATOM     35  C   UNL A   1      42.854  30.471  34.306  1.00  0.00     0.049 A 
ATOM     36  H   UNL A   1      41.153  31.033  33.187  1.00  0.00     0.167 HD
ATOM     37  C   UNL A   1      42.799  28.840  32.441  1.00  0.00     0.074 A 
ATOM     38  C   UNL A   1      43.318  27.707  31.702  1.00  0.00     0.031 C 
ATOM     39  C   UNL A   1      43.366  29.348  33.561  1.00  0.00     0.031 A 
BRANCH  26  40
ATOM     40  C   UNL A   1      40.424  34.257  35.901  1.00  0.00    -0.014 A 
ATOM     41  C   UNL A   1      41.118  35.467  35.736  1.00  0.00     0.009 A 
ATOM     42  C   UNL A   1      39.647  34.078  37.057  1.00  0.00     0.009 A 
ATOM     43  C   UNL A   1      41.069  36.453  36.723  1.00  0.00     0.001 A 
ATOM     44  C   UNL A   1      39.567  35.081  38.025  1.00  0.00     0.001 A 
ATOM     45  C   UNL A   1      40.289  36.261  37.863  1.00  0.00     0.000 A 
ENDBRANCH  26  40
BRANCH  27  46
ATOM     46  C   UNL A   1      40.479  27.431  28.598  1.00  0.00    -0.014 A 
ATOM     47  C   UNL A   1      39.879  26.174  28.752  1.00  0.00     0.009 A 
ATOM     48  C   UNL A   1      41.118  27.733  27.385  1.00  0.00     0.009 A 
ATOM     49  C   UNL A   1      39.953  25.225  27.730  1.00  0.00     0.001 A 
ATOM     50  C   UNL A   1      41.153  26.800  26.348  1.00  0.00     0.001 A 
ATOM     51  C   UNL A   1      40.586  25.541  26.528  1.00  0.00     0.000 A 
ENDBRANCH  27  46
BRANCH  39  52
ATOM     52  C   UNL A   1      44.589  28.648  34.091  1.00  0.00    -0.014 A 
ATOM     53  C   UNL A   1      45.885  29.041  33.726  1.00  0.00     0.009 A 
ATOM     54  C   UNL A   1      44.434  27.590  35.002  1.00  0.00     0.009 A 
ATOM     55  C   UNL A   1      46.998  28.360  34.224  1.00  0.00     0.001 A 
ATOM     56  C   UNL A   1      45.549  26.941  35.534  1.00  0.00     0.001 A 
ATOM     57  C   UNL A   1      46.829  27.317  35.133  1.00  0.00     0.000 A 
ENDBRANCH  39  52
ENDBRANCH  13  14
ENDBRANCH   6   8
ENDBRANCH   3   4
ENDBRANCH   2   3
ENDBRANCH   1   2
BRANCH   1  58
ATOM     58  C   UNL A   1      32.184  29.915  26.942  1.00  0.00     0.002 C 
BRANCH  58  59
ATOM     59  C   UNL A   1      33.401  29.275  26.303  1.00  0.00     0.021 C 
BRANCH  59  60
ATOM     60  C   UNL A   1      33.441  27.772  26.477  1.00  0.00     0.116 C 
BRANCH  60  61
ATOM     61  N   UNL A   1      32.254  26.977  26.389  1.00  0.00    -0.351 N 
ATOM     62  C   UNL A   1      32.141  25.606  26.476  1.00  0.00     0.278 C 
ATOM     63  H   UNL A   1      31.414  27.471  26.249  1.00  0.00     0.163 HD
ATOM     64  O   UNL A   1      31.034  25.212  26.876  1.00  0.00    -0.268 OA
BRANCH  62  65
ATOM     65  C   UNL A   1      33.203  24.531  25.936  1.00  0.00     0.274 C 
ATOM     66  C   UNL A   1      32.472  23.336  24.955  1.00  0.00     0.076 C 
ATOM     67  N   UNL A   1      34.413  24.958  25.254  1.00  0.00    -0.320 N 
ATOM     68  C   UNL A   1      33.399  21.460  24.242  1.00  0.00     0.016 C 
ATOM     69  C   UNL A   1      35.619  23.604  25.478  1.00  0.00     0.187 C 
ATOM     70  H   UNL A   1      34.980  25.765  25.514  1.00  0.00     0.349 HD
ATOM     71  C   UNL A   1      35.248  21.719  25.153  1.00  0.00     0.048 C 
ATOM     72  C   UNL A   1      36.899  23.741  26.307  1.00  0.00     0.065 C 
ATOM     73  C   UNL A   1      36.489  21.054  24.548  1.00  0.00     0.010 C 
ATOM     74  C   UNL A   1      38.010  22.941  25.544  1.00  0.00     0.006 C 
ATOM     75  C   UNL A   1      37.736  21.434  25.376  1.00  0.00     0.001 C 
BRANCH  67  76
ATOM     76  C   UNL A   1      33.614  25.202  23.715  1.00  0.00     0.295 C 
BRANCH  76  77
ATOM     77  C   UNL A   1      33.579  26.848  22.747  1.00  0.00     0.173 C 
ATOM     78  C   UNL A   1      32.529  28.470  22.750  1.00  0.00     0.038 C 
ATOM     79  O   UNL A   1      32.873  26.294  21.705  1.00  0.00    -0.372 OA
ATOM     80  C   UNL A   1      30.682  28.464  23.363  1.00  0.00     0.005 C 
ATOM     81  C   UNL A   1      31.729  25.570  22.452  1.00  0.00     0.161 C 
ATOM     82  C   UNL A   1      30.074  26.510  23.560  1.00  0.00     0.029 C 
ENDBRANCH  76  77
ENDBRANCH  67  76
ENDBRANCH  62  65
ENDBRANCH  60  61
ENDBRANCH  59  60
ENDBRANCH  58  59
ENDBRANCH   1  58
TORSDOF 15
ENDMDL
MODEL 2
REMARK VINA RESULT:     -11.2      3.180      5.102
REMARK SMILES O=C(NCCCCCCNC(=O)[C@H]1CC[C@H]2CCCC[C@@H]2[N@H+]1C[C@@H]1CCCCO1)c1ccc(-c2c3nc(c(-c4ccccc4)c4ccc([nH]4)c(-c4ccccc4)c4nc(c(-c5ccccc5)c5ccc2[nH]5)C=C4)C=C3)cc1
REMARK SMILES IDX 6 1 5 2 4 3 3 4 1 5 2 6 30 8 31 9 77 10 32 11 76 12 33 13
REMARK SMILES IDX 34 14 35 15 70 16 36 17 75 18 69 19 71 20 37 21 74 22 68 23
REMARK SMILES IDX 67 24 38 26 60 27 45 28 59 29 46 30 49 31 58 32 72 33 47 34
REMARK SMILES IDX 48 35 57 37 73 38 50 39 39 40 40 41 44 42 41 43 43 44 42 45
REMARK SMILES IDX 61 46 62 47 66 48 63 49 65 50 64 51 51 52 52 53 56 54 53 55
REMARK SMILES IDX 55 56 54 57 7 58 8 59 9 60 10 61 11 62 12 64 13 65 14 66
REMARK SMILES IDX 22 67 15 68 21 69 16 71 20 72 17 73 19 74 18 75 23 76 24 77
REMARK SMILES IDX 25 78 29 79 26 80 28 81 27 82
REMARK H PARENT 3 7 71 25 49 36 10 63 22 70
REMARK Flexibility Score: inf
ROOT
ATOM      1  C   UNL A   1      33.453  27.174  26.181  1.00  0.00     0.002 C 
ENDROOT
BRANCH   1   2
ATOM      2  C   UNL A   1      33.243  28.436  27.025  1.00  0.00     0.021 C 
BRANCH   2   3
ATOM      3  C   UNL A   1      34.309  29.500  26.808  1.00  0.00     0.116 C 
BRANCH   3   4
ATOM      4  N   UNL A   1      34.071  30.671  27.642  1.00  0.00    -0.352 N 
ATOM      5  O   UNL A   1      34.311  31.985  29.461  1.00  0.00    -0.269 OA
ATOM      6  C   UNL A   1      34.790  31.148  28.705  1.00  0.00     0.251 C 
ATOM      7  H   UNL A   1      33.273  31.198  27.406  1.00  0.00     0.163 HD
BRANCH   6   8
ATOM      8  C   UNL A   1      36.149  30.632  28.923  1.00  0.00     0.039 A 
ATOM      9  C   UNL A   1      37.147  30.908  27.986  1.00  0.00     0.014 A 
ATOM     10  C   UNL A   1      36.424  29.866  30.056  1.00  0.00     0.014 A 
ATOM     11  C   UNL A   1      38.377  30.286  28.096  1.00  0.00     0.010 A 
ATOM     12  C   UNL A   1      37.706  29.345  30.230  1.00  0.00     0.010 A 
ATOM     13  C   UNL A   1      38.685  29.537  29.241  1.00  0.00    -0.014 A 
BRANCH  13  14
ATOM     14  C   UNL A   1      40.072  29.056  29.425  1.00  0.00     0.031 A 
ATOM     15  C   UNL A   1      41.118  29.910  30.073  1.00  0.00     0.074 A 
ATOM     16  C   UNL A   1      40.371  27.812  28.999  1.00  0.00     0.049 A 
ATOM     17  N   UNL A   1      42.375  29.627  30.305  1.00  0.00    -0.248 NA
ATOM     18  C   UNL A   1      40.711  31.254  30.511  1.00  0.00     0.031 C 
ATOM     19  C   UNL A   1      39.429  26.890  28.355  1.00  0.00     0.029 A 
ATOM     20  N   UNL A   1      41.539  27.100  29.059  1.00  0.00    -0.354 N 
ATOM     21  C   UNL A   1      42.914  30.760  30.898  1.00  0.00     0.074 A 
ATOM     22  C   UNL A   1      41.858  31.747  30.960  1.00  0.00     0.031 C 
ATOM     23  C   UNL A   1      40.041  25.721  28.129  1.00  0.00     0.029 A 
ATOM     24  C   UNL A   1      41.438  25.840  28.524  1.00  0.00     0.049 A 
ATOM     25  H   UNL A   1      42.371  27.458  29.446  1.00  0.00     0.167 HD
ATOM     26  C   UNL A   1      44.176  30.953  31.351  1.00  0.00     0.031 A 
ATOM     27  C   UNL A   1      42.370  24.890  28.337  1.00  0.00     0.031 A 
ATOM     28  C   UNL A   1      45.225  29.969  31.260  1.00  0.00     0.049 A 
ATOM     29  C   UNL A   1      43.777  25.166  28.777  1.00  0.00     0.074 A 
ATOM     30  C   UNL A   1      46.531  30.061  31.713  1.00  0.00     0.029 A 
ATOM     31  N   UNL A   1      45.099  28.725  30.659  1.00  0.00    -0.354 N 
ATOM     32  N   UNL A   1      44.263  26.225  29.377  1.00  0.00    -0.248 NA
ATOM     33  C   UNL A   1      44.764  24.112  28.515  1.00  0.00     0.031 C 
ATOM     34  C   UNL A   1      47.215  28.912  31.308  1.00  0.00     0.029 A 
ATOM     35  C   UNL A   1      46.314  28.059  30.693  1.00  0.00     0.049 A 
ATOM     36  H   UNL A   1      44.269  28.368  30.268  1.00  0.00     0.167 HD
ATOM     37  C   UNL A   1      45.605  25.951  29.597  1.00  0.00     0.074 A 
ATOM     38  C   UNL A   1      45.849  24.619  29.084  1.00  0.00     0.031 C 
ATOM     39  C   UNL A   1      46.549  26.733  30.174  1.00  0.00     0.031 A 
BRANCH  26  40
ATOM     40  C   UNL A   1      44.508  32.296  31.944  1.00  0.00    -0.014 A 
ATOM     41  C   UNL A   1      44.374  32.549  33.319  1.00  0.00     0.009 A 
ATOM     42  C   UNL A   1      45.010  33.314  31.117  1.00  0.00     0.009 A 
ATOM     43  C   UNL A   1      44.694  33.803  33.843  1.00  0.00     0.001 A 
ATOM     44  C   UNL A   1      45.366  34.554  31.649  1.00  0.00     0.001 A 
ATOM     45  C   UNL A   1      45.195  34.802  33.009  1.00  0.00     0.000 A 
ENDBRANCH  26  40
BRANCH  27  46
ATOM     46  C   UNL A   1      42.006  23.610  27.674  1.00  0.00    -0.014 A 
ATOM     47  C   UNL A   1      41.412  22.569  28.401  1.00  0.00     0.009 A 
ATOM     48  C   UNL A   1      42.264  23.422  26.307  1.00  0.00     0.009 A 
ATOM     49  C   UNL A   1      41.121  21.352  27.782  1.00  0.00     0.001 A 
ATOM     50  C   UNL A   1      41.932  22.220  25.680  1.00  0.00     0.001 A 
ATOM     51  C   UNL A   1      41.377  21.180  26.422  1.00  0.00     0.000 A 
ENDBRANCH  27  46
BRANCH  39  52
ATOM     52  C   UNL A   1      47.926  26.147  30.332  1.00  0.00    -0.014 A 
ATOM     53  C   UNL A   1      48.845  26.118  29.272  1.00  0.00     0.009 A 
ATOM     54  C   UNL A   1      48.319  25.642  31.582  1.00  0.00     0.009 A 
ATOM     55  C   UNL A   1      50.110  25.553  29.447  1.00  0.00     0.001 A 
ATOM     56  C   UNL A   1      49.599  25.119  31.767  1.00  0.00     0.001 A 
ATOM     57  C   UNL A   1      50.488  25.062  30.696  1.00  0.00     0.000 A 
ENDBRANCH  39  52
ENDBRANCH  13  14
ENDBRANCH   6   8
ENDBRANCH   3   4
ENDBRANCH   2   3
ENDBRANCH   1   2
BRANCH   1  58
ATOM     58  C   UNL A   1      32.272  26.186  26.147  1.00  0.00     0.002 C 
BRANCH  58  59
ATOM     59  C   UNL A   1      31.740  25.868  24.762  1.00  0.00     0.021 C 
BRANCH  59  60
ATOM     60  C   UNL A   1      30.580  24.897  24.782  1.00  0.00     0.116 C 
BRANCH  60  61
ATOM     61  N   UNL A   1      30.258  24.139  25.952  1.00  0.00    -0.351 N 
ATOM     62  C   UNL A   1      30.865  22.991  26.416  1.00  0.00     0.278 C 
ATOM     63  H   UNL A   1      29.508  24.479  26.493  1.00  0.00     0.163 HD
ATOM     64  O   UNL A   1      30.769  22.827  27.642  1.00  0.00    -0.268 OA
BRANCH  62  65
ATOM     65  C   UNL A   1      31.479  21.814  25.516  1.00  0.00     0.274 C 
ATOM     66  C   UNL A   1      31.604  22.258  23.869  1.00  0.00     0.076 C 
ATOM     67  N   UNL A   1      32.732  21.174  25.880  1.00  0.00    -0.320 N 
ATOM     68  C   UNL A   1      32.060  20.919  22.169  1.00  0.00     0.016 C 
ATOM     69  C   UNL A   1      32.689  19.515  25.116  1.00  0.00     0.187 C 
ATOM     70  H   UNL A   1      33.018  20.941  26.831  1.00  0.00     0.349 HD
ATOM     71  C   UNL A   1      32.223  19.157  23.258  1.00  0.00     0.048 C 
ATOM     72  C   UNL A   1      32.623  18.216  25.923  1.00  0.00     0.065 C 
ATOM     73  C   UNL A   1      33.097  18.018  22.725  1.00  0.00     0.010 C 
ATOM     74  C   UNL A   1      33.530  17.180  25.171  1.00  0.00     0.006 C 
ATOM     75  C   UNL A   1      33.090  16.846  23.732  1.00  0.00     0.001 C 
BRANCH  67  76
ATOM     76  C   UNL A   1      33.727  22.448  25.204  1.00  0.00     0.295 C 
BRANCH  76  77
ATOM     77  C   UNL A   1      35.158  22.180  23.968  1.00  0.00     0.173 C 
ATOM     78  C   UNL A   1      37.077  21.973  24.048  1.00  0.00     0.038 C 
ATOM     79  O   UNL A   1      35.233  23.520  23.666  1.00  0.00    -0.372 OA
ATOM     80  C   UNL A   1      38.106  22.744  25.509  1.00  0.00     0.005 C 
ATOM     81  C   UNL A   1      35.258  24.157  25.075  1.00  0.00     0.161 C 
ATOM     82  C   UNL A   1      36.882  24.022  26.555  1.00  0.00     0.029 C 
ENDBRANCH  76  77
ENDBRANCH  67  76
ENDBRANCH  62  65
ENDBRANCH  60  61
ENDBRANCH  59  60
ENDBRANCH  58  59
ENDBRANCH   1  58
TORSDOF 15
ENDMDL
MODEL 3
REMARK VINA RESULT:     -11.1      4.158      5.801
REMARK SMILES O=C(NCCCCCCNC(=O)[C@H]1CC[C@H]2CCCC[C@@H]2[N@H+]1C[C@@H]1CCCCO1)c1ccc(-c2c3nc(c(-c4ccccc4)c4ccc([nH]4)c(-c4ccccc4)c4nc(c(-c5ccccc5)c5ccc2[nH]5)C=C4)C=C3)cc1
REMARK SMILES IDX 6 1 5 2 4 3 3 4 1 5 2 6 30 8 31 9 77 10 32 11 76 12 33 13
REMARK SMILES IDX 34 14 35 15 70 16 36 17 75 18 69 19 71 20 37 21 74 22 68 23
REMARK SMILES IDX 67 24 38 26 60 27 45 28 59 29 46 30 49 31 58 32 72 33 47 34
REMARK SMILES IDX 48 35 57 37 73 38 50 39 39 40 40 41 44 42 41 43 43 44 42 45
REMARK SMILES IDX 61 46 62 47 66 48 63 49 65 50 64 51 51 52 52 53 56 54 53 55
REMARK SMILES IDX 55 56 54 57 7 58 8 59 9 60 10 61 11 62 12 64 13 65 14 66
REMARK SMILES IDX 22 67 15 68 21 69 16 71 20 72 17 73 19 74 18 75 23 76 24 77
REMARK SMILES IDX 25 78 29 79 26 80 28 81 27 82
REMARK H PARENT 3 7 71 25 49 36 10 63 22 70
REMARK Flexibility Score: inf
ROOT
ATOM      1  C   UNL A   1      33.629  29.641  26.501  1.00  0.00     0.002 C 
ENDROOT
BRANCH   1   2
ATOM      2  C   UNL A   1      34.671  29.667  27.624  1.00  0.00     0.021 C 
BRANCH   2   3
ATOM      3  C   UNL A   1      35.204  31.059  27.931  1.00  0.00     0.116 C 
BRANCH   3   4
ATOM      4  N   UNL A   1      35.090  31.373  29.349  1.00  0.00    -0.352 N 
ATOM      5  O   UNL A   1      35.550  31.159  31.547  1.00  0.00    -0.269 OA
ATOM      6  C   UNL A   1      35.924  31.051  30.386  1.00  0.00     0.251 C 
ATOM      7  H   UNL A   1      34.293  31.894  29.600  1.00  0.00     0.163 HD
BRANCH   6   8
ATOM      8  C   UNL A   1      37.279  30.571  30.075  1.00  0.00     0.039 A 
ATOM      9  C   UNL A   1      37.820  30.810  28.810  1.00  0.00     0.014 A 
ATOM     10  C   UNL A   1      38.004  29.874  31.044  1.00  0.00     0.014 A 
ATOM     11  C   UNL A   1      39.017  30.215  28.457  1.00  0.00     0.010 A 
ATOM     12  C   UNL A   1      39.270  29.386  30.724  1.00  0.00     0.010 A 
ATOM     13  C   UNL A   1      39.775  29.537  29.422  1.00  0.00    -0.014 A 
BRANCH  13  14
ATOM     14  C   UNL A   1      41.141  29.089  29.068  1.00  0.00     0.031 A 
ATOM     15  C   UNL A   1      42.310  30.024  29.124  1.00  0.00     0.074 A 
ATOM     16  C   UNL A   1      41.309  27.804  28.702  1.00  0.00     0.049 A 
ATOM     17  N   UNL A   1      43.565  29.779  28.844  1.00  0.00    -0.248 NA
ATOM     18  C   UNL A   1      42.043  31.412  29.534  1.00  0.00     0.031 C 
ATOM     19  C   UNL A   1      40.240  26.802  28.616  1.00  0.00     0.029 A 
ATOM     20  N   UNL A   1      42.438  27.110  28.354  1.00  0.00    -0.354 N 
ATOM     21  C   UNL A   1      44.235  30.981  29.027  1.00  0.00     0.074 A 
ATOM     22  C   UNL A   1      43.243  31.963  29.407  1.00  0.00     0.031 C 
ATOM     23  C   UNL A   1      40.771  25.617  28.292  1.00  0.00     0.029 A 
ATOM     24  C   UNL A   1      42.197  25.792  28.056  1.00  0.00     0.049 A 
ATOM     25  H   UNL A   1      43.333  27.518  28.318  1.00  0.00     0.167 HD
ATOM     26  C   UNL A   1      45.559  31.236  28.891  1.00  0.00     0.031 A 
ATOM     27  C   UNL A   1      43.024  24.830  27.609  1.00  0.00     0.031 A 
ATOM     28  C   UNL A   1      46.532  30.253  28.486  1.00  0.00     0.049 A 
ATOM     29  C   UNL A   1      44.469  25.166  27.392  1.00  0.00     0.074 A 
ATOM     30  C   UNL A   1      47.901  30.408  28.344  1.00  0.00     0.029 A 
ATOM     31  N   UNL A   1      46.241  28.942  28.138  1.00  0.00    -0.354 N 
ATOM     32  N   UNL A   1      45.097  26.296  27.612  1.00  0.00    -0.248 NA
ATOM     33  C   UNL A   1      45.320  24.093  26.867  1.00  0.00     0.031 C 
ATOM     34  C   UNL A   1      48.423  29.221  27.826  1.00  0.00     0.029 A 
ATOM     35  C   UNL A   1      47.399  28.292  27.741  1.00  0.00     0.049 A 
ATOM     36  H   UNL A   1      45.346  28.534  28.170  1.00  0.00     0.167 HD
ATOM     37  C   UNL A   1      46.425  26.058  27.286  1.00  0.00     0.074 A 
ATOM     38  C   UNL A   1      46.512  24.672  26.874  1.00  0.00     0.031 C 
ATOM     39  C   UNL A   1      47.476  26.912  27.327  1.00  0.00     0.031 A 
BRANCH  26  40
ATOM     40  C   UNL A   1      46.028  32.645  29.136  1.00  0.00    -0.014 A 
ATOM     41  C   UNL A   1      46.070  33.598  28.106  1.00  0.00     0.009 A 
ATOM     42  C   UNL A   1      46.390  33.039  30.434  1.00  0.00     0.009 A 
ATOM     43  C   UNL A   1      46.506  34.900  28.362  1.00  0.00     0.001 A 
ATOM     44  C   UNL A   1      46.787  34.351  30.697  1.00  0.00     0.001 A 
ATOM     45  C   UNL A   1      46.857  35.276  29.658  1.00  0.00     0.000 A 
ENDBRANCH  26  40
BRANCH  27  46
ATOM     46  C   UNL A   1      42.494  23.475  27.308  1.00  0.00    -0.014 A 
ATOM     47  C   UNL A   1      42.061  23.144  26.017  1.00  0.00     0.009 A 
ATOM     48  C   UNL A   1      42.409  22.505  28.321  1.00  0.00     0.009 A 
ATOM     49  C   UNL A   1      41.516  21.885  25.755  1.00  0.00     0.001 A 
ATOM     50  C   UNL A   1      41.905  21.233  28.047  1.00  0.00     0.001 A 
ATOM     51  C   UNL A   1      41.443  20.930  26.768  1.00  0.00     0.000 A 
ENDBRANCH  27  46
BRANCH  39  52
ATOM     52  C   UNL A   1      48.827  26.357  26.965  1.00  0.00    -0.014 A 
ATOM     53  C   UNL A   1      49.367  26.499  25.678  1.00  0.00     0.009 A 
ATOM     54  C   UNL A   1      49.588  25.705  27.950  1.00  0.00     0.009 A 
ATOM     55  C   UNL A   1      50.617  25.958  25.371  1.00  0.00     0.001 A 
ATOM     56  C   UNL A   1      50.856  25.206  27.653  1.00  0.00     0.001 A 
ATOM     57  C   UNL A   1      51.364  25.320  26.361  1.00  0.00     0.000 A 
ENDBRANCH  39  52
ENDBRANCH  13  14
ENDBRANCH   6   8
ENDBRANCH   3   4
ENDBRANCH   2   3
ENDBRANCH   1   2
BRANCH   1  58
ATOM     58  C   UNL A   1      32.157  29.680  26.950  1.00  0.00     0.002 C 
BRANCH  58  59
ATOM     59  C   UNL A   1      31.630  28.385  27.540  1.00  0.00     0.021 C 
BRANCH  59  60
ATOM     60  C   UNL A   1      31.937  27.176  26.683  1.00  0.00     0.116 C 
BRANCH  60  61
ATOM     61  N   UNL A   1      31.068  26.039  26.655  1.00  0.00    -0.351 N 
ATOM     62  C   UNL A   1      31.412  24.705  26.676  1.00  0.00     0.278 C 
ATOM     63  H   UNL A   1      30.103  26.235  26.614  1.00  0.00     0.163 HD
ATOM     64  O   UNL A   1      30.537  23.962  27.148  1.00  0.00    -0.268 OA
BRANCH  62  65
ATOM     65  C   UNL A   1      32.705  24.049  25.989  1.00  0.00     0.274 C 
ATOM     66  C   UNL A   1      32.294  23.039  24.671  1.00  0.00     0.076 C 
ATOM     67  N   UNL A   1      33.821  24.875  25.560  1.00  0.00    -0.320 N 
ATOM     68  C   UNL A   1      33.638  21.647  23.601  1.00  0.00     0.016 C 
ATOM     69  C   UNL A   1      35.282  23.779  25.551  1.00  0.00     0.187 C 
ATOM     70  H   UNL A   1      34.185  25.680  26.070  1.00  0.00     0.349 HD
ATOM     71  C   UNL A   1      35.347  22.016  24.726  1.00  0.00     0.048 C 
ATOM     72  C   UNL A   1      36.465  23.942  26.510  1.00  0.00     0.065 C 
ATOM     73  C   UNL A   1      36.727  21.799  24.096  1.00  0.00     0.010 C 
ATOM     74  C   UNL A   1      37.756  23.615  25.682  1.00  0.00     0.006 C 
ATOM     75  C   UNL A   1      37.824  22.184  25.113  1.00  0.00     0.001 C 
BRANCH  67  76
ATOM     76  C   UNL A   1      33.053  25.358  24.061  1.00  0.00     0.295 C 
BRANCH  76  77
ATOM     77  C   UNL A   1      33.345  27.020  23.167  1.00  0.00     0.173 C 
ATOM     78  C   UNL A   1      32.524  28.768  23.123  1.00  0.00     0.038 C 
ATOM     79  O   UNL A   1      32.696  26.596  22.030  1.00  0.00    -0.372 OA
ATOM     80  C   UNL A   1      30.634  28.995  23.530  1.00  0.00     0.005 C 
ATOM     81  C   UNL A   1      31.389  26.013  22.617  1.00  0.00     0.161 C 
ATOM     82  C   UNL A   1      29.757  27.137  23.576  1.00  0.00     0.029 C 
ENDBRANCH  76  77
ENDBRANCH  67  76
ENDBRANCH  62  65
ENDBRANCH  60  61
ENDBRANCH  59  60
ENDBRANCH  58  59
ENDBRANCH   1  58
TORSDOF 15
ENDMDL
