MODEL 1
REMARK VINA RESULT:     -11.0      0.000      0.000
REMARK SMILES CC(=O)Nc1nc(C[N@@H+]2CCO[C@@H](CC(=O)NCCCCCCNC(=O)c3ccc(-c4c5nc(c(-c6ccccc6)c6ccc([nH]6)c(-c6ccccc6)c6nc(c(-c7ccccc7)c7ccc4[nH]7)C=C6)C=C5)cc3)C2)cs1
REMARK SMILES IDX 19 1 18 2 17 3 15 4 16 5 14 7 13 8 9 9 10 10 75 11 11 13
REMARK SMILES IDX 12 14 8 15 7 16 5 17 6 18 77 19 76 20 4 21 1 22 2 23 3 24
REMARK SMILES IDX 20 26 21 27 22 28 23 29 24 30 25 31 26 33 27 34 28 35 74 36
REMARK SMILES IDX 29 37 73 38 30 39 31 40 32 41 67 42 33 43 72 44 66 45 68 46
REMARK SMILES IDX 34 47 71 48 65 49 64 50 35 52 57 53 42 54 56 55 43 56 46 57
REMARK SMILES IDX 55 58 69 59 44 60 45 61 54 63 70 64 47 65 36 66 37 67 41 68
REMARK SMILES IDX 38 69 40 70 39 71 58 72 59 73 63 74 60 75 62 76 61 77 48 78
REMARK SMILES IDX 49 79 53 80 50 81 52 82 51 83
REMARK H PARENT 17 6 9 12 4 25 24 32 68 51 46 62
REMARK Flexibility Score: inf
ROOT
ATOM      1  C   UNL A   1      35.880  32.000  28.006  1.00  0.00     0.021 C 
ENDROOT
BRANCH   1   2
ATOM      2  C   UNL A   1      34.894  30.844  27.804  1.00  0.00     0.116 C 
BRANCH   2   3
ATOM      3  N   UNL A   1      33.627  31.343  27.295  1.00  0.00    -0.356 N 
ATOM      4  C   UNL A   1      32.493  30.680  26.931  1.00  0.00     0.222 C 
ATOM      5  O   UNL A   1      31.597  31.318  26.376  1.00  0.00    -0.275 OA
ATOM      6  H   UNL A   1      33.581  32.322  27.197  1.00  0.00     0.163 HD
BRANCH   4   7
ATOM      7  C   UNL A   1      32.334  29.204  27.212  1.00  0.00     0.138 C 
BRANCH   7   8
ATOM      8  C   UNL A   1      31.486  28.460  26.175  1.00  0.00     0.182 C 
ATOM      9  N   UNL A   1      31.806  27.297  23.908  1.00  0.00    -0.326 N 
ATOM     10  C   UNL A   1      31.383  26.069  24.555  1.00  0.00     0.291 C 
ATOM     11  C   UNL A   1      32.201  28.373  24.804  1.00  0.00     0.295 C 
ATOM     12  H   UNL A   1      32.702  26.983  23.534  1.00  0.00     0.348 HD
ATOM     13  C   UNL A   1      30.526  26.332  25.797  1.00  0.00     0.222 C 
ATOM     14  O   UNL A   1      31.240  27.150  26.727  1.00  0.00    -0.366 OA
BRANCH   9  15
ATOM     15  C   UNL A   1      31.352  27.622  22.567  1.00  0.00     0.320 C 
BRANCH  15  16
ATOM     16  C   UNL A   1      30.080  28.417  22.539  1.00  0.00     0.108 A 
ATOM     17  C   UNL A   1      28.819  30.095  21.851  1.00  0.00     0.189 A 
ATOM     18  N   UNL A   1      29.998  29.542  21.719  1.00  0.00    -0.219 NA
ATOM     19  S   UNL A   1      27.744  29.352  22.942  1.00  0.00    -0.105 S 
ATOM     20  C   UNL A   1      28.895  28.110  23.188  1.00  0.00     0.098 A 
BRANCH  17  21
ATOM     21  N   UNL A   1      28.299  31.190  21.231  1.00  0.00    -0.302 N 
ATOM     22  C   UNL A   1      28.906  32.781  23.042  1.00  0.00     0.114 C 
ATOM     23  C   UNL A   1      28.217  32.446  21.746  1.00  0.00     0.223 C 
ATOM     24  O   UNL A   1      27.619  33.313  21.105  1.00  0.00    -0.275 OA
ATOM     25  H   UNL A   1      27.950  31.059  20.320  1.00  0.00     0.172 HD
ENDBRANCH  17  21
ENDBRANCH  15  16
ENDBRANCH   9  15
ENDBRANCH   7   8
ENDBRANCH   4   7
ENDBRANCH   2   3
ENDBRANCH   1   2
BRANCH   1  26
ATOM     26  C   UNL A   1      35.235  33.386  27.992  1.00  0.00     0.002 C 
BRANCH  26  27
ATOM     27  C   UNL A   1      34.583  33.804  29.311  1.00  0.00     0.002 C 
BRANCH  27  28
ATOM     28  C   UNL A   1      33.270  34.584  29.185  1.00  0.00     0.021 C 
BRANCH  28  29
ATOM     29  C   UNL A   1      33.310  36.022  29.697  1.00  0.00     0.116 C 
BRANCH  29  30
ATOM     30  N   UNL A   1      32.476  36.210  30.873  1.00  0.00    -0.352 N 
ATOM     31  C   UNL A   1      32.621  35.711  32.143  1.00  0.00     0.251 C 
ATOM     32  H   UNL A   1      31.688  36.783  30.738  1.00  0.00     0.163 HD
ATOM     33  O   UNL A   1      31.706  35.814  32.952  1.00  0.00    -0.269 OA
BRANCH  31  34
ATOM     34  C   UNL A   1      33.875  35.036  32.540  1.00  0.00     0.039 A 
ATOM     35  C   UNL A   1      33.816  33.711  32.980  1.00  0.00     0.014 A 
ATOM     36  C   UNL A   1      35.099  35.713  32.518  1.00  0.00     0.014 A 
ATOM     37  C   UNL A   1      34.989  33.048  33.349  1.00  0.00     0.010 A 
ATOM     38  C   UNL A   1      36.275  35.032  32.825  1.00  0.00     0.010 A 
ATOM     39  C   UNL A   1      36.231  33.697  33.250  1.00  0.00    -0.014 A 
BRANCH  39  40
ATOM     40  C   UNL A   1      37.490  32.990  33.597  1.00  0.00     0.031 A 
ATOM     41  C   UNL A   1      38.079  31.980  32.651  1.00  0.00     0.074 A 
ATOM     42  C   UNL A   1      38.076  33.218  34.788  1.00  0.00     0.049 A 
ATOM     43  N   UNL A   1      39.149  31.238  32.796  1.00  0.00    -0.248 NA
ATOM     44  C   UNL A   1      37.361  31.756  31.386  1.00  0.00     0.031 C 
ATOM     45  C   UNL A   1      37.584  34.142  35.813  1.00  0.00     0.029 A 
ATOM     46  N   UNL A   1      39.214  32.685  35.340  1.00  0.00    -0.354 N 
ATOM     47  C   UNL A   1      39.221  30.453  31.653  1.00  0.00     0.074 A 
ATOM     48  C   UNL A   1      38.065  30.773  30.846  1.00  0.00     0.031 C 
ATOM     49  C   UNL A   1      38.431  34.132  36.855  1.00  0.00     0.029 A 
ATOM     50  C   UNL A   1      39.504  33.179  36.588  1.00  0.00     0.049 A 
ATOM     51  H   UNL A   1      39.771  32.013  34.883  1.00  0.00     0.167 HD
ATOM     52  C   UNL A   1      40.174  29.558  31.297  1.00  0.00     0.031 A 
ATOM     53  C   UNL A   1      40.520  32.898  37.425  1.00  0.00     0.031 A 
ATOM     54  C   UNL A   1      41.333  29.249  32.091  1.00  0.00     0.049 A 
ATOM     55  C   UNL A   1      41.566  31.904  37.005  1.00  0.00     0.074 A 
ATOM     56  C   UNL A   1      42.383  28.397  31.789  1.00  0.00     0.029 A 
ATOM     57  N   UNL A   1      41.596  29.781  33.343  1.00  0.00    -0.354 N 
ATOM     58  N   UNL A   1      41.653  31.216  35.893  1.00  0.00    -0.248 NA
ATOM     59  C   UNL A   1      42.662  31.658  37.954  1.00  0.00     0.031 C 
ATOM     60  C   UNL A   1      43.260  28.383  32.879  1.00  0.00     0.029 A 
ATOM     61  C   UNL A   1      42.781  29.263  33.837  1.00  0.00     0.049 A 
ATOM     62  H   UNL A   1      41.024  30.431  33.812  1.00  0.00     0.167 HD
ATOM     63  C   UNL A   1      42.826  30.479  35.994  1.00  0.00     0.074 A 
ATOM     64  C   UNL A   1      43.422  30.813  37.272  1.00  0.00     0.031 C 
ATOM     65  C   UNL A   1      43.361  29.605  35.109  1.00  0.00     0.031 A 
BRANCH  52  66
ATOM     66  C   UNL A   1      39.996  28.845  29.985  1.00  0.00    -0.014 A 
ATOM     67  C   UNL A   1      39.404  27.572  29.925  1.00  0.00     0.009 A 
ATOM     68  C   UNL A   1      40.397  29.464  28.792  1.00  0.00     0.009 A 
ATOM     69  C   UNL A   1      39.253  26.920  28.701  1.00  0.00     0.001 A 
ATOM     70  C   UNL A   1      40.219  28.821  27.565  1.00  0.00     0.001 A 
ATOM     71  C   UNL A   1      39.656  27.546  27.522  1.00  0.00     0.000 A 
ENDBRANCH  52  66
BRANCH  53  72
ATOM     72  C   UNL A   1      40.615  33.588  38.736  1.00  0.00    -0.014 A 
ATOM     73  C   UNL A   1      40.003  33.038  39.873  1.00  0.00     0.009 A 
ATOM     74  C   UNL A   1      41.312  34.800  38.859  1.00  0.00     0.009 A 
ATOM     75  C   UNL A   1      40.066  33.699  41.102  1.00  0.00     0.001 A 
ATOM     76  C   UNL A   1      41.396  35.445  40.094  1.00  0.00     0.001 A 
ATOM     77  C   UNL A   1      40.766  34.900  41.212  1.00  0.00     0.000 A 
ENDBRANCH  53  72
BRANCH  65  78
ATOM     78  C   UNL A   1      44.675  28.976  35.476  1.00  0.00    -0.014 A 
ATOM     79  C   UNL A   1      45.894  29.589  35.144  1.00  0.00     0.009 A 
ATOM     80  C   UNL A   1      44.691  27.770  36.194  1.00  0.00     0.009 A 
ATOM     81  C   UNL A   1      47.104  28.987  35.496  1.00  0.00     0.001 A 
ATOM     82  C   UNL A   1      45.902  27.186  36.568  1.00  0.00     0.001 A 
ATOM     83  C   UNL A   1      47.106  27.790  36.212  1.00  0.00     0.000 A 
ENDBRANCH  65  78
ENDBRANCH  39  40
ENDBRANCH  31  34
ENDBRANCH  29  30
ENDBRANCH  28  29
ENDBRANCH  27  28
ENDBRANCH  26  27
ENDBRANCH   1  26
TORSDOF 17
ENDMDL
MODEL 2
REMARK VINA RESULT:     -10.9      0.375      5.880
REMARK SMILES CC(=O)Nc1nc(C[N@@H+]2CCO[C@@H](CC(=O)NCCCCCCNC(=O)c3ccc(-c4c5nc(c(-c6ccccc6)c6ccc([nH]6)c(-c6ccccc6)c6nc(c(-c7ccccc7)c7ccc4[nH]7)C=C6)C=C5)cc3)C2)cs1
REMARK SMILES IDX 19 1 18 2 17 3 15 4 16 5 14 7 13 8 9 9 10 10 75 11 11 13
REMARK SMILES IDX 12 14 8 15 7 16 5 17 6 18 77 19 76 20 4 21 1 22 2 23 3 24
REMARK SMILES IDX 20 26 21 27 22 28 23 29 24 30 25 31 26 33 27 34 28 35 74 36
REMARK SMILES IDX 29 37 73 38 30 39 31 40 32 41 67 42 33 43 72 44 66 45 68 46
REMARK SMILES IDX 34 47 71 48 65 49 64 50 35 52 57 53 42 54 56 55 43 56 46 57
REMARK SMILES IDX 55 58 69 59 44 60 45 61 54 63 70 64 47 65 36 66 37 67 41 68
REMARK SMILES IDX 38 69 40 70 39 71 58 72 59 73 63 74 60 75 62 76 61 77 48 78
REMARK SMILES IDX 49 79 53 80 50 81 52 82 51 83
REMARK H PARENT 17 6 9 12 4 25 24 32 68 51 46 62
REMARK Flexibility Score: inf
ROOT
ATOM      1  C   UNL A   1      35.667  31.895  28.004  1.00  0.00     0.021 C 
ENDROOT
BRANCH   1   2
ATOM      2  C   UNL A   1      34.680  30.733  27.842  1.00  0.00     0.116 C 
BRANCH   2   3
ATOM      3  N   UNL A   1      33.456  31.193  27.208  1.00  0.00    -0.356 N 
ATOM      4  C   UNL A   1      32.340  30.508  26.830  1.00  0.00     0.222 C 
ATOM      5  O   UNL A   1      31.491  31.100  26.162  1.00  0.00    -0.275 OA
ATOM      6  H   UNL A   1      33.429  32.159  27.020  1.00  0.00     0.163 HD
BRANCH   4   7
ATOM      7  C   UNL A   1      32.144  29.065  27.230  1.00  0.00     0.138 C 
BRANCH   7   8
ATOM      8  C   UNL A   1      31.377  28.231  26.198  1.00  0.00     0.182 C 
ATOM      9  N   UNL A   1      31.830  27.048  23.964  1.00  0.00    -0.326 N 
ATOM     10  C   UNL A   1      31.497  25.803  24.633  1.00  0.00     0.291 C 
ATOM     11  C   UNL A   1      32.120  28.172  24.841  1.00  0.00     0.295 C 
ATOM     12  H   UNL A   1      32.755  26.800  23.611  1.00  0.00     0.348 HD
ATOM     13  C   UNL A   1      30.600  26.022  25.856  1.00  0.00     0.222 C 
ATOM     14  O   UNL A   1      31.229  26.917  26.777  1.00  0.00    -0.366 OA
BRANCH   9  15
ATOM     15  C   UNL A   1      31.373  27.305  22.610  1.00  0.00     0.320 C 
BRANCH  15  16
ATOM     16  C   UNL A   1      30.165  28.193  22.540  1.00  0.00     0.108 A 
ATOM     17  C   UNL A   1      29.081  29.994  21.864  1.00  0.00     0.189 A 
ATOM     18  N   UNL A   1      30.224  29.362  21.783  1.00  0.00    -0.219 NA
ATOM     19  S   UNL A   1      27.879  29.277  22.834  1.00  0.00    -0.105 S 
ATOM     20  C   UNL A   1      28.917  27.941  23.086  1.00  0.00     0.098 A 
BRANCH  17  21
ATOM     21  N   UNL A   1      28.686  31.156  21.275  1.00  0.00    -0.302 N 
ATOM     22  C   UNL A   1      28.564  32.451  23.392  1.00  0.00     0.114 C 
ATOM     23  C   UNL A   1      28.342  32.307  21.910  1.00  0.00     0.223 C 
ATOM     24  O   UNL A   1      27.900  33.246  21.243  1.00  0.00    -0.275 OA
ATOM     25  H   UNL A   1      28.649  31.163  20.291  1.00  0.00     0.172 HD
ENDBRANCH  17  21
ENDBRANCH  15  16
ENDBRANCH   9  15
ENDBRANCH   7   8
ENDBRANCH   4   7
ENDBRANCH   2   3
ENDBRANCH   1   2
BRANCH   1  26
ATOM     26  C   UNL A   1      35.026  33.280  27.915  1.00  0.00     0.002 C 
BRANCH  26  27
ATOM     27  C   UNL A   1      34.388  33.776  29.214  1.00  0.00     0.002 C 
BRANCH  27  28
ATOM     28  C   UNL A   1      33.142  34.653  29.049  1.00  0.00     0.021 C 
BRANCH  28  29
ATOM     29  C   UNL A   1      33.282  36.091  29.544  1.00  0.00     0.116 C 
BRANCH  29  30
ATOM     30  N   UNL A   1      32.493  36.339  30.740  1.00  0.00    -0.352 N 
ATOM     31  C   UNL A   1      32.648  35.849  32.013  1.00  0.00     0.251 C 
ATOM     32  H   UNL A   1      31.733  36.951  30.619  1.00  0.00     0.163 HD
ATOM     33  O   UNL A   1      31.763  36.010  32.846  1.00  0.00    -0.269 OA
BRANCH  31  34
ATOM     34  C   UNL A   1      33.875  35.112  32.384  1.00  0.00     0.039 A 
ATOM     35  C   UNL A   1      33.752  33.823  32.912  1.00  0.00     0.014 A 
ATOM     36  C   UNL A   1      35.137  35.698  32.251  1.00  0.00     0.014 A 
ATOM     37  C   UNL A   1      34.897  33.103  33.259  1.00  0.00     0.010 A 
ATOM     38  C   UNL A   1      36.281  34.955  32.538  1.00  0.00     0.010 A 
ATOM     39  C   UNL A   1      36.173  33.655  33.051  1.00  0.00    -0.014 A 
BRANCH  39  40
ATOM     40  C   UNL A   1      37.399  32.883  33.374  1.00  0.00     0.031 A 
ATOM     41  C   UNL A   1      38.140  33.137  34.657  1.00  0.00     0.074 A 
ATOM     42  C   UNL A   1      37.876  31.988  32.487  1.00  0.00     0.049 A 
ATOM     43  N   UNL A   1      39.247  32.589  35.094  1.00  0.00    -0.248 NA
ATOM     44  C   UNL A   1      37.581  34.158  35.557  1.00  0.00     0.031 C 
ATOM     45  C   UNL A   1      37.274  31.676  31.189  1.00  0.00     0.029 A 
ATOM     46  N   UNL A   1      38.982  31.177  32.544  1.00  0.00    -0.354 N 
ATOM     47  C   UNL A   1      39.521  33.208  36.307  1.00  0.00     0.074 A 
ATOM     48  C   UNL A   1      38.494  34.204  36.515  1.00  0.00     0.031 C 
ATOM     49  C   UNL A   1      38.001  30.722  30.586  1.00  0.00     0.029 A 
ATOM     50  C   UNL A   1      39.137  30.380  31.437  1.00  0.00     0.049 A 
ATOM     51  H   UNL A   1      39.604  31.168  33.307  1.00  0.00     0.167 HD
ATOM     52  C   UNL A   1      40.527  32.957  37.179  1.00  0.00     0.031 A 
ATOM     53  C   UNL A   1      40.086  29.473  31.139  1.00  0.00     0.031 A 
ATOM     54  C   UNL A   1      41.542  31.957  36.982  1.00  0.00     0.049 A 
ATOM     55  C   UNL A   1      41.190  29.211  32.124  1.00  0.00     0.074 A 
ATOM     56  C   UNL A   1      42.571  31.591  37.834  1.00  0.00     0.029 A 
ATOM     57  N   UNL A   1      41.655  31.162  35.853  1.00  0.00    -0.354 N 
ATOM     58  N   UNL A   1      41.398  29.760  33.295  1.00  0.00    -0.248 NA
ATOM     59  C   UNL A   1      42.182  28.193  31.750  1.00  0.00     0.031 C 
ATOM     60  C   UNL A   1      43.331  30.602  37.200  1.00  0.00     0.029 A 
ATOM     61  C   UNL A   1      42.747  30.319  35.977  1.00  0.00     0.049 A 
ATOM     62  H   UNL A   1      41.050  31.192  35.077  1.00  0.00     0.167 HD
ATOM     63  C   UNL A   1      42.526  29.135  33.811  1.00  0.00     0.074 A 
ATOM     64  C   UNL A   1      42.949  28.157  32.830  1.00  0.00     0.031 C 
ATOM     65  C   UNL A   1      43.155  29.352  34.992  1.00  0.00     0.031 A 
BRANCH  52  66
ATOM     66  C   UNL A   1      40.578  33.789  38.431  1.00  0.00    -0.014 A 
ATOM     67  C   UNL A   1      41.339  34.968  38.489  1.00  0.00     0.009 A 
ATOM     68  C   UNL A   1      39.834  33.405  39.556  1.00  0.00     0.009 A 
ATOM     69  C   UNL A   1      41.383  35.724  39.661  1.00  0.00     0.001 A 
ATOM     70  C   UNL A   1      39.857  34.179  40.719  1.00  0.00     0.001 A 
ATOM     71  C   UNL A   1      40.639  35.332  40.773  1.00  0.00     0.000 A 
ENDBRANCH  52  66
BRANCH  53  72
ATOM     72  C   UNL A   1      40.020  28.722  29.859  1.00  0.00    -0.014 A 
ATOM     73  C   UNL A   1      40.636  29.232  28.705  1.00  0.00     0.009 A 
ATOM     74  C   UNL A   1      39.341  27.497  29.781  1.00  0.00     0.009 A 
ATOM     75  C   UNL A   1      40.552  28.543  27.494  1.00  0.00     0.001 A 
ATOM     76  C   UNL A   1      39.281  26.797  28.575  1.00  0.00     0.001 A 
ATOM     77  C   UNL A   1      39.877  27.323  27.431  1.00  0.00     0.000 A 
ENDBRANCH  53  72
BRANCH  65  78
ATOM     78  C   UNL A   1      44.345  28.490  35.302  1.00  0.00    -0.014 A 
ATOM     79  C   UNL A   1      44.191  27.189  35.807  1.00  0.00     0.009 A 
ATOM     80  C   UNL A   1      45.638  28.976  35.053  1.00  0.00     0.009 A 
ATOM     81  C   UNL A   1      45.311  26.404  36.087  1.00  0.00     0.001 A 
ATOM     82  C   UNL A   1      46.755  28.179  35.309  1.00  0.00     0.001 A 
ATOM     83  C   UNL A   1      46.591  26.898  35.834  1.00  0.00     0.000 A 
ENDBRANCH  65  78
ENDBRANCH  39  40
ENDBRANCH  31  34
ENDBRANCH  29  30
ENDBRANCH  28  29
ENDBRANCH  27  28
ENDBRANCH  26  27
ENDBRANCH   1  26
TORSDOF 17
ENDMDL
MODEL 3
REMARK VINA RESULT:     -10.8      5.042      9.924
REMARK SMILES CC(=O)Nc1nc(C[N@@H+]2CCO[C@@H](CC(=O)NCCCCCCNC(=O)c3ccc(-c4c5nc(c(-c6ccccc6)c6ccc([nH]6)c(-c6ccccc6)c6nc(c(-c7ccccc7)c7ccc4[nH]7)C=C6)C=C5)cc3)C2)cs1
REMARK SMILES IDX 19 1 18 2 17 3 15 4 16 5 14 7 13 8 9 9 10 10 75 11 11 13
REMARK SMILES IDX 12 14 8 15 7 16 5 17 6 18 77 19 76 20 4 21 1 22 2 23 3 24
REMARK SMILES IDX 20 26 21 27 22 28 23 29 24 30 25 31 26 33 27 34 28 35 74 36
REMARK SMILES IDX 29 37 73 38 30 39 31 40 32 41 67 42 33 43 72 44 66 45 68 46
REMARK SMILES IDX 34 47 71 48 65 49 64 50 35 52 57 53 42 54 56 55 43 56 46 57
REMARK SMILES IDX 55 58 69 59 44 60 45 61 54 63 70 64 47 65 36 66 37 67 41 68
REMARK SMILES IDX 38 69 40 70 39 71 58 72 59 73 63 74 60 75 62 76 61 77 48 78
REMARK SMILES IDX 49 79 53 80 50 81 52 82 51 83
REMARK H PARENT 17 6 9 12 4 25 24 32 68 51 46 62
REMARK Flexibility Score: inf
ROOT
ATOM      1  C   UNL A   1      36.431  22.781  24.021  1.00  0.00     0.021 C 
ENDROOT
BRANCH   1   2
ATOM      2  C   UNL A   1      35.207  23.526  23.476  1.00  0.00     0.116 C 
BRANCH   2   3
ATOM      3  N   UNL A   1      34.034  23.231  24.282  1.00  0.00    -0.356 N 
ATOM      4  C   UNL A   1      33.504  23.886  25.354  1.00  0.00     0.222 C 
ATOM      5  O   UNL A   1      32.585  23.347  25.970  1.00  0.00    -0.275 OA
ATOM      6  H   UNL A   1      33.541  22.423  24.009  1.00  0.00     0.163 HD
BRANCH   4   7
ATOM      7  C   UNL A   1      34.023  25.244  25.765  1.00  0.00     0.138 C 
BRANCH   7   8
ATOM      8  C   UNL A   1      33.679  26.367  24.781  1.00  0.00     0.182 C 
ATOM      9  N   UNL A   1      31.591  27.563  23.884  1.00  0.00    -0.326 N 
ATOM     10  C   UNL A   1      32.116  28.779  24.477  1.00  0.00     0.291 C 
ATOM     11  C   UNL A   1      32.190  26.325  24.360  1.00  0.00     0.295 C 
ATOM     12  H   UNL A   1      30.673  27.548  24.329  1.00  0.00     0.348 HD
ATOM     13  C   UNL A   1      33.636  28.729  24.657  1.00  0.00     0.222 C 
ATOM     14  O   UNL A   1      34.003  27.601  25.456  1.00  0.00    -0.366 OA
BRANCH   9  15
ATOM     15  C   UNL A   1      30.964  27.589  22.574  1.00  0.00     0.320 C 
BRANCH  15  16
ATOM     16  C   UNL A   1      29.740  28.454  22.509  1.00  0.00     0.108 A 
ATOM     17  C   UNL A   1      28.574  30.163  21.735  1.00  0.00     0.189 A 
ATOM     18  N   UNL A   1      29.717  29.535  21.627  1.00  0.00    -0.219 NA
ATOM     19  S   UNL A   1      27.468  29.547  22.873  1.00  0.00    -0.105 S 
ATOM     20  C   UNL A   1      28.546  28.255  23.181  1.00  0.00     0.098 A 
BRANCH  17  21
ATOM     21  N   UNL A   1      28.113  31.250  21.058  1.00  0.00    -0.302 N 
ATOM     22  C   UNL A   1      28.805  32.898  22.785  1.00  0.00     0.114 C 
ATOM     23  C   UNL A   1      28.099  32.533  21.506  1.00  0.00     0.223 C 
ATOM     24  O   UNL A   1      27.548  33.397  20.819  1.00  0.00    -0.275 OA
ATOM     25  H   UNL A   1      27.757  31.091  20.154  1.00  0.00     0.172 HD
ENDBRANCH  17  21
ENDBRANCH  15  16
ENDBRANCH   9  15
ENDBRANCH   7   8
ENDBRANCH   4   7
ENDBRANCH   2   3
ENDBRANCH   1   2
BRANCH   1  26
ATOM     26  C   UNL A   1      36.145  21.917  25.248  1.00  0.00     0.002 C 
BRANCH  26  27
ATOM     27  C   UNL A   1      36.258  20.409  25.011  1.00  0.00     0.002 C 
BRANCH  27  28
ATOM     28  C   UNL A   1      37.671  19.885  24.730  1.00  0.00     0.021 C 
BRANCH  28  29
ATOM     29  C   UNL A   1      38.745  20.333  25.720  1.00  0.00     0.116 C 
BRANCH  29  30
ATOM     30  N   UNL A   1      39.856  19.397  25.785  1.00  0.00    -0.352 N 
ATOM     31  C   UNL A   1      41.177  19.620  26.082  1.00  0.00     0.251 C 
ATOM     32  H   UNL A   1      39.625  18.462  25.587  1.00  0.00     0.163 HD
ATOM     33  O   UNL A   1      42.008  18.740  25.889  1.00  0.00    -0.269 OA
BRANCH  31  34
ATOM     34  C   UNL A   1      41.609  20.926  26.624  1.00  0.00     0.039 A 
ATOM     35  C   UNL A   1      42.114  21.887  25.742  1.00  0.00     0.014 A 
ATOM     36  C   UNL A   1      41.556  21.193  27.996  1.00  0.00     0.014 A 
ATOM     37  C   UNL A   1      42.517  23.132  26.229  1.00  0.00     0.010 A 
ATOM     38  C   UNL A   1      41.899  22.457  28.471  1.00  0.00     0.010 A 
ATOM     39  C   UNL A   1      42.389  23.436  27.594  1.00  0.00    -0.014 A 
BRANCH  39  40
ATOM     40  C   UNL A   1      42.773  24.771  28.118  1.00  0.00     0.031 A 
ATOM     41  C   UNL A   1      41.729  25.832  28.329  1.00  0.00     0.074 A 
ATOM     42  C   UNL A   1      44.070  25.047  28.353  1.00  0.00     0.049 A 
ATOM     43  N   UNL A   1      41.878  27.067  28.744  1.00  0.00    -0.248 NA
ATOM     44  C   UNL A   1      40.339  25.470  28.012  1.00  0.00     0.031 C 
ATOM     45  C   UNL A   1      45.186  24.119  28.151  1.00  0.00     0.029 A 
ATOM     46  N   UNL A   1      44.670  26.192  28.814  1.00  0.00    -0.354 N 
ATOM     47  C   UNL A   1      40.607  27.627  28.721  1.00  0.00     0.074 A 
ATOM     48  C   UNL A   1      39.708  26.617  28.209  1.00  0.00     0.031 C 
ATOM     49  C   UNL A   1      46.329  24.723  28.512  1.00  0.00     0.029 A 
ATOM     50  C   UNL A   1      46.034  26.087  28.938  1.00  0.00     0.049 A 
ATOM     51  H   UNL A   1      44.170  27.011  29.034  1.00  0.00     0.167 HD
ATOM     52  C   UNL A   1      40.220  28.866  29.108  1.00  0.00     0.031 A 
ATOM     53  C   UNL A   1      46.946  26.988  29.350  1.00  0.00     0.031 A 
ATOM     54  C   UNL A   1      41.110  29.868  29.632  1.00  0.00     0.049 A 
ATOM     55  C   UNL A   1      46.490  28.354  29.777  1.00  0.00     0.074 A 
ATOM     56  C   UNL A   1      40.803  31.134  30.103  1.00  0.00     0.029 A 
ATOM     57  N   UNL A   1      42.482  29.717  29.754  1.00  0.00    -0.354 N 
ATOM     58  N   UNL A   1      45.277  28.848  29.810  1.00  0.00    -0.248 NA
ATOM     59  C   UNL A   1      47.532  29.284  30.239  1.00  0.00     0.031 C 
ATOM     60  C   UNL A   1      41.997  31.763  30.472  1.00  0.00     0.029 A 
ATOM     61  C   UNL A   1      43.039  30.872  30.276  1.00  0.00     0.049 A 
ATOM     62  H   UNL A   1      42.986  28.908  29.506  1.00  0.00     0.167 HD
ATOM     63  C   UNL A   1      45.404  30.133  30.321  1.00  0.00     0.074 A 
ATOM     64  C   UNL A   1      46.811  30.337  30.596  1.00  0.00     0.031 C 
ATOM     65  C   UNL A   1      44.441  31.060  30.544  1.00  0.00     0.031 A 
BRANCH  52  66
ATOM     66  C   UNL A   1      38.761  29.207  28.974  1.00  0.00    -0.014 A 
ATOM     67  C   UNL A   1      38.235  29.683  27.762  1.00  0.00     0.009 A 
ATOM     68  C   UNL A   1      37.897  29.022  30.064  1.00  0.00     0.009 A 
ATOM     69  C   UNL A   1      36.881  30.002  27.657  1.00  0.00     0.001 A 
ATOM     70  C   UNL A   1      36.537  29.316  29.948  1.00  0.00     0.001 A 
ATOM     71  C   UNL A   1      36.032  29.815  28.747  1.00  0.00     0.000 A 
ENDBRANCH  52  66
BRANCH  53  72
ATOM     72  C   UNL A   1      48.383  26.618  29.405  1.00  0.00    -0.014 A 
ATOM     73  C   UNL A   1      48.881  25.866  30.480  1.00  0.00     0.009 A 
ATOM     74  C   UNL A   1      49.264  27.014  28.387  1.00  0.00     0.009 A 
ATOM     75  C   UNL A   1      50.237  25.541  30.549  1.00  0.00     0.001 A 
ATOM     76  C   UNL A   1      50.614  26.664  28.445  1.00  0.00     0.001 A 
ATOM     77  C   UNL A   1      51.102  25.937  29.529  1.00  0.00     0.000 A 
ENDBRANCH  53  72
BRANCH  65  78
ATOM     78  C   UNL A   1      44.874  32.366  31.146  1.00  0.00    -0.014 A 
ATOM     79  C   UNL A   1      45.230  33.458  30.339  1.00  0.00     0.009 A 
ATOM     80  C   UNL A   1      44.893  32.514  32.542  1.00  0.00     0.009 A 
ATOM     81  C   UNL A   1      45.628  34.663  30.921  1.00  0.00     0.001 A 
ATOM     82  C   UNL A   1      45.265  33.729  33.120  1.00  0.00     0.001 A 
ATOM     83  C   UNL A   1      45.641  34.799  32.309  1.00  0.00     0.000 A 
ENDBRANCH  65  78
ENDBRANCH  39  40
ENDBRANCH  31  34
ENDBRANCH  29  30
ENDBRANCH  28  29
ENDBRANCH  27  28
ENDBRANCH  26  27
ENDBRANCH   1  26
TORSDOF 17
ENDMDL
