MODEL 1
REMARK VINA RESULT:      -9.9      0.000      0.000
REMARK SMILES CCC[N@H+](CC1CC[NH2+]CC1)[C@@H](CC)C(=O)NCCCCCCNC(=O)c1ccc(-c2c3nc(c(-c4ccccc4)c4ccc([nH]4)c(-c4ccccc4)c4nc(c(-c5ccccc5)c5ccc2[nH]5)C=C4)C=C3)cc1
REMARK SMILES IDX 20 1 19 2 18 3 17 4 15 5 16 6 12 8 4 9 3 11 2 12 1 13 5 14
REMARK SMILES IDX 6 15 7 16 11 17 8 18 10 19 9 20 13 23 14 24 21 25 22 26
REMARK SMILES IDX 23 27 24 28 25 29 26 31 27 32 28 33 74 34 29 35 73 36 30 37
REMARK SMILES IDX 31 38 32 39 67 40 33 41 72 42 66 43 68 44 34 45 71 46 65 47
REMARK SMILES IDX 64 48 35 50 57 51 42 52 56 53 43 54 46 55 55 56 69 57 44 58
REMARK SMILES IDX 45 59 54 61 70 62 47 63 36 64 37 65 41 66 38 67 40 68 39 69
REMARK SMILES IDX 58 70 59 71 63 72 60 73 62 74 61 75 48 76 49 77 53 78 50 79
REMARK SMILES IDX 52 80 51 81
REMARK H PARENT 17 7 4 10 9 21 9 22 24 30 68 49 46 60
REMARK Flexibility Score: inf
ROOT
ATOM      1  C   UNL A   1      32.132  26.100  26.248  1.00  0.00     0.002 C 
ENDROOT
BRANCH   1   2
ATOM      2  C   UNL A   1      33.543  25.802  25.725  1.00  0.00     0.021 C 
BRANCH   2   3
ATOM      3  C   UNL A   1      33.806  26.041  24.201  1.00  0.00     0.116 C 
BRANCH   3   4
ATOM      4  N   UNL A   1      34.024  24.810  23.385  1.00  0.00    -0.351 N 
ATOM      5  C   UNL A   1      33.733  23.494  23.239  1.00  0.00     0.278 C 
ATOM      6  O   UNL A   1      33.890  23.196  22.028  1.00  0.00    -0.268 OA
ATOM      7  H   UNL A   1      34.631  25.054  22.649  1.00  0.00     0.163 HD
BRANCH   5   8
ATOM      8  C   UNL A   1      33.207  22.281  24.134  1.00  0.00     0.273 C 
BRANCH   8   9
ATOM      9  N   UNL A   1      34.054  21.430  25.021  1.00  0.00    -0.324 N 
ATOM     10  H   UNL A   1      33.420  21.505  25.818  1.00  0.00     0.348 HD
BRANCH   9  11
ATOM     11  C   UNL A   1      35.284  21.934  25.566  1.00  0.00     0.262 C 
BRANCH  11  12
ATOM     12  C   UNL A   1      36.478  21.562  24.722  1.00  0.00     0.058 C 
ATOM     13  C   UNL A   1      37.864  21.556  25.348  1.00  0.00     0.010 C 
ENDBRANCH  11  12
ENDBRANCH   9  11
BRANCH   9  14
ATOM     14  C   UNL A   1      34.177  20.000  24.646  1.00  0.00     0.266 C 
BRANCH  14  15
ATOM     15  C   UNL A   1      32.809  19.256  24.623  1.00  0.00     0.055 C 
ATOM     16  C   UNL A   1      32.610  18.183  25.706  1.00  0.00     0.071 C 
ATOM     17  C   UNL A   1      32.507  18.612  23.257  1.00  0.00     0.071 C 
ATOM     18  C   UNL A   1      33.359  16.886  25.417  1.00  0.00     0.261 C 
ATOM     19  C   UNL A   1      33.205  17.264  23.048  1.00  0.00     0.261 C 
ATOM     20  N   UNL A   1      32.935  16.328  24.139  1.00  0.00    -0.346 N 
ATOM     21  H   UNL A   1      31.934  16.134  24.173  1.00  0.00     0.346 HD
ATOM     22  H   UNL A   1      33.457  15.468  23.968  1.00  0.00     0.346 HD
ENDBRANCH  14  15
ENDBRANCH   9  14
ENDBRANCH   8   9
BRANCH   8  23
ATOM     23  C   UNL A   1      31.747  22.389  24.662  1.00  0.00     0.072 C 
ATOM     24  C   UNL A   1      31.522  22.459  26.173  1.00  0.00     0.011 C 
ENDBRANCH   8  23
ENDBRANCH   5   8
ENDBRANCH   3   4
ENDBRANCH   2   3
ENDBRANCH   1   2
BRANCH   1  25
ATOM     25  C   UNL A   1      31.695  27.568  26.282  1.00  0.00     0.002 C 
BRANCH  25  26
ATOM     26  C   UNL A   1      32.142  28.422  27.475  1.00  0.00     0.021 C 
BRANCH  26  27
ATOM     27  C   UNL A   1      33.571  28.953  27.476  1.00  0.00     0.116 C 
BRANCH  27  28
ATOM     28  N   UNL A   1      33.652  30.362  27.815  1.00  0.00    -0.352 N 
ATOM     29  C   UNL A   1      34.663  31.078  28.403  1.00  0.00     0.251 C 
ATOM     30  H   UNL A   1      32.852  30.888  27.585  1.00  0.00     0.163 HD
ATOM     31  O   UNL A   1      34.470  32.231  28.766  1.00  0.00    -0.269 OA
BRANCH  29  32
ATOM     32  C   UNL A   1      35.988  30.457  28.613  1.00  0.00     0.039 A 
ATOM     33  C   UNL A   1      36.893  30.427  27.549  1.00  0.00     0.014 A 
ATOM     34  C   UNL A   1      36.324  29.884  29.843  1.00  0.00     0.014 A 
ATOM     35  C   UNL A   1      38.163  29.878  27.737  1.00  0.00     0.010 A 
ATOM     36  C   UNL A   1      37.612  29.397  30.048  1.00  0.00     0.010 A 
ATOM     37  C   UNL A   1      38.542  29.391  28.997  1.00  0.00    -0.014 A 
BRANCH  37  38
ATOM     38  C   UNL A   1      39.915  28.890  29.244  1.00  0.00     0.031 A 
ATOM     39  C   UNL A   1      40.948  29.789  29.863  1.00  0.00     0.074 A 
ATOM     40  C   UNL A   1      40.244  27.647  28.843  1.00  0.00     0.049 A 
ATOM     41  N   UNL A   1      42.214  29.552  30.096  1.00  0.00    -0.248 NA
ATOM     42  C   UNL A   1      40.507  31.140  30.246  1.00  0.00     0.031 C 
ATOM     43  C   UNL A   1      39.334  26.697  28.198  1.00  0.00     0.029 A 
ATOM     44  N   UNL A   1      41.434  26.970  28.912  1.00  0.00    -0.354 N 
ATOM     45  C   UNL A   1      42.722  30.725  30.638  1.00  0.00     0.074 A 
ATOM     46  C   UNL A   1      41.643  31.688  30.654  1.00  0.00     0.031 C 
ATOM     47  C   UNL A   1      39.992  25.554  27.954  1.00  0.00     0.029 A 
ATOM     48  C   UNL A   1      41.379  25.704  28.382  1.00  0.00     0.049 A 
ATOM     49  H   UNL A   1      42.252  27.355  29.305  1.00  0.00     0.167 HD
ATOM     50  C   UNL A   1      43.971  30.971  31.100  1.00  0.00     0.031 A 
ATOM     51  C   UNL A   1      42.340  24.772  28.247  1.00  0.00     0.031 A 
ATOM     52  C   UNL A   1      45.038  30.007  31.081  1.00  0.00     0.049 A 
ATOM     53  C   UNL A   1      43.727  25.082  28.737  1.00  0.00     0.074 A 
ATOM     54  C   UNL A   1      46.325  30.135  31.575  1.00  0.00     0.029 A 
ATOM     55  N   UNL A   1      44.944  28.737  30.532  1.00  0.00    -0.354 N 
ATOM     56  N   UNL A   1      44.173  26.169  29.319  1.00  0.00    -0.248 NA
ATOM     57  C   UNL A   1      44.741  24.034  28.557  1.00  0.00     0.031 C 
ATOM     58  C   UNL A   1      47.027  28.964  31.270  1.00  0.00     0.029 A 
ATOM     59  C   UNL A   1      46.159  28.083  30.642  1.00  0.00     0.049 A 
ATOM     60  H   UNL A   1      44.132  28.356  30.124  1.00  0.00     0.167 HD
ATOM     61  C   UNL A   1      45.512  25.930  29.594  1.00  0.00     0.074 A 
ATOM     62  C   UNL A   1      45.799  24.585  29.134  1.00  0.00     0.031 C 
ATOM     63  C   UNL A   1      46.425  26.748  30.171  1.00  0.00     0.031 A 
BRANCH  50  64
ATOM     64  C   UNL A   1      44.251  32.343  31.650  1.00  0.00    -0.014 A 
ATOM     65  C   UNL A   1      44.065  32.635  33.010  1.00  0.00     0.009 A 
ATOM     66  C   UNL A   1      44.740  33.349  30.803  1.00  0.00     0.009 A 
ATOM     67  C   UNL A   1      44.325  33.915  33.503  1.00  0.00     0.001 A 
ATOM     68  C   UNL A   1      45.029  34.621  31.304  1.00  0.00     0.001 A 
ATOM     69  C   UNL A   1      44.811  34.906  32.650  1.00  0.00     0.000 A 
ENDBRANCH  50  64
BRANCH  51  70
ATOM     70  C   UNL A   1      42.026  23.459  27.623  1.00  0.00    -0.014 A 
ATOM     71  C   UNL A   1      42.295  23.233  26.264  1.00  0.00     0.009 A 
ATOM     72  C   UNL A   1      41.458  22.424  28.383  1.00  0.00     0.009 A 
ATOM     73  C   UNL A   1      41.975  22.008  25.673  1.00  0.00     0.001 A 
ATOM     74  C   UNL A   1      41.168  21.190  27.797  1.00  0.00     0.001 A 
ATOM     75  C   UNL A   1      41.417  20.986  26.440  1.00  0.00     0.000 A 
ENDBRANCH  51  70
BRANCH  63  76
ATOM     76  C   UNL A   1      47.813  26.205  30.358  1.00  0.00    -0.014 A 
ATOM     77  C   UNL A   1      48.745  26.216  29.308  1.00  0.00     0.009 A 
ATOM     78  C   UNL A   1      48.208  25.721  31.614  1.00  0.00     0.009 A 
ATOM     79  C   UNL A   1      50.036  25.726  29.507  1.00  0.00     0.001 A 
ATOM     80  C   UNL A   1      49.508  25.260  31.819  1.00  0.00     0.001 A 
ATOM     81  C   UNL A   1      50.419  25.255  30.762  1.00  0.00     0.000 A 
ENDBRANCH  63  76
ENDBRANCH  37  38
ENDBRANCH  29  32
ENDBRANCH  27  28
ENDBRANCH  26  27
ENDBRANCH  25  26
ENDBRANCH   1  25
TORSDOF 19
ENDMDL
MODEL 2
REMARK VINA RESULT:      -9.8      1.413      2.770
REMARK SMILES CCC[N@H+](CC1CC[NH2+]CC1)[C@@H](CC)C(=O)NCCCCCCNC(=O)c1ccc(-c2c3nc(c(-c4ccccc4)c4ccc([nH]4)c(-c4ccccc4)c4nc(c(-c5ccccc5)c5ccc2[nH]5)C=C4)C=C3)cc1
REMARK SMILES IDX 20 1 19 2 18 3 17 4 15 5 16 6 12 8 4 9 3 11 2 12 1 13 5 14
REMARK SMILES IDX 6 15 7 16 11 17 8 18 10 19 9 20 13 23 14 24 21 25 22 26
REMARK SMILES IDX 23 27 24 28 25 29 26 31 27 32 28 33 74 34 29 35 73 36 30 37
REMARK SMILES IDX 31 38 32 39 67 40 33 41 72 42 66 43 68 44 34 45 71 46 65 47
REMARK SMILES IDX 64 48 35 50 57 51 42 52 56 53 43 54 46 55 55 56 69 57 44 58
REMARK SMILES IDX 45 59 54 61 70 62 47 63 36 64 37 65 41 66 38 67 40 68 39 69
REMARK SMILES IDX 58 70 59 71 63 72 60 73 62 74 61 75 48 76 49 77 53 78 50 79
REMARK SMILES IDX 52 80 51 81
REMARK H PARENT 17 7 4 10 9 21 9 22 24 30 68 49 46 60
REMARK Flexibility Score: inf
ROOT
ATOM      1  C   UNL A   1      32.616  26.037  24.930  1.00  0.00     0.002 C 
ENDROOT
BRANCH   1   2
ATOM      2  C   UNL A   1      33.153  25.469  23.609  1.00  0.00     0.021 C 
BRANCH   2   3
ATOM      3  C   UNL A   1      32.111  24.842  22.625  1.00  0.00     0.116 C 
BRANCH   3   4
ATOM      4  N   UNL A   1      32.274  23.382  22.361  1.00  0.00    -0.351 N 
ATOM      5  C   UNL A   1      32.331  22.143  22.906  1.00  0.00     0.278 C 
ATOM      6  O   UNL A   1      32.004  21.314  22.018  1.00  0.00    -0.268 OA
ATOM      7  H   UNL A   1      32.390  23.275  21.389  1.00  0.00     0.163 HD
BRANCH   5   8
ATOM      8  C   UNL A   1      32.628  21.474  24.325  1.00  0.00     0.273 C 
BRANCH   8   9
ATOM      9  N   UNL A   1      33.707  20.481  24.605  1.00  0.00    -0.324 N 
ATOM     10  H   UNL A   1      33.927  20.334  23.619  1.00  0.00     0.348 HD
BRANCH   9  11
ATOM     11  C   UNL A   1      33.386  19.151  25.043  1.00  0.00     0.262 C 
BRANCH  11  12
ATOM     12  C   UNL A   1      34.348  18.123  24.505  1.00  0.00     0.058 C 
ATOM     13  C   UNL A   1      33.959  17.298  23.287  1.00  0.00     0.010 C 
ENDBRANCH  11  12
ENDBRANCH   9  11
BRANCH   9  14
ATOM     14  C   UNL A   1      34.918  20.995  25.290  1.00  0.00     0.266 C 
BRANCH  14  15
ATOM     15  C   UNL A   1      35.853  21.809  24.348  1.00  0.00     0.055 C 
ATOM     16  C   UNL A   1      37.335  21.401  24.356  1.00  0.00     0.071 C 
ATOM     17  C   UNL A   1      35.778  23.326  24.604  1.00  0.00     0.071 C 
ATOM     18  C   UNL A   1      38.091  21.892  25.586  1.00  0.00     0.261 C 
ATOM     19  C   UNL A   1      36.629  23.789  25.791  1.00  0.00     0.261 C 
ATOM     20  N   UNL A   1      38.018  23.345  25.681  1.00  0.00    -0.346 N 
ATOM     21  H   UNL A   1      38.436  23.757  24.847  1.00  0.00     0.346 HD
ATOM     22  H   UNL A   1      38.524  23.643  26.515  1.00  0.00     0.346 HD
ENDBRANCH  14  15
ENDBRANCH   9  14
ENDBRANCH   8   9
BRANCH   8  23
ATOM     23  C   UNL A   1      32.297  22.333  25.580  1.00  0.00     0.072 C 
ATOM     24  C   UNL A   1      30.840  22.726  25.831  1.00  0.00     0.011 C 
ENDBRANCH   8  23
ENDBRANCH   5   8
ENDBRANCH   3   4
ENDBRANCH   2   3
ENDBRANCH   1   2
BRANCH   1  25
ATOM     25  C   UNL A   1      33.646  26.413  25.999  1.00  0.00     0.002 C 
BRANCH  25  26
ATOM     26  C   UNL A   1      33.498  27.774  26.691  1.00  0.00     0.021 C 
BRANCH  26  27
ATOM     27  C   UNL A   1      34.261  28.958  26.107  1.00  0.00     0.116 C 
BRANCH  27  28
ATOM     28  N   UNL A   1      33.899  30.222  26.720  1.00  0.00    -0.352 N 
ATOM     29  C   UNL A   1      34.489  30.913  27.747  1.00  0.00     0.251 C 
ATOM     30  H   UNL A   1      33.103  30.655  26.334  1.00  0.00     0.163 HD
ATOM     31  O   UNL A   1      33.928  31.884  28.238  1.00  0.00    -0.269 OA
BRANCH  29  32
ATOM     32  C   UNL A   1      35.800  30.479  28.277  1.00  0.00     0.039 A 
ATOM     33  C   UNL A   1      35.833  29.722  29.451  1.00  0.00     0.014 A 
ATOM     34  C   UNL A   1      36.988  30.840  27.636  1.00  0.00     0.014 A 
ATOM     35  C   UNL A   1      37.057  29.271  29.948  1.00  0.00     0.010 A 
ATOM     36  C   UNL A   1      38.201  30.336  28.095  1.00  0.00     0.010 A 
ATOM     37  C   UNL A   1      38.245  29.546  29.254  1.00  0.00    -0.014 A 
BRANCH  37  38
ATOM     38  C   UNL A   1      39.544  28.999  29.713  1.00  0.00     0.031 A 
ATOM     39  C   UNL A   1      40.387  29.770  30.689  1.00  0.00     0.074 A 
ATOM     40  C   UNL A   1      39.991  27.840  29.192  1.00  0.00     0.049 A 
ATOM     41  N   UNL A   1      41.576  29.486  31.156  1.00  0.00    -0.248 NA
ATOM     42  C   UNL A   1      39.832  31.039  31.187  1.00  0.00     0.031 C 
ATOM     43  C   UNL A   1      39.276  27.023  28.208  1.00  0.00     0.029 A 
ATOM     44  N   UNL A   1      41.157  27.152  29.409  1.00  0.00    -0.354 N 
ATOM     45  C   UNL A   1      41.915  30.544  31.988  1.00  0.00     0.074 A 
ATOM     46  C   UNL A   1      40.831  31.499  31.925  1.00  0.00     0.031 C 
ATOM     47  C   UNL A   1      40.006  25.932  27.929  1.00  0.00     0.029 A 
ATOM     48  C   UNL A   1      41.258  25.995  28.675  1.00  0.00     0.049 A 
ATOM     49  H   UNL A   1      41.855  27.456  30.034  1.00  0.00     0.167 HD
ATOM     50  C   UNL A   1      43.023  30.698  32.752  1.00  0.00     0.031 A 
ATOM     51  C   UNL A   1      42.253  25.092  28.602  1.00  0.00     0.031 A 
ATOM     52  C   UNL A   1      44.097  29.742  32.810  1.00  0.00     0.049 A 
ATOM     53  C   UNL A   1      43.487  25.302  29.436  1.00  0.00     0.074 A 
ATOM     54  C   UNL A   1      45.237  29.772  33.593  1.00  0.00     0.029 A 
ATOM     55  N   UNL A   1      44.165  28.586  32.048  1.00  0.00    -0.354 N 
ATOM     56  N   UNL A   1      43.760  26.270  30.277  1.00  0.00    -0.248 NA
ATOM     57  C   UNL A   1      44.547  24.292  29.312  1.00  0.00     0.031 C 
ATOM     58  C   UNL A   1      46.025  28.665  33.259  1.00  0.00     0.029 A 
ATOM     59  C   UNL A   1      45.345  27.912  32.314  1.00  0.00     0.049 A 
ATOM     60  H   UNL A   1      43.476  28.287  31.410  1.00  0.00     0.167 HD
ATOM     61  C   UNL A   1      45.011  25.976  30.800  1.00  0.00     0.074 A 
ATOM     62  C   UNL A   1      45.434  24.727  30.196  1.00  0.00     0.031 C 
ATOM     63  C   UNL A   1      45.749  26.676  31.696  1.00  0.00     0.031 A 
BRANCH  50  64
ATOM     64  C   UNL A   1      43.133  31.952  33.575  1.00  0.00    -0.014 A 
ATOM     65  C   UNL A   1      42.637  32.009  34.887  1.00  0.00     0.009 A 
ATOM     66  C   UNL A   1      43.771  33.083  33.042  1.00  0.00     0.009 A 
ATOM     67  C   UNL A   1      42.743  33.185  35.634  1.00  0.00     0.001 A 
ATOM     68  C   UNL A   1      43.902  34.248  33.802  1.00  0.00     0.001 A 
ATOM     69  C   UNL A   1      43.380  34.301  35.093  1.00  0.00     0.000 A 
ENDBRANCH  50  64
BRANCH  51  70
ATOM     70  C   UNL A   1      42.125  23.908  27.712  1.00  0.00    -0.014 A 
ATOM     71  C   UNL A   1      41.517  22.731  28.174  1.00  0.00     0.009 A 
ATOM     72  C   UNL A   1      42.608  23.949  26.394  1.00  0.00     0.009 A 
ATOM     73  C   UNL A   1      41.422  21.610  27.345  1.00  0.00     0.001 A 
ATOM     74  C   UNL A   1      42.483  22.838  25.557  1.00  0.00     0.001 A 
ATOM     75  C   UNL A   1      41.899  21.666  26.037  1.00  0.00     0.000 A 
ENDBRANCH  51  70
BRANCH  63  76
ATOM     76  C   UNL A   1      47.076  26.096  32.094  1.00  0.00    -0.014 A 
ATOM     77  C   UNL A   1      47.197  25.257  33.213  1.00  0.00     0.009 A 
ATOM     78  C   UNL A   1      48.211  26.354  31.309  1.00  0.00     0.009 A 
ATOM     79  C   UNL A   1      48.436  24.712  33.553  1.00  0.00     0.001 A 
ATOM     80  C   UNL A   1      49.441  25.782  31.635  1.00  0.00     0.001 A 
ATOM     81  C   UNL A   1      49.554  24.969  32.761  1.00  0.00     0.000 A 
ENDBRANCH  63  76
ENDBRANCH  37  38
ENDBRANCH  29  32
ENDBRANCH  27  28
ENDBRANCH  26  27
ENDBRANCH  25  26
ENDBRANCH   1  25
TORSDOF 19
ENDMDL
MODEL 3
REMARK VINA RESULT:      -9.6      2.031      7.939
REMARK SMILES CCC[N@H+](CC1CC[NH2+]CC1)[C@@H](CC)C(=O)NCCCCCCNC(=O)c1ccc(-c2c3nc(c(-c4ccccc4)c4ccc([nH]4)c(-c4ccccc4)c4nc(c(-c5ccccc5)c5ccc2[nH]5)C=C4)C=C3)cc1
REMARK SMILES IDX 20 1 19 2 18 3 17 4 15 5 16 6 12 8 4 9 3 11 2 12 1 13 5 14
REMARK SMILES IDX 6 15 7 16 11 17 8 18 10 19 9 20 13 23 14 24 21 25 22 26
REMARK SMILES IDX 23 27 24 28 25 29 26 31 27 32 28 33 74 34 29 35 73 36 30 37
REMARK SMILES IDX 31 38 32 39 67 40 33 41 72 42 66 43 68 44 34 45 71 46 65 47
REMARK SMILES IDX 64 48 35 50 57 51 42 52 56 53 43 54 46 55 55 56 69 57 44 58
REMARK SMILES IDX 45 59 54 61 70 62 47 63 36 64 37 65 41 66 38 67 40 68 39 69
REMARK SMILES IDX 58 70 59 71 63 72 60 73 62 74 61 75 48 76 49 77 53 78 50 79
REMARK SMILES IDX 52 80 51 81
REMARK H PARENT 17 7 4 10 9 21 9 22 24 30 68 49 46 60
REMARK Flexibility Score: inf
ROOT
ATOM      1  C   UNL A   1      35.010  19.756  24.773  1.00  0.00     0.002 C 
ENDROOT
BRANCH   1   2
ATOM      2  C   UNL A   1      33.712  20.493  25.131  1.00  0.00     0.021 C 
BRANCH   2   3
ATOM      3  C   UNL A   1      32.623  20.604  24.013  1.00  0.00     0.116 C 
BRANCH   3   4
ATOM      4  N   UNL A   1      32.653  21.862  23.209  1.00  0.00    -0.351 N 
ATOM      5  C   UNL A   1      32.925  23.190  23.213  1.00  0.00     0.278 C 
ATOM      6  O   UNL A   1      33.184  23.534  22.031  1.00  0.00    -0.268 OA
ATOM      7  H   UNL A   1      32.347  21.633  22.301  1.00  0.00     0.163 HD
BRANCH   5   8
ATOM      8  C   UNL A   1      33.061  24.378  24.270  1.00  0.00     0.273 C 
BRANCH   8   9
ATOM      9  N   UNL A   1      31.927  25.030  24.989  1.00  0.00    -0.324 N 
ATOM     10  H   UNL A   1      32.391  24.999  25.898  1.00  0.00     0.348 HD
BRANCH   9  11
ATOM     11  C   UNL A   1      30.710  24.311  25.248  1.00  0.00     0.262 C 
BRANCH  11  12
ATOM     12  C   UNL A   1      30.851  23.340  26.392  1.00  0.00     0.058 C 
ATOM     13  C   UNL A   1      29.609  22.881  27.142  1.00  0.00     0.010 C 
ENDBRANCH  11  12
ENDBRANCH   9  11
BRANCH   9  14
ATOM     14  C   UNL A   1      31.652  26.447  24.646  1.00  0.00     0.266 C 
BRANCH  14  15
ATOM     15  C   UNL A   1      31.487  26.682  23.115  1.00  0.00     0.055 C 
ATOM     16  C   UNL A   1      32.718  27.244  22.385  1.00  0.00     0.071 C 
ATOM     17  C   UNL A   1      30.284  27.584  22.779  1.00  0.00     0.071 C 
ATOM     18  C   UNL A   1      32.934  28.734  22.624  1.00  0.00     0.261 C 
ATOM     19  C   UNL A   1      30.577  29.079  22.942  1.00  0.00     0.261 C 
ATOM     20  N   UNL A   1      31.765  29.493  22.197  1.00  0.00    -0.346 N 
ATOM     21  H   UNL A   1      31.609  29.335  21.202  1.00  0.00     0.346 HD
ATOM     22  H   UNL A   1      31.935  30.483  22.377  1.00  0.00     0.346 HD
ENDBRANCH  14  15
ENDBRANCH   9  14
ENDBRANCH   8   9
BRANCH   8  23
ATOM     23  C   UNL A   1      34.372  24.416  25.107  1.00  0.00     0.072 C 
ATOM     24  C   UNL A   1      35.645  23.828  24.495  1.00  0.00     0.011 C 
ENDBRANCH   8  23
ENDBRANCH   5   8
ENDBRANCH   3   4
ENDBRANCH   2   3
ENDBRANCH   1   2
BRANCH   1  25
ATOM     25  C   UNL A   1      36.324  20.516  24.978  1.00  0.00     0.002 C 
BRANCH  25  26
ATOM     26  C   UNL A   1      37.629  19.709  24.966  1.00  0.00     0.021 C 
BRANCH  26  27
ATOM     27  C   UNL A   1      38.840  20.301  25.678  1.00  0.00     0.116 C 
BRANCH  27  28
ATOM     28  N   UNL A   1      39.957  19.378  25.758  1.00  0.00    -0.352 N 
ATOM     29  C   UNL A   1      41.271  19.601  26.079  1.00  0.00     0.251 C 
ATOM     30  H   UNL A   1      39.735  18.442  25.549  1.00  0.00     0.163 HD
ATOM     31  O   UNL A   1      42.102  18.715  25.919  1.00  0.00    -0.269 OA
BRANCH  29  32
ATOM     32  C   UNL A   1      41.695  20.915  26.607  1.00  0.00     0.039 A 
ATOM     33  C   UNL A   1      42.220  21.859  25.720  1.00  0.00     0.014 A 
ATOM     34  C   UNL A   1      41.600  21.205  27.971  1.00  0.00     0.014 A 
ATOM     35  C   UNL A   1      42.591  23.118  26.191  1.00  0.00     0.010 A 
ATOM     36  C   UNL A   1      41.909  22.483  28.428  1.00  0.00     0.010 A 
ATOM     37  C   UNL A   1      42.406  23.450  27.542  1.00  0.00    -0.014 A 
BRANCH  37  38
ATOM     38  C   UNL A   1      42.706  24.812  28.045  1.00  0.00     0.031 A 
ATOM     39  C   UNL A   1      44.102  25.171  28.468  1.00  0.00     0.074 A 
ATOM     40  C   UNL A   1      41.702  25.698  28.182  1.00  0.00     0.049 A 
ATOM     41  N   UNL A   1      44.544  26.286  28.991  1.00  0.00    -0.248 NA
ATOM     42  C   UNL A   1      45.132  24.132  28.306  1.00  0.00     0.031 C 
ATOM     43  C   UNL A   1      40.299  25.449  27.839  1.00  0.00     0.029 A 
ATOM     44  N   UNL A   1      41.703  26.986  28.656  1.00  0.00    -0.354 N 
ATOM     45  C   UNL A   1      45.895  26.078  29.233  1.00  0.00     0.074 A 
ATOM     46  C   UNL A   1      46.191  24.716  28.847  1.00  0.00     0.031 C 
ATOM     47  C   UNL A   1      39.582  26.556  28.088  1.00  0.00     0.029 A 
ATOM     48  C   UNL A   1      40.461  27.575  28.651  1.00  0.00     0.049 A 
ATOM     49  H   UNL A   1      42.516  27.445  28.969  1.00  0.00     0.167 HD
ATOM     50  C   UNL A   1      46.812  26.950  29.716  1.00  0.00     0.031 A 
ATOM     51  C   UNL A   1      40.073  28.795  29.064  1.00  0.00     0.031 A 
ATOM     52  C   UNL A   1      46.509  28.304  30.097  1.00  0.00     0.049 A 
ATOM     53  C   UNL A   1      41.105  29.733  29.627  1.00  0.00     0.074 A 
ATOM     54  C   UNL A   1      47.373  29.288  30.544  1.00  0.00     0.029 A 
ATOM     55  N   UNL A   1      45.240  28.862  30.082  1.00  0.00    -0.354 N 
ATOM     56  N   UNL A   1      42.394  29.549  29.777  1.00  0.00    -0.248 NA
ATOM     57  C   UNL A   1      40.627  31.050  30.072  1.00  0.00     0.031 C 
ATOM     58  C   UNL A   1      46.617  30.422  30.858  1.00  0.00     0.029 A 
ATOM     59  C   UNL A   1      45.291  30.165  30.546  1.00  0.00     0.049 A 
ATOM     60  H   UNL A   1      44.422  28.399  29.785  1.00  0.00     0.167 HD
ATOM     61  C   UNL A   1      42.886  30.731  30.314  1.00  0.00     0.074 A 
ATOM     62  C   UNL A   1      41.759  31.633  30.442  1.00  0.00     0.031 C 
ATOM     63  C   UNL A   1      44.156  31.042  30.672  1.00  0.00     0.031 A 
BRANCH  50  64
ATOM     64  C   UNL A   1      48.225  26.459  29.872  1.00  0.00    -0.014 A 
ATOM     65  C   UNL A   1      49.168  26.613  28.843  1.00  0.00     0.009 A 
ATOM     66  C   UNL A   1      48.629  25.863  31.076  1.00  0.00     0.009 A 
ATOM     67  C   UNL A   1      50.475  26.146  29.003  1.00  0.00     0.001 A 
ATOM     68  C   UNL A   1      49.945  25.424  31.245  1.00  0.00     0.001 A 
ATOM     69  C   UNL A   1      50.863  25.557  30.205  1.00  0.00     0.000 A 
ENDBRANCH  50  64
BRANCH  51  70
ATOM     70  C   UNL A   1      38.647  29.202  28.960  1.00  0.00    -0.014 A 
ATOM     71  C   UNL A   1      37.782  29.055  30.055  1.00  0.00     0.009 A 
ATOM     72  C   UNL A   1      38.143  29.740  27.765  1.00  0.00     0.009 A 
ATOM     73  C   UNL A   1      36.436  29.412  29.948  1.00  0.00     0.001 A 
ATOM     74  C   UNL A   1      36.804  30.126  27.670  1.00  0.00     0.001 A 
ATOM     75  C   UNL A   1      35.949  29.952  28.759  1.00  0.00     0.000 A 
ENDBRANCH  51  70
BRANCH  63  76
ATOM     76  C   UNL A   1      44.395  32.422  31.216  1.00  0.00    -0.014 A 
ATOM     77  C   UNL A   1      44.348  32.678  32.596  1.00  0.00     0.009 A 
ATOM     78  C   UNL A   1      44.722  33.468  30.340  1.00  0.00     0.009 A 
ATOM     79  C   UNL A   1      44.595  33.962  33.082  1.00  0.00     0.001 A 
ATOM     80  C   UNL A   1      44.999  34.744  30.832  1.00  0.00     0.001 A 
ATOM     81  C   UNL A   1      44.926  34.991  32.202  1.00  0.00     0.000 A 
ENDBRANCH  63  76
ENDBRANCH  37  38
ENDBRANCH  29  32
ENDBRANCH  27  28
ENDBRANCH  26  27
ENDBRANCH  25  26
ENDBRANCH   1  25
TORSDOF 19
ENDMDL
