MODEL 1
REMARK VINA RESULT:     -12.0      0.000      0.000
REMARK SMILES Cc1c(CC(=O)N[C@@H](CCO)C(=O)NCCCCCCNC(=O)c2ccc(-c3c4nc(c(-c5ccccc5)c5ccc([nH]5)c(-c5ccccc5)c5nc(c(-c6ccccc6)c6ccc3[nH]6)C=C5)C=C4)cc2)cc(-c2ccc(S(C)(=O)=O)cc2)n1-c1ccc(F)cc1
REMARK SMILES IDX 16 1 15 2 14 3 12 4 13 5 8 7 7 8 5 9 6 10 4 12 3 13 1 14
REMARK SMILES IDX 2 15 84 16 72 17 73 18 85 19 86 20 91 21 87 22 90 23 88 24
REMARK SMILES IDX 89 25 74 26 75 27 83 28 76 29 82 30 77 31 78 32 79 33 80 34
REMARK SMILES IDX 81 35 9 36 10 37 11 38 17 40 18 41 19 42 20 43 21 44 22 45
REMARK SMILES IDX 23 47 24 48 25 49 71 50 26 51 70 52 27 53 28 54 29 55 64 56
REMARK SMILES IDX 30 57 69 58 63 59 65 60 31 61 68 62 62 63 61 64 32 66 54 67
REMARK SMILES IDX 39 68 53 69 40 70 43 71 52 72 66 73 41 74 42 75 51 77 67 78
REMARK SMILES IDX 44 79 33 80 34 81 38 82 35 83 37 84 36 85 55 86 56 87 60 88
REMARK SMILES IDX 57 89 59 90 58 91 45 92 46 93 50 94 47 95 49 96 48 97
REMARK H PARENT 14 6 7 11 11 39 21 46 65 65 43 76
REMARK Flexibility Score: inf
ROOT
ATOM      1  C   UNL A   1      32.268  29.166  27.020  1.00  0.00     0.021 C 
ENDROOT
BRANCH   1   2
ATOM      2  C   UNL A   1      31.539  29.841  25.874  1.00  0.00     0.116 C 
BRANCH   2   3
ATOM      3  N   UNL A   1      32.217  29.661  24.610  1.00  0.00    -0.354 N 
ATOM      4  C   UNL A   1      31.830  29.049  23.459  1.00  0.00     0.242 C 
ATOM      5  O   UNL A   1      32.563  29.203  22.478  1.00  0.00    -0.273 OA
ATOM      6  H   UNL A   1      33.120  30.051  24.576  1.00  0.00     0.163 HD
BRANCH   4   7
ATOM      7  C   UNL A   1      30.476  28.329  23.306  1.00  0.00     0.173 C 
BRANCH   7   8
ATOM      8  N   UNL A   1      30.084  27.549  24.484  1.00  0.00    -0.344 N 
ATOM      9  C   UNL A   1      30.002  26.190  24.613  1.00  0.00     0.225 C 
ATOM     10  O   UNL A   1      29.821  25.734  25.744  1.00  0.00    -0.275 OA
ATOM     11  H   UNL A   1      29.850  28.071  25.286  1.00  0.00     0.164 HD
BRANCH   9  12
ATOM     12  C   UNL A   1      30.133  25.280  23.397  1.00  0.00     0.137 C 
BRANCH  12  13
ATOM     13  C   UNL A   1      31.263  24.303  23.543  1.00  0.00    -0.017 A 
ATOM     14  C   UNL A   1      33.223  25.919  24.057  1.00  0.00     0.065 C 
ATOM     15  C   UNL A   1      32.579  24.580  23.889  1.00  0.00     0.024 A 
ATOM     16  N   UNL A   1      33.258  23.374  24.023  1.00  0.00    -0.314 N 
ATOM     17  C   UNL A   1      31.170  22.898  23.377  1.00  0.00     0.033 A 
ATOM     18  C   UNL A   1      32.383  22.330  23.722  1.00  0.00     0.053 A 
BRANCH  16  19
ATOM     19  C   UNL A   1      34.617  23.226  24.412  1.00  0.00     0.046 A 
ATOM     20  C   UNL A   1      35.576  22.883  23.449  1.00  0.00     0.029 A 
ATOM     21  C   UNL A   1      34.979  23.377  25.758  1.00  0.00     0.029 A 
ATOM     22  C   UNL A   1      36.901  22.695  23.835  1.00  0.00     0.041 A 
ATOM     23  C   UNL A   1      36.305  23.169  26.136  1.00  0.00     0.041 A 
ATOM     24  C   UNL A   1      37.251  22.834  25.174  1.00  0.00     0.123 A 
ATOM     25  F   UNL A   1      38.523  22.633  25.543  1.00  0.00    -0.207 F 
ENDBRANCH  16  19
BRANCH  18  26
ATOM     26  C   UNL A   1      32.681  20.899  23.860  1.00  0.00    -0.001 A 
ATOM     27  C   UNL A   1      33.356  20.401  24.987  1.00  0.00     0.011 A 
ATOM     28  C   UNL A   1      32.270  20.004  22.863  1.00  0.00     0.011 A 
ATOM     29  C   UNL A   1      33.665  19.042  25.091  1.00  0.00     0.021 A 
ATOM     30  C   UNL A   1      32.573  18.645  22.960  1.00  0.00     0.021 A 
ATOM     31  C   UNL A   1      33.285  18.174  24.063  1.00  0.00     0.067 A 
BRANCH  31  32
ATOM     32  S   UNL A   1      33.684  16.448  24.203  1.00  0.00     0.175 S 
ATOM     33  C   UNL A   1      35.094  16.416  25.279  1.00  0.00     0.163 C 
ATOM     34  O   UNL A   1      32.583  15.804  24.863  1.00  0.00    -0.224 OA
ATOM     35  O   UNL A   1      34.142  16.000  22.885  1.00  0.00    -0.224 OA
ENDBRANCH  31  32
ENDBRANCH  18  26
ENDBRANCH  12  13
ENDBRANCH   9  12
ENDBRANCH   7   8
BRANCH   7  36
ATOM     36  C   UNL A   1      29.341  29.186  22.707  1.00  0.00     0.063 C 
BRANCH  36  37
ATOM     37  C   UNL A   1      27.895  28.872  23.064  1.00  0.00     0.158 C 
BRANCH  37  38
ATOM     38  O   UNL A   1      26.992  29.910  22.720  1.00  0.00    -0.396 OA
ATOM     39  H   UNL A   1      26.784  30.433  23.512  1.00  0.00     0.210 HD
ENDBRANCH  37  38
ENDBRANCH  36  37
ENDBRANCH   7  36
ENDBRANCH   4   7
ENDBRANCH   2   3
ENDBRANCH   1   2
BRANCH   1  40
ATOM     40  C   UNL A   1      33.606  29.811  27.388  1.00  0.00     0.002 C 
BRANCH  40  41
ATOM     41  C   UNL A   1      33.593  31.321  27.671  1.00  0.00     0.002 C 
BRANCH  41  42
ATOM     42  C   UNL A   1      34.938  32.074  27.687  1.00  0.00     0.021 C 
BRANCH  42  43
ATOM     43  C   UNL A   1      35.170  33.154  28.760  1.00  0.00     0.116 C 
BRANCH  43  44
ATOM     44  N   UNL A   1      34.367  33.037  29.953  1.00  0.00    -0.352 N 
ATOM     45  C   UNL A   1      34.774  32.559  31.189  1.00  0.00     0.251 C 
ATOM     46  H   UNL A   1      33.429  33.327  29.881  1.00  0.00     0.163 HD
ATOM     47  O   UNL A   1      33.993  32.654  32.134  1.00  0.00    -0.269 OA
BRANCH  45  48
ATOM     48  C   UNL A   1      36.090  31.840  31.379  1.00  0.00     0.039 A 
ATOM     49  C   UNL A   1      37.134  32.182  30.538  1.00  0.00     0.014 A 
ATOM     50  C   UNL A   1      36.284  30.695  32.176  1.00  0.00     0.014 A 
ATOM     51  C   UNL A   1      38.342  31.425  30.535  1.00  0.00     0.010 A 
ATOM     52  C   UNL A   1      37.495  29.874  32.104  1.00  0.00     0.010 A 
ATOM     53  C   UNL A   1      38.573  30.195  31.257  1.00  0.00    -0.014 A 
BRANCH  53  54
ATOM     54  C   UNL A   1      39.692  29.204  30.627  1.00  0.00     0.031 A 
ATOM     55  C   UNL A   1      40.761  29.238  31.663  1.00  0.00     0.074 A 
ATOM     56  C   UNL A   1      40.082  28.487  29.494  1.00  0.00     0.049 A 
ATOM     57  N   UNL A   1      41.294  30.385  31.964  1.00  0.00    -0.248 NA
ATOM     58  C   UNL A   1      40.969  28.177  32.648  1.00  0.00     0.031 C 
ATOM     59  C   UNL A   1      39.428  28.418  28.178  1.00  0.00     0.029 A 
ATOM     60  N   UNL A   1      41.196  27.614  29.250  1.00  0.00    -0.354 N 
ATOM     61  C   UNL A   1      42.097  30.168  33.053  1.00  0.00     0.074 A 
ATOM     62  C   UNL A   1      41.696  28.855  33.545  1.00  0.00     0.031 C 
ATOM     63  C   UNL A   1      40.020  27.489  27.366  1.00  0.00     0.029 A 
ATOM     64  C   UNL A   1      41.175  26.871  28.016  1.00  0.00     0.049 A 
ATOM     65  H   UNL A   1      41.937  27.527  29.894  1.00  0.00     0.167 HD
ATOM     66  C   UNL A   1      43.351  30.699  32.977  1.00  0.00     0.031 A 
ATOM     67  C   UNL A   1      42.033  25.895  27.514  1.00  0.00     0.031 A 
ATOM     68  C   UNL A   1      44.310  29.700  32.587  1.00  0.00     0.049 A 
ATOM     69  C   UNL A   1      43.334  26.090  28.166  1.00  0.00     0.074 A 
ATOM     70  C   UNL A   1      44.532  28.403  33.008  1.00  0.00     0.029 A 
ATOM     71  N   UNL A   1      44.834  29.802  31.314  1.00  0.00    -0.354 N 
ATOM     72  N   UNL A   1      44.154  27.007  27.753  1.00  0.00    -0.248 NA
ATOM     73  C   UNL A   1      43.858  25.199  29.194  1.00  0.00     0.031 C 
ATOM     74  C   UNL A   1      44.681  27.666  31.813  1.00  0.00     0.029 A 
ATOM     75  C   UNL A   1      44.946  28.541  30.766  1.00  0.00     0.049 A 
ATOM     76  H   UNL A   1      45.089  30.642  30.869  1.00  0.00     0.167 HD
ATOM     77  C   UNL A   1      44.983  27.161  28.819  1.00  0.00     0.074 A 
ATOM     78  C   UNL A   1      44.966  25.879  29.499  1.00  0.00     0.031 C 
ATOM     79  C   UNL A   1      45.076  28.414  29.334  1.00  0.00     0.031 A 
BRANCH  66  80
ATOM     80  C   UNL A   1      43.385  32.129  32.500  1.00  0.00    -0.014 A 
ATOM     81  C   UNL A   1      42.883  33.136  33.329  1.00  0.00     0.009 A 
ATOM     82  C   UNL A   1      43.768  32.478  31.187  1.00  0.00     0.009 A 
ATOM     83  C   UNL A   1      42.703  34.434  32.835  1.00  0.00     0.001 A 
ATOM     84  C   UNL A   1      43.546  33.758  30.681  1.00  0.00     0.001 A 
ATOM     85  C   UNL A   1      43.006  34.736  31.506  1.00  0.00     0.000 A 
ENDBRANCH  66  80
BRANCH  67  86
ATOM     86  C   UNL A   1      42.225  24.831  26.404  1.00  0.00    -0.014 A 
ATOM     87  C   UNL A   1      43.252  25.018  25.415  1.00  0.00     0.009 A 
ATOM     88  C   UNL A   1      41.781  23.510  26.533  1.00  0.00     0.009 A 
ATOM     89  C   UNL A   1      43.875  23.967  24.715  1.00  0.00     0.001 A 
ATOM     90  C   UNL A   1      42.384  22.450  25.796  1.00  0.00     0.001 A 
ATOM     91  C   UNL A   1      43.450  22.670  24.921  1.00  0.00     0.000 A 
ENDBRANCH  67  86
BRANCH  79  92
ATOM     92  C   UNL A   1      45.063  29.576  28.348  1.00  0.00    -0.014 A 
ATOM     93  C   UNL A   1      46.209  30.225  27.832  1.00  0.00     0.009 A 
ATOM     94  C   UNL A   1      43.820  30.097  27.963  1.00  0.00     0.009 A 
ATOM     95  C   UNL A   1      46.118  31.378  27.041  1.00  0.00     0.001 A 
ATOM     96  C   UNL A   1      43.726  31.217  27.127  1.00  0.00     0.001 A 
ATOM     97  C   UNL A   1      44.872  31.871  26.685  1.00  0.00     0.000 A 
ENDBRANCH  79  92
ENDBRANCH  53  54
ENDBRANCH  45  48
ENDBRANCH  43  44
ENDBRANCH  42  43
ENDBRANCH  41  42
ENDBRANCH  40  41
ENDBRANCH   1  40
TORSDOF 22
ENDMDL
MODEL 2
REMARK VINA RESULT:     -11.7      1.734      2.565
REMARK SMILES Cc1c(CC(=O)N[C@@H](CCO)C(=O)NCCCCCCNC(=O)c2ccc(-c3c4nc(c(-c5ccccc5)c5ccc([nH]5)c(-c5ccccc5)c5nc(c(-c6ccccc6)c6ccc3[nH]6)C=C5)C=C4)cc2)cc(-c2ccc(S(C)(=O)=O)cc2)n1-c1ccc(F)cc1
REMARK SMILES IDX 16 1 15 2 14 3 12 4 13 5 8 7 7 8 5 9 6 10 4 12 3 13 1 14
REMARK SMILES IDX 2 15 84 16 72 17 73 18 85 19 86 20 91 21 87 22 90 23 88 24
REMARK SMILES IDX 89 25 74 26 75 27 83 28 76 29 82 30 77 31 78 32 79 33 80 34
REMARK SMILES IDX 81 35 9 36 10 37 11 38 17 40 18 41 19 42 20 43 21 44 22 45
REMARK SMILES IDX 23 47 24 48 25 49 71 50 26 51 70 52 27 53 28 54 29 55 64 56
REMARK SMILES IDX 30 57 69 58 63 59 65 60 31 61 68 62 62 63 61 64 32 66 54 67
REMARK SMILES IDX 39 68 53 69 40 70 43 71 52 72 66 73 41 74 42 75 51 77 67 78
REMARK SMILES IDX 44 79 33 80 34 81 38 82 35 83 37 84 36 85 55 86 56 87 60 88
REMARK SMILES IDX 57 89 59 90 58 91 45 92 46 93 50 94 47 95 49 96 48 97
REMARK H PARENT 14 6 7 11 11 39 21 46 65 65 43 76
REMARK Flexibility Score: inf
ROOT
ATOM      1  C   UNL A   1      34.659  30.099  27.056  1.00  0.00     0.021 C 
ENDROOT
BRANCH   1   2
ATOM      2  C   UNL A   1      33.226  30.095  26.556  1.00  0.00     0.116 C 
BRANCH   2   3
ATOM      3  N   UNL A   1      32.440  29.037  27.151  1.00  0.00    -0.354 N 
ATOM      4  C   UNL A   1      31.538  28.174  26.612  1.00  0.00     0.242 C 
ATOM      5  O   UNL A   1      31.148  27.258  27.342  1.00  0.00    -0.273 OA
ATOM      6  H   UNL A   1      32.584  28.921  28.117  1.00  0.00     0.163 HD
BRANCH   4   7
ATOM      7  C   UNL A   1      31.125  28.209  25.129  1.00  0.00     0.173 C 
BRANCH   7   8
ATOM      8  N   UNL A   1      29.921  27.426  24.831  1.00  0.00    -0.344 N 
ATOM      9  C   UNL A   1      29.728  26.515  23.830  1.00  0.00     0.225 C 
ATOM     10  O   UNL A   1      28.697  25.839  23.864  1.00  0.00    -0.275 OA
ATOM     11  H   UNL A   1      29.154  27.575  25.430  1.00  0.00     0.164 HD
BRANCH   9  12
ATOM     12  C   UNL A   1      30.755  26.347  22.716  1.00  0.00     0.137 C 
BRANCH  12  13
ATOM     13  C   UNL A   1      31.731  25.246  23.011  1.00  0.00    -0.017 A 
ATOM     14  C   UNL A   1      33.861  26.628  23.531  1.00  0.00     0.065 C 
ATOM     15  C   UNL A   1      33.051  25.375  23.422  1.00  0.00     0.024 A 
ATOM     16  N   UNL A   1      33.551  24.106  23.691  1.00  0.00    -0.314 N 
ATOM     17  C   UNL A   1      31.456  23.856  22.946  1.00  0.00     0.033 A 
ATOM     18  C   UNL A   1      32.560  23.164  23.412  1.00  0.00     0.053 A 
BRANCH  16  19
ATOM     19  C   UNL A   1      34.853  23.813  24.180  1.00  0.00     0.046 A 
ATOM     20  C   UNL A   1      35.780  23.185  23.338  1.00  0.00     0.029 A 
ATOM     21  C   UNL A   1      35.183  24.112  25.510  1.00  0.00     0.029 A 
ATOM     22  C   UNL A   1      37.043  22.858  23.828  1.00  0.00     0.041 A 
ATOM     23  C   UNL A   1      36.444  23.765  25.995  1.00  0.00     0.041 A 
ATOM     24  C   UNL A   1      37.360  23.146  25.151  1.00  0.00     0.123 A 
ATOM     25  F   UNL A   1      38.568  22.813  25.623  1.00  0.00    -0.207 F 
ENDBRANCH  16  19
BRANCH  18  26
ATOM     26  C   UNL A   1      32.651  21.723  23.679  1.00  0.00    -0.001 A 
ATOM     27  C   UNL A   1      33.057  21.239  24.933  1.00  0.00     0.011 A 
ATOM     28  C   UNL A   1      32.312  20.809  22.673  1.00  0.00     0.011 A 
ATOM     29  C   UNL A   1      33.173  19.865  25.163  1.00  0.00     0.021 A 
ATOM     30  C   UNL A   1      32.425  19.435  22.895  1.00  0.00     0.021 A 
ATOM     31  C   UNL A   1      32.873  18.971  24.131  1.00  0.00     0.067 A 
BRANCH  31  32
ATOM     32  S   UNL A   1      33.027  17.226  24.433  1.00  0.00     0.175 S 
ATOM     33  C   UNL A   1      34.736  17.010  24.857  1.00  0.00     0.163 C 
ATOM     34  O   UNL A   1      32.222  16.915  25.581  1.00  0.00    -0.224 OA
ATOM     35  O   UNL A   1      32.814  16.544  23.154  1.00  0.00    -0.224 OA
ENDBRANCH  31  32
ENDBRANCH  18  26
ENDBRANCH  12  13
ENDBRANCH   9  12
ENDBRANCH   7   8
BRANCH   7  36
ATOM     36  C   UNL A   1      31.151  29.605  24.473  1.00  0.00     0.063 C 
BRANCH  36  37
ATOM     37  C   UNL A   1      29.899  30.136  23.787  1.00  0.00     0.158 C 
BRANCH  37  38
ATOM     38  O   UNL A   1      29.665  31.513  24.030  1.00  0.00    -0.396 OA
ATOM     39  H   UNL A   1      29.821  32.017  23.214  1.00  0.00     0.210 HD
ENDBRANCH  37  38
ENDBRANCH  36  37
ENDBRANCH   7  36
ENDBRANCH   4   7
ENDBRANCH   2   3
ENDBRANCH   1   2
BRANCH   1  40
ATOM     40  C   UNL A   1      34.981  31.218  28.048  1.00  0.00     0.002 C 
BRANCH  40  41
ATOM     41  C   UNL A   1      34.104  32.478  27.981  1.00  0.00     0.002 C 
BRANCH  41  42
ATOM     42  C   UNL A   1      34.608  33.758  28.676  1.00  0.00     0.021 C 
BRANCH  42  43
ATOM     43  C   UNL A   1      36.035  33.774  29.254  1.00  0.00     0.116 C 
BRANCH  43  44
ATOM     44  N   UNL A   1      36.153  33.418  30.647  1.00  0.00    -0.352 N 
ATOM     45  C   UNL A   1      37.077  32.554  31.213  1.00  0.00     0.251 C 
ATOM     46  H   UNL A   1      35.506  33.834  31.262  1.00  0.00     0.163 HD
ATOM     47  O   UNL A   1      37.118  32.469  32.439  1.00  0.00    -0.269 OA
BRANCH  45  48
ATOM     48  C   UNL A   1      37.950  31.650  30.373  1.00  0.00     0.039 A 
ATOM     49  C   UNL A   1      37.437  30.415  30.015  1.00  0.00     0.014 A 
ATOM     50  C   UNL A   1      39.320  31.851  30.116  1.00  0.00     0.014 A 
ATOM     51  C   UNL A   1      38.263  29.441  29.383  1.00  0.00     0.010 A 
ATOM     52  C   UNL A   1      40.181  30.813  29.545  1.00  0.00     0.010 A 
ATOM     53  C   UNL A   1      39.689  29.547  29.172  1.00  0.00    -0.014 A 
BRANCH  53  54
ATOM     54  C   UNL A   1      40.494  28.143  29.061  1.00  0.00     0.031 A 
ATOM     55  C   UNL A   1      41.562  28.312  30.085  1.00  0.00     0.074 A 
ATOM     56  C   UNL A   1      40.654  26.967  28.326  1.00  0.00     0.049 A 
ATOM     57  N   UNL A   1      42.382  29.314  29.964  1.00  0.00    -0.248 NA
ATOM     58  C   UNL A   1      41.511  27.707  31.416  1.00  0.00     0.031 C 
ATOM     59  C   UNL A   1      39.971  26.553  27.090  1.00  0.00     0.029 A 
ATOM     60  N   UNL A   1      41.496  25.820  28.525  1.00  0.00    -0.354 N 
ATOM     61  C   UNL A   1      43.129  29.347  31.112  1.00  0.00     0.074 A 
ATOM     62  C   UNL A   1      42.412  28.478  32.038  1.00  0.00     0.031 C 
ATOM     63  C   UNL A   1      40.279  25.266  26.747  1.00  0.00     0.029 A 
ATOM     64  C   UNL A   1      41.250  24.684  27.674  1.00  0.00     0.049 A 
ATOM     65  H   UNL A   1      42.205  25.811  29.209  1.00  0.00     0.167 HD
ATOM     66  C   UNL A   1      44.475  29.475  30.938  1.00  0.00     0.031 A 
ATOM     67  C   UNL A   1      41.811  23.409  27.655  1.00  0.00     0.031 A 
ATOM     68  C   UNL A   1      45.130  28.198  31.038  1.00  0.00     0.049 A 
ATOM     69  C   UNL A   1      43.134  23.513  28.283  1.00  0.00     0.074 A 
ATOM     70  C   UNL A   1      45.019  27.159  31.942  1.00  0.00     0.029 A 
ATOM     71  N   UNL A   1      45.631  27.660  29.870  1.00  0.00    -0.354 N 
ATOM     72  N   UNL A   1      44.154  23.959  27.616  1.00  0.00    -0.248 NA
ATOM     73  C   UNL A   1      43.435  22.996  29.613  1.00  0.00     0.031 C 
ATOM     74  C   UNL A   1      44.939  26.001  31.138  1.00  0.00     0.029 A 
ATOM     75  C   UNL A   1      45.395  26.300  29.860  1.00  0.00     0.049 A 
ATOM     76  H   UNL A   1      46.083  28.165  29.158  1.00  0.00     0.167 HD
ATOM     77  C   UNL A   1      45.022  24.306  28.602  1.00  0.00     0.074 A 
ATOM     78  C   UNL A   1      44.690  23.441  29.719  1.00  0.00     0.031 C 
ATOM     79  C   UNL A   1      45.451  25.594  28.602  1.00  0.00     0.031 A 
BRANCH  66  80
ATOM     80  C   UNL A   1      44.869  30.546  29.951  1.00  0.00    -0.014 A 
ATOM     81  C   UNL A   1      44.768  31.888  30.328  1.00  0.00     0.009 A 
ATOM     82  C   UNL A   1      45.194  30.255  28.609  1.00  0.00     0.009 A 
ATOM     83  C   UNL A   1      44.917  32.903  29.374  1.00  0.00     0.001 A 
ATOM     84  C   UNL A   1      45.297  31.261  27.651  1.00  0.00     0.001 A 
ATOM     85  C   UNL A   1      45.151  32.588  28.034  1.00  0.00     0.000 A 
ENDBRANCH  66  80
BRANCH  67  86
ATOM     86  C   UNL A   1      41.691  21.984  27.058  1.00  0.00    -0.014 A 
ATOM     87  C   UNL A   1      42.625  21.558  26.052  1.00  0.00     0.009 A 
ATOM     88  C   UNL A   1      41.032  20.939  27.716  1.00  0.00     0.009 A 
ATOM     89  C   UNL A   1      42.972  20.213  25.816  1.00  0.00     0.001 A 
ATOM     90  C   UNL A   1      41.353  19.576  27.449  1.00  0.00     0.001 A 
ATOM     91  C   UNL A   1      42.343  19.215  26.534  1.00  0.00     0.000 A 
ENDBRANCH  67  86
BRANCH  79  92
ATOM     92  C   UNL A   1      45.715  26.241  27.247  1.00  0.00    -0.014 A 
ATOM     93  C   UNL A   1      46.930  26.165  26.526  1.00  0.00     0.009 A 
ATOM     94  C   UNL A   1      44.703  27.032  26.688  1.00  0.00     0.009 A 
ATOM     95  C   UNL A   1      47.148  26.902  25.355  1.00  0.00     0.001 A 
ATOM     96  C   UNL A   1      44.899  27.727  25.487  1.00  0.00     0.001 A 
ATOM     97  C   UNL A   1      46.127  27.681  24.833  1.00  0.00     0.000 A 
ENDBRANCH  79  92
ENDBRANCH  53  54
ENDBRANCH  45  48
ENDBRANCH  43  44
ENDBRANCH  42  43
ENDBRANCH  41  42
ENDBRANCH  40  41
ENDBRANCH   1  40
TORSDOF 22
ENDMDL
MODEL 3
REMARK VINA RESULT:     -11.0      3.244      7.429
REMARK SMILES Cc1c(CC(=O)N[C@@H](CCO)C(=O)NCCCCCCNC(=O)c2ccc(-c3c4nc(c(-c5ccccc5)c5ccc([nH]5)c(-c5ccccc5)c5nc(c(-c6ccccc6)c6ccc3[nH]6)C=C5)C=C4)cc2)cc(-c2ccc(S(C)(=O)=O)cc2)n1-c1ccc(F)cc1
REMARK SMILES IDX 16 1 15 2 14 3 12 4 13 5 8 7 7 8 5 9 6 10 4 12 3 13 1 14
REMARK SMILES IDX 2 15 84 16 72 17 73 18 85 19 86 20 91 21 87 22 90 23 88 24
REMARK SMILES IDX 89 25 74 26 75 27 83 28 76 29 82 30 77 31 78 32 79 33 80 34
REMARK SMILES IDX 81 35 9 36 10 37 11 38 17 40 18 41 19 42 20 43 21 44 22 45
REMARK SMILES IDX 23 47 24 48 25 49 71 50 26 51 70 52 27 53 28 54 29 55 64 56
REMARK SMILES IDX 30 57 69 58 63 59 65 60 31 61 68 62 62 63 61 64 32 66 54 67
REMARK SMILES IDX 39 68 53 69 40 70 43 71 52 72 66 73 41 74 42 75 51 77 67 78
REMARK SMILES IDX 44 79 33 80 34 81 38 82 35 83 37 84 36 85 55 86 56 87 60 88
REMARK SMILES IDX 57 89 59 90 58 91 45 92 46 93 50 94 47 95 49 96 48 97
REMARK H PARENT 14 6 7 11 11 39 21 46 65 65 43 76
REMARK Flexibility Score: inf
ROOT
ATOM      1  C   UNL A   1      38.292  33.411  29.517  1.00  0.00     0.021 C 
ENDROOT
BRANCH   1   2
ATOM      2  C   UNL A   1      37.441  34.093  30.571  1.00  0.00     0.116 C 
BRANCH   2   3
ATOM      3  N   UNL A   1      36.084  34.313  30.124  1.00  0.00    -0.354 N 
ATOM      4  C   UNL A   1      34.964  33.550  30.236  1.00  0.00     0.242 C 
ATOM      5  O   UNL A   1      33.900  34.079  29.903  1.00  0.00    -0.273 OA
ATOM      6  H   UNL A   1      35.946  35.167  29.656  1.00  0.00     0.163 HD
BRANCH   4   7
ATOM      7  C   UNL A   1      34.961  32.155  30.889  1.00  0.00     0.173 C 
BRANCH   7   8
ATOM      8  N   UNL A   1      35.726  31.150  30.142  1.00  0.00    -0.344 N 
ATOM      9  C   UNL A   1      35.633  30.826  28.817  1.00  0.00     0.225 C 
ATOM     10  O   UNL A   1      36.492  30.074  28.352  1.00  0.00    -0.275 OA
ATOM     11  H   UNL A   1      36.392  30.644  30.662  1.00  0.00     0.164 HD
BRANCH   9  12
ATOM     12  C   UNL A   1      34.507  31.381  27.953  1.00  0.00     0.137 C 
BRANCH  12  13
ATOM     13  C   UNL A   1      33.819  30.305  27.165  1.00  0.00    -0.017 A 
ATOM     14  C   UNL A   1      31.583  31.489  26.599  1.00  0.00     0.065 C 
ATOM     15  C   UNL A   1      32.585  30.381  26.531  1.00  0.00     0.024 A 
ATOM     16  N   UNL A   1      32.386  29.201  25.822  1.00  0.00    -0.314 N 
ATOM     17  C   UNL A   1      34.335  29.011  26.903  1.00  0.00     0.033 A 
ATOM     18  C   UNL A   1      33.476  28.358  26.038  1.00  0.00     0.053 A 
BRANCH  16  19
ATOM     19  C   UNL A   1      31.263  28.905  25.003  1.00  0.00     0.046 A 
ATOM     20  C   UNL A   1      30.689  27.628  25.056  1.00  0.00     0.029 A 
ATOM     21  C   UNL A   1      30.768  29.874  24.119  1.00  0.00     0.029 A 
ATOM     22  C   UNL A   1      29.615  27.321  24.224  1.00  0.00     0.041 A 
ATOM     23  C   UNL A   1      29.703  29.551  23.278  1.00  0.00     0.041 A 
ATOM     24  C   UNL A   1      29.137  28.282  23.340  1.00  0.00     0.123 A 
ATOM     25  F   UNL A   1      28.116  27.977  22.528  1.00  0.00    -0.207 F 
ENDBRANCH  16  19
BRANCH  18  26
ATOM     26  C   UNL A   1      33.704  27.069  25.372  1.00  0.00    -0.001 A 
ATOM     27  C   UNL A   1      33.748  25.870  26.103  1.00  0.00     0.011 A 
ATOM     28  C   UNL A   1      33.864  27.025  23.981  1.00  0.00     0.011 A 
ATOM     29  C   UNL A   1      34.001  24.653  25.462  1.00  0.00     0.021 A 
ATOM     30  C   UNL A   1      34.115  25.814  23.333  1.00  0.00     0.021 A 
ATOM     31  C   UNL A   1      34.202  24.638  24.079  1.00  0.00     0.067 A 
BRANCH  31  32
ATOM     32  S   UNL A   1      34.525  23.087  23.274  1.00  0.00     0.175 S 
ATOM     33  C   UNL A   1      36.296  22.988  23.222  1.00  0.00     0.163 C 
ATOM     34  O   UNL A   1      34.028  22.046  24.130  1.00  0.00    -0.224 OA
ATOM     35  O   UNL A   1      34.064  23.212  21.889  1.00  0.00    -0.224 OA
ENDBRANCH  31  32
ENDBRANCH  18  26
ENDBRANCH  12  13
ENDBRANCH   9  12
ENDBRANCH   7   8
BRANCH   7  36
ATOM     36  C   UNL A   1      35.215  32.141  32.411  1.00  0.00     0.063 C 
BRANCH  36  37
ATOM     37  C   UNL A   1      34.613  33.234  33.283  1.00  0.00     0.158 C 
BRANCH  37  38
ATOM     38  O   UNL A   1      33.195  33.267  33.245  1.00  0.00    -0.396 OA
ATOM     39  H   UNL A   1      32.888  32.988  32.367  1.00  0.00     0.210 HD
ENDBRANCH  37  38
ENDBRANCH  36  37
ENDBRANCH   7  36
ENDBRANCH   4   7
ENDBRANCH   2   3
ENDBRANCH   1   2
BRANCH   1  40
ATOM     40  C   UNL A   1      39.042  32.172  30.011  1.00  0.00     0.002 C 
BRANCH  40  41
ATOM     41  C   UNL A   1      39.304  32.077  31.522  1.00  0.00     0.002 C 
BRANCH  41  42
ATOM     42  C   UNL A   1      39.946  30.788  32.073  1.00  0.00     0.021 C 
BRANCH  42  43
ATOM     43  C   UNL A   1      39.103  29.871  32.979  1.00  0.00     0.116 C 
BRANCH  43  44
ATOM     44  N   UNL A   1      39.284  30.050  34.398  1.00  0.00    -0.352 N 
ATOM     45  C   UNL A   1      40.453  29.865  35.120  1.00  0.00     0.251 C 
ATOM     46  H   UNL A   1      38.492  30.333  34.909  1.00  0.00     0.163 HD
ATOM     47  O   UNL A   1      40.461  30.193  36.305  1.00  0.00    -0.269 OA
BRANCH  45  48
ATOM     48  C   UNL A   1      41.666  29.185  34.526  1.00  0.00     0.039 A 
ATOM     49  C   UNL A   1      42.772  29.971  34.254  1.00  0.00     0.014 A 
ATOM     50  C   UNL A   1      41.693  27.875  34.011  1.00  0.00     0.014 A 
ATOM     51  C   UNL A   1      43.879  29.440  33.530  1.00  0.00     0.010 A 
ATOM     52  C   UNL A   1      42.797  27.366  33.195  1.00  0.00     0.010 A 
ATOM     53  C   UNL A   1      43.935  28.141  32.900  1.00  0.00    -0.014 A 
BRANCH  53  54
ATOM     54  C   UNL A   1      44.947  28.010  31.639  1.00  0.00     0.031 A 
ATOM     55  C   UNL A   1      44.326  28.925  30.642  1.00  0.00     0.074 A 
ATOM     56  C   UNL A   1      46.028  27.307  31.103  1.00  0.00     0.049 A 
ATOM     57  N   UNL A   1      43.104  28.692  30.266  1.00  0.00    -0.248 NA
ATOM     58  C   UNL A   1      44.815  30.276  30.368  1.00  0.00     0.031 C 
ATOM     59  C   UNL A   1      46.748  26.155  31.668  1.00  0.00     0.029 A 
ATOM     60  N   UNL A   1      46.767  27.471  29.882  1.00  0.00    -0.354 N 
ATOM     61  C   UNL A   1      42.718  29.766  29.506  1.00  0.00     0.074 A 
ATOM     62  C   UNL A   1      43.725  30.784  29.778  1.00  0.00     0.031 C 
ATOM     63  C   UNL A   1      47.851  25.833  30.926  1.00  0.00     0.029 A 
ATOM     64  C   UNL A   1      47.968  26.689  29.746  1.00  0.00     0.049 A 
ATOM     65  H   UNL A   1      46.467  28.087  29.175  1.00  0.00     0.167 HD
ATOM     66  C   UNL A   1      42.115  29.465  28.321  1.00  0.00     0.031 A 
ATOM     67  C   UNL A   1      48.944  26.665  28.752  1.00  0.00     0.031 A 
ATOM     68  C   UNL A   1      43.050  29.553  27.231  1.00  0.00     0.049 A 
ATOM     69  C   UNL A   1      48.317  27.166  27.522  1.00  0.00     0.074 A 
ATOM     70  C   UNL A   1      43.992  30.500  26.882  1.00  0.00     0.029 A 
ATOM     71  N   UNL A   1      43.444  28.364  26.650  1.00  0.00    -0.354 N 
ATOM     72  N   UNL A   1      47.573  26.393  26.793  1.00  0.00    -0.248 NA
ATOM     73  C   UNL A   1      48.594  28.481  26.957  1.00  0.00     0.031 C 
ATOM     74  C   UNL A   1      45.150  29.750  26.580  1.00  0.00     0.029 A 
ATOM     75  C   UNL A   1      44.792  28.426  26.360  1.00  0.00     0.049 A 
ATOM     76  H   UNL A   1      42.857  27.596  26.470  1.00  0.00     0.167 HD
ATOM     77  C   UNL A   1      46.864  27.282  26.050  1.00  0.00     0.074 A 
ATOM     78  C   UNL A   1      47.712  28.456  25.955  1.00  0.00     0.031 C 
ATOM     79  C   UNL A   1      45.512  27.195  26.135  1.00  0.00     0.031 A 
BRANCH  66  80
ATOM     80  C   UNL A   1      41.044  28.407  28.427  1.00  0.00    -0.014 A 
ATOM     81  C   UNL A   1      40.020  28.568  29.365  1.00  0.00     0.009 A 
ATOM     82  C   UNL A   1      41.114  27.187  27.720  1.00  0.00     0.009 A 
ATOM     83  C   UNL A   1      39.140  27.512  29.637  1.00  0.00     0.001 A 
ATOM     84  C   UNL A   1      40.268  26.123  28.023  1.00  0.00     0.001 A 
ATOM     85  C   UNL A   1      39.283  26.284  28.989  1.00  0.00     0.000 A 
ENDBRANCH  66  80
BRANCH  67  86
ATOM     86  C   UNL A   1      50.350  26.136  28.373  1.00  0.00    -0.014 A 
ATOM     87  C   UNL A   1      50.502  25.301  27.212  1.00  0.00     0.009 A 
ATOM     88  C   UNL A   1      51.534  26.745  28.806  1.00  0.00     0.009 A 
ATOM     89  C   UNL A   1      51.695  25.191  26.470  1.00  0.00     0.001 A 
ATOM     90  C   UNL A   1      52.751  26.602  28.078  1.00  0.00     0.001 A 
ATOM     91  C   UNL A   1      52.823  25.862  26.896  1.00  0.00     0.000 A 
ENDBRANCH  67  86
BRANCH  79  92
ATOM     92  C   UNL A   1      44.907  25.799  26.227  1.00  0.00    -0.014 A 
ATOM     93  C   UNL A   1      44.708  25.070  27.423  1.00  0.00     0.009 A 
ATOM     94  C   UNL A   1      44.574  25.147  25.032  1.00  0.00     0.009 A 
ATOM     95  C   UNL A   1      44.278  23.737  27.419  1.00  0.00     0.001 A 
ATOM     96  C   UNL A   1      44.091  23.831  25.029  1.00  0.00     0.001 A 
ATOM     97  C   UNL A   1      43.965  23.118  26.218  1.00  0.00     0.000 A 
ENDBRANCH  79  92
ENDBRANCH  53  54
ENDBRANCH  45  48
ENDBRANCH  43  44
ENDBRANCH  42  43
ENDBRANCH  41  42
ENDBRANCH  40  41
ENDBRANCH   1  40
TORSDOF 22
ENDMDL
