MODEL 1
REMARK VINA RESULT:     -11.8      0.000      0.000
REMARK SMILES C[C@@H](C(=O)NCCCCCCNC(=O)c1ccc(-c2c3nc(c(-c4ccccc4)c4ccc([nH]4)c(-c4ccccc4)c4nc(c(-c5ccccc5)c5ccc2[nH]5)C=C4)C=C3)cc1)c1ccc(-c2ccc3[nH]ccc3c2)cc1
REMARK SMILES IDX 8 1 7 2 6 3 5 4 3 5 4 6 2 8 1 9 63 10 64 11 77 12 65 13
REMARK SMILES IDX 76 14 66 15 67 16 68 17 75 18 69 19 74 20 70 21 73 22 71 23
REMARK SMILES IDX 72 24 9 26 10 27 11 28 12 29 13 30 14 32 15 33 16 34 62 35
REMARK SMILES IDX 17 36 61 37 18 38 19 39 20 40 55 41 21 42 60 43 54 44 56 45
REMARK SMILES IDX 22 46 59 47 53 48 52 49 23 51 45 52 30 53 44 54 31 55 34 56
REMARK SMILES IDX 43 57 57 58 32 59 33 60 42 62 58 63 35 64 24 65 25 66 29 67
REMARK SMILES IDX 26 68 28 69 27 70 46 71 47 72 51 73 48 74 50 75 49 76 36 77
REMARK SMILES IDX 37 78 41 79 38 80 40 81 39 82
REMARK H PARENT 5 7 71 25 12 31 56 50 34 61
REMARK Flexibility Score: inf
ROOT
ATOM      1  C   UNL A   1      33.692  26.097  24.573  1.00  0.00     0.002 C 
ENDROOT
BRANCH   1   2
ATOM      2  C   UNL A   1      34.403  25.310  25.683  1.00  0.00     0.021 C 
BRANCH   2   3
ATOM      3  C   UNL A   1      34.331  23.790  25.511  1.00  0.00     0.116 C 
BRANCH   3   4
ATOM      4  N   UNL A   1      33.932  23.166  26.752  1.00  0.00    -0.356 N 
ATOM      5  C   UNL A   1      32.763  22.549  27.086  1.00  0.00     0.227 C 
ATOM      6  O   UNL A   1      32.615  22.273  28.278  1.00  0.00    -0.274 OA
ATOM      7  H   UNL A   1      34.610  23.190  27.466  1.00  0.00     0.163 HD
BRANCH   5   8
ATOM      8  C   UNL A   1      31.740  22.197  25.991  1.00  0.00     0.105 C 
ATOM      9  C   UNL A   1      32.327  21.345  24.863  1.00  0.00     0.023 C 
BRANCH   8  10
ATOM     10  C   UNL A   1      31.093  23.439  25.392  1.00  0.00    -0.036 A 
ATOM     11  C   UNL A   1      31.005  23.593  24.002  1.00  0.00     0.005 A 
ATOM     12  C   UNL A   1      30.578  24.450  26.217  1.00  0.00     0.005 A 
ATOM     13  C   UNL A   1      30.407  24.730  23.455  1.00  0.00     0.009 A 
ATOM     14  C   UNL A   1      29.981  25.584  25.670  1.00  0.00     0.009 A 
ATOM     15  C   UNL A   1      29.885  25.735  24.282  1.00  0.00    -0.018 A 
BRANCH  15  16
ATOM     16  C   UNL A   1      29.226  26.910  23.712  1.00  0.00    -0.018 A 
ATOM     17  C   UNL A   1      27.841  27.074  23.850  1.00  0.00     0.011 A 
ATOM     18  C   UNL A   1      29.975  27.887  23.034  1.00  0.00     0.019 A 
ATOM     19  C   UNL A   1      27.178  28.192  23.334  1.00  0.00     0.027 A 
ATOM     20  C   UNL A   1      29.328  29.013  22.492  1.00  0.00    -0.000 A 
ATOM     21  C   UNL A   1      27.950  29.142  22.660  1.00  0.00     0.045 A 
ATOM     22  C   UNL A   1      29.768  30.143  21.748  1.00  0.00     0.028 A 
ATOM     23  N   UNL A   1      27.578  30.321  22.056  1.00  0.00    -0.361 N 
ATOM     24  C   UNL A   1      28.667  30.927  21.489  1.00  0.00     0.083 A 
ATOM     25  H   UNL A   1      26.661  30.679  22.036  1.00  0.00     0.166 HD
ENDBRANCH  15  16
ENDBRANCH   8  10
ENDBRANCH   5   8
ENDBRANCH   3   4
ENDBRANCH   2   3
ENDBRANCH   1   2
BRANCH   1  26
ATOM     26  C   UNL A   1      33.130  27.455  25.003  1.00  0.00     0.002 C 
BRANCH  26  27
ATOM     27  C   UNL A   1      34.084  28.310  25.839  1.00  0.00     0.021 C 
BRANCH  27  28
ATOM     28  C   UNL A   1      33.622  28.550  27.271  1.00  0.00     0.116 C 
BRANCH  28  29
ATOM     29  N   UNL A   1      33.529  29.966  27.583  1.00  0.00    -0.352 N 
ATOM     30  C   UNL A   1      34.448  30.784  28.187  1.00  0.00     0.251 C 
ATOM     31  H   UNL A   1      32.684  30.400  27.322  1.00  0.00     0.163 HD
ATOM     32  O   UNL A   1      34.125  31.911  28.548  1.00  0.00    -0.269 OA
BRANCH  30  33
ATOM     33  C   UNL A   1      35.828  30.304  28.415  1.00  0.00     0.039 A 
ATOM     34  C   UNL A   1      36.137  29.708  29.640  1.00  0.00     0.014 A 
ATOM     35  C   UNL A   1      36.821  30.472  27.446  1.00  0.00     0.014 A 
ATOM     36  C   UNL A   1      37.435  29.254  29.881  1.00  0.00     0.010 A 
ATOM     37  C   UNL A   1      38.094  29.951  27.658  1.00  0.00     0.010 A 
ATOM     38  C   UNL A   1      38.420  29.358  28.886  1.00  0.00    -0.014 A 
BRANCH  38  39
ATOM     39  C   UNL A   1      39.806  28.889  29.132  1.00  0.00     0.031 A 
ATOM     40  C   UNL A   1      40.798  29.793  29.813  1.00  0.00     0.074 A 
ATOM     41  C   UNL A   1      40.185  27.667  28.711  1.00  0.00     0.049 A 
ATOM     42  N   UNL A   1      42.055  29.570  30.106  1.00  0.00    -0.248 NA
ATOM     43  C   UNL A   1      40.324  31.135  30.191  1.00  0.00     0.031 C 
ATOM     44  C   UNL A   1      39.330  26.709  28.008  1.00  0.00     0.029 A 
ATOM     45  N   UNL A   1      41.390  27.021  28.821  1.00  0.00    -0.354 N 
ATOM     46  C   UNL A   1      42.523  30.746  30.679  1.00  0.00     0.074 A 
ATOM     47  C   UNL A   1      41.433  31.697  30.646  1.00  0.00     0.031 C 
ATOM     48  C   UNL A   1      40.027  25.583  27.783  1.00  0.00     0.029 A 
ATOM     49  C   UNL A   1      41.384  25.753  28.294  1.00  0.00     0.049 A 
ATOM     50  H   UNL A   1      42.185  27.428  29.236  1.00  0.00     0.167 HD
ATOM     51  C   UNL A   1      43.744  31.008  31.203  1.00  0.00     0.031 A 
ATOM     52  C   UNL A   1      42.359  24.827  28.235  1.00  0.00     0.031 A 
ATOM     53  C   UNL A   1      44.821  30.056  31.256  1.00  0.00     0.049 A 
ATOM     54  C   UNL A   1      43.706  25.142  28.827  1.00  0.00     0.074 A 
ATOM     55  C   UNL A   1      46.073  30.201  31.828  1.00  0.00     0.029 A 
ATOM     56  N   UNL A   1      44.772  28.782  30.714  1.00  0.00    -0.354 N 
ATOM     57  N   UNL A   1      44.110  26.231  29.432  1.00  0.00    -0.248 NA
ATOM     58  C   UNL A   1      44.726  24.087  28.738  1.00  0.00     0.031 C 
ATOM     59  C   UNL A   1      46.800  29.031  31.587  1.00  0.00     0.029 A 
ATOM     60  C   UNL A   1      45.981  28.137  30.916  1.00  0.00     0.049 A 
ATOM     61  H   UNL A   1      43.994  28.392  30.253  1.00  0.00     0.167 HD
ATOM     62  C   UNL A   1      45.418  25.981  29.830  1.00  0.00     0.074 A 
ATOM     63  C   UNL A   1      45.733  24.633  29.405  1.00  0.00     0.031 C 
ATOM     64  C   UNL A   1      46.278  26.793  30.490  1.00  0.00     0.031 A 
BRANCH  51  65
ATOM     65  C   UNL A   1      43.979  32.388  31.753  1.00  0.00    -0.014 A 
ATOM     66  C   UNL A   1      44.414  33.440  30.930  1.00  0.00     0.009 A 
ATOM     67  C   UNL A   1      43.738  32.646  33.111  1.00  0.00     0.009 A 
ATOM     68  C   UNL A   1      44.645  34.709  31.465  1.00  0.00     0.001 A 
ATOM     69  C   UNL A   1      43.940  33.923  33.637  1.00  0.00     0.001 A 
ATOM     70  C   UNL A   1      44.404  34.951  32.817  1.00  0.00     0.000 A 
ENDBRANCH  51  65
BRANCH  52  71
ATOM     71  C   UNL A   1      42.093  23.498  27.629  1.00  0.00    -0.014 A 
ATOM     72  C   UNL A   1      42.429  23.251  26.288  1.00  0.00     0.009 A 
ATOM     73  C   UNL A   1      41.494  22.473  28.378  1.00  0.00     0.009 A 
ATOM     74  C   UNL A   1      42.145  22.016  25.703  1.00  0.00     0.001 A 
ATOM     75  C   UNL A   1      41.237  21.229  27.797  1.00  0.00     0.001 A 
ATOM     76  C   UNL A   1      41.552  21.005  26.459  1.00  0.00     0.000 A 
ENDBRANCH  52  71
BRANCH  64  77
ATOM     77  C   UNL A   1      47.628  26.229  30.835  1.00  0.00    -0.014 A 
ATOM     78  C   UNL A   1      47.894  25.692  32.104  1.00  0.00     0.009 A 
ATOM     79  C   UNL A   1      48.638  26.209  29.861  1.00  0.00     0.009 A 
ATOM     80  C   UNL A   1      49.160  25.182  32.402  1.00  0.00     0.001 A 
ATOM     81  C   UNL A   1      49.892  25.671  30.152  1.00  0.00     0.001 A 
ATOM     82  C   UNL A   1      50.155  25.168  31.425  1.00  0.00     0.000 A 
ENDBRANCH  64  77
ENDBRANCH  38  39
ENDBRANCH  30  33
ENDBRANCH  28  29
ENDBRANCH  27  28
ENDBRANCH  26  27
ENDBRANCH   1  26
TORSDOF 15
ENDMDL
MODEL 2
REMARK VINA RESULT:     -11.4      2.622      8.183
REMARK SMILES C[C@@H](C(=O)NCCCCCCNC(=O)c1ccc(-c2c3nc(c(-c4ccccc4)c4ccc([nH]4)c(-c4ccccc4)c4nc(c(-c5ccccc5)c5ccc2[nH]5)C=C4)C=C3)cc1)c1ccc(-c2ccc3[nH]ccc3c2)cc1
REMARK SMILES IDX 8 1 7 2 6 3 5 4 3 5 4 6 2 8 1 9 63 10 64 11 77 12 65 13
REMARK SMILES IDX 76 14 66 15 67 16 68 17 75 18 69 19 74 20 70 21 73 22 71 23
REMARK SMILES IDX 72 24 9 26 10 27 11 28 12 29 13 30 14 32 15 33 16 34 62 35
REMARK SMILES IDX 17 36 61 37 18 38 19 39 20 40 55 41 21 42 60 43 54 44 56 45
REMARK SMILES IDX 22 46 59 47 53 48 52 49 23 51 45 52 30 53 44 54 31 55 34 56
REMARK SMILES IDX 43 57 57 58 32 59 33 60 42 62 58 63 35 64 24 65 25 66 29 67
REMARK SMILES IDX 26 68 28 69 27 70 46 71 47 72 51 73 48 74 50 75 49 76 36 77
REMARK SMILES IDX 37 78 41 79 38 80 40 81 39 82
REMARK H PARENT 5 7 71 25 12 31 56 50 34 61
REMARK Flexibility Score: inf
ROOT
ATOM      1  C   UNL A   1      33.857  25.642  25.759  1.00  0.00     0.002 C 
ENDROOT
BRANCH   1   2
ATOM      2  C   UNL A   1      33.548  27.020  25.155  1.00  0.00     0.021 C 
BRANCH   2   3
ATOM      3  C   UNL A   1      32.061  27.384  25.167  1.00  0.00     0.116 C 
BRANCH   3   4
ATOM      4  N   UNL A   1      31.611  27.691  23.829  1.00  0.00    -0.356 N 
ATOM      5  C   UNL A   1      30.775  26.998  23.005  1.00  0.00     0.227 C 
ATOM      6  O   UNL A   1      30.712  27.391  21.838  1.00  0.00    -0.274 OA
ATOM      7  H   UNL A   1      31.962  28.532  23.455  1.00  0.00     0.163 HD
BRANCH   5   8
ATOM      8  C   UNL A   1      29.943  25.828  23.560  1.00  0.00     0.105 C 
ATOM      9  C   UNL A   1      29.238  26.158  24.879  1.00  0.00     0.023 C 
BRANCH   8  10
ATOM     10  C   UNL A   1      30.780  24.569  23.745  1.00  0.00    -0.036 A 
ATOM     11  C   UNL A   1      30.713  23.840  24.940  1.00  0.00     0.005 A 
ATOM     12  C   UNL A   1      31.632  24.116  22.725  1.00  0.00     0.005 A 
ATOM     13  C   UNL A   1      31.477  22.683  25.104  1.00  0.00     0.009 A 
ATOM     14  C   UNL A   1      32.393  22.961  22.891  1.00  0.00     0.009 A 
ATOM     15  C   UNL A   1      32.321  22.229  24.081  1.00  0.00    -0.018 A 
BRANCH  15  16
ATOM     16  C   UNL A   1      33.094  20.997  24.237  1.00  0.00    -0.018 A 
ATOM     17  C   UNL A   1      34.385  21.042  24.780  1.00  0.00     0.011 A 
ATOM     18  C   UNL A   1      32.546  19.760  23.856  1.00  0.00     0.019 A 
ATOM     19  C   UNL A   1      35.148  19.884  24.960  1.00  0.00     0.027 A 
ATOM     20  C   UNL A   1      33.300  18.582  24.014  1.00  0.00    -0.000 A 
ATOM     21  C   UNL A   1      34.577  18.671  24.566  1.00  0.00     0.045 A 
ATOM     22  C   UNL A   1      33.064  17.211  23.718  1.00  0.00     0.028 A 
ATOM     23  N   UNL A   1      35.083  17.392  24.621  1.00  0.00    -0.361 N 
ATOM     24  C   UNL A   1      34.182  16.503  24.097  1.00  0.00     0.083 A 
ATOM     25  H   UNL A   1      35.965  17.151  24.985  1.00  0.00     0.166 HD
ENDBRANCH  15  16
ENDBRANCH   8  10
ENDBRANCH   5   8
ENDBRANCH   3   4
ENDBRANCH   2   3
ENDBRANCH   1   2
BRANCH   1  26
ATOM     26  C   UNL A   1      34.765  24.753  24.905  1.00  0.00     0.002 C 
BRANCH  26  27
ATOM     27  C   UNL A   1      35.906  24.078  25.668  1.00  0.00     0.021 C 
BRANCH  27  28
ATOM     28  C   UNL A   1      37.118  23.731  24.811  1.00  0.00     0.116 C 
BRANCH  28  29
ATOM     29  N   UNL A   1      37.903  22.656  25.390  1.00  0.00    -0.352 N 
ATOM     30  C   UNL A   1      38.997  22.726  26.214  1.00  0.00     0.251 C 
ATOM     31  H   UNL A   1      37.608  21.745  25.158  1.00  0.00     0.163 HD
ATOM     32  O   UNL A   1      39.656  21.719  26.450  1.00  0.00    -0.269 OA
BRANCH  30  33
ATOM     33  C   UNL A   1      39.392  24.021  26.809  1.00  0.00     0.039 A 
ATOM     34  C   UNL A   1      40.159  24.904  26.046  1.00  0.00     0.014 A 
ATOM     35  C   UNL A   1      39.043  24.348  28.123  1.00  0.00     0.014 A 
ATOM     36  C   UNL A   1      40.550  26.129  26.590  1.00  0.00     0.010 A 
ATOM     37  C   UNL A   1      39.368  25.600  28.636  1.00  0.00     0.010 A 
ATOM     38  C   UNL A   1      40.144  26.493  27.884  1.00  0.00    -0.014 A 
BRANCH  38  39
ATOM     39  C   UNL A   1      40.561  27.787  28.478  1.00  0.00     0.031 A 
ATOM     40  C   UNL A   1      41.994  28.004  28.883  1.00  0.00     0.074 A 
ATOM     41  C   UNL A   1      39.647  28.754  28.689  1.00  0.00     0.049 A 
ATOM     42  N   UNL A   1      42.549  29.059  29.428  1.00  0.00    -0.248 NA
ATOM     43  C   UNL A   1      42.921  26.880  28.674  1.00  0.00     0.031 C 
ATOM     44  C   UNL A   1      38.220  28.655  28.374  1.00  0.00     0.029 A 
ATOM     45  N   UNL A   1      39.786  30.013  29.215  1.00  0.00    -0.354 N 
ATOM     46  C   UNL A   1      43.878  28.715  29.645  1.00  0.00     0.074 A 
ATOM     47  C   UNL A   1      44.035  27.341  29.222  1.00  0.00     0.031 C 
ATOM     48  C   UNL A   1      37.623  29.820  28.678  1.00  0.00     0.029 A 
ATOM     49  C   UNL A   1      38.616  30.731  29.240  1.00  0.00     0.049 A 
ATOM     50  H   UNL A   1      40.643  30.368  29.546  1.00  0.00     0.167 HD
ATOM     51  C   UNL A   1      44.884  29.479  30.134  1.00  0.00     0.031 A 
ATOM     52  C   UNL A   1      38.371  31.986  29.660  1.00  0.00     0.031 A 
ATOM     53  C   UNL A   1      44.733  30.852  30.533  1.00  0.00     0.049 A 
ATOM     54  C   UNL A   1      39.505  32.815  30.197  1.00  0.00     0.074 A 
ATOM     55  C   UNL A   1      45.704  31.733  30.977  1.00  0.00     0.029 A 
ATOM     56  N   UNL A   1      43.531  31.543  30.540  1.00  0.00    -0.354 N 
ATOM     57  N   UNL A   1      40.771  32.501  30.325  1.00  0.00    -0.248 NA
ATOM     58  C   UNL A   1      39.175  34.179  30.633  1.00  0.00     0.031 C 
ATOM     59  C   UNL A   1      45.081  32.943  31.300  1.00  0.00     0.029 A 
ATOM     60  C   UNL A   1      43.732  32.833  31.002  1.00  0.00     0.049 A 
ATOM     61  H   UNL A   1      42.664  31.172  30.256  1.00  0.00     0.167 HD
ATOM     62  C   UNL A   1      41.395  33.640  30.822  1.00  0.00     0.074 A 
ATOM     63  C   UNL A   1      40.368  34.652  30.960  1.00  0.00     0.031 C 
ATOM     64  C   UNL A   1      42.700  33.830  31.131  1.00  0.00     0.031 A 
BRANCH  51  65
ATOM     65  C   UNL A   1      46.236  28.836  30.272  1.00  0.00    -0.014 A 
ATOM     66  C   UNL A   1      47.203  28.939  29.258  1.00  0.00     0.009 A 
ATOM     67  C   UNL A   1      46.557  28.136  31.445  1.00  0.00     0.009 A 
ATOM     68  C   UNL A   1      48.445  28.317  29.398  1.00  0.00     0.001 A 
ATOM     69  C   UNL A   1      47.811  27.541  31.595  1.00  0.00     0.001 A 
ATOM     70  C   UNL A   1      48.750  27.622  30.568  1.00  0.00     0.000 A 
ENDBRANCH  51  65
BRANCH  52  71
ATOM     71  C   UNL A   1      37.003  32.555  29.556  1.00  0.00    -0.014 A 
ATOM     72  C   UNL A   1      36.602  33.228  28.391  1.00  0.00     0.009 A 
ATOM     73  C   UNL A   1      36.094  32.438  30.619  1.00  0.00     0.009 A 
ATOM     74  C   UNL A   1      35.330  33.798  28.304  1.00  0.00     0.001 A 
ATOM     75  C   UNL A   1      34.812  32.985  30.518  1.00  0.00     0.001 A 
ATOM     76  C   UNL A   1      34.436  33.672  29.366  1.00  0.00     0.000 A 
ENDBRANCH  52  71
BRANCH  64  77
ATOM     77  C   UNL A   1      43.101  35.199  31.605  1.00  0.00    -0.014 A 
ATOM     78  C   UNL A   1      43.585  36.170  30.715  1.00  0.00     0.009 A 
ATOM     79  C   UNL A   1      42.963  35.528  32.962  1.00  0.00     0.009 A 
ATOM     80  C   UNL A   1      43.959  37.431  31.183  1.00  0.00     0.001 A 
ATOM     81  C   UNL A   1      43.309  36.799  33.422  1.00  0.00     0.001 A 
ATOM     82  C   UNL A   1      43.817  37.746  32.534  1.00  0.00     0.000 A 
ENDBRANCH  64  77
ENDBRANCH  38  39
ENDBRANCH  30  33
ENDBRANCH  28  29
ENDBRANCH  27  28
ENDBRANCH  26  27
ENDBRANCH   1  26
TORSDOF 15
ENDMDL
MODEL 3
REMARK VINA RESULT:     -11.3      2.643      8.062
REMARK SMILES C[C@@H](C(=O)NCCCCCCNC(=O)c1ccc(-c2c3nc(c(-c4ccccc4)c4ccc([nH]4)c(-c4ccccc4)c4nc(c(-c5ccccc5)c5ccc2[nH]5)C=C4)C=C3)cc1)c1ccc(-c2ccc3[nH]ccc3c2)cc1
REMARK SMILES IDX 8 1 7 2 6 3 5 4 3 5 4 6 2 8 1 9 63 10 64 11 77 12 65 13
REMARK SMILES IDX 76 14 66 15 67 16 68 17 75 18 69 19 74 20 70 21 73 22 71 23
REMARK SMILES IDX 72 24 9 26 10 27 11 28 12 29 13 30 14 32 15 33 16 34 62 35
REMARK SMILES IDX 17 36 61 37 18 38 19 39 20 40 55 41 21 42 60 43 54 44 56 45
REMARK SMILES IDX 22 46 59 47 53 48 52 49 23 51 45 52 30 53 44 54 31 55 34 56
REMARK SMILES IDX 43 57 57 58 32 59 33 60 42 62 58 63 35 64 24 65 25 66 29 67
REMARK SMILES IDX 26 68 28 69 27 70 46 71 47 72 51 73 48 74 50 75 49 76 36 77
REMARK SMILES IDX 37 78 41 79 38 80 40 81 39 82
REMARK H PARENT 5 7 71 25 12 31 56 50 34 61
REMARK Flexibility Score: inf
ROOT
ATOM      1  C   UNL A   1      33.920  25.593  25.810  1.00  0.00     0.002 C 
ENDROOT
BRANCH   1   2
ATOM      2  C   UNL A   1      33.622  26.956  25.170  1.00  0.00     0.021 C 
BRANCH   2   3
ATOM      3  C   UNL A   1      32.140  27.339  25.186  1.00  0.00     0.116 C 
BRANCH   3   4
ATOM      4  N   UNL A   1      31.688  27.642  23.847  1.00  0.00    -0.356 N 
ATOM      5  C   UNL A   1      30.848  26.948  23.028  1.00  0.00     0.227 C 
ATOM      6  O   UNL A   1      30.784  27.335  21.859  1.00  0.00    -0.274 OA
ATOM      7  H   UNL A   1      32.041  28.479  23.468  1.00  0.00     0.163 HD
BRANCH   5   8
ATOM      8  C   UNL A   1      30.013  25.784  23.592  1.00  0.00     0.105 C 
ATOM      9  C   UNL A   1      29.317  26.120  24.913  1.00  0.00     0.023 C 
BRANCH   8  10
ATOM     10  C   UNL A   1      30.845  24.520  23.775  1.00  0.00    -0.036 A 
ATOM     11  C   UNL A   1      30.731  23.759  24.946  1.00  0.00     0.005 A 
ATOM     12  C   UNL A   1      31.739  24.098  22.780  1.00  0.00     0.005 A 
ATOM     13  C   UNL A   1      31.490  22.599  25.109  1.00  0.00     0.009 A 
ATOM     14  C   UNL A   1      32.495  22.939  22.944  1.00  0.00     0.009 A 
ATOM     15  C   UNL A   1      32.376  22.174  24.109  1.00  0.00    -0.018 A 
BRANCH  15  16
ATOM     16  C   UNL A   1      33.145  20.939  24.263  1.00  0.00    -0.018 A 
ATOM     17  C   UNL A   1      34.464  20.987  24.735  1.00  0.00     0.011 A 
ATOM     18  C   UNL A   1      32.566  19.697  23.950  1.00  0.00     0.019 A 
ATOM     19  C   UNL A   1      35.224  19.827  24.911  1.00  0.00     0.027 A 
ATOM     20  C   UNL A   1      33.316  18.517  24.104  1.00  0.00    -0.000 A 
ATOM     21  C   UNL A   1      34.622  18.609  24.585  1.00  0.00     0.045 A 
ATOM     22  C   UNL A   1      33.053  17.139  23.864  1.00  0.00     0.028 A 
ATOM     23  N   UNL A   1      35.118  17.327  24.653  1.00  0.00    -0.361 N 
ATOM     24  C   UNL A   1      34.183  16.432  24.205  1.00  0.00     0.083 A 
ATOM     25  H   UNL A   1      36.016  17.087  24.978  1.00  0.00     0.166 HD
ENDBRANCH  15  16
ENDBRANCH   8  10
ENDBRANCH   5   8
ENDBRANCH   3   4
ENDBRANCH   2   3
ENDBRANCH   1   2
BRANCH   1  26
ATOM     26  C   UNL A   1      34.826  24.676  24.982  1.00  0.00     0.002 C 
BRANCH  26  27
ATOM     27  C   UNL A   1      35.971  24.029  25.763  1.00  0.00     0.021 C 
BRANCH  27  28
ATOM     28  C   UNL A   1      37.210  23.727  24.928  1.00  0.00     0.116 C 
BRANCH  28  29
ATOM     29  N   UNL A   1      38.007  22.660  25.504  1.00  0.00    -0.352 N 
ATOM     30  C   UNL A   1      39.115  22.741  26.308  1.00  0.00     0.251 C 
ATOM     31  H   UNL A   1      37.710  21.746  25.288  1.00  0.00     0.163 HD
ATOM     32  O   UNL A   1      39.780  21.737  26.544  1.00  0.00    -0.269 OA
BRANCH  30  33
ATOM     33  C   UNL A   1      39.518  24.043  26.882  1.00  0.00     0.039 A 
ATOM     34  C   UNL A   1      40.224  24.941  26.079  1.00  0.00     0.014 A 
ATOM     35  C   UNL A   1      39.237  24.363  28.213  1.00  0.00     0.014 A 
ATOM     36  C   UNL A   1      40.621  26.173  26.601  1.00  0.00     0.010 A 
ATOM     37  C   UNL A   1      39.566  25.621  28.710  1.00  0.00     0.010 A 
ATOM     38  C   UNL A   1      40.282  26.529  27.917  1.00  0.00    -0.014 A 
BRANCH  38  39
ATOM     39  C   UNL A   1      40.706  27.831  28.488  1.00  0.00     0.031 A 
ATOM     40  C   UNL A   1      39.694  28.924  28.707  1.00  0.00     0.074 A 
ATOM     41  C   UNL A   1      42.004  28.046  28.777  1.00  0.00     0.049 A 
ATOM     42  N   UNL A   1      39.871  30.131  29.184  1.00  0.00    -0.248 NA
ATOM     43  C   UNL A   1      38.306  28.632  28.314  1.00  0.00     0.031 C 
ATOM     44  C   UNL A   1      43.088  27.081  28.578  1.00  0.00     0.029 A 
ATOM     45  N   UNL A   1      42.629  29.147  29.304  1.00  0.00    -0.354 N 
ATOM     46  C   UNL A   1      38.626  30.745  29.126  1.00  0.00     0.074 A 
ATOM     47  C   UNL A   1      37.714  29.799  28.521  1.00  0.00     0.031 C 
ATOM     48  C   UNL A   1      44.239  27.620  29.015  1.00  0.00     0.029 A 
ATOM     49  C   UNL A   1      43.979  28.976  29.490  1.00  0.00     0.049 A 
ATOM     50  H   UNL A   1      42.156  29.981  29.527  1.00  0.00     0.167 HD
ATOM     51  C   UNL A   1      38.267  31.979  29.554  1.00  0.00     0.031 A 
ATOM     52  C   UNL A   1      44.904  29.815  29.993  1.00  0.00     0.031 A 
ATOM     53  C   UNL A   1      39.168  32.911  30.175  1.00  0.00     0.049 A 
ATOM     54  C   UNL A   1      44.479  31.178  30.464  1.00  0.00     0.074 A 
ATOM     55  C   UNL A   1      38.888  34.159  30.706  1.00  0.00     0.029 A 
ATOM     56  N   UNL A   1      40.527  32.698  30.347  1.00  0.00    -0.354 N 
ATOM     57  N   UNL A   1      43.285  31.716  30.471  1.00  0.00    -0.248 NA
ATOM     58  C   UNL A   1      45.534  32.044  31.010  1.00  0.00     0.031 C 
ATOM     59  C   UNL A   1      40.088  34.722  31.153  1.00  0.00     0.029 A 
ATOM     60  C   UNL A   1      41.104  33.801  30.954  1.00  0.00     0.049 A 
ATOM     61  H   UNL A   1      41.010  31.884  30.078  1.00  0.00     0.167 HD
ATOM     62  C   UNL A   1      43.436  32.968  31.055  1.00  0.00     0.074 A 
ATOM     63  C   UNL A   1      44.837  33.102  31.398  1.00  0.00     0.031 C 
ATOM     64  C   UNL A   1      42.500  33.918  31.291  1.00  0.00     0.031 A 
BRANCH  51  65
ATOM     65  C   UNL A   1      36.835  32.391  29.352  1.00  0.00    -0.014 A 
ATOM     66  C   UNL A   1      35.865  32.177  30.345  1.00  0.00     0.009 A 
ATOM     67  C   UNL A   1      36.455  33.024  28.158  1.00  0.00     0.009 A 
ATOM     68  C   UNL A   1      34.536  32.549  30.128  1.00  0.00     0.001 A 
ATOM     69  C   UNL A   1      35.132  33.423  27.957  1.00  0.00     0.001 A 
ATOM     70  C   UNL A   1      34.172  33.175  28.936  1.00  0.00     0.000 A 
ENDBRANCH  51  65
BRANCH  52  71
ATOM     71  C   UNL A   1      46.319  29.380  30.117  1.00  0.00    -0.014 A 
ATOM     72  C   UNL A   1      46.764  28.743  31.286  1.00  0.00     0.009 A 
ATOM     73  C   UNL A   1      47.233  29.604  29.076  1.00  0.00     0.009 A 
ATOM     74  C   UNL A   1      48.102  28.367  31.423  1.00  0.00     0.001 A 
ATOM     75  C   UNL A   1      48.564  29.201  29.205  1.00  0.00     0.001 A 
ATOM     76  C   UNL A   1      48.999  28.593  30.380  1.00  0.00     0.000 A 
ENDBRANCH  52  71
BRANCH  64  77
ATOM     77  C   UNL A   1      42.951  35.169  31.993  1.00  0.00    -0.014 A 
ATOM     78  C   UNL A   1      42.770  35.339  33.374  1.00  0.00     0.009 A 
ATOM     79  C   UNL A   1      43.593  36.178  31.260  1.00  0.00     0.009 A 
ATOM     80  C   UNL A   1      43.190  36.515  34.000  1.00  0.00     0.001 A 
ATOM     81  C   UNL A   1      44.039  37.338  31.894  1.00  0.00     0.001 A 
ATOM     82  C   UNL A   1      43.828  37.510  33.261  1.00  0.00     0.000 A 
ENDBRANCH  64  77
ENDBRANCH  38  39
ENDBRANCH  30  33
ENDBRANCH  28  29
ENDBRANCH  27  28
ENDBRANCH  26  27
ENDBRANCH   1  26
TORSDOF 15
ENDMDL
