MODEL 1
REMARK VINA RESULT:     -12.6      0.000      0.000
REMARK SMILES O=C(N[C@]1(C(=O)NCCCCCCNC(=O)c2ccc(-c3c4nc(c(-c5ccccc5)c5ccc([nH]5)c(-c5ccccc5)c5nc(c(-c6ccccc6)c6ccc3[nH]6)C=C5)C=C4)cc2)CC[C@H](c2ccccc2)CC1)OCC1c2ccccc2-c2ccccc21
REMARK SMILES IDX 9 1 8 2 7 3 5 4 6 5 4 7 65 8 75 9 66 10 74 11 67 12 3 13
REMARK SMILES IDX 1 14 2 15 76 17 77 18 78 19 79 20 90 21 80 22 84 23 85 24
REMARK SMILES IDX 89 25 81 26 83 27 86 28 88 29 82 30 87 31 68 32 69 33 73 34
REMARK SMILES IDX 70 35 72 36 71 37 10 38 11 39 12 40 13 41 14 42 15 43 16 45
REMARK SMILES IDX 17 46 18 47 64 48 19 49 63 50 20 51 21 52 22 53 57 54 23 55
REMARK SMILES IDX 62 56 56 57 58 58 24 59 61 60 55 61 54 62 25 64 47 65 32 66
REMARK SMILES IDX 46 67 33 68 36 69 45 70 59 71 34 72 35 73 44 75 60 76 37 77
REMARK SMILES IDX 26 78 27 79 31 80 28 81 30 82 29 83 48 84 49 85 53 86 50 87
REMARK SMILES IDX 52 88 51 89 38 90 39 91 43 92 40 93 42 94 41 95
REMARK H PARENT 7 6 3 16 14 44 58 63 36 74
REMARK Flexibility Score: inf
ROOT
ATOM      1  C   UNL A   1      29.837  29.983  23.551  1.00  0.00     0.021 C 
ENDROOT
BRANCH   1   2
ATOM      2  C   UNL A   1      30.566  29.378  22.364  1.00  0.00     0.116 C 
BRANCH   2   3
ATOM      3  N   UNL A   1      31.985  29.561  22.362  1.00  0.00    -0.354 N 
ATOM      4  C   UNL A   1      32.971  28.646  22.559  1.00  0.00     0.245 C 
ATOM      5  O   UNL A   1      34.117  29.127  22.566  1.00  0.00    -0.272 OA
ATOM      6  H   UNL A   1      32.292  30.481  22.194  1.00  0.00     0.163 HD
BRANCH   4   7
ATOM      7  C   UNL A   1      32.754  27.102  22.879  1.00  0.00     0.122 C 
ATOM      8  C   UNL A   1      31.323  26.610  23.164  1.00  0.00     0.039 C 
ATOM      9  C   UNL A   1      33.694  26.617  23.993  1.00  0.00     0.039 C 
ATOM     10  C   UNL A   1      30.733  26.541  24.561  1.00  0.00     0.011 C 
ATOM     11  C   UNL A   1      33.163  26.793  25.415  1.00  0.00     0.011 C 
ATOM     12  C   UNL A   1      31.738  26.268  25.679  1.00  0.00     0.019 C 
BRANCH   7  13
ATOM     13  N   UNL A   1      33.276  26.529  21.572  1.00  0.00    -0.307 N 
ATOM     14  O   UNL A   1      32.920  25.152  19.785  1.00  0.00    -0.225 OA
ATOM     15  C   UNL A   1      32.941  25.335  20.990  1.00  0.00     0.408 C 
ATOM     16  H   UNL A   1      33.931  27.082  21.085  1.00  0.00     0.168 HD
BRANCH  15  17
ATOM     17  O   UNL A   1      32.642  24.409  21.912  1.00  0.00    -0.449 OA
BRANCH  17  18
ATOM     18  C   UNL A   1      33.275  23.135  21.902  1.00  0.00     0.248 C 
BRANCH  18  19
ATOM     19  C   UNL A   1      33.298  22.575  23.339  1.00  0.00     0.088 C 
ATOM     20  C   UNL A   1      34.584  22.738  24.162  1.00  0.00    -0.029 A 
ATOM     21  C   UNL A   1      33.043  21.072  23.488  1.00  0.00    -0.029 A 
ATOM     22  C   UNL A   1      35.443  23.823  24.265  1.00  0.00     0.005 A 
ATOM     23  C   UNL A   1      34.838  21.552  24.892  1.00  0.00    -0.014 A 
ATOM     24  C   UNL A   1      33.884  20.540  24.494  1.00  0.00    -0.014 A 
ATOM     25  C   UNL A   1      32.171  20.250  22.793  1.00  0.00     0.005 A 
ATOM     26  C   UNL A   1      36.566  23.708  25.097  1.00  0.00     0.000 A 
ATOM     27  C   UNL A   1      35.936  21.449  25.735  1.00  0.00     0.009 A 
ATOM     28  C   UNL A   1      33.786  19.211  24.879  1.00  0.00     0.009 A 
ATOM     29  C   UNL A   1      32.102  18.900  23.154  1.00  0.00     0.000 A 
ATOM     30  C   UNL A   1      36.805  22.536  25.832  1.00  0.00     0.001 A 
ATOM     31  C   UNL A   1      32.877  18.392  24.209  1.00  0.00     0.001 A 
ENDBRANCH  18  19
ENDBRANCH  17  18
ENDBRANCH  15  17
ENDBRANCH   7  13
BRANCH  12  32
ATOM     32  C   UNL A   1      31.698  24.829  26.172  1.00  0.00    -0.045 A 
ATOM     33  C   UNL A   1      32.706  24.251  26.959  1.00  0.00     0.004 A 
ATOM     34  C   UNL A   1      30.644  24.010  25.738  1.00  0.00     0.004 A 
ATOM     35  C   UNL A   1      32.690  22.885  27.246  1.00  0.00     0.000 A 
ATOM     36  C   UNL A   1      30.624  22.648  26.033  1.00  0.00     0.000 A 
ATOM     37  C   UNL A   1      31.655  22.081  26.775  1.00  0.00     0.000 A 
ENDBRANCH  12  32
ENDBRANCH   4   7
ENDBRANCH   2   3
ENDBRANCH   1   2
BRANCH   1  38
ATOM     38  C   UNL A   1      30.652  30.107  24.832  1.00  0.00     0.002 C 
BRANCH  38  39
ATOM     39  C   UNL A   1      30.681  31.490  25.492  1.00  0.00     0.002 C 
BRANCH  39  40
ATOM     40  C   UNL A   1      31.309  31.582  26.886  1.00  0.00     0.021 C 
BRANCH  40  41
ATOM     41  C   UNL A   1      32.608  32.376  26.992  1.00  0.00     0.116 C 
BRANCH  41  42
ATOM     42  N   UNL A   1      32.426  33.690  27.579  1.00  0.00    -0.352 N 
ATOM     43  C   UNL A   1      33.197  34.364  28.492  1.00  0.00     0.251 C 
ATOM     44  H   UNL A   1      31.624  34.175  27.275  1.00  0.00     0.163 HD
ATOM     45  O   UNL A   1      32.806  35.430  28.956  1.00  0.00    -0.269 OA
BRANCH  43  46
ATOM     46  C   UNL A   1      34.489  33.801  28.940  1.00  0.00     0.039 A 
ATOM     47  C   UNL A   1      35.651  34.161  28.249  1.00  0.00     0.014 A 
ATOM     48  C   UNL A   1      34.557  32.901  30.005  1.00  0.00     0.014 A 
ATOM     49  C   UNL A   1      36.888  33.656  28.657  1.00  0.00     0.010 A 
ATOM     50  C   UNL A   1      35.797  32.450  30.452  1.00  0.00     0.010 A 
ATOM     51  C   UNL A   1      36.971  32.815  29.775  1.00  0.00    -0.014 A 
BRANCH  51  52
ATOM     52  C   UNL A   1      38.270  32.272  30.242  1.00  0.00     0.031 A 
ATOM     53  C   UNL A   1      38.778  30.971  29.684  1.00  0.00     0.074 A 
ATOM     54  C   UNL A   1      38.950  32.900  31.219  1.00  0.00     0.049 A 
ATOM     55  N   UNL A   1      39.818  30.265  30.046  1.00  0.00    -0.248 NA
ATOM     56  C   UNL A   1      37.991  30.371  28.596  1.00  0.00     0.031 C 
ATOM     57  C   UNL A   1      38.553  34.155  31.859  1.00  0.00     0.029 A 
ATOM     58  N   UNL A   1      40.115  32.553  31.857  1.00  0.00    -0.354 N 
ATOM     59  C   UNL A   1      39.792  29.125  29.253  1.00  0.00     0.074 A 
ATOM     60  C   UNL A   1      38.612  29.215  28.421  1.00  0.00     0.031 C 
ATOM     61  C   UNL A   1      39.465  34.479  32.790  1.00  0.00     0.029 A 
ATOM     62  C   UNL A   1      40.485  33.437  32.840  1.00  0.00     0.049 A 
ATOM     63  H   UNL A   1      40.635  31.748  31.631  1.00  0.00     0.167 HD
ATOM     64  C   UNL A   1      40.677  28.100  29.212  1.00  0.00     0.031 A 
ATOM     65  C   UNL A   1      41.524  33.404  33.697  1.00  0.00     0.031 A 
ATOM     66  C   UNL A   1      41.859  28.022  30.026  1.00  0.00     0.049 A 
ATOM     67  C   UNL A   1      42.495  32.258  33.634  1.00  0.00     0.074 A 
ATOM     68  C   UNL A   1      42.849  27.055  30.021  1.00  0.00     0.029 A 
ATOM     69  N   UNL A   1      42.213  28.952  30.992  1.00  0.00    -0.354 N 
ATOM     70  N   UNL A   1      42.483  31.210  32.847  1.00  0.00    -0.248 NA
ATOM     71  C   UNL A   1      43.626  32.298  34.570  1.00  0.00     0.031 C 
ATOM     72  C   UNL A   1      43.779  27.378  31.015  1.00  0.00     0.029 A 
ATOM     73  C   UNL A   1      43.396  28.574  31.602  1.00  0.00     0.049 A 
ATOM     74  H   UNL A   1      41.698  29.762  31.211  1.00  0.00     0.167 HD
ATOM     75  C   UNL A   1      43.620  30.481  33.171  1.00  0.00     0.074 A 
ATOM     76  C   UNL A   1      44.300  31.211  34.222  1.00  0.00     0.031 C 
ATOM     77  C   UNL A   1      44.062  29.314  32.641  1.00  0.00     0.031 A 
BRANCH  64  78
ATOM     78  C   UNL A   1      40.381  26.974  28.260  1.00  0.00    -0.014 A 
ATOM     79  C   UNL A   1      40.885  26.973  26.950  1.00  0.00     0.009 A 
ATOM     80  C   UNL A   1      39.589  25.894  28.684  1.00  0.00     0.009 A 
ATOM     81  C   UNL A   1      40.564  25.937  26.069  1.00  0.00     0.001 A 
ATOM     82  C   UNL A   1      39.296  24.846  27.811  1.00  0.00     0.001 A 
ATOM     83  C   UNL A   1      39.772  24.875  26.501  1.00  0.00     0.000 A 
ENDBRANCH  64  78
BRANCH  65  84
ATOM     84  C   UNL A   1      41.707  34.506  34.676  1.00  0.00    -0.014 A 
ATOM     85  C   UNL A   1      41.134  34.419  35.955  1.00  0.00     0.009 A 
ATOM     86  C   UNL A   1      42.465  35.640  34.347  1.00  0.00     0.009 A 
ATOM     87  C   UNL A   1      41.303  35.454  36.877  1.00  0.00     0.001 A 
ATOM     88  C   UNL A   1      42.654  36.661  35.280  1.00  0.00     0.001 A 
ATOM     89  C   UNL A   1      42.067  36.571  36.542  1.00  0.00     0.000 A 
ENDBRANCH  65  84
BRANCH  77  90
ATOM     90  C   UNL A   1      45.365  28.774  33.156  1.00  0.00    -0.014 A 
ATOM     91  C   UNL A   1      45.409  27.866  34.226  1.00  0.00     0.009 A 
ATOM     92  C   UNL A   1      46.563  29.139  32.522  1.00  0.00     0.009 A 
ATOM     93  C   UNL A   1      46.631  27.355  34.664  1.00  0.00     0.001 A 
ATOM     94  C   UNL A   1      47.781  28.607  32.947  1.00  0.00     0.001 A 
ATOM     95  C   UNL A   1      47.814  27.721  34.023  1.00  0.00     0.000 A 
ENDBRANCH  77  90
ENDBRANCH  51  52
ENDBRANCH  43  46
ENDBRANCH  41  42
ENDBRANCH  40  41
ENDBRANCH  39  40
ENDBRANCH  38  39
ENDBRANCH   1  38
TORSDOF 18
ENDMDL
MODEL 2
REMARK VINA RESULT:     -12.5      1.265      5.577
REMARK SMILES O=C(N[C@]1(C(=O)NCCCCCCNC(=O)c2ccc(-c3c4nc(c(-c5ccccc5)c5ccc([nH]5)c(-c5ccccc5)c5nc(c(-c6ccccc6)c6ccc3[nH]6)C=C5)C=C4)cc2)CC[C@H](c2ccccc2)CC1)OCC1c2ccccc2-c2ccccc21
REMARK SMILES IDX 9 1 8 2 7 3 5 4 6 5 4 7 65 8 75 9 66 10 74 11 67 12 3 13
REMARK SMILES IDX 1 14 2 15 76 17 77 18 78 19 79 20 90 21 80 22 84 23 85 24
REMARK SMILES IDX 89 25 81 26 83 27 86 28 88 29 82 30 87 31 68 32 69 33 73 34
REMARK SMILES IDX 70 35 72 36 71 37 10 38 11 39 12 40 13 41 14 42 15 43 16 45
REMARK SMILES IDX 17 46 18 47 64 48 19 49 63 50 20 51 21 52 22 53 57 54 23 55
REMARK SMILES IDX 62 56 56 57 58 58 24 59 61 60 55 61 54 62 25 64 47 65 32 66
REMARK SMILES IDX 46 67 33 68 36 69 45 70 59 71 34 72 35 73 44 75 60 76 37 77
REMARK SMILES IDX 26 78 27 79 31 80 28 81 30 82 29 83 48 84 49 85 53 86 50 87
REMARK SMILES IDX 52 88 51 89 38 90 39 91 43 92 40 93 42 94 41 95
REMARK H PARENT 7 6 3 16 14 44 58 63 36 74
REMARK Flexibility Score: inf
ROOT
ATOM      1  C   UNL A   1      32.012  30.105  26.674  1.00  0.00     0.021 C 
ENDROOT
BRANCH   1   2
ATOM      2  C   UNL A   1      31.540  29.543  25.345  1.00  0.00     0.116 C 
BRANCH   2   3
ATOM      3  N   UNL A   1      32.445  29.723  24.251  1.00  0.00    -0.354 N 
ATOM      4  C   UNL A   1      33.016  28.790  23.443  1.00  0.00     0.245 C 
ATOM      5  O   UNL A   1      33.820  29.255  22.618  1.00  0.00    -0.272 OA
ATOM      6  H   UNL A   1      32.690  30.656  24.055  1.00  0.00     0.163 HD
BRANCH   4   7
ATOM      7  C   UNL A   1      32.817  27.215  23.561  1.00  0.00     0.122 C 
ATOM      8  C   UNL A   1      31.392  26.672  23.770  1.00  0.00     0.039 C 
ATOM      9  C   UNL A   1      33.758  26.602  24.609  1.00  0.00     0.039 C 
ATOM     10  C   UNL A   1      30.795  26.416  25.142  1.00  0.00     0.011 C 
ATOM     11  C   UNL A   1      33.217  26.587  26.038  1.00  0.00     0.011 C 
ATOM     12  C   UNL A   1      31.798  26.015  26.223  1.00  0.00     0.019 C 
BRANCH   7  13
ATOM     13  N   UNL A   1      33.353  26.821  22.194  1.00  0.00    -0.307 N 
ATOM     14  O   UNL A   1      33.012  25.705  20.230  1.00  0.00    -0.225 OA
ATOM     15  C   UNL A   1      33.017  25.722  21.449  1.00  0.00     0.408 C 
ATOM     16  H   UNL A   1      34.019  27.429  21.796  1.00  0.00     0.168 HD
BRANCH  15  17
ATOM     17  O   UNL A   1      32.697  24.681  22.232  1.00  0.00    -0.449 OA
BRANCH  17  18
ATOM     18  C   UNL A   1      33.353  23.427  22.085  1.00  0.00     0.248 C 
BRANCH  18  19
ATOM     19  C   UNL A   1      33.456  22.751  23.467  1.00  0.00     0.088 C 
ATOM     20  C   UNL A   1      34.801  22.809  24.205  1.00  0.00    -0.029 A 
ATOM     21  C   UNL A   1      33.162  21.248  23.514  1.00  0.00    -0.029 A 
ATOM     22  C   UNL A   1      35.703  23.857  24.332  1.00  0.00     0.005 A 
ATOM     23  C   UNL A   1      35.065  21.561  24.819  1.00  0.00    -0.014 A 
ATOM     24  C   UNL A   1      34.052  20.612  24.411  1.00  0.00    -0.014 A 
ATOM     25  C   UNL A   1      32.216  20.511  22.821  1.00  0.00     0.005 A 
ATOM     26  C   UNL A   1      36.876  23.642  25.070  1.00  0.00     0.000 A 
ATOM     27  C   UNL A   1      36.215  21.357  25.569  1.00  0.00     0.009 A 
ATOM     28  C   UNL A   1      33.935  19.259  24.695  1.00  0.00     0.009 A 
ATOM     29  C   UNL A   1      32.126  19.138  23.076  1.00  0.00     0.000 A 
ATOM     30  C   UNL A   1      37.125  22.407  25.690  1.00  0.00     0.001 A 
ATOM     31  C   UNL A   1      32.955  18.524  24.029  1.00  0.00     0.001 A 
ENDBRANCH  18  19
ENDBRANCH  17  18
ENDBRANCH  15  17
ENDBRANCH   7  13
BRANCH  12  32
ATOM     32  C   UNL A   1      31.775  24.524  26.526  1.00  0.00    -0.045 A 
ATOM     33  C   UNL A   1      32.789  23.861  27.235  1.00  0.00     0.004 A 
ATOM     34  C   UNL A   1      30.731  23.755  25.987  1.00  0.00     0.004 A 
ATOM     35  C   UNL A   1      32.788  22.469  27.344  1.00  0.00     0.000 A 
ATOM     36  C   UNL A   1      30.727  22.366  26.104  1.00  0.00     0.000 A 
ATOM     37  C   UNL A   1      31.764  21.721  26.770  1.00  0.00     0.000 A 
ENDBRANCH  12  32
ENDBRANCH   4   7
ENDBRANCH   2   3
ENDBRANCH   1   2
BRANCH   1  38
ATOM     38  C   UNL A   1      33.522  30.163  26.867  1.00  0.00     0.002 C 
BRANCH  38  39
ATOM     39  C   UNL A   1      34.068  31.382  27.619  1.00  0.00     0.002 C 
BRANCH  39  40
ATOM     40  C   UNL A   1      33.053  32.445  28.052  1.00  0.00     0.021 C 
BRANCH  40  41
ATOM     41  C   UNL A   1      33.556  33.885  28.093  1.00  0.00     0.116 C 
BRANCH  41  42
ATOM     42  N   UNL A   1      33.167  34.590  29.299  1.00  0.00    -0.352 N 
ATOM     43  C   UNL A   1      33.677  34.512  30.570  1.00  0.00     0.251 C 
ATOM     44  H   UNL A   1      32.421  35.223  29.189  1.00  0.00     0.163 HD
ATOM     45  O   UNL A   1      33.126  35.112  31.488  1.00  0.00    -0.269 OA
BRANCH  43  46
ATOM     46  C   UNL A   1      34.874  33.691  30.847  1.00  0.00     0.039 A 
ATOM     47  C   UNL A   1      36.094  34.075  30.281  1.00  0.00     0.014 A 
ATOM     48  C   UNL A   1      34.795  32.534  31.626  1.00  0.00     0.014 A 
ATOM     49  C   UNL A   1      37.246  33.326  30.535  1.00  0.00     0.010 A 
ATOM     50  C   UNL A   1      35.954  31.826  31.933  1.00  0.00     0.010 A 
ATOM     51  C   UNL A   1      37.188  32.210  31.382  1.00  0.00    -0.014 A 
BRANCH  51  52
ATOM     52  C   UNL A   1      38.394  31.401  31.682  1.00  0.00     0.031 A 
ATOM     53  C   UNL A   1      39.273  31.776  32.843  1.00  0.00     0.074 A 
ATOM     54  C   UNL A   1      38.743  30.386  30.871  1.00  0.00     0.049 A 
ATOM     55  N   UNL A   1      40.431  31.282  33.198  1.00  0.00    -0.248 NA
ATOM     56  C   UNL A   1      38.799  32.876  33.698  1.00  0.00     0.031 C 
ATOM     57  C   UNL A   1      37.989  29.937  29.700  1.00  0.00     0.029 A 
ATOM     58  N   UNL A   1      39.837  29.558  30.901  1.00  0.00    -0.354 N 
ATOM     59  C   UNL A   1      40.838  32.030  34.297  1.00  0.00     0.074 A 
ATOM     60  C   UNL A   1      39.823  33.036  34.522  1.00  0.00     0.031 C 
ATOM     61  C   UNL A   1      38.637  28.907  29.130  1.00  0.00     0.029 A 
ATOM     62  C   UNL A   1      39.868  28.652  29.870  1.00  0.00     0.049 A 
ATOM     63  H   UNL A   1      40.533  29.608  31.596  1.00  0.00     0.167 HD
ATOM     64  C   UNL A   1      41.950  31.886  35.056  1.00  0.00     0.031 A 
ATOM     65  C   UNL A   1      40.793  27.727  29.548  1.00  0.00     0.031 A 
ATOM     66  C   UNL A   1      42.948  30.873  34.840  1.00  0.00     0.049 A 
ATOM     67  C   UNL A   1      42.019  27.583  30.405  1.00  0.00     0.074 A 
ATOM     68  C   UNL A   1      44.082  30.607  35.587  1.00  0.00     0.029 A 
ATOM     69  N   UNL A   1      42.928  29.957  33.800  1.00  0.00    -0.354 N 
ATOM     70  N   UNL A   1      42.367  28.267  31.468  1.00  0.00    -0.248 NA
ATOM     71  C   UNL A   1      42.974  26.533  30.023  1.00  0.00     0.031 C 
ATOM     72  C   UNL A   1      44.772  29.557  34.972  1.00  0.00     0.029 A 
ATOM     73  C   UNL A   1      44.039  29.135  33.874  1.00  0.00     0.049 A 
ATOM     74  H   UNL A   1      42.227  29.900  33.111  1.00  0.00     0.167 HD
ATOM     75  C   UNL A   1      43.565  27.710  31.900  1.00  0.00     0.074 A 
ATOM     76  C   UNL A   1      43.878  26.630  30.987  1.00  0.00     0.031 C 
ATOM     77  C   UNL A   1      44.332  28.061  32.961  1.00  0.00     0.031 A 
BRANCH  64  78
ATOM     78  C   UNL A   1      42.145  32.864  36.181  1.00  0.00    -0.014 A 
ATOM     79  C   UNL A   1      41.619  32.621  37.460  1.00  0.00     0.009 A 
ATOM     80  C   UNL A   1      42.873  34.044  35.959  1.00  0.00     0.009 A 
ATOM     81  C   UNL A   1      41.777  33.563  38.480  1.00  0.00     0.001 A 
ATOM     82  C   UNL A   1      43.055  34.968  36.989  1.00  0.00     0.001 A 
ATOM     83  C   UNL A   1      42.496  34.733  38.244  1.00  0.00     0.000 A 
ENDBRANCH  64  78
BRANCH  65  84
ATOM     84  C   UNL A   1      40.580  26.853  28.366  1.00  0.00    -0.014 A 
ATOM     85  C   UNL A   1      39.833  25.670  28.484  1.00  0.00     0.009 A 
ATOM     86  C   UNL A   1      41.107  27.201  27.113  1.00  0.00     0.009 A 
ATOM     87  C   UNL A   1      39.633  24.847  27.374  1.00  0.00     0.001 A 
ATOM     88  C   UNL A   1      40.883  26.389  26.000  1.00  0.00     0.001 A 
ATOM     89  C   UNL A   1      40.152  25.209  26.132  1.00  0.00     0.000 A 
ENDBRANCH  65  84
BRANCH  77  90
ATOM     90  C   UNL A   1      45.563  27.242  33.221  1.00  0.00    -0.014 A 
ATOM     91  C   UNL A   1      46.806  27.595  32.674  1.00  0.00     0.009 A 
ATOM     92  C   UNL A   1      45.486  26.129  34.074  1.00  0.00     0.009 A 
ATOM     93  C   UNL A   1      47.942  26.834  32.958  1.00  0.00     0.001 A 
ATOM     94  C   UNL A   1      46.627  25.386  34.376  1.00  0.00     0.001 A 
ATOM     95  C   UNL A   1      47.852  25.735  33.811  1.00  0.00     0.000 A 
ENDBRANCH  77  90
ENDBRANCH  51  52
ENDBRANCH  43  46
ENDBRANCH  41  42
ENDBRANCH  40  41
ENDBRANCH  39  40
ENDBRANCH  38  39
ENDBRANCH   1  38
TORSDOF 18
ENDMDL
MODEL 3
REMARK VINA RESULT:     -11.6      3.174      8.563
REMARK SMILES O=C(N[C@]1(C(=O)NCCCCCCNC(=O)c2ccc(-c3c4nc(c(-c5ccccc5)c5ccc([nH]5)c(-c5ccccc5)c5nc(c(-c6ccccc6)c6ccc3[nH]6)C=C5)C=C4)cc2)CC[C@H](c2ccccc2)CC1)OCC1c2ccccc2-c2ccccc21
REMARK SMILES IDX 9 1 8 2 7 3 5 4 6 5 4 7 65 8 75 9 66 10 74 11 67 12 3 13
REMARK SMILES IDX 1 14 2 15 76 17 77 18 78 19 79 20 90 21 80 22 84 23 85 24
REMARK SMILES IDX 89 25 81 26 83 27 86 28 88 29 82 30 87 31 68 32 69 33 73 34
REMARK SMILES IDX 70 35 72 36 71 37 10 38 11 39 12 40 13 41 14 42 15 43 16 45
REMARK SMILES IDX 17 46 18 47 64 48 19 49 63 50 20 51 21 52 22 53 57 54 23 55
REMARK SMILES IDX 62 56 56 57 58 58 24 59 61 60 55 61 54 62 25 64 47 65 32 66
REMARK SMILES IDX 46 67 33 68 36 69 45 70 59 71 34 72 35 73 44 75 60 76 37 77
REMARK SMILES IDX 26 78 27 79 31 80 28 81 30 82 29 83 48 84 49 85 53 86 50 87
REMARK SMILES IDX 52 88 51 89 38 90 39 91 43 92 40 93 42 94 41 95
REMARK H PARENT 7 6 3 16 14 44 58 63 36 74
REMARK Flexibility Score: inf
ROOT
ATOM      1  C   UNL A   1      36.662  22.964  23.651  1.00  0.00     0.021 C 
ENDROOT
BRANCH   1   2
ATOM      2  C   UNL A   1      35.218  23.411  23.503  1.00  0.00     0.116 C 
BRANCH   2   3
ATOM      3  N   UNL A   1      34.745  24.297  24.522  1.00  0.00    -0.354 N 
ATOM      4  C   UNL A   1      33.976  24.025  25.610  1.00  0.00     0.245 C 
ATOM      5  O   UNL A   1      33.670  25.027  26.279  1.00  0.00    -0.272 OA
ATOM      6  H   UNL A   1      35.014  25.238  24.421  1.00  0.00     0.163 HD
BRANCH   4   7
ATOM      7  C   UNL A   1      33.380  22.600  25.992  1.00  0.00     0.122 C 
ATOM      8  C   UNL A   1      34.332  21.544  26.581  1.00  0.00     0.039 C 
ATOM      9  C   UNL A   1      32.591  21.985  24.825  1.00  0.00     0.039 C 
ATOM     10  C   UNL A   1      35.072  20.528  25.729  1.00  0.00     0.011 C 
ATOM     11  C   UNL A   1      33.422  21.164  23.840  1.00  0.00     0.011 C 
ATOM     12  C   UNL A   1      34.348  20.096  24.455  1.00  0.00     0.019 C 
BRANCH   7  13
ATOM     13  N   UNL A   1      32.365  23.055  27.028  1.00  0.00    -0.307 N 
ATOM     14  O   UNL A   1      30.170  23.360  27.580  1.00  0.00    -0.225 OA
ATOM     15  C   UNL A   1      31.097  23.522  26.805  1.00  0.00     0.408 C 
ATOM     16  H   UNL A   1      32.652  23.005  27.969  1.00  0.00     0.168 HD
BRANCH  15  17
ATOM     17  O   UNL A   1      31.014  24.173  25.636  1.00  0.00    -0.449 OA
BRANCH  17  18
ATOM     18  C   UNL A   1      29.951  25.083  25.378  1.00  0.00     0.248 C 
BRANCH  18  19
ATOM     19  C   UNL A   1      30.532  26.370  24.759  1.00  0.00     0.088 C 
ATOM     20  C   UNL A   1      31.504  26.234  23.578  1.00  0.00    -0.029 A 
ATOM     21  C   UNL A   1      31.337  27.276  25.697  1.00  0.00    -0.029 A 
ATOM     22  C   UNL A   1      31.459  25.385  22.481  1.00  0.00     0.005 A 
ATOM     23  C   UNL A   1      32.565  27.160  23.722  1.00  0.00    -0.014 A 
ATOM     24  C   UNL A   1      32.451  27.810  25.010  1.00  0.00    -0.014 A 
ATOM     25  C   UNL A   1      31.119  27.582  27.031  1.00  0.00     0.005 A 
ATOM     26  C   UNL A   1      32.490  25.463  21.534  1.00  0.00     0.000 A 
ATOM     27  C   UNL A   1      33.572  27.253  22.772  1.00  0.00     0.009 A 
ATOM     28  C   UNL A   1      33.292  28.729  25.619  1.00  0.00     0.009 A 
ATOM     29  C   UNL A   1      31.993  28.477  27.657  1.00  0.00     0.000 A 
ATOM     30  C   UNL A   1      33.532  26.394  21.673  1.00  0.00     0.001 A 
ATOM     31  C   UNL A   1      33.049  29.072  26.949  1.00  0.00     0.001 A 
ENDBRANCH  18  19
ENDBRANCH  17  18
ENDBRANCH  15  17
ENDBRANCH   7  13
BRANCH  12  32
ATOM     32  C   UNL A   1      33.702  18.724  24.578  1.00  0.00    -0.045 A 
ATOM     33  C   UNL A   1      32.817  18.372  25.609  1.00  0.00     0.004 A 
ATOM     34  C   UNL A   1      34.084  17.729  23.664  1.00  0.00     0.004 A 
ATOM     35  C   UNL A   1      32.383  17.054  25.756  1.00  0.00     0.000 A 
ATOM     36  C   UNL A   1      33.642  16.415  23.806  1.00  0.00     0.000 A 
ATOM     37  C   UNL A   1      32.802  16.073  24.862  1.00  0.00     0.000 A 
ENDBRANCH  12  32
ENDBRANCH   4   7
ENDBRANCH   2   3
ENDBRANCH   1   2
BRANCH   1  38
ATOM     38  C   UNL A   1      37.406  23.530  24.854  1.00  0.00     0.002 C 
BRANCH  38  39
ATOM     39  C   UNL A   1      38.078  22.513  25.782  1.00  0.00     0.002 C 
BRANCH  39  40
ATOM     40  C   UNL A   1      38.568  21.208  25.147  1.00  0.00     0.021 C 
BRANCH  40  41
ATOM     41  C   UNL A   1      38.769  20.028  26.093  1.00  0.00     0.116 C 
BRANCH  41  42
ATOM     42  N   UNL A   1      39.997  19.298  25.840  1.00  0.00    -0.352 N 
ATOM     43  C   UNL A   1      41.303  19.703  25.951  1.00  0.00     0.251 C 
ATOM     44  H   UNL A   1      39.875  18.367  25.543  1.00  0.00     0.163 HD
ATOM     45  O   UNL A   1      42.207  18.964  25.575  1.00  0.00    -0.269 OA
BRANCH  43  46
ATOM     46  C   UNL A   1      41.629  21.036  26.501  1.00  0.00     0.039 A 
ATOM     47  C   UNL A   1      42.082  22.028  25.626  1.00  0.00     0.014 A 
ATOM     48  C   UNL A   1      41.526  21.301  27.868  1.00  0.00     0.014 A 
ATOM     49  C   UNL A   1      42.386  23.301  26.114  1.00  0.00     0.010 A 
ATOM     50  C   UNL A   1      41.765  22.587  28.344  1.00  0.00     0.010 A 
ATOM     51  C   UNL A   1      42.207  23.596  27.472  1.00  0.00    -0.014 A 
BRANCH  51  52
ATOM     52  C   UNL A   1      42.508  24.941  28.021  1.00  0.00     0.031 A 
ATOM     53  C   UNL A   1      43.900  25.260  28.492  1.00  0.00     0.074 A 
ATOM     54  C   UNL A   1      41.521  25.843  28.171  1.00  0.00     0.049 A 
ATOM     55  N   UNL A   1      44.340  26.322  29.114  1.00  0.00    -0.248 NA
ATOM     56  C   UNL A   1      44.925  24.230  28.258  1.00  0.00     0.031 C 
ATOM     57  C   UNL A   1      40.125  25.647  27.776  1.00  0.00     0.029 A 
ATOM     58  N   UNL A   1      41.541  27.102  28.716  1.00  0.00    -0.354 N 
ATOM     59  C   UNL A   1      45.683  26.076  29.374  1.00  0.00     0.074 A 
ATOM     60  C   UNL A   1      45.973  24.749  28.878  1.00  0.00     0.031 C 
ATOM     61  C   UNL A   1      39.425  26.752  28.081  1.00  0.00     0.029 A 
ATOM     62  C   UNL A   1      40.312  27.714  28.727  1.00  0.00     0.049 A 
ATOM     63  H   UNL A   1      42.358  27.526  29.064  1.00  0.00     0.167 HD
ATOM     64  C   UNL A   1      46.595  26.887  29.962  1.00  0.00     0.031 A 
ATOM     65  C   UNL A   1      39.938  28.912  29.217  1.00  0.00     0.031 A 
ATOM     66  C   UNL A   1      46.308  28.213  30.437  1.00  0.00     0.049 A 
ATOM     67  C   UNL A   1      40.967  29.796  29.865  1.00  0.00     0.074 A 
ATOM     68  C   UNL A   1      47.175  29.136  30.996  1.00  0.00     0.029 A 
ATOM     69  N   UNL A   1      45.056  28.807  30.406  1.00  0.00    -0.354 N 
ATOM     70  N   UNL A   1      42.243  29.569  30.062  1.00  0.00    -0.248 NA
ATOM     71  C   UNL A   1      40.505  31.104  30.348  1.00  0.00     0.031 C 
ATOM     72  C   UNL A   1      46.437  30.273  31.343  1.00  0.00     0.029 A 
ATOM     73  C   UNL A   1      45.121  30.077  30.951  1.00  0.00     0.049 A 
ATOM     74  H   UNL A   1      44.240  28.387  30.048  1.00  0.00     0.167 HD
ATOM     75  C   UNL A   1      42.742  30.717  30.663  1.00  0.00     0.074 A 
ATOM     76  C   UNL A   1      41.633  31.640  30.792  1.00  0.00     0.031 C 
ATOM     77  C   UNL A   1      44.009  30.984  31.066  1.00  0.00     0.031 A 
BRANCH  64  78
ATOM     78  C   UNL A   1      47.986  26.344  30.135  1.00  0.00    -0.014 A 
ATOM     79  C   UNL A   1      48.382  25.713  31.325  1.00  0.00     0.009 A 
ATOM     80  C   UNL A   1      48.914  26.460  29.087  1.00  0.00     0.009 A 
ATOM     81  C   UNL A   1      49.692  25.253  31.480  1.00  0.00     0.001 A 
ATOM     82  C   UNL A   1      50.213  25.971  29.234  1.00  0.00     0.001 A 
ATOM     83  C   UNL A   1      50.605  25.381  30.435  1.00  0.00     0.000 A 
ENDBRANCH  64  78
BRANCH  65  84
ATOM     84  C   UNL A   1      38.524  29.349  29.095  1.00  0.00    -0.014 A 
ATOM     85  C   UNL A   1      37.654  29.248  30.192  1.00  0.00     0.009 A 
ATOM     86  C   UNL A   1      38.040  29.884  27.891  1.00  0.00     0.009 A 
ATOM     87  C   UNL A   1      36.323  29.657  30.079  1.00  0.00     0.001 A 
ATOM     88  C   UNL A   1      36.717  30.317  27.790  1.00  0.00     0.001 A 
ATOM     89  C   UNL A   1      35.857  30.196  28.881  1.00  0.00     0.000 A 
ENDBRANCH  65  84
BRANCH  77  90
ATOM     90  C   UNL A   1      44.275  32.344  31.646  1.00  0.00    -0.014 A 
ATOM     91  C   UNL A   1      44.559  33.446  30.825  1.00  0.00     0.009 A 
ATOM     92  C   UNL A   1      44.185  32.533  33.034  1.00  0.00     0.009 A 
ATOM     93  C   UNL A   1      44.771  34.706  31.388  1.00  0.00     0.001 A 
ATOM     94  C   UNL A   1      44.372  33.798  33.591  1.00  0.00     0.001 A 
ATOM     95  C   UNL A   1      44.673  34.882  32.767  1.00  0.00     0.000 A 
ENDBRANCH  77  90
ENDBRANCH  51  52
ENDBRANCH  43  46
ENDBRANCH  41  42
ENDBRANCH  40  41
ENDBRANCH  39  40
ENDBRANCH  38  39
ENDBRANCH   1  38
TORSDOF 18
ENDMDL
