MODEL 1
REMARK VINA RESULT:     -11.0      0.000      0.000
REMARK SMILES Cc1n[nH]c(CN(C)C(=O)N[C@](C)(C(=O)NCCCCCCNC(=O)c2ccc(-c3c4nc(c(-c5ccccc5)c5ccc([nH]5)c(-c5ccccc5)c5nc(c(-c6ccccc6)c6ccc3[nH]6)C=C5)C=C4)cc2)C(F)(F)F)n1
REMARK SMILES IDX 18 1 17 2 16 3 14 4 15 5 12 7 13 8 11 9 9 10 10 11 7 13 8 14
REMARK SMILES IDX 6 15 5 16 1 17 2 18 3 19 78 20 4 21 74 23 75 24 76 25 77 26
REMARK SMILES IDX 19 27 20 28 21 29 22 30 23 31 24 32 25 34 26 35 27 36 73 37
REMARK SMILES IDX 28 38 72 39 29 40 30 41 31 42 66 43 32 44 71 45 65 46 67 47
REMARK SMILES IDX 33 48 70 49 64 50 63 51 34 53 56 54 41 55 55 56 42 57 45 58
REMARK SMILES IDX 54 59 68 60 43 61 44 62 53 64 69 65 46 66 35 67 36 68 40 69
REMARK SMILES IDX 37 70 39 71 38 72 57 73 58 74 62 75 59 76 61 77 60 78 47 79
REMARK SMILES IDX 48 80 52 81 49 82 51 83 50 84
REMARK H PARENT 16 6 11 12 4 22 23 33 67 52 45 63
REMARK Flexibility Score: inf
ROOT
ATOM      1  C   UNL A   1      39.017  22.461  26.561  1.00  0.00     0.021 C 
ENDROOT
BRANCH   1   2
ATOM      2  C   UNL A   1      38.022  21.794  25.606  1.00  0.00     0.116 C 
BRANCH   2   3
ATOM      3  N   UNL A   1      37.817  22.636  24.434  1.00  0.00    -0.354 N 
ATOM      4  C   UNL A   1      36.666  22.972  23.761  1.00  0.00     0.255 C 
ATOM      5  O   UNL A   1      36.811  23.253  22.570  1.00  0.00    -0.272 OA
ATOM      6  H   UNL A   1      38.639  23.030  24.064  1.00  0.00     0.163 HD
BRANCH   4   7
ATOM      7  C   UNL A   1      35.281  22.895  24.451  1.00  0.00     0.213 C 
ATOM      8  C   UNL A   1      34.243  23.501  23.452  1.00  0.00     0.056 C 
BRANCH   7   9
ATOM      9  N   UNL A   1      34.997  21.418  24.602  1.00  0.00    -0.316 N 
ATOM     10  C   UNL A   1      33.961  20.570  24.529  1.00  0.00     0.318 C 
ATOM     11  O   UNL A   1      34.251  19.406  24.837  1.00  0.00    -0.249 OA
ATOM     12  H   UNL A   1      35.823  20.930  24.820  1.00  0.00     0.166 HD
BRANCH  10  13
ATOM     13  N   UNL A   1      32.695  20.896  24.159  1.00  0.00    -0.320 N 
ATOM     14  C   UNL A   1      32.166  21.229  22.852  1.00  0.00     0.149 C 
BRANCH  13  15
ATOM     15  C   UNL A   1      31.692  20.930  25.228  1.00  0.00     0.197 C 
BRANCH  15  16
ATOM     16  C   UNL A   1      31.471  22.310  25.744  1.00  0.00     0.144 A 
ATOM     17  C   UNL A   1      30.495  25.700  25.890  1.00  0.00     0.092 C 
ATOM     18  C   UNL A   1      31.007  24.333  26.110  1.00  0.00     0.147 A 
ATOM     19  N   UNL A   1      31.484  23.926  27.292  1.00  0.00    -0.159 NA
ATOM     20  N   UNL A   1      31.018  23.381  25.123  1.00  0.00    -0.215 NA
ATOM     21  N   UNL A   1      31.740  22.634  27.042  1.00  0.00    -0.262 N 
ATOM     22  H   UNL A   1      32.078  21.997  27.713  1.00  0.00     0.192 HD
ENDBRANCH  15  16
ENDBRANCH  13  15
ENDBRANCH  10  13
ENDBRANCH   7   9
BRANCH   7  23
ATOM     23  C   UNL A   1      35.206  23.717  25.775  1.00  0.00     0.420 C 
ATOM     24  F   UNL A   1      35.050  22.993  26.901  1.00  0.00    -0.168 F 
ATOM     25  F   UNL A   1      36.310  24.480  25.983  1.00  0.00    -0.168 F 
ATOM     26  F   UNL A   1      34.166  24.591  25.731  1.00  0.00    -0.168 F 
ENDBRANCH   7  23
ENDBRANCH   4   7
ENDBRANCH   2   3
ENDBRANCH   1   2
BRANCH   1  27
ATOM     27  C   UNL A   1      40.468  22.011  26.358  1.00  0.00     0.002 C 
BRANCH  27  28
ATOM     28  C   UNL A   1      41.106  21.260  27.538  1.00  0.00     0.002 C 
BRANCH  28  29
ATOM     29  C   UNL A   1      41.939  20.015  27.194  1.00  0.00     0.021 C 
BRANCH  29  30
ATOM     30  C   UNL A   1      42.066  19.740  25.704  1.00  0.00     0.116 C 
BRANCH  30  31
ATOM     31  N   UNL A   1      43.458  19.586  25.267  1.00  0.00    -0.352 N 
ATOM     32  C   UNL A   1      44.383  20.562  24.926  1.00  0.00     0.251 C 
ATOM     33  H   UNL A   1      43.781  18.658  25.208  1.00  0.00     0.163 HD
ATOM     34  O   UNL A   1      45.352  20.295  24.238  1.00  0.00    -0.269 OA
BRANCH  32  35
ATOM     35  C   UNL A   1      44.178  21.934  25.425  1.00  0.00     0.039 A 
ATOM     36  C   UNL A   1      43.429  22.888  24.729  1.00  0.00     0.014 A 
ATOM     37  C   UNL A   1      44.762  22.252  26.644  1.00  0.00     0.014 A 
ATOM     38  C   UNL A   1      43.237  24.141  25.314  1.00  0.00     0.010 A 
ATOM     39  C   UNL A   1      44.360  23.364  27.319  1.00  0.00     0.010 A 
ATOM     40  C   UNL A   1      43.707  24.362  26.617  1.00  0.00    -0.014 A 
BRANCH  40  41
ATOM     41  C   UNL A   1      43.494  25.610  27.330  1.00  0.00     0.031 A 
ATOM     42  C   UNL A   1      44.434  26.691  26.963  1.00  0.00     0.074 A 
ATOM     43  C   UNL A   1      42.375  25.850  28.049  1.00  0.00     0.049 A 
ATOM     44  N   UNL A   1      45.370  27.196  27.693  1.00  0.00    -0.248 NA
ATOM     45  C   UNL A   1      44.428  27.176  25.572  1.00  0.00     0.031 C 
ATOM     46  C   UNL A   1      41.179  25.007  28.207  1.00  0.00     0.029 A 
ATOM     47  N   UNL A   1      42.014  26.987  28.697  1.00  0.00    -0.354 N 
ATOM     48  C   UNL A   1      45.939  28.209  26.931  1.00  0.00     0.074 A 
ATOM     49  C   UNL A   1      45.465  28.014  25.584  1.00  0.00     0.031 C 
ATOM     50  C   UNL A   1      40.157  25.752  28.686  1.00  0.00     0.029 A 
ATOM     51  C   UNL A   1      40.668  27.064  29.034  1.00  0.00     0.049 A 
ATOM     52  H   UNL A   1      42.657  27.701  28.912  1.00  0.00     0.167 HD
ATOM     53  C   UNL A   1      46.533  29.285  27.521  1.00  0.00     0.031 A 
ATOM     54  C   UNL A   1      40.024  28.149  29.533  1.00  0.00     0.031 A 
ATOM     55  C   UNL A   1      46.756  29.058  28.929  1.00  0.00     0.049 A 
ATOM     56  C   UNL A   1      41.060  29.058  30.076  1.00  0.00     0.074 A 
ATOM     57  C   UNL A   1      47.444  28.112  29.666  1.00  0.00     0.029 A 
ATOM     58  N   UNL A   1      45.868  29.639  29.804  1.00  0.00    -0.354 N 
ATOM     59  N   UNL A   1      41.785  28.773  31.119  1.00  0.00    -0.248 NA
ATOM     60  C   UNL A   1      41.612  30.068  29.188  1.00  0.00     0.031 C 
ATOM     61  C   UNL A   1      46.597  27.833  30.780  1.00  0.00     0.029 A 
ATOM     62  C   UNL A   1      45.488  28.677  30.704  1.00  0.00     0.049 A 
ATOM     63  H   UNL A   1      45.561  30.574  29.788  1.00  0.00     0.167 HD
ATOM     64  C   UNL A   1      43.060  29.215  30.792  1.00  0.00     0.074 A 
ATOM     65  C   UNL A   1      42.871  30.094  29.637  1.00  0.00     0.031 C 
ATOM     66  C   UNL A   1      44.171  28.599  31.295  1.00  0.00     0.031 A 
BRANCH  53  67
ATOM     67  C   UNL A   1      46.510  30.676  26.938  1.00  0.00    -0.014 A 
ATOM     68  C   UNL A   1      47.706  31.418  26.930  1.00  0.00     0.009 A 
ATOM     69  C   UNL A   1      45.327  31.387  26.659  1.00  0.00     0.009 A 
ATOM     70  C   UNL A   1      47.703  32.805  26.743  1.00  0.00     0.001 A 
ATOM     71  C   UNL A   1      45.325  32.765  26.429  1.00  0.00     0.001 A 
ATOM     72  C   UNL A   1      46.511  33.479  26.503  1.00  0.00     0.000 A 
ENDBRANCH  53  67
BRANCH  54  73
ATOM     73  C   UNL A   1      38.623  28.587  29.356  1.00  0.00    -0.014 A 
ATOM     74  C   UNL A   1      37.791  28.776  30.472  1.00  0.00     0.009 A 
ATOM     75  C   UNL A   1      38.190  29.106  28.122  1.00  0.00     0.009 A 
ATOM     76  C   UNL A   1      36.599  29.507  30.368  1.00  0.00     0.001 A 
ATOM     77  C   UNL A   1      36.998  29.833  28.019  1.00  0.00     0.001 A 
ATOM     78  C   UNL A   1      36.213  30.051  29.146  1.00  0.00     0.000 A 
ENDBRANCH  54  73
BRANCH  66  79
ATOM     79  C   UNL A   1      43.979  27.568  32.384  1.00  0.00    -0.014 A 
ATOM     80  C   UNL A   1      43.326  27.841  33.601  1.00  0.00     0.009 A 
ATOM     81  C   UNL A   1      44.337  26.241  32.108  1.00  0.00     0.009 A 
ATOM     82  C   UNL A   1      43.072  26.820  34.524  1.00  0.00     0.001 A 
ATOM     83  C   UNL A   1      44.063  25.219  33.021  1.00  0.00     0.001 A 
ATOM     84  C   UNL A   1      43.436  25.509  34.231  1.00  0.00     0.000 A 
ENDBRANCH  66  79
ENDBRANCH  40  41
ENDBRANCH  32  35
ENDBRANCH  30  31
ENDBRANCH  29  30
ENDBRANCH  28  29
ENDBRANCH  27  28
ENDBRANCH   1  27
TORSDOF 18
ENDMDL
MODEL 2
REMARK VINA RESULT:     -10.7      1.588      2.160
REMARK SMILES Cc1n[nH]c(CN(C)C(=O)N[C@](C)(C(=O)NCCCCCCNC(=O)c2ccc(-c3c4nc(c(-c5ccccc5)c5ccc([nH]5)c(-c5ccccc5)c5nc(c(-c6ccccc6)c6ccc3[nH]6)C=C5)C=C4)cc2)C(F)(F)F)n1
REMARK SMILES IDX 18 1 17 2 16 3 14 4 15 5 12 7 13 8 11 9 9 10 10 11 7 13 8 14
REMARK SMILES IDX 6 15 5 16 1 17 2 18 3 19 78 20 4 21 74 23 75 24 76 25 77 26
REMARK SMILES IDX 19 27 20 28 21 29 22 30 23 31 24 32 25 34 26 35 27 36 73 37
REMARK SMILES IDX 28 38 72 39 29 40 30 41 31 42 66 43 32 44 71 45 65 46 67 47
REMARK SMILES IDX 33 48 70 49 64 50 63 51 34 53 56 54 41 55 55 56 42 57 45 58
REMARK SMILES IDX 54 59 68 60 43 61 44 62 53 64 69 65 46 66 35 67 36 68 40 69
REMARK SMILES IDX 37 70 39 71 38 72 57 73 58 74 62 75 59 76 61 77 60 78 47 79
REMARK SMILES IDX 48 80 52 81 49 82 51 83 50 84
REMARK H PARENT 16 6 11 12 4 22 23 33 67 52 45 63
REMARK Flexibility Score: inf
ROOT
ATOM      1  C   UNL A   1      38.634  21.413  25.722  1.00  0.00     0.021 C 
ENDROOT
BRANCH   1   2
ATOM      2  C   UNL A   1      37.571  22.412  25.253  1.00  0.00     0.116 C 
BRANCH   2   3
ATOM      3  N   UNL A   1      36.523  22.533  26.259  1.00  0.00    -0.354 N 
ATOM      4  C   UNL A   1      35.163  22.685  26.124  1.00  0.00     0.255 C 
ATOM      5  O   UNL A   1      34.598  23.254  27.060  1.00  0.00    -0.272 OA
ATOM      6  H   UNL A   1      36.843  22.500  27.189  1.00  0.00     0.163 HD
BRANCH   4   7
ATOM      7  C   UNL A   1      34.432  22.254  24.829  1.00  0.00     0.213 C 
ATOM      8  C   UNL A   1      34.722  20.730  24.632  1.00  0.00     0.056 C 
BRANCH   7   9
ATOM      9  N   UNL A   1      32.961  22.427  25.128  1.00  0.00    -0.316 N 
ATOM     10  C   UNL A   1      32.048  23.406  25.204  1.00  0.00     0.318 C 
ATOM     11  O   UNL A   1      30.937  23.020  25.592  1.00  0.00    -0.249 OA
ATOM     12  H   UNL A   1      32.547  21.558  25.330  1.00  0.00     0.166 HD
BRANCH  10  13
ATOM     13  N   UNL A   1      32.260  24.713  24.895  1.00  0.00    -0.320 N 
ATOM     14  C   UNL A   1      32.797  25.784  25.709  1.00  0.00     0.149 C 
BRANCH  13  15
ATOM     15  C   UNL A   1      31.888  25.130  23.539  1.00  0.00     0.197 C 
BRANCH  15  16
ATOM     16  C   UNL A   1      30.679  26.001  23.534  1.00  0.00     0.144 A 
ATOM     17  C   UNL A   1      28.567  28.773  22.966  1.00  0.00     0.092 C 
ATOM     18  C   UNL A   1      29.207  27.497  23.343  1.00  0.00     0.147 A 
ATOM     19  N   UNL A   1      28.527  26.490  23.902  1.00  0.00    -0.159 NA
ATOM     20  N   UNL A   1      30.540  27.250  23.136  1.00  0.00    -0.215 NA
ATOM     21  N   UNL A   1      29.474  25.544  23.982  1.00  0.00    -0.262 N 
ATOM     22  H   UNL A   1      29.318  24.632  24.320  1.00  0.00     0.192 HD
ENDBRANCH  15  16
ENDBRANCH  13  15
ENDBRANCH  10  13
ENDBRANCH   7   9
BRANCH   7  23
ATOM     23  C   UNL A   1      34.937  23.003  23.557  1.00  0.00     0.420 C 
ATOM     24  F   UNL A   1      36.064  22.514  23.003  1.00  0.00    -0.168 F 
ATOM     25  F   UNL A   1      34.018  23.023  22.558  1.00  0.00    -0.168 F 
ATOM     26  F   UNL A   1      35.185  24.309  23.845  1.00  0.00    -0.168 F 
ENDBRANCH   7  23
ENDBRANCH   4   7
ENDBRANCH   2   3
ENDBRANCH   1   2
BRANCH   1  27
ATOM     27  C   UNL A   1      39.798  22.058  26.481  1.00  0.00     0.002 C 
BRANCH  27  28
ATOM     28  C   UNL A   1      40.746  21.085  27.201  1.00  0.00     0.002 C 
BRANCH  28  29
ATOM     29  C   UNL A   1      41.315  19.929  26.364  1.00  0.00     0.021 C 
BRANCH  29  30
ATOM     30  C   UNL A   1      42.679  19.437  26.823  1.00  0.00     0.116 C 
BRANCH  30  31
ATOM     31  N   UNL A   1      43.681  19.452  25.753  1.00  0.00    -0.352 N 
ATOM     32  C   UNL A   1      44.114  20.512  24.971  1.00  0.00     0.251 C 
ATOM     33  H   UNL A   1      44.108  18.584  25.563  1.00  0.00     0.163 HD
ATOM     34  O   UNL A   1      44.657  20.320  23.897  1.00  0.00    -0.269 OA
BRANCH  32  35
ATOM     35  C   UNL A   1      43.918  21.885  25.472  1.00  0.00     0.039 A 
ATOM     36  C   UNL A   1      43.055  22.798  24.858  1.00  0.00     0.014 A 
ATOM     37  C   UNL A   1      44.630  22.246  26.607  1.00  0.00     0.014 A 
ATOM     38  C   UNL A   1      42.885  24.053  25.443  1.00  0.00     0.010 A 
ATOM     39  C   UNL A   1      44.269  23.356  27.310  1.00  0.00     0.010 A 
ATOM     40  C   UNL A   1      43.498  24.316  26.678  1.00  0.00    -0.014 A 
BRANCH  40  41
ATOM     41  C   UNL A   1      43.324  25.568  27.393  1.00  0.00     0.031 A 
ATOM     42  C   UNL A   1      44.278  26.630  27.007  1.00  0.00     0.074 A 
ATOM     43  C   UNL A   1      42.224  25.830  28.135  1.00  0.00     0.049 A 
ATOM     44  N   UNL A   1      45.237  27.118  27.717  1.00  0.00    -0.248 NA
ATOM     45  C   UNL A   1      44.253  27.114  25.616  1.00  0.00     0.031 C 
ATOM     46  C   UNL A   1      41.016  25.011  28.317  1.00  0.00     0.029 A 
ATOM     47  N   UNL A   1      41.899  26.974  28.789  1.00  0.00    -0.354 N 
ATOM     48  C   UNL A   1      45.810  28.119  26.943  1.00  0.00     0.074 A 
ATOM     49  C   UNL A   1      45.306  27.932  25.606  1.00  0.00     0.031 C 
ATOM     50  C   UNL A   1      40.019  25.776  28.815  1.00  0.00     0.029 A 
ATOM     51  C   UNL A   1      40.561  27.077  29.152  1.00  0.00     0.049 A 
ATOM     52  H   UNL A   1      42.560  27.676  28.990  1.00  0.00     0.167 HD
ATOM     53  C   UNL A   1      46.437  29.183  27.520  1.00  0.00     0.031 A 
ATOM     54  C   UNL A   1      39.949  28.175  29.663  1.00  0.00     0.031 A 
ATOM     55  C   UNL A   1      46.684  28.953  28.923  1.00  0.00     0.049 A 
ATOM     56  C   UNL A   1      41.013  29.064  30.184  1.00  0.00     0.074 A 
ATOM     57  C   UNL A   1      47.368  27.995  29.647  1.00  0.00     0.029 A 
ATOM     58  N   UNL A   1      45.824  29.552  29.815  1.00  0.00    -0.354 N 
ATOM     59  N   UNL A   1      41.753  28.767  31.212  1.00  0.00    -0.248 NA
ATOM     60  C   UNL A   1      41.567  30.063  29.284  1.00  0.00     0.031 C 
ATOM     61  C   UNL A   1      46.538  27.732  30.779  1.00  0.00     0.029 A 
ATOM     62  C   UNL A   1      45.445  28.598  30.724  1.00  0.00     0.049 A 
ATOM     63  H   UNL A   1      45.536  30.493  29.804  1.00  0.00     0.167 HD
ATOM     64  C   UNL A   1      43.029  29.183  30.859  1.00  0.00     0.074 A 
ATOM     65  C   UNL A   1      42.834  30.065  29.708  1.00  0.00     0.031 C 
ATOM     66  C   UNL A   1      44.138  28.546  31.341  1.00  0.00     0.031 A 
BRANCH  53  67
ATOM     67  C   UNL A   1      46.429  30.575  26.936  1.00  0.00    -0.014 A 
ATOM     68  C   UNL A   1      47.623  31.319  26.967  1.00  0.00     0.009 A 
ATOM     69  C   UNL A   1      45.254  31.281  26.618  1.00  0.00     0.009 A 
ATOM     70  C   UNL A   1      47.622  32.706  26.779  1.00  0.00     0.001 A 
ATOM     71  C   UNL A   1      45.256  32.659  26.387  1.00  0.00     0.001 A 
ATOM     72  C   UNL A   1      46.436  33.377  26.500  1.00  0.00     0.000 A 
ENDBRANCH  53  67
BRANCH  54  73
ATOM     73  C   UNL A   1      38.553  28.640  29.513  1.00  0.00    -0.014 A 
ATOM     74  C   UNL A   1      37.782  28.951  30.645  1.00  0.00     0.009 A 
ATOM     75  C   UNL A   1      38.075  29.064  28.260  1.00  0.00     0.009 A 
ATOM     76  C   UNL A   1      36.607  29.708  30.534  1.00  0.00     0.001 A 
ATOM     77  C   UNL A   1      36.899  29.817  28.150  1.00  0.00     0.001 A 
ATOM     78  C   UNL A   1      36.177  30.156  29.288  1.00  0.00     0.000 A 
ENDBRANCH  54  73
BRANCH  66  79
ATOM     79  C   UNL A   1      43.948  27.520  32.435  1.00  0.00    -0.014 A 
ATOM     80  C   UNL A   1      43.961  26.131  32.204  1.00  0.00     0.009 A 
ATOM     81  C   UNL A   1      43.904  27.969  33.762  1.00  0.00     0.009 A 
ATOM     82  C   UNL A   1      43.899  25.226  33.269  1.00  0.00     0.001 A 
ATOM     83  C   UNL A   1      43.865  27.065  34.825  1.00  0.00     0.001 A 
ATOM     84  C   UNL A   1      43.856  25.694  34.579  1.00  0.00     0.000 A 
ENDBRANCH  66  79
ENDBRANCH  40  41
ENDBRANCH  32  35
ENDBRANCH  30  31
ENDBRANCH  29  30
ENDBRANCH  28  29
ENDBRANCH  27  28
ENDBRANCH   1  27
TORSDOF 18
ENDMDL
MODEL 3
REMARK VINA RESULT:     -10.6      3.049      8.163
REMARK SMILES Cc1n[nH]c(CN(C)C(=O)N[C@](C)(C(=O)NCCCCCCNC(=O)c2ccc(-c3c4nc(c(-c5ccccc5)c5ccc([nH]5)c(-c5ccccc5)c5nc(c(-c6ccccc6)c6ccc3[nH]6)C=C5)C=C4)cc2)C(F)(F)F)n1
REMARK SMILES IDX 18 1 17 2 16 3 14 4 15 5 12 7 13 8 11 9 9 10 10 11 7 13 8 14
REMARK SMILES IDX 6 15 5 16 1 17 2 18 3 19 78 20 4 21 74 23 75 24 76 25 77 26
REMARK SMILES IDX 19 27 20 28 21 29 22 30 23 31 24 32 25 34 26 35 27 36 73 37
REMARK SMILES IDX 28 38 72 39 29 40 30 41 31 42 66 43 32 44 71 45 65 46 67 47
REMARK SMILES IDX 33 48 70 49 64 50 63 51 34 53 56 54 41 55 55 56 42 57 45 58
REMARK SMILES IDX 54 59 68 60 43 61 44 62 53 64 69 65 46 66 35 67 36 68 40 69
REMARK SMILES IDX 37 70 39 71 38 72 57 73 58 74 62 75 59 76 61 77 60 78 47 79
REMARK SMILES IDX 48 80 52 81 49 82 51 83 50 84
REMARK H PARENT 16 6 11 12 4 22 23 33 67 52 45 63
REMARK Flexibility Score: inf
ROOT
ATOM      1  C   UNL A   1      34.859  30.338  27.411  1.00  0.00     0.021 C 
ENDROOT
BRANCH   1   2
ATOM      2  C   UNL A   1      34.310  29.013  26.873  1.00  0.00     0.116 C 
BRANCH   2   3
ATOM      3  N   UNL A   1      33.217  28.547  27.717  1.00  0.00    -0.354 N 
ATOM      4  C   UNL A   1      32.125  27.765  27.422  1.00  0.00     0.255 C 
ATOM      5  O   UNL A   1      31.138  27.941  28.139  1.00  0.00    -0.272 OA
ATOM      6  H   UNL A   1      33.271  28.842  28.655  1.00  0.00     0.163 HD
BRANCH   4   7
ATOM      7  C   UNL A   1      32.128  26.811  26.202  1.00  0.00     0.213 C 
ATOM      8  C   UNL A   1      33.624  26.590  25.805  1.00  0.00     0.056 C 
BRANCH   7   9
ATOM      9  N   UNL A   1      31.572  25.505  26.721  1.00  0.00    -0.316 N 
ATOM     10  C   UNL A   1      31.266  24.280  26.269  1.00  0.00     0.318 C 
ATOM     11  O   UNL A   1      30.727  23.559  27.120  1.00  0.00    -0.249 OA
ATOM     12  H   UNL A   1      31.372  25.575  27.682  1.00  0.00     0.166 HD
BRANCH  10  13
ATOM     13  N   UNL A   1      31.500  23.817  25.014  1.00  0.00    -0.320 N 
ATOM     14  C   UNL A   1      30.677  23.898  23.825  1.00  0.00     0.149 C 
BRANCH  13  15
ATOM     15  C   UNL A   1      32.772  23.116  24.805  1.00  0.00     0.197 C 
BRANCH  15  16
ATOM     16  C   UNL A   1      32.581  21.646  24.655  1.00  0.00     0.144 A 
ATOM     17  C   UNL A   1      32.602  18.405  23.254  1.00  0.00     0.092 C 
ATOM     18  C   UNL A   1      32.462  19.622  24.077  1.00  0.00     0.147 A 
ATOM     19  N   UNL A   1      32.036  19.588  25.345  1.00  0.00    -0.159 NA
ATOM     20  N   UNL A   1      32.770  20.873  23.604  1.00  0.00    -0.215 NA
ATOM     21  N   UNL A   1      32.153  20.876  25.698  1.00  0.00    -0.262 N 
ATOM     22  H   UNL A   1      31.955  21.223  26.598  1.00  0.00     0.192 HD
ENDBRANCH  15  16
ENDBRANCH  13  15
ENDBRANCH  10  13
ENDBRANCH   7   9
BRANCH   7  23
ATOM     23  C   UNL A   1      31.386  27.395  24.961  1.00  0.00     0.420 C 
ATOM     24  F   UNL A   1      31.323  28.740  24.901  1.00  0.00    -0.168 F 
ATOM     25  F   UNL A   1      31.940  27.004  23.784  1.00  0.00    -0.168 F 
ATOM     26  F   UNL A   1      30.103  26.947  24.921  1.00  0.00    -0.168 F 
ENDBRANCH   7  23
ENDBRANCH   4   7
ENDBRANCH   2   3
ENDBRANCH   1   2
BRANCH   1  27
ATOM     27  C   UNL A   1      33.783  31.399  27.660  1.00  0.00     0.002 C 
BRANCH  27  28
ATOM     28  C   UNL A   1      34.298  32.796  28.045  1.00  0.00     0.002 C 
BRANCH  28  29
ATOM     29  C   UNL A   1      35.818  33.015  27.973  1.00  0.00     0.021 C 
BRANCH  29  30
ATOM     30  C   UNL A   1      36.377  33.877  29.094  1.00  0.00     0.116 C 
BRANCH  30  31
ATOM     31  N   UNL A   1      35.668  33.695  30.364  1.00  0.00    -0.352 N 
ATOM     32  C   UNL A   1      35.627  32.585  31.195  1.00  0.00     0.251 C 
ATOM     33  H   UNL A   1      35.146  34.472  30.671  1.00  0.00     0.163 HD
ATOM     34  O   UNL A   1      34.726  32.436  32.000  1.00  0.00    -0.269 OA
BRANCH  32  35
ATOM     35  C   UNL A   1      36.711  31.589  31.095  1.00  0.00     0.039 A 
ATOM     36  C   UNL A   1      36.490  30.272  30.681  1.00  0.00     0.014 A 
ATOM     37  C   UNL A   1      37.989  32.017  31.428  1.00  0.00     0.014 A 
ATOM     38  C   UNL A   1      37.589  29.420  30.555  1.00  0.00     0.010 A 
ATOM     39  C   UNL A   1      39.069  31.275  31.058  1.00  0.00     0.010 A 
ATOM     40  C   UNL A   1      38.878  29.941  30.743  1.00  0.00    -0.014 A 
BRANCH  40  41
ATOM     41  C   UNL A   1      40.081  29.147  30.568  1.00  0.00     0.031 A 
ATOM     42  C   UNL A   1      40.805  28.849  31.823  1.00  0.00     0.074 A 
ATOM     43  C   UNL A   1      40.362  28.504  29.412  1.00  0.00     0.049 A 
ATOM     44  N   UNL A   1      41.952  29.308  32.193  1.00  0.00    -0.248 NA
ATOM     45  C   UNL A   1      40.113  28.058  32.854  1.00  0.00     0.031 C 
ATOM     46  C   UNL A   1      39.550  28.406  28.190  1.00  0.00     0.029 A 
ATOM     47  N   UNL A   1      41.401  27.676  29.136  1.00  0.00    -0.354 N 
ATOM     48  C   UNL A   1      42.227  28.701  33.412  1.00  0.00     0.074 A 
ATOM     49  C   UNL A   1      40.989  28.113  33.858  1.00  0.00     0.031 C 
ATOM     50  C   UNL A   1      40.003  27.388  27.423  1.00  0.00     0.029 A 
ATOM     51  C   UNL A   1      41.232  26.886  28.006  1.00  0.00     0.049 A 
ATOM     52  H   UNL A   1      42.212  27.639  29.694  1.00  0.00     0.167 HD
ATOM     53  C   UNL A   1      43.511  28.496  33.823  1.00  0.00     0.031 A 
ATOM     54  C   UNL A   1      42.038  25.869  27.606  1.00  0.00     0.031 A 
ATOM     55  C   UNL A   1      44.448  29.245  33.021  1.00  0.00     0.049 A 
ATOM     56  C   UNL A   1      43.335  26.045  28.301  1.00  0.00     0.074 A 
ATOM     57  C   UNL A   1      44.622  30.584  32.723  1.00  0.00     0.029 A 
ATOM     58  N   UNL A   1      45.127  28.554  32.044  1.00  0.00    -0.354 N 
ATOM     59  N   UNL A   1      44.146  27.033  28.060  1.00  0.00    -0.248 NA
ATOM     60  C   UNL A   1      43.513  25.388  29.586  1.00  0.00     0.031 C 
ATOM     61  C   UNL A   1      44.955  30.607  31.335  1.00  0.00     0.029 A 
ATOM     62  C   UNL A   1      45.046  29.288  30.889  1.00  0.00     0.049 A 
ATOM     63  H   UNL A   1      45.588  27.691  32.154  1.00  0.00     0.167 HD
ATOM     64  C   UNL A   1      44.617  27.412  29.309  1.00  0.00     0.074 A 
ATOM     65  C   UNL A   1      44.274  26.301  30.197  1.00  0.00     0.031 C 
ATOM     66  C   UNL A   1      44.971  28.707  29.567  1.00  0.00     0.031 A 
BRANCH  53  67
ATOM     67  C   UNL A   1      43.946  27.305  34.641  1.00  0.00    -0.014 A 
ATOM     68  C   UNL A   1      44.770  27.528  35.760  1.00  0.00     0.009 A 
ATOM     69  C   UNL A   1      43.819  25.971  34.208  1.00  0.00     0.009 A 
ATOM     70  C   UNL A   1      45.494  26.486  36.352  1.00  0.00     0.001 A 
ATOM     71  C   UNL A   1      44.507  24.922  34.824  1.00  0.00     0.001 A 
ATOM     72  C   UNL A   1      45.369  25.186  35.876  1.00  0.00     0.000 A 
ENDBRANCH  53  67
BRANCH  54  73
ATOM     73  C   UNL A   1      41.707  24.624  26.881  1.00  0.00    -0.014 A 
ATOM     74  C   UNL A   1      42.664  24.005  26.059  1.00  0.00     0.009 A 
ATOM     75  C   UNL A   1      40.563  23.882  27.226  1.00  0.00     0.009 A 
ATOM     76  C   UNL A   1      42.508  22.674  25.646  1.00  0.00     0.001 A 
ATOM     77  C   UNL A   1      40.407  22.554  26.810  1.00  0.00     0.001 A 
ATOM     78  C   UNL A   1      41.389  21.944  26.037  1.00  0.00     0.000 A 
ENDBRANCH  54  73
BRANCH  66  79
ATOM     79  C   UNL A   1      45.046  29.667  28.401  1.00  0.00    -0.014 A 
ATOM     80  C   UNL A   1      43.936  30.387  27.920  1.00  0.00     0.009 A 
ATOM     81  C   UNL A   1      46.309  29.965  27.871  1.00  0.00     0.009 A 
ATOM     82  C   UNL A   1      44.086  31.351  26.917  1.00  0.00     0.001 A 
ATOM     83  C   UNL A   1      46.461  30.942  26.884  1.00  0.00     0.001 A 
ATOM     84  C   UNL A   1      45.350  31.631  26.403  1.00  0.00     0.000 A 
ENDBRANCH  66  79
ENDBRANCH  40  41
ENDBRANCH  32  35
ENDBRANCH  30  31
ENDBRANCH  29  30
ENDBRANCH  28  29
ENDBRANCH  27  28
ENDBRANCH   1  27
TORSDOF 18
ENDMDL
