MODEL 1
REMARK VINA RESULT:      -9.9      0.000      0.000
REMARK SMILES CC(C)[C@H]([NH2+][C@H]1CCCS[C@H]1C)C(=O)NCCCCCCNC(=O)c1ccc(-c2c3nc(c(-c4ccccc4)c4ccc([nH]4)c(-c4ccccc4)c4nc(c(-c5ccccc5)c5ccc2[nH]5)C=C4)C=C3)cc1
REMARK SMILES IDX 18 1 17 2 16 3 15 4 13 5 14 6 4 8 2 9 1 10 3 11 5 12 6 15
REMARK SMILES IDX 7 16 11 17 8 18 10 19 12 20 9 21 19 22 20 23 21 24 22 25
REMARK SMILES IDX 23 26 24 28 25 29 26 30 72 31 27 32 71 33 28 34 29 35 30 36
REMARK SMILES IDX 65 37 31 38 70 39 64 40 66 41 32 42 69 43 63 44 62 45 33 47
REMARK SMILES IDX 55 48 40 49 54 50 41 51 44 52 53 53 67 54 42 55 43 56 52 58
REMARK SMILES IDX 68 59 45 60 34 61 35 62 39 63 36 64 38 65 37 66 56 67 57 68
REMARK SMILES IDX 61 69 58 70 60 71 59 72 46 73 47 74 51 75 48 76 50 77 49 78
REMARK H PARENT 15 7 5 13 5 14 22 27 66 46 44 57
REMARK Flexibility Score: inf
ROOT
ATOM      1  C   UNL A   1      35.221  20.352  24.962  1.00  0.00     0.002 C 
ENDROOT
BRANCH   1   2
ATOM      2  C   UNL A   1      33.819  19.735  24.946  1.00  0.00     0.021 C 
BRANCH   2   3
ATOM      3  C   UNL A   1      32.752  20.636  24.334  1.00  0.00     0.116 C 
BRANCH   3   4
ATOM      4  N   UNL A   1      31.801  21.128  25.311  1.00  0.00    -0.351 N 
ATOM      5  C   UNL A   1      31.550  22.404  25.742  1.00  0.00     0.278 C 
ATOM      6  O   UNL A   1      30.534  22.581  26.420  1.00  0.00    -0.268 OA
ATOM      7  H   UNL A   1      31.245  20.433  25.733  1.00  0.00     0.163 HD
BRANCH   5   8
ATOM      8  C   UNL A   1      32.490  23.598  25.377  1.00  0.00     0.275 C 
BRANCH   8   9
ATOM      9  C   UNL A   1      33.641  23.772  26.420  1.00  0.00     0.051 C 
ATOM     10  C   UNL A   1      33.783  22.691  27.493  1.00  0.00     0.014 C 
ATOM     11  C   UNL A   1      35.004  23.903  25.714  1.00  0.00     0.014 C 
ENDBRANCH   8   9
BRANCH   8  12
ATOM     12  N   UNL A   1      31.664  24.725  24.914  1.00  0.00    -0.332 N 
ATOM     13  H   UNL A   1      30.875  24.749  25.560  1.00  0.00     0.347 HD
ATOM     14  H   UNL A   1      31.602  24.473  23.928  1.00  0.00     0.347 HD
BRANCH  12  15
ATOM     15  C   UNL A   1      32.052  26.124  24.756  1.00  0.00     0.195 C 
ATOM     16  C   UNL A   1      33.163  26.285  23.699  1.00  0.00     0.067 C 
ATOM     17  C   UNL A   1      30.917  27.197  24.810  1.00  0.00     0.101 C 
ATOM     18  C   UNL A   1      33.698  27.701  23.515  1.00  0.00     0.017 C 
ATOM     19  S   UNL A   1      31.557  28.915  24.653  1.00  0.00    -0.153 SA
ATOM     20  C   UNL A   1      29.751  27.062  23.842  1.00  0.00     0.026 C 
ATOM     21  C   UNL A   1      32.607  28.701  23.195  1.00  0.00     0.070 C 
ENDBRANCH  12  15
ENDBRANCH   8  12
ENDBRANCH   5   8
ENDBRANCH   3   4
ENDBRANCH   2   3
ENDBRANCH   1   2
BRANCH   1  22
ATOM     22  C   UNL A   1      36.382  19.349  24.945  1.00  0.00     0.002 C 
BRANCH  22  23
ATOM     23  C   UNL A   1      37.750  19.925  24.566  1.00  0.00     0.021 C 
BRANCH  23  24
ATOM     24  C   UNL A   1      38.687  20.201  25.740  1.00  0.00     0.116 C 
BRANCH  24  25
ATOM     25  N   UNL A   1      39.856  19.338  25.729  1.00  0.00    -0.352 N 
ATOM     26  C   UNL A   1      41.158  19.621  26.040  1.00  0.00     0.251 C 
ATOM     27  H   UNL A   1      39.685  18.408  25.458  1.00  0.00     0.163 HD
ATOM     28  O   UNL A   1      42.034  18.783  25.814  1.00  0.00    -0.269 OA
BRANCH  26  29
ATOM     29  C   UNL A   1      41.531  20.926  26.624  1.00  0.00     0.039 A 
ATOM     30  C   UNL A   1      41.975  21.936  25.766  1.00  0.00     0.014 A 
ATOM     31  C   UNL A   1      41.488  21.149  28.004  1.00  0.00     0.014 A 
ATOM     32  C   UNL A   1      42.332  23.181  26.285  1.00  0.00     0.010 A 
ATOM     33  C   UNL A   1      41.786  22.412  28.515  1.00  0.00     0.010 A 
ATOM     34  C   UNL A   1      42.218  23.437  27.660  1.00  0.00    -0.014 A 
BRANCH  34  35
ATOM     35  C   UNL A   1      42.543  24.778  28.204  1.00  0.00     0.031 A 
ATOM     36  C   UNL A   1      43.952  25.125  28.599  1.00  0.00     0.074 A 
ATOM     37  C   UNL A   1      41.555  25.678  28.370  1.00  0.00     0.049 A 
ATOM     38  N   UNL A   1      44.420  26.254  29.068  1.00  0.00    -0.248 NA
ATOM     39  C   UNL A   1      44.961  24.061  28.471  1.00  0.00     0.031 C 
ATOM     40  C   UNL A   1      40.139  25.447  28.074  1.00  0.00     0.029 A 
ATOM     41  N   UNL A   1      41.593  26.971  28.826  1.00  0.00    -0.354 N 
ATOM     42  C   UNL A   1      45.773  26.034  29.301  1.00  0.00     0.074 A 
ATOM     43  C   UNL A   1      46.039  24.652  28.967  1.00  0.00     0.031 C 
ATOM     44  C   UNL A   1      39.450  26.571  28.325  1.00  0.00     0.029 A 
ATOM     45  C   UNL A   1      40.368  27.591  28.822  1.00  0.00     0.049 A 
ATOM     46  H   UNL A   1      42.419  27.413  29.128  1.00  0.00     0.167 HD
ATOM     47  C   UNL A   1      46.712  26.907  29.737  1.00  0.00     0.031 A 
ATOM     48  C   UNL A   1      40.021  28.844  29.172  1.00  0.00     0.031 A 
ATOM     49  C   UNL A   1      46.451  28.286  30.059  1.00  0.00     0.049 A 
ATOM     50  C   UNL A   1      41.084  29.798  29.635  1.00  0.00     0.074 A 
ATOM     51  C   UNL A   1      47.347  29.265  30.449  1.00  0.00     0.029 A 
ATOM     52  N   UNL A   1      45.198  28.878  30.031  1.00  0.00    -0.354 N 
ATOM     53  N   UNL A   1      42.372  29.596  29.774  1.00  0.00    -0.248 NA
ATOM     54  C   UNL A   1      40.647  31.160  29.972  1.00  0.00     0.031 C 
ATOM     55  C   UNL A   1      46.630  30.440  30.699  1.00  0.00     0.029 A 
ATOM     56  C   UNL A   1      45.294  30.204  30.418  1.00  0.00     0.049 A 
ATOM     57  H   UNL A   1      44.363  28.423  29.774  1.00  0.00     0.167 HD
ATOM     58  C   UNL A   1      42.901  30.809  30.193  1.00  0.00     0.074 A 
ATOM     59  C   UNL A   1      41.798  31.745  30.266  1.00  0.00     0.031 C 
ATOM     60  C   UNL A   1      44.186  31.119  30.495  1.00  0.00     0.031 A 
BRANCH  47  61
ATOM     61  C   UNL A   1      48.115  26.393  29.894  1.00  0.00    -0.014 A 
ATOM     62  C   UNL A   1      48.552  25.834  31.104  1.00  0.00     0.009 A 
ATOM     63  C   UNL A   1      49.002  26.435  28.806  1.00  0.00     0.009 A 
ATOM     64  C   UNL A   1      49.859  25.358  31.233  1.00  0.00     0.001 A 
ATOM     65  C   UNL A   1      50.299  25.935  28.930  1.00  0.00     0.001 A 
ATOM     66  C   UNL A   1      50.730  25.405  30.145  1.00  0.00     0.000 A 
ENDBRANCH  47  61
BRANCH  48  67
ATOM     67  C   UNL A   1      38.604  29.278  29.070  1.00  0.00    -0.014 A 
ATOM     68  C   UNL A   1      37.746  29.169  30.175  1.00  0.00     0.009 A 
ATOM     69  C   UNL A   1      38.103  29.800  27.869  1.00  0.00     0.009 A 
ATOM     70  C   UNL A   1      36.407  29.550  30.071  1.00  0.00     0.001 A 
ATOM     71  C   UNL A   1      36.770  30.204  27.774  1.00  0.00     0.001 A 
ATOM     72  C   UNL A   1      35.921  30.070  28.873  1.00  0.00     0.000 A 
ENDBRANCH  48  67
BRANCH  60  73
ATOM     73  C   UNL A   1      44.463  32.536  30.911  1.00  0.00    -0.014 A 
ATOM     74  C   UNL A   1      44.844  33.507  29.971  1.00  0.00     0.009 A 
ATOM     75  C   UNL A   1      44.325  32.907  32.257  1.00  0.00     0.009 A 
ATOM     76  C   UNL A   1      45.121  34.813  30.380  1.00  0.00     0.001 A 
ATOM     77  C   UNL A   1      44.575  34.220  32.658  1.00  0.00     0.001 A 
ATOM     78  C   UNL A   1      44.983  35.168  31.722  1.00  0.00     0.000 A 
ENDBRANCH  60  73
ENDBRANCH  34  35
ENDBRANCH  26  29
ENDBRANCH  24  25
ENDBRANCH  23  24
ENDBRANCH  22  23
ENDBRANCH   1  22
TORSDOF 16
ENDMDL
MODEL 2
REMARK VINA RESULT:      -9.7      0.410      6.082
REMARK SMILES CC(C)[C@H]([NH2+][C@H]1CCCS[C@H]1C)C(=O)NCCCCCCNC(=O)c1ccc(-c2c3nc(c(-c4ccccc4)c4ccc([nH]4)c(-c4ccccc4)c4nc(c(-c5ccccc5)c5ccc2[nH]5)C=C4)C=C3)cc1
REMARK SMILES IDX 18 1 17 2 16 3 15 4 13 5 14 6 4 8 2 9 1 10 3 11 5 12 6 15
REMARK SMILES IDX 7 16 11 17 8 18 10 19 12 20 9 21 19 22 20 23 21 24 22 25
REMARK SMILES IDX 23 26 24 28 25 29 26 30 72 31 27 32 71 33 28 34 29 35 30 36
REMARK SMILES IDX 65 37 31 38 70 39 64 40 66 41 32 42 69 43 63 44 62 45 33 47
REMARK SMILES IDX 55 48 40 49 54 50 41 51 44 52 53 53 67 54 42 55 43 56 52 58
REMARK SMILES IDX 68 59 45 60 34 61 35 62 39 63 36 64 38 65 37 66 56 67 57 68
REMARK SMILES IDX 61 69 58 70 60 71 59 72 46 73 47 74 51 75 48 76 50 77 49 78
REMARK H PARENT 15 7 5 13 5 14 22 27 66 46 44 57
REMARK Flexibility Score: inf
ROOT
ATOM      1  C   UNL A   1      35.409  20.332  24.834  1.00  0.00     0.002 C 
ENDROOT
BRANCH   1   2
ATOM      2  C   UNL A   1      33.972  19.826  24.998  1.00  0.00     0.021 C 
BRANCH   2   3
ATOM      3  C   UNL A   1      32.923  20.709  24.330  1.00  0.00     0.116 C 
BRANCH   3   4
ATOM      4  N   UNL A   1      31.862  21.108  25.233  1.00  0.00    -0.351 N 
ATOM      5  C   UNL A   1      31.505  22.348  25.691  1.00  0.00     0.278 C 
ATOM      6  O   UNL A   1      30.423  22.443  26.278  1.00  0.00    -0.268 OA
ATOM      7  H   UNL A   1      31.308  20.367  25.572  1.00  0.00     0.163 HD
BRANCH   5   8
ATOM      8  C   UNL A   1      32.408  23.603  25.467  1.00  0.00     0.275 C 
BRANCH   8   9
ATOM      9  C   UNL A   1      33.543  23.702  26.537  1.00  0.00     0.051 C 
ATOM     10  C   UNL A   1      33.627  22.581  27.574  1.00  0.00     0.014 C 
ATOM     11  C   UNL A   1      34.924  23.809  25.860  1.00  0.00     0.014 C 
ENDBRANCH   8   9
BRANCH   8  12
ATOM     12  N   UNL A   1      31.550  24.747  25.115  1.00  0.00    -0.332 N 
ATOM     13  H   UNL A   1      30.878  24.809  25.880  1.00  0.00     0.347 HD
ATOM     14  H   UNL A   1      31.320  24.475  24.160  1.00  0.00     0.347 HD
BRANCH  12  15
ATOM     15  C   UNL A   1      31.946  26.129  24.859  1.00  0.00     0.195 C 
ATOM     16  C   UNL A   1      33.072  26.207  23.808  1.00  0.00     0.067 C 
ATOM     17  C   UNL A   1      30.816  27.207  24.818  1.00  0.00     0.101 C 
ATOM     18  C   UNL A   1      33.616  27.602  23.527  1.00  0.00     0.017 C 
ATOM     19  S   UNL A   1      31.466  28.906  24.544  1.00  0.00    -0.153 SA
ATOM     20  C   UNL A   1      29.662  27.005  23.848  1.00  0.00     0.026 C 
ATOM     21  C   UNL A   1      32.534  28.580  23.120  1.00  0.00     0.070 C 
ENDBRANCH  12  15
ENDBRANCH   8  12
ENDBRANCH   5   8
ENDBRANCH   3   4
ENDBRANCH   2   3
ENDBRANCH   1   2
BRANCH   1  22
ATOM     22  C   UNL A   1      36.502  19.265  24.970  1.00  0.00     0.002 C 
BRANCH  22  23
ATOM     23  C   UNL A   1      37.919  19.715  24.603  1.00  0.00     0.021 C 
BRANCH  23  24
ATOM     24  C   UNL A   1      38.814  20.075  25.786  1.00  0.00     0.116 C 
BRANCH  24  25
ATOM     25  N   UNL A   1      40.000  19.238  25.856  1.00  0.00    -0.352 N 
ATOM     26  C   UNL A   1      41.296  19.576  26.140  1.00  0.00     0.251 C 
ATOM     27  H   UNL A   1      39.850  18.284  25.671  1.00  0.00     0.163 HD
ATOM     28  O   UNL A   1      42.189  18.738  25.993  1.00  0.00    -0.269 OA
BRANCH  26  29
ATOM     29  C   UNL A   1      41.641  20.936  26.601  1.00  0.00     0.039 A 
ATOM     30  C   UNL A   1      41.525  21.225  27.964  1.00  0.00     0.014 A 
ATOM     31  C   UNL A   1      42.037  21.935  25.705  1.00  0.00     0.014 A 
ATOM     32  C   UNL A   1      41.847  22.499  28.433  1.00  0.00     0.010 A 
ATOM     33  C   UNL A   1      42.417  23.188  26.183  1.00  0.00     0.010 A 
ATOM     34  C   UNL A   1      42.318  23.483  27.551  1.00  0.00    -0.014 A 
BRANCH  34  35
ATOM     35  C   UNL A   1      42.714  24.820  28.058  1.00  0.00     0.031 A 
ATOM     36  C   UNL A   1      41.685  25.893  28.281  1.00  0.00     0.074 A 
ATOM     37  C   UNL A   1      44.016  25.076  28.292  1.00  0.00     0.049 A 
ATOM     38  N   UNL A   1      41.848  27.107  28.741  1.00  0.00    -0.248 NA
ATOM     39  C   UNL A   1      40.295  25.568  27.920  1.00  0.00     0.031 C 
ATOM     40  C   UNL A   1      45.118  24.138  28.067  1.00  0.00     0.029 A 
ATOM     41  N   UNL A   1      44.631  26.203  28.774  1.00  0.00    -0.354 N 
ATOM     42  C   UNL A   1      40.589  27.695  28.715  1.00  0.00     0.074 A 
ATOM     43  C   UNL A   1      39.681  26.719  28.151  1.00  0.00     0.031 C 
ATOM     44  C   UNL A   1      46.270  24.716  28.442  1.00  0.00     0.029 A 
ATOM     45  C   UNL A   1      45.992  26.071  28.908  1.00  0.00     0.049 A 
ATOM     46  H   UNL A   1      44.145  27.027  29.002  1.00  0.00     0.167 HD
ATOM     47  C   UNL A   1      40.217  28.926  29.139  1.00  0.00     0.031 A 
ATOM     48  C   UNL A   1      46.914  26.940  29.363  1.00  0.00     0.031 A 
ATOM     49  C   UNL A   1      41.117  29.893  29.712  1.00  0.00     0.049 A 
ATOM     50  C   UNL A   1      46.474  28.292  29.844  1.00  0.00     0.074 A 
ATOM     51  C   UNL A   1      40.826  31.143  30.228  1.00  0.00     0.029 A 
ATOM     52  N   UNL A   1      42.485  29.716  29.840  1.00  0.00    -0.354 N 
ATOM     53  N   UNL A   1      45.266  28.802  29.886  1.00  0.00    -0.248 NA
ATOM     54  C   UNL A   1      47.523  29.184  30.357  1.00  0.00     0.031 C 
ATOM     55  C   UNL A   1      42.025  31.741  30.629  1.00  0.00     0.029 A 
ATOM     56  C   UNL A   1      43.056  30.843  30.407  1.00  0.00     0.049 A 
ATOM     57  H   UNL A   1      42.980  28.908  29.569  1.00  0.00     0.167 HD
ATOM     58  C   UNL A   1      45.408  30.063  30.448  1.00  0.00     0.074 A 
ATOM     59  C   UNL A   1      46.814  30.232  30.750  1.00  0.00     0.031 C 
ATOM     60  C   UNL A   1      44.458  30.999  30.691  1.00  0.00     0.031 A 
BRANCH  47  61
ATOM     61  C   UNL A   1      38.769  29.299  28.995  1.00  0.00    -0.014 A 
ATOM     62  C   UNL A   1      38.267  29.810  27.789  1.00  0.00     0.009 A 
ATOM     63  C   UNL A   1      37.886  29.105  30.069  1.00  0.00     0.009 A 
ATOM     64  C   UNL A   1      36.917  30.150  27.671  1.00  0.00     0.001 A 
ATOM     65  C   UNL A   1      36.532  29.421  29.940  1.00  0.00     0.001 A 
ATOM     66  C   UNL A   1      36.051  29.951  28.744  1.00  0.00     0.000 A 
ENDBRANCH  47  61
BRANCH  48  67
ATOM     67  C   UNL A   1      48.345  26.546  29.411  1.00  0.00    -0.014 A 
ATOM     68  C   UNL A   1      48.862  25.883  30.534  1.00  0.00     0.009 A 
ATOM     69  C   UNL A   1      49.200  26.834  28.337  1.00  0.00     0.009 A 
ATOM     70  C   UNL A   1      50.214  25.539  30.592  1.00  0.00     0.001 A 
ATOM     71  C   UNL A   1      50.547  26.467  28.387  1.00  0.00     0.001 A 
ATOM     72  C   UNL A   1      51.054  25.828  29.518  1.00  0.00     0.000 A 
ENDBRANCH  48  67
BRANCH  60  73
ATOM     73  C   UNL A   1      44.915  32.279  31.332  1.00  0.00    -0.014 A 
ATOM     74  C   UNL A   1      44.927  32.428  32.728  1.00  0.00     0.009 A 
ATOM     75  C   UNL A   1      45.352  33.344  30.529  1.00  0.00     0.009 A 
ATOM     76  C   UNL A   1      45.332  33.633  33.305  1.00  0.00     0.001 A 
ATOM     77  C   UNL A   1      45.781  34.537  31.110  1.00  0.00     0.001 A 
ATOM     78  C   UNL A   1      45.761  34.684  32.495  1.00  0.00     0.000 A 
ENDBRANCH  60  73
ENDBRANCH  34  35
ENDBRANCH  26  29
ENDBRANCH  24  25
ENDBRANCH  23  24
ENDBRANCH  22  23
ENDBRANCH   1  22
TORSDOF 16
ENDMDL
MODEL 3
REMARK VINA RESULT:      -9.7      5.996     12.207
REMARK SMILES CC(C)[C@H]([NH2+][C@H]1CCCS[C@H]1C)C(=O)NCCCCCCNC(=O)c1ccc(-c2c3nc(c(-c4ccccc4)c4ccc([nH]4)c(-c4ccccc4)c4nc(c(-c5ccccc5)c5ccc2[nH]5)C=C4)C=C3)cc1
REMARK SMILES IDX 18 1 17 2 16 3 15 4 13 5 14 6 4 8 2 9 1 10 3 11 5 12 6 15
REMARK SMILES IDX 7 16 11 17 8 18 10 19 12 20 9 21 19 22 20 23 21 24 22 25
REMARK SMILES IDX 23 26 24 28 25 29 26 30 72 31 27 32 71 33 28 34 29 35 30 36
REMARK SMILES IDX 65 37 31 38 70 39 64 40 66 41 32 42 69 43 63 44 62 45 33 47
REMARK SMILES IDX 55 48 40 49 54 50 41 51 44 52 53 53 67 54 42 55 43 56 52 58
REMARK SMILES IDX 68 59 45 60 34 61 35 62 39 63 36 64 38 65 37 66 56 67 57 68
REMARK SMILES IDX 61 69 58 70 60 71 59 72 46 73 47 74 51 75 48 76 50 77 49 78
REMARK H PARENT 15 7 5 13 5 14 22 27 66 46 44 57
REMARK Flexibility Score: inf
ROOT
ATOM      1  C   UNL A   1      34.770  35.327  33.276  1.00  0.00     0.002 C 
ENDROOT
BRANCH   1   2
ATOM      2  C   UNL A   1      35.477  33.983  33.485  1.00  0.00     0.021 C 
BRANCH   2   3
ATOM      3  C   UNL A   1      36.395  33.948  34.702  1.00  0.00     0.116 C 
BRANCH   3   4
ATOM      4  N   UNL A   1      37.155  32.718  34.800  1.00  0.00    -0.351 N 
ATOM      5  C   UNL A   1      37.816  32.164  35.865  1.00  0.00     0.278 C 
ATOM      6  O   UNL A   1      38.199  30.997  35.746  1.00  0.00    -0.268 OA
ATOM      7  H   UNL A   1      37.206  32.196  33.967  1.00  0.00     0.163 HD
BRANCH   5   8
ATOM      8  C   UNL A   1      38.058  32.957  37.189  1.00  0.00     0.275 C 
BRANCH   8   9
ATOM      9  C   UNL A   1      39.348  33.836  37.113  1.00  0.00     0.051 C 
ATOM     10  C   UNL A   1      39.308  35.200  37.805  1.00  0.00     0.014 C 
ATOM     11  C   UNL A   1      40.564  33.071  37.673  1.00  0.00     0.014 C 
ENDBRANCH   8   9
BRANCH   8  12
ATOM     12  N   UNL A   1      37.769  32.073  38.330  1.00  0.00    -0.332 N 
ATOM     13  H   UNL A   1      38.677  31.692  38.597  1.00  0.00     0.347 HD
ATOM     14  H   UNL A   1      37.011  31.532  37.915  1.00  0.00     0.347 HD
BRANCH  12  15
ATOM     15  C   UNL A   1      37.125  32.413  39.596  1.00  0.00     0.195 C 
ATOM     16  C   UNL A   1      36.181  31.288  40.068  1.00  0.00     0.067 C 
ATOM     17  C   UNL A   1      37.987  33.156  40.667  1.00  0.00     0.101 C 
ATOM     18  C   UNL A   1      35.395  31.578  41.342  1.00  0.00     0.017 C 
ATOM     19  S   UNL A   1      37.033  33.569  42.184  1.00  0.00    -0.153 SA
ATOM     20  C   UNL A   1      39.290  32.513  41.116  1.00  0.00     0.026 C 
ATOM     21  C   UNL A   1      36.288  31.952  42.506  1.00  0.00     0.070 C 
ENDBRANCH  12  15
ENDBRANCH   8  12
ENDBRANCH   5   8
ENDBRANCH   3   4
ENDBRANCH   2   3
ENDBRANCH   1   2
BRANCH   1  22
ATOM     22  C   UNL A   1      33.369  35.244  32.658  1.00  0.00     0.002 C 
BRANCH  22  23
ATOM     23  C   UNL A   1      32.938  36.456  31.826  1.00  0.00     0.021 C 
BRANCH  23  24
ATOM     24  C   UNL A   1      33.500  36.502  30.407  1.00  0.00     0.116 C 
BRANCH  24  25
ATOM     25  N   UNL A   1      32.755  35.655  29.490  1.00  0.00    -0.352 N 
ATOM     26  C   UNL A   1      33.138  34.511  28.845  1.00  0.00     0.251 C 
ATOM     27  H   UNL A   1      31.834  35.949  29.305  1.00  0.00     0.163 HD
ATOM     28  O   UNL A   1      32.405  34.025  27.980  1.00  0.00    -0.269 OA
BRANCH  26  29
ATOM     29  C   UNL A   1      34.428  33.861  29.156  1.00  0.00     0.039 A 
ATOM     30  C   UNL A   1      35.553  34.225  28.411  1.00  0.00     0.014 A 
ATOM     31  C   UNL A   1      34.531  32.874  30.142  1.00  0.00     0.014 A 
ATOM     32  C   UNL A   1      36.787  33.632  28.682  1.00  0.00     0.010 A 
ATOM     33  C   UNL A   1      35.775  32.328  30.453  1.00  0.00     0.010 A 
ATOM     34  C   UNL A   1      36.913  32.697  29.721  1.00  0.00    -0.014 A 
BRANCH  34  35
ATOM     35  C   UNL A   1      38.236  32.110  30.046  1.00  0.00     0.031 A 
ATOM     36  C   UNL A   1      39.205  32.845  30.930  1.00  0.00     0.074 A 
ATOM     37  C   UNL A   1      38.576  30.919  29.518  1.00  0.00     0.049 A 
ATOM     38  N   UNL A   1      40.392  32.472  31.339  1.00  0.00    -0.248 NA
ATOM     39  C   UNL A   1      38.799  34.179  31.399  1.00  0.00     0.031 C 
ATOM     40  C   UNL A   1      37.746  30.129  28.604  1.00  0.00     0.029 A 
ATOM     41  N   UNL A   1      39.709  30.163  29.675  1.00  0.00    -0.354 N 
ATOM     42  C   UNL A   1      40.878  33.526  32.102  1.00  0.00     0.074 A 
ATOM     43  C   UNL A   1      39.879  34.572  32.061  1.00  0.00     0.031 C 
ATOM     44  C   UNL A   1      38.384  28.986  28.310  1.00  0.00     0.029 A 
ATOM     45  C   UNL A   1      39.675  28.973  28.990  1.00  0.00     0.049 A 
ATOM     46  H   UNL A   1      40.474  30.445  30.226  1.00  0.00     0.167 HD
ATOM     47  C   UNL A   1      42.042  33.611  32.789  1.00  0.00     0.031 A 
ATOM     48  C   UNL A   1      40.578  27.977  28.922  1.00  0.00     0.031 A 
ATOM     49  C   UNL A   1      43.032  32.568  32.840  1.00  0.00     0.049 A 
ATOM     50  C   UNL A   1      41.853  28.087  29.708  1.00  0.00     0.074 A 
ATOM     51  C   UNL A   1      44.215  32.534  33.558  1.00  0.00     0.029 A 
ATOM     52  N   UNL A   1      42.955  31.373  32.142  1.00  0.00    -0.354 N 
ATOM     53  N   UNL A   1      42.261  29.059  30.488  1.00  0.00    -0.248 NA
ATOM     54  C   UNL A   1      42.784  26.954  29.617  1.00  0.00     0.031 C 
ATOM     55  C   UNL A   1      44.874  31.337  33.260  1.00  0.00     0.029 A 
ATOM     56  C   UNL A   1      44.078  30.604  32.393  1.00  0.00     0.049 A 
ATOM     57  H   UNL A   1      42.211  31.109  31.552  1.00  0.00     0.167 HD
ATOM     58  C   UNL A   1      43.485  28.645  30.997  1.00  0.00     0.074 A 
ATOM     59  C   UNL A   1      43.741  27.328  30.454  1.00  0.00     0.031 C 
ATOM     60  C   UNL A   1      44.323  29.300  31.837  1.00  0.00     0.031 A 
BRANCH  47  61
ATOM     61  C   UNL A   1      42.310  34.884  33.542  1.00  0.00    -0.014 A 
ATOM     62  C   UNL A   1      41.869  35.053  34.863  1.00  0.00     0.009 A 
ATOM     63  C   UNL A   1      43.045  35.915  32.934  1.00  0.00     0.009 A 
ATOM     64  C   UNL A   1      42.129  36.241  35.550  1.00  0.00     0.001 A 
ATOM     65  C   UNL A   1      43.325  37.091  33.632  1.00  0.00     0.001 A 
ATOM     66  C   UNL A   1      42.860  37.257  34.935  1.00  0.00     0.000 A 
ENDBRANCH  47  61
BRANCH  48  67
ATOM     67  C   UNL A   1      40.296  26.773  28.100  1.00  0.00    -0.014 A 
ATOM     68  C   UNL A   1      40.800  26.669  26.795  1.00  0.00     0.009 A 
ATOM     69  C   UNL A   1      39.519  25.724  28.615  1.00  0.00     0.009 A 
ATOM     70  C   UNL A   1      40.510  25.550  26.012  1.00  0.00     0.001 A 
ATOM     71  C   UNL A   1      39.251  24.595  27.839  1.00  0.00     0.001 A 
ATOM     72  C   UNL A   1      39.740  24.513  26.536  1.00  0.00     0.000 A 
ENDBRANCH  48  67
BRANCH  60  73
ATOM     73  C   UNL A   1      45.584  28.585  32.231  1.00  0.00    -0.014 A 
ATOM     74  C   UNL A   1      45.620  27.739  33.351  1.00  0.00     0.009 A 
ATOM     75  C   UNL A   1      46.747  28.749  31.463  1.00  0.00     0.009 A 
ATOM     76  C   UNL A   1      46.808  27.102  33.716  1.00  0.00     0.001 A 
ATOM     77  C   UNL A   1      47.925  28.089  31.815  1.00  0.00     0.001 A 
ATOM     78  C   UNL A   1      47.957  27.276  32.946  1.00  0.00     0.000 A 
ENDBRANCH  60  73
ENDBRANCH  34  35
ENDBRANCH  26  29
ENDBRANCH  24  25
ENDBRANCH  23  24
ENDBRANCH  22  23
ENDBRANCH   1  22
TORSDOF 16
ENDMDL
