MODEL 1
REMARK VINA RESULT:      -8.8      0.000      0.000
REMARK SMILES C#CC[C@@H](C(=O)NCCCCCCNC(=O)c1ccc(-c2c3nc(c(-c4ccccc4)c4ccc([nH]4)c(-c4ccccc4)c4nc(c(-c5ccccc5)c5ccc2[nH]5)C=C4)C=C3)cc1)c1cccc(Br)c1
REMARK SMILES IDX 10 1 9 2 8 3 7 4 5 5 6 6 4 8 3 9 2 10 1 11 65 12 66 13 71 14
REMARK SMILES IDX 67 15 69 16 68 17 70 18 11 19 12 20 13 21 14 22 15 23 16 25
REMARK SMILES IDX 17 26 18 27 64 28 19 29 63 30 20 31 21 32 22 33 57 34 23 35
REMARK SMILES IDX 62 36 56 37 58 38 24 39 61 40 55 41 54 42 25 44 47 45 32 46
REMARK SMILES IDX 46 47 33 48 36 49 45 50 59 51 34 52 35 53 44 55 60 56 37 57
REMARK SMILES IDX 26 58 27 59 31 60 28 61 30 62 29 63 48 64 49 65 53 66 50 67
REMARK SMILES IDX 52 68 51 69 38 70 39 71 43 72 40 73 42 74 41 75
REMARK H PARENT 7 7 14 24 58 43 36 54
REMARK Flexibility Score: inf
ROOT
ATOM      1  C   UNL A   1      32.922  36.157  29.960  1.00  0.00     0.002 C 
ENDROOT
BRANCH   1   2
ATOM      2  C   UNL A   1      32.591  36.101  31.452  1.00  0.00     0.021 C 
BRANCH   2   3
ATOM      3  C   UNL A   1      33.772  36.194  32.445  1.00  0.00     0.116 C 
BRANCH   3   4
ATOM      4  N   UNL A   1      33.871  34.958  33.221  1.00  0.00    -0.356 N 
ATOM      5  C   UNL A   1      34.480  33.777  32.870  1.00  0.00     0.228 C 
ATOM      6  O   UNL A   1      33.789  32.765  33.021  1.00  0.00    -0.274 OA
ATOM      7  H   UNL A   1      33.446  34.974  34.109  1.00  0.00     0.163 HD
BRANCH   5   8
ATOM      8  C   UNL A   1      35.960  33.722  32.388  1.00  0.00     0.120 C 
BRANCH   8   9
ATOM      9  C   UNL A   1      36.144  32.740  31.197  1.00  0.00     0.107 C 
BRANCH   9  10
ATOM     10  C   UNL A   1      37.148  33.355  30.235  1.00  0.00    -0.106 C 
ATOM     11  C   UNL A   1      38.009  33.882  29.410  1.00  0.00     0.004 C 
ENDBRANCH   9  10
ENDBRANCH   8   9
BRANCH   8  12
ATOM     12  C   UNL A   1      36.974  33.334  33.488  1.00  0.00    -0.034 A 
ATOM     13  C   UNL A   1      37.279  32.008  33.840  1.00  0.00     0.004 A 
ATOM     14  C   UNL A   1      37.699  34.355  34.134  1.00  0.00     0.020 A 
ATOM     15  C   UNL A   1      38.253  31.709  34.799  1.00  0.00     0.001 A 
ATOM     16  C   UNL A   1      38.684  34.051  35.082  1.00  0.00     0.018 A 
ATOM     17  C   UNL A   1      38.961  32.731  35.420  1.00  0.00     0.016 A 
ATOM     18  Br  UNL A   1      39.670  35.444  35.896  1.00  0.00    -0.051 Br
ENDBRANCH   8  12
ENDBRANCH   5   8
ENDBRANCH   3   4
ENDBRANCH   2   3
ENDBRANCH   1   2
BRANCH   1  19
ATOM     19  C   UNL A   1      34.038  35.215  29.486  1.00  0.00     0.002 C 
BRANCH  19  20
ATOM     20  C   UNL A   1      33.825  34.469  28.159  1.00  0.00     0.021 C 
BRANCH  20  21
ATOM     21  C   UNL A   1      34.683  33.224  27.914  1.00  0.00     0.116 C 
BRANCH  21  22
ATOM     22  N   UNL A   1      33.894  32.014  27.767  1.00  0.00    -0.352 N 
ATOM     23  C   UNL A   1      34.244  30.689  27.807  1.00  0.00     0.251 C 
ATOM     24  H   UNL A   1      32.935  32.173  27.611  1.00  0.00     0.163 HD
ATOM     25  O   UNL A   1      33.411  29.841  27.477  1.00  0.00    -0.269 OA
BRANCH  23  26
ATOM     26  C   UNL A   1      35.595  30.237  28.219  1.00  0.00     0.039 A 
ATOM     27  C   UNL A   1      35.748  29.700  29.504  1.00  0.00     0.014 A 
ATOM     28  C   UNL A   1      36.722  30.421  27.414  1.00  0.00     0.014 A 
ATOM     29  C   UNL A   1      37.009  29.301  29.959  1.00  0.00     0.010 A 
ATOM     30  C   UNL A   1      37.977  29.980  27.852  1.00  0.00     0.010 A 
ATOM     31  C   UNL A   1      38.134  29.413  29.128  1.00  0.00    -0.014 A 
BRANCH  31  32
ATOM     32  C   UNL A   1      39.465  28.923  29.576  1.00  0.00     0.031 A 
ATOM     33  C   UNL A   1      40.305  29.728  30.532  1.00  0.00     0.074 A 
ATOM     34  C   UNL A   1      39.945  27.764  29.085  1.00  0.00     0.049 A 
ATOM     35  N   UNL A   1      41.507  29.475  30.987  1.00  0.00    -0.248 NA
ATOM     36  C   UNL A   1      39.725  30.985  31.030  1.00  0.00     0.031 C 
ATOM     37  C   UNL A   1      39.249  26.894  28.135  1.00  0.00     0.029 A 
ATOM     38  N   UNL A   1      41.138  27.122  29.312  1.00  0.00    -0.354 N 
ATOM     39  C   UNL A   1      41.835  30.546  31.810  1.00  0.00     0.074 A 
ATOM     40  C   UNL A   1      40.717  31.465  31.769  1.00  0.00     0.031 C 
ATOM     41  C   UNL A   1      40.021  25.827  27.870  1.00  0.00     0.029 A 
ATOM     42  C   UNL A   1      41.277  25.953  28.602  1.00  0.00     0.049 A 
ATOM     43  H   UNL A   1      41.828  27.465  29.924  1.00  0.00     0.167 HD
ATOM     44  C   UNL A   1      42.960  30.743  32.539  1.00  0.00     0.031 A 
ATOM     45  C   UNL A   1      42.302  25.083  28.537  1.00  0.00     0.031 A 
ATOM     46  C   UNL A   1      44.069  29.828  32.599  1.00  0.00     0.049 A 
ATOM     47  C   UNL A   1      43.542  25.333  29.348  1.00  0.00     0.074 A 
ATOM     48  C   UNL A   1      45.223  29.921  33.360  1.00  0.00     0.029 A 
ATOM     49  N   UNL A   1      44.166  28.654  31.871  1.00  0.00    -0.354 N 
ATOM     50  N   UNL A   1      43.807  26.321  30.166  1.00  0.00    -0.248 NA
ATOM     51  C   UNL A   1      44.620  24.338  29.233  1.00  0.00     0.031 C 
ATOM     52  C   UNL A   1      46.037  28.824  33.060  1.00  0.00     0.029 A 
ATOM     53  C   UNL A   1      45.370  28.026  32.146  1.00  0.00     0.049 A 
ATOM     54  H   UNL A   1      43.481  28.317  31.250  1.00  0.00     0.167 HD
ATOM     55  C   UNL A   1      45.070  26.057  30.679  1.00  0.00     0.074 A 
ATOM     56  C   UNL A   1      45.512  24.809  30.094  1.00  0.00     0.031 C 
ATOM     57  C   UNL A   1      45.798  26.785  31.559  1.00  0.00     0.031 A 
BRANCH  44  58
ATOM     58  C   UNL A   1      43.057  32.012  33.340  1.00  0.00    -0.014 A 
ATOM     59  C   UNL A   1      43.601  33.180  32.785  1.00  0.00     0.009 A 
ATOM     60  C   UNL A   1      42.537  32.056  34.643  1.00  0.00     0.009 A 
ATOM     61  C   UNL A   1      43.643  34.361  33.528  1.00  0.00     0.001 A 
ATOM     62  C   UNL A   1      42.561  33.243  35.376  1.00  0.00     0.001 A 
ATOM     63  C   UNL A   1      43.119  34.393  34.820  1.00  0.00     0.000 A 
ENDBRANCH  44  58
BRANCH  45  64
ATOM     64  C   UNL A   1      42.207  23.882  27.667  1.00  0.00    -0.014 A 
ATOM     65  C   UNL A   1      41.663  22.687  28.161  1.00  0.00     0.009 A 
ATOM     66  C   UNL A   1      42.676  23.922  26.345  1.00  0.00     0.009 A 
ATOM     67  C   UNL A   1      41.617  21.546  27.356  1.00  0.00     0.001 A 
ATOM     68  C   UNL A   1      42.603  22.788  25.535  1.00  0.00     0.001 A 
ATOM     69  C   UNL A   1      42.084  21.599  26.045  1.00  0.00     0.000 A 
ENDBRANCH  45  64
BRANCH  57  70
ATOM     70  C   UNL A   1      47.135  26.234  31.965  1.00  0.00    -0.014 A 
ATOM     71  C   UNL A   1      47.291  25.513  33.158  1.00  0.00     0.009 A 
ATOM     72  C   UNL A   1      48.245  26.413  31.125  1.00  0.00     0.009 A 
ATOM     73  C   UNL A   1      48.542  25.007  33.518  1.00  0.00     0.001 A 
ATOM     74  C   UNL A   1      49.489  25.886  31.475  1.00  0.00     0.001 A 
ATOM     75  C   UNL A   1      49.638  25.190  32.675  1.00  0.00     0.000 A 
ENDBRANCH  57  70
ENDBRANCH  31  32
ENDBRANCH  23  26
ENDBRANCH  21  22
ENDBRANCH  20  21
ENDBRANCH  19  20
ENDBRANCH   1  19
TORSDOF 16
ENDMDL
MODEL 2
REMARK VINA RESULT:      -8.8      0.716      6.091
REMARK SMILES C#CC[C@@H](C(=O)NCCCCCCNC(=O)c1ccc(-c2c3nc(c(-c4ccccc4)c4ccc([nH]4)c(-c4ccccc4)c4nc(c(-c5ccccc5)c5ccc2[nH]5)C=C4)C=C3)cc1)c1cccc(Br)c1
REMARK SMILES IDX 10 1 9 2 8 3 7 4 5 5 6 6 4 8 3 9 2 10 1 11 65 12 66 13 71 14
REMARK SMILES IDX 67 15 69 16 68 17 70 18 11 19 12 20 13 21 14 22 15 23 16 25
REMARK SMILES IDX 17 26 18 27 64 28 19 29 63 30 20 31 21 32 22 33 57 34 23 35
REMARK SMILES IDX 62 36 56 37 58 38 24 39 61 40 55 41 54 42 25 44 47 45 32 46
REMARK SMILES IDX 46 47 33 48 36 49 45 50 59 51 34 52 35 53 44 55 60 56 37 57
REMARK SMILES IDX 26 58 27 59 31 60 28 61 30 62 29 63 48 64 49 65 53 66 50 67
REMARK SMILES IDX 52 68 51 69 38 70 39 71 43 72 40 73 42 74 41 75
REMARK H PARENT 7 7 14 24 58 43 36 54
REMARK Flexibility Score: inf
ROOT
ATOM      1  C   UNL A   1      33.037  36.473  29.954  1.00  0.00     0.002 C 
ENDROOT
BRANCH   1   2
ATOM      2  C   UNL A   1      32.585  36.196  31.388  1.00  0.00     0.021 C 
BRANCH   2   3
ATOM      3  C   UNL A   1      33.676  36.166  32.483  1.00  0.00     0.116 C 
BRANCH   3   4
ATOM      4  N   UNL A   1      33.777  34.821  33.050  1.00  0.00    -0.356 N 
ATOM      5  C   UNL A   1      34.472  33.740  32.564  1.00  0.00     0.228 C 
ATOM      6  O   UNL A   1      33.825  32.691  32.486  1.00  0.00    -0.274 OA
ATOM      7  H   UNL A   1      33.283  34.672  33.888  1.00  0.00     0.163 HD
BRANCH   5   8
ATOM      8  C   UNL A   1      35.987  33.823  32.209  1.00  0.00     0.120 C 
BRANCH   8   9
ATOM      9  C   UNL A   1      36.371  32.830  31.077  1.00  0.00     0.107 C 
BRANCH   9  10
ATOM     10  C   UNL A   1      37.441  33.488  30.221  1.00  0.00    -0.106 C 
ATOM     11  C   UNL A   1      38.358  34.053  29.487  1.00  0.00     0.004 C 
ENDBRANCH   9  10
ENDBRANCH   8   9
BRANCH   8  12
ATOM     12  C   UNL A   1      36.935  33.575  33.405  1.00  0.00    -0.034 A 
ATOM     13  C   UNL A   1      36.977  32.375  34.135  1.00  0.00     0.004 A 
ATOM     14  C   UNL A   1      37.870  34.572  33.749  1.00  0.00     0.020 A 
ATOM     15  C   UNL A   1      37.900  32.177  35.169  1.00  0.00     0.001 A 
ATOM     16  C   UNL A   1      38.802  34.363  34.772  1.00  0.00     0.018 A 
ATOM     17  C   UNL A   1      38.818  33.171  35.488  1.00  0.00     0.016 A 
ATOM     18  Br  UNL A   1      40.073  35.704  35.177  1.00  0.00    -0.051 Br
ENDBRANCH   8  12
ENDBRANCH   5   8
ENDBRANCH   3   4
ENDBRANCH   2   3
ENDBRANCH   1   2
BRANCH   1  19
ATOM     19  C   UNL A   1      34.141  35.555  29.411  1.00  0.00     0.002 C 
BRANCH  19  20
ATOM     20  C   UNL A   1      33.790  34.642  28.223  1.00  0.00     0.021 C 
BRANCH  20  21
ATOM     21  C   UNL A   1      34.675  33.413  28.004  1.00  0.00     0.116 C 
BRANCH  21  22
ATOM     22  N   UNL A   1      33.913  32.205  27.743  1.00  0.00    -0.352 N 
ATOM     23  C   UNL A   1      34.273  30.882  27.746  1.00  0.00     0.251 C 
ATOM     24  H   UNL A   1      32.966  32.365  27.524  1.00  0.00     0.163 HD
ATOM     25  O   UNL A   1      33.475  30.046  27.317  1.00  0.00    -0.269 OA
BRANCH  23  26
ATOM     26  C   UNL A   1      35.594  30.421  28.235  1.00  0.00     0.039 A 
ATOM     27  C   UNL A   1      35.635  29.661  29.411  1.00  0.00     0.014 A 
ATOM     28  C   UNL A   1      36.792  30.802  27.624  1.00  0.00     0.014 A 
ATOM     29  C   UNL A   1      36.860  29.239  29.940  1.00  0.00     0.010 A 
ATOM     30  C   UNL A   1      38.015  30.342  28.127  1.00  0.00     0.010 A 
ATOM     31  C   UNL A   1      38.062  29.554  29.289  1.00  0.00    -0.014 A 
BRANCH  31  32
ATOM     32  C   UNL A   1      39.362  29.048  29.804  1.00  0.00     0.031 A 
ATOM     33  C   UNL A   1      40.010  27.827  29.205  1.00  0.00     0.074 A 
ATOM     34  C   UNL A   1      39.948  29.664  30.849  1.00  0.00     0.049 A 
ATOM     35  N   UNL A   1      41.115  27.221  29.563  1.00  0.00    -0.248 NA
ATOM     36  C   UNL A   1      39.320  27.199  28.067  1.00  0.00     0.031 C 
ATOM     37  C   UNL A   1      39.421  30.842  31.541  1.00  0.00     0.029 A 
ATOM     38  N   UNL A   1      41.112  29.378  31.520  1.00  0.00    -0.354 N 
ATOM     39  C   UNL A   1      41.245  26.133  28.707  1.00  0.00     0.074 A 
ATOM     40  C   UNL A   1      40.092  26.146  27.832  1.00  0.00     0.031 C 
ATOM     41  C   UNL A   1      40.265  31.184  32.529  1.00  0.00     0.029 A 
ATOM     42  C   UNL A   1      41.371  30.234  32.563  1.00  0.00     0.049 A 
ATOM     43  H   UNL A   1      41.705  28.630  31.277  1.00  0.00     0.167 HD
ATOM     44  C   UNL A   1      42.237  25.212  28.650  1.00  0.00     0.031 A 
ATOM     45  C   UNL A   1      42.380  30.250  33.455  1.00  0.00     0.031 A 
ATOM     46  C   UNL A   1      43.395  25.199  29.505  1.00  0.00     0.049 A 
ATOM     47  C   UNL A   1      43.460  29.209  33.374  1.00  0.00     0.074 A 
ATOM     48  C   UNL A   1      44.479  24.337  29.475  1.00  0.00     0.029 A 
ATOM     49  N   UNL A   1      43.621  26.088  30.542  1.00  0.00    -0.354 N 
ATOM     50  N   UNL A   1      43.595  28.225  32.521  1.00  0.00    -0.248 NA
ATOM     51  C   UNL A   1      44.533  29.290  34.378  1.00  0.00     0.031 C 
ATOM     52  C   UNL A   1      45.341  24.679  30.523  1.00  0.00     0.029 A 
ATOM     53  C   UNL A   1      44.814  25.781  31.176  1.00  0.00     0.049 A 
ATOM     54  H   UNL A   1      43.022  26.828  30.792  1.00  0.00     0.167 HD
ATOM     55  C   UNL A   1      44.777  27.584  32.868  1.00  0.00     0.074 A 
ATOM     56  C   UNL A   1      45.329  28.299  33.999  1.00  0.00     0.031 C 
ATOM     57  C   UNL A   1      45.354  26.499  32.298  1.00  0.00     0.031 A 
BRANCH  44  58
ATOM     58  C   UNL A   1      42.116  24.121  27.622  1.00  0.00    -0.014 A 
ATOM     59  C   UNL A   1      42.721  24.241  26.363  1.00  0.00     0.009 A 
ATOM     60  C   UNL A   1      41.444  22.931  27.945  1.00  0.00     0.009 A 
ATOM     61  C   UNL A   1      42.635  23.200  25.436  1.00  0.00     0.001 A 
ATOM     62  C   UNL A   1      41.378  21.884  27.025  1.00  0.00     0.001 A 
ATOM     63  C   UNL A   1      41.968  22.021  25.769  1.00  0.00     0.000 A 
ENDBRANCH  44  58
BRANCH  45  64
ATOM     64  C   UNL A   1      42.422  31.292  34.513  1.00  0.00    -0.014 A 
ATOM     65  C   UNL A   1      43.038  32.528  34.270  1.00  0.00     0.009 A 
ATOM     66  C   UNL A   1      41.861  31.046  35.776  1.00  0.00     0.009 A 
ATOM     67  C   UNL A   1      43.118  33.488  35.281  1.00  0.00     0.001 A 
ATOM     68  C   UNL A   1      41.918  32.019  36.776  1.00  0.00     0.001 A 
ATOM     69  C   UNL A   1      42.556  33.235  36.531  1.00  0.00     0.000 A 
ENDBRANCH  45  64
BRANCH  57  70
ATOM     70  C   UNL A   1      46.664  26.038  32.871  1.00  0.00    -0.014 A 
ATOM     71  C   UNL A   1      47.881  26.562  32.410  1.00  0.00     0.009 A 
ATOM     72  C   UNL A   1      46.676  25.092  33.907  1.00  0.00     0.009 A 
ATOM     73  C   UNL A   1      49.089  26.122  32.956  1.00  0.00     0.001 A 
ATOM     74  C   UNL A   1      47.883  24.672  34.467  1.00  0.00     0.001 A 
ATOM     75  C   UNL A   1      49.089  25.181  33.985  1.00  0.00     0.000 A 
ENDBRANCH  57  70
ENDBRANCH  31  32
ENDBRANCH  23  26
ENDBRANCH  21  22
ENDBRANCH  20  21
ENDBRANCH  19  20
ENDBRANCH   1  19
TORSDOF 16
ENDMDL
MODEL 3
REMARK VINA RESULT:      -8.8      3.877      9.316
REMARK SMILES C#CC[C@@H](C(=O)NCCCCCCNC(=O)c1ccc(-c2c3nc(c(-c4ccccc4)c4ccc([nH]4)c(-c4ccccc4)c4nc(c(-c5ccccc5)c5ccc2[nH]5)C=C4)C=C3)cc1)c1cccc(Br)c1
REMARK SMILES IDX 10 1 9 2 8 3 7 4 5 5 6 6 4 8 3 9 2 10 1 11 65 12 66 13 71 14
REMARK SMILES IDX 67 15 69 16 68 17 70 18 11 19 12 20 13 21 14 22 15 23 16 25
REMARK SMILES IDX 17 26 18 27 64 28 19 29 63 30 20 31 21 32 22 33 57 34 23 35
REMARK SMILES IDX 62 36 56 37 58 38 24 39 61 40 55 41 54 42 25 44 47 45 32 46
REMARK SMILES IDX 46 47 33 48 36 49 45 50 59 51 34 52 35 53 44 55 60 56 37 57
REMARK SMILES IDX 26 58 27 59 31 60 28 61 30 62 29 63 48 64 49 65 53 66 50 67
REMARK SMILES IDX 52 68 51 69 38 70 39 71 43 72 40 73 42 74 41 75
REMARK H PARENT 7 7 14 24 58 43 36 54
REMARK Flexibility Score: inf
ROOT
ATOM      1  C   UNL A   1      33.784  23.579  24.195  1.00  0.00     0.002 C 
ENDROOT
BRANCH   1   2
ATOM      2  C   UNL A   1      33.029  24.405  23.154  1.00  0.00     0.021 C 
BRANCH   2   3
ATOM      3  C   UNL A   1      33.674  25.735  22.698  1.00  0.00     0.116 C 
BRANCH   3   4
ATOM      4  N   UNL A   1      32.732  26.838  22.886  1.00  0.00    -0.356 N 
ATOM      5  C   UNL A   1      31.735  26.958  23.825  1.00  0.00     0.228 C 
ATOM      6  O   UNL A   1      30.626  27.266  23.376  1.00  0.00    -0.274 OA
ATOM      7  H   UNL A   1      32.824  27.591  22.259  1.00  0.00     0.163 HD
BRANCH   5   8
ATOM      8  C   UNL A   1      32.010  26.788  25.348  1.00  0.00     0.120 C 
BRANCH   8   9
ATOM      9  C   UNL A   1      30.726  26.387  26.127  1.00  0.00     0.107 C 
BRANCH   9  10
ATOM     10  C   UNL A   1      30.683  24.870  26.207  1.00  0.00    -0.106 C 
ATOM     11  C   UNL A   1      30.647  23.568  26.276  1.00  0.00     0.004 C 
ENDBRANCH   9  10
ENDBRANCH   8   9
BRANCH   8  12
ATOM     12  C   UNL A   1      32.610  28.039  26.030  1.00  0.00    -0.034 A 
ATOM     13  C   UNL A   1      33.896  28.082  26.596  1.00  0.00     0.004 A 
ATOM     14  C   UNL A   1      31.868  29.237  26.028  1.00  0.00     0.020 A 
ATOM     15  C   UNL A   1      34.418  29.258  27.145  1.00  0.00     0.001 A 
ATOM     16  C   UNL A   1      32.400  30.416  26.563  1.00  0.00     0.018 A 
ATOM     17  C   UNL A   1      33.671  30.431  27.126  1.00  0.00     0.016 A 
ATOM     18  Br  UNL A   1      31.395  32.017  26.501  1.00  0.00    -0.051 Br
ENDBRANCH   8  12
ENDBRANCH   5   8
ENDBRANCH   3   4
ENDBRANCH   2   3
ENDBRANCH   1   2
BRANCH   1  19
ATOM     19  C   UNL A   1      34.570  24.379  25.244  1.00  0.00     0.002 C 
BRANCH  19  20
ATOM     20  C   UNL A   1      35.839  23.736  25.828  1.00  0.00     0.021 C 
BRANCH  20  21
ATOM     21  C   UNL A   1      37.080  23.703  24.931  1.00  0.00     0.116 C 
BRANCH  21  22
ATOM     22  N   UNL A   1      38.078  22.749  25.380  1.00  0.00    -0.352 N 
ATOM     23  C   UNL A   1      39.218  22.906  26.124  1.00  0.00     0.251 C 
ATOM     24  H   UNL A   1      37.904  21.821  25.100  1.00  0.00     0.163 HD
ATOM     25  O   UNL A   1      40.000  21.957  26.226  1.00  0.00    -0.269 OA
BRANCH  23  26
ATOM     26  C   UNL A   1      39.554  24.181  26.801  1.00  0.00     0.039 A 
ATOM     27  C   UNL A   1      39.025  24.412  28.077  1.00  0.00     0.014 A 
ATOM     28  C   UNL A   1      40.290  25.189  26.172  1.00  0.00     0.014 A 
ATOM     29  C   UNL A   1      39.273  25.618  28.740  1.00  0.00     0.010 A 
ATOM     30  C   UNL A   1      40.578  26.378  26.853  1.00  0.00     0.010 A 
ATOM     31  C   UNL A   1      40.074  26.605  28.145  1.00  0.00    -0.014 A 
BRANCH  31  32
ATOM     32  C   UNL A   1      40.405  27.859  28.873  1.00  0.00     0.031 A 
ATOM     33  C   UNL A   1      41.718  28.013  29.594  1.00  0.00     0.074 A 
ATOM     34  C   UNL A   1      39.499  28.855  28.926  1.00  0.00     0.049 A 
ATOM     35  N   UNL A   1      42.148  29.016  30.319  1.00  0.00    -0.248 NA
ATOM     36  C   UNL A   1      42.664  26.890  29.500  1.00  0.00     0.031 C 
ATOM     37  C   UNL A   1      38.178  28.832  28.294  1.00  0.00     0.029 A 
ATOM     38  N   UNL A   1      39.548  30.077  29.549  1.00  0.00    -0.354 N 
ATOM     39  C   UNL A   1      43.405  28.640  30.780  1.00  0.00     0.074 A 
ATOM     40  C   UNL A   1      43.655  27.306  30.277  1.00  0.00     0.031 C 
ATOM     41  C   UNL A   1      37.549  29.990  28.551  1.00  0.00     0.029 A 
ATOM     42  C   UNL A   1      38.403  30.822  29.392  1.00  0.00     0.049 A 
ATOM     43  H   UNL A   1      40.328  30.392  30.061  1.00  0.00     0.167 HD
ATOM     44  C   UNL A   1      44.274  29.344  31.545  1.00  0.00     0.031 A 
ATOM     45  C   UNL A   1      38.071  32.034  29.876  1.00  0.00     0.031 A 
ATOM     46  C   UNL A   1      44.041  30.677  32.036  1.00  0.00     0.049 A 
ATOM     47  C   UNL A   1      39.050  32.786  30.732  1.00  0.00     0.074 A 
ATOM     48  C   UNL A   1      44.894  31.487  32.768  1.00  0.00     0.029 A 
ATOM     49  N   UNL A   1      42.872  31.396  31.847  1.00  0.00    -0.354 N 
ATOM     50  N   UNL A   1      40.256  32.438  31.107  1.00  0.00    -0.248 NA
ATOM     51  C   UNL A   1      38.623  34.106  31.222  1.00  0.00     0.031 C 
ATOM     52  C   UNL A   1      44.224  32.680  33.059  1.00  0.00     0.029 A 
ATOM     53  C   UNL A   1      42.972  32.630  32.469  1.00  0.00     0.049 A 
ATOM     54  H   UNL A   1      42.088  31.077  31.346  1.00  0.00     0.167 HD
ATOM     55  C   UNL A   1      40.740  33.502  31.856  1.00  0.00     0.074 A 
ATOM     56  C   UNL A   1      39.705  34.515  31.870  1.00  0.00     0.031 C 
ATOM     57  C   UNL A   1      41.937  33.628  32.476  1.00  0.00     0.031 A 
BRANCH  44  58
ATOM     58  C   UNL A   1      45.573  28.682  31.911  1.00  0.00    -0.014 A 
ATOM     59  C   UNL A   1      46.716  28.836  31.112  1.00  0.00     0.009 A 
ATOM     60  C   UNL A   1      45.670  27.951  33.106  1.00  0.00     0.009 A 
ATOM     61  C   UNL A   1      47.925  28.249  31.490  1.00  0.00     0.001 A 
ATOM     62  C   UNL A   1      46.886  27.385  33.492  1.00  0.00     0.001 A 
ATOM     63  C   UNL A   1      48.011  27.529  32.681  1.00  0.00     0.000 A 
ENDBRANCH  44  58
BRANCH  45  64
ATOM     64  C   UNL A   1      36.742  32.621  29.566  1.00  0.00    -0.014 A 
ATOM     65  C   UNL A   1      35.666  32.452  30.451  1.00  0.00     0.009 A 
ATOM     66  C   UNL A   1      36.540  33.336  28.375  1.00  0.00     0.009 A 
ATOM     67  C   UNL A   1      34.406  32.965  30.135  1.00  0.00     0.001 A 
ATOM     68  C   UNL A   1      35.285  33.870  28.076  1.00  0.00     0.001 A 
ATOM     69  C   UNL A   1      34.218  33.675  28.951  1.00  0.00     0.000 A 
ENDBRANCH  45  64
BRANCH  57  70
ATOM     70  C   UNL A   1      42.204  34.919  33.197  1.00  0.00    -0.014 A 
ATOM     71  C   UNL A   1      43.023  35.908  32.634  1.00  0.00     0.009 A 
ATOM     72  C   UNL A   1      41.599  35.159  34.441  1.00  0.00     0.009 A 
ATOM     73  C   UNL A   1      43.258  37.103  33.320  1.00  0.00     0.001 A 
ATOM     74  C   UNL A   1      41.816  36.363  35.112  1.00  0.00     0.001 A 
ATOM     75  C   UNL A   1      42.652  37.330  34.554  1.00  0.00     0.000 A 
ENDBRANCH  57  70
ENDBRANCH  31  32
ENDBRANCH  23  26
ENDBRANCH  21  22
ENDBRANCH  20  21
ENDBRANCH  19  20
ENDBRANCH   1  19
TORSDOF 16
ENDMDL
