MODEL 1
REMARK VINA RESULT:     -12.8      0.000      0.000
REMARK SMILES O=C(COc1cccc(NC(=O)c2ccc3c(c2)C(=O)N(c2ccccc2-c2ccccc2)C3=O)c1)NCCCCCCNC(=O)c1ccc(-c2c3nc(c(-c4ccccc4)c4ccc([nH]4)c(-c4ccccc4)c4nc(c(-c5ccccc5)c5ccc2[nH]5)C=C4)C=C3)cc1
REMARK SMILES IDX 38 1 37 2 1 3 2 4 3 6 4 7 5 8 6 9 36 10 7 11 9 12 8 13 10 14
REMARK SMILES IDX 11 15 12 17 13 18 14 19 18 20 15 21 17 22 16 23 19 24 34 25
REMARK SMILES IDX 20 26 21 27 35 28 22 29 23 30 27 31 24 32 26 33 25 34 28 35
REMARK SMILES IDX 29 36 33 37 30 38 32 39 31 40 39 41 40 42 41 43 42 44 43 45
REMARK SMILES IDX 44 46 45 47 46 49 47 50 48 51 94 52 49 53 93 54 50 55 51 56
REMARK SMILES IDX 52 57 87 58 53 59 92 60 86 61 88 62 54 63 91 64 85 65 84 66
REMARK SMILES IDX 55 68 77 69 62 70 76 71 63 72 66 73 75 74 89 75 64 76 65 77
REMARK SMILES IDX 74 79 90 80 67 81 56 82 57 83 61 84 58 85 60 86 59 87 78 88
REMARK SMILES IDX 79 89 83 90 80 91 82 92 81 93 68 94 69 95 73 96 70 97 72 98
REMARK SMILES IDX 71 99
REMARK H PARENT 37 5 10 16 44 48 88 67 66 78
REMARK Flexibility Score: inf
ROOT
ATOM      1  C   UNL A   1      34.419  31.838  28.621  1.00  0.00     0.116 C 
ENDROOT
BRANCH   1   2
ATOM      2  N   UNL A   1      33.910  31.087  27.496  1.00  0.00    -0.353 N 
ATOM      3  O   UNL A   1      35.420  29.359  27.640  1.00  0.00    -0.271 OA
ATOM      4  C   UNL A   1      34.411  29.851  27.145  1.00  0.00     0.257 C 
ATOM      5  H   UNL A   1      33.179  31.472  26.961  1.00  0.00     0.163 HD
BRANCH   4   6
ATOM      6  C   UNL A   1      33.579  29.114  26.094  1.00  0.00     0.329 C 
BRANCH   6   7
ATOM      7  O   UNL A   1      32.168  29.227  26.214  1.00  0.00    -0.484 OA
BRANCH   7   8
ATOM      8  C   UNL A   1      31.421  28.950  25.099  1.00  0.00     0.122 A 
ATOM      9  C   UNL A   1      30.815  30.059  24.518  1.00  0.00     0.046 A 
ATOM     10  C   UNL A   1      31.116  27.663  24.630  1.00  0.00     0.072 A 
ATOM     11  C   UNL A   1      29.897  29.885  23.493  1.00  0.00     0.006 A 
ATOM     12  C   UNL A   1      30.162  27.466  23.619  1.00  0.00     0.045 A 
ATOM     13  C   UNL A   1      29.561  28.597  23.069  1.00  0.00     0.026 A 
BRANCH  12  14
ATOM     14  N   UNL A   1      29.792  26.127  23.322  1.00  0.00    -0.322 N 
ATOM     15  C   UNL A   1      30.378  24.904  23.606  1.00  0.00     0.255 C 
ATOM     16  H   UNL A   1      28.951  26.053  22.814  1.00  0.00     0.170 HD
ATOM     17  O   UNL A   1      30.045  23.879  23.023  1.00  0.00    -0.269 OA
BRANCH  15  18
ATOM     18  C   UNL A   1      31.304  24.806  24.746  1.00  0.00     0.041 A 
ATOM     19  C   UNL A   1      30.848  24.381  26.014  1.00  0.00     0.015 A 
ATOM     20  C   UNL A   1      32.659  24.872  24.433  1.00  0.00     0.028 A 
ATOM     21  C   UNL A   1      31.755  23.793  26.912  1.00  0.00     0.015 A 
ATOM     22  C   UNL A   1      33.507  24.278  25.335  1.00  0.00     0.054 A 
ATOM     23  C   UNL A   1      33.074  23.684  26.495  1.00  0.00     0.053 A 
ATOM     24  C   UNL A   1      34.861  23.843  25.084  1.00  0.00     0.266 C 
ATOM     25  C   UNL A   1      34.157  22.792  26.930  1.00  0.00     0.266 C 
ATOM     26  O   UNL A   1      35.527  24.429  24.251  1.00  0.00    -0.268 OA
ATOM     27  N   UNL A   1      35.087  22.760  25.906  1.00  0.00    -0.242 N 
ATOM     28  O   UNL A   1      34.125  22.302  28.043  1.00  0.00    -0.268 OA
BRANCH  27  29
ATOM     29  C   UNL A   1      36.106  21.773  25.636  1.00  0.00     0.060 A 
ATOM     30  C   UNL A   1      37.462  22.151  25.809  1.00  0.00     0.027 A 
ATOM     31  C   UNL A   1      35.882  20.488  25.073  1.00  0.00     0.006 A 
ATOM     32  C   UNL A   1      38.544  21.337  25.464  1.00  0.00     0.002 A 
ATOM     33  C   UNL A   1      37.000  19.662  24.767  1.00  0.00     0.011 A 
ATOM     34  C   UNL A   1      38.314  20.079  24.951  1.00  0.00     0.001 A 
BRANCH  31  35
ATOM     35  C   UNL A   1      34.593  19.939  24.630  1.00  0.00    -0.016 A 
ATOM     36  C   UNL A   1      34.368  18.553  24.618  1.00  0.00     0.009 A 
ATOM     37  C   UNL A   1      33.603  20.781  24.097  1.00  0.00     0.009 A 
ATOM     38  C   UNL A   1      33.164  18.030  24.139  1.00  0.00     0.001 A 
ATOM     39  C   UNL A   1      32.402  20.259  23.614  1.00  0.00     0.001 A 
ATOM     40  C   UNL A   1      32.180  18.884  23.644  1.00  0.00     0.000 A 
ENDBRANCH  31  35
ENDBRANCH  27  29
ENDBRANCH  15  18
ENDBRANCH  12  14
ENDBRANCH   7   8
ENDBRANCH   6   7
ENDBRANCH   4   6
ENDBRANCH   1   2
BRANCH   1  41
ATOM     41  C   UNL A   1      35.558  32.769  28.228  1.00  0.00     0.021 C 
BRANCH  41  42
ATOM     42  C   UNL A   1      35.430  34.197  28.769  1.00  0.00     0.002 C 
BRANCH  42  43
ATOM     43  C   UNL A   1      34.409  35.090  28.056  1.00  0.00     0.002 C 
BRANCH  43  44
ATOM     44  C   UNL A   1      33.153  35.436  28.859  1.00  0.00     0.021 C 
BRANCH  44  45
ATOM     45  C   UNL A   1      33.314  36.575  29.860  1.00  0.00     0.116 C 
BRANCH  45  46
ATOM     46  N   UNL A   1      32.371  36.491  30.964  1.00  0.00    -0.352 N 
ATOM     47  C   UNL A   1      32.451  35.763  32.124  1.00  0.00     0.251 C 
ATOM     48  H   UNL A   1      31.558  37.037  30.863  1.00  0.00     0.163 HD
ATOM     49  O   UNL A   1      31.486  35.708  32.881  1.00  0.00    -0.269 OA
BRANCH  47  50
ATOM     50  C   UNL A   1      33.688  35.022  32.459  1.00  0.00     0.039 A 
ATOM     51  C   UNL A   1      33.583  33.685  32.855  1.00  0.00     0.014 A 
ATOM     52  C   UNL A   1      34.941  35.640  32.416  1.00  0.00     0.014 A 
ATOM     53  C   UNL A   1      34.736  32.956  33.160  1.00  0.00     0.010 A 
ATOM     54  C   UNL A   1      36.094  34.894  32.655  1.00  0.00     0.010 A 
ATOM     55  C   UNL A   1      36.003  33.549  33.041  1.00  0.00    -0.014 A 
BRANCH  55  56
ATOM     56  C   UNL A   1      37.242  32.786  33.347  1.00  0.00     0.031 A 
ATOM     57  C   UNL A   1      37.975  33.031  34.639  1.00  0.00     0.074 A 
ATOM     58  C   UNL A   1      37.735  31.911  32.450  1.00  0.00     0.049 A 
ATOM     59  N   UNL A   1      39.108  32.525  35.056  1.00  0.00    -0.248 NA
ATOM     60  C   UNL A   1      37.364  33.987  35.577  1.00  0.00     0.031 C 
ATOM     61  C   UNL A   1      37.140  31.601  31.148  1.00  0.00     0.029 A 
ATOM     62  N   UNL A   1      38.860  31.126  32.496  1.00  0.00    -0.354 N 
ATOM     63  C   UNL A   1      39.349  33.108  36.293  1.00  0.00     0.074 A 
ATOM     64  C   UNL A   1      38.274  34.044  36.538  1.00  0.00     0.031 C 
ATOM     65  C   UNL A   1      37.897  30.680  30.528  1.00  0.00     0.029 A 
ATOM     66  C   UNL A   1      39.046  30.361  31.370  1.00  0.00     0.049 A 
ATOM     67  H   UNL A   1      39.476  31.112  33.264  1.00  0.00     0.167 HD
ATOM     68  C   UNL A   1      40.361  32.871  37.161  1.00  0.00     0.031 A 
ATOM     69  C   UNL A   1      40.035  29.505  31.048  1.00  0.00     0.031 A 
ATOM     70  C   UNL A   1      41.428  31.934  36.929  1.00  0.00     0.049 A 
ATOM     71  C   UNL A   1      41.151  29.267  32.027  1.00  0.00     0.074 A 
ATOM     72  C   UNL A   1      42.489  31.612  37.758  1.00  0.00     0.029 A 
ATOM     73  N   UNL A   1      41.561  31.159  35.789  1.00  0.00    -0.354 N 
ATOM     74  N   UNL A   1      41.343  29.799  33.210  1.00  0.00    -0.248 NA
ATOM     75  C   UNL A   1      42.180  28.293  31.633  1.00  0.00     0.031 C 
ATOM     76  C   UNL A   1      43.281  30.663  37.105  1.00  0.00     0.029 A 
ATOM     77  C   UNL A   1      42.686  30.360  35.892  1.00  0.00     0.049 A 
ATOM     78  H   UNL A   1      40.946  31.175  35.020  1.00  0.00     0.167 HD
ATOM     79  C   UNL A   1      42.488  29.198  33.714  1.00  0.00     0.074 A 
ATOM     80  C   UNL A   1      42.942  28.252  32.716  1.00  0.00     0.031 C 
ATOM     81  C   UNL A   1      43.111  29.409  34.899  1.00  0.00     0.031 A 
BRANCH  68  82
ATOM     82  C   UNL A   1      40.356  33.636  38.455  1.00  0.00    -0.014 A 
ATOM     83  C   UNL A   1      39.836  33.063  39.628  1.00  0.00     0.009 A 
ATOM     84  C   UNL A   1      40.916  34.920  38.517  1.00  0.00     0.009 A 
ATOM     85  C   UNL A   1      39.851  33.774  40.829  1.00  0.00     0.001 A 
ATOM     86  C   UNL A   1      40.954  35.619  39.725  1.00  0.00     0.001 A 
ATOM     87  C   UNL A   1      40.414  35.049  40.878  1.00  0.00     0.000 A 
ENDBRANCH  68  82
BRANCH  69  88
ATOM     88  C   UNL A   1      40.019  28.796  29.742  1.00  0.00    -0.014 A 
ATOM     89  C   UNL A   1      40.659  29.349  28.621  1.00  0.00     0.009 A 
ATOM     90  C   UNL A   1      39.332  27.582  29.598  1.00  0.00     0.009 A 
ATOM     91  C   UNL A   1      40.576  28.721  27.376  1.00  0.00     0.001 A 
ATOM     92  C   UNL A   1      39.277  26.940  28.359  1.00  0.00     0.001 A 
ATOM     93  C   UNL A   1      39.887  27.517  27.247  1.00  0.00     0.000 A 
ENDBRANCH  69  88
BRANCH  81  94
ATOM     94  C   UNL A   1      44.310  28.560  35.207  1.00  0.00    -0.014 A 
ATOM     95  C   UNL A   1      44.186  27.321  35.852  1.00  0.00     0.009 A 
ATOM     96  C   UNL A   1      45.585  28.998  34.812  1.00  0.00     0.009 A 
ATOM     97  C   UNL A   1      45.320  26.553  36.127  1.00  0.00     0.001 A 
ATOM     98  C   UNL A   1      46.712  28.216  35.063  1.00  0.00     0.001 A 
ATOM     99  C   UNL A   1      46.580  26.999  35.730  1.00  0.00     0.000 A 
ENDBRANCH  81  94
ENDBRANCH  55  56
ENDBRANCH  47  50
ENDBRANCH  45  46
ENDBRANCH  44  45
ENDBRANCH  43  44
ENDBRANCH  42  43
ENDBRANCH  41  42
ENDBRANCH   1  41
TORSDOF 19
ENDMDL
MODEL 2
REMARK VINA RESULT:     -12.7      4.848      8.575
REMARK SMILES O=C(COc1cccc(NC(=O)c2ccc3c(c2)C(=O)N(c2ccccc2-c2ccccc2)C3=O)c1)NCCCCCCNC(=O)c1ccc(-c2c3nc(c(-c4ccccc4)c4ccc([nH]4)c(-c4ccccc4)c4nc(c(-c5ccccc5)c5ccc2[nH]5)C=C4)C=C3)cc1
REMARK SMILES IDX 38 1 37 2 1 3 2 4 3 6 4 7 5 8 6 9 36 10 7 11 9 12 8 13 10 14
REMARK SMILES IDX 11 15 12 17 13 18 14 19 18 20 15 21 17 22 16 23 19 24 34 25
REMARK SMILES IDX 20 26 21 27 35 28 22 29 23 30 27 31 24 32 26 33 25 34 28 35
REMARK SMILES IDX 29 36 33 37 30 38 32 39 31 40 39 41 40 42 41 43 42 44 43 45
REMARK SMILES IDX 44 46 45 47 46 49 47 50 48 51 94 52 49 53 93 54 50 55 51 56
REMARK SMILES IDX 52 57 87 58 53 59 92 60 86 61 88 62 54 63 91 64 85 65 84 66
REMARK SMILES IDX 55 68 77 69 62 70 76 71 63 72 66 73 75 74 89 75 64 76 65 77
REMARK SMILES IDX 74 79 90 80 67 81 56 82 57 83 61 84 58 85 60 86 59 87 78 88
REMARK SMILES IDX 79 89 83 90 80 91 82 92 81 93 68 94 69 95 73 96 70 97 72 98
REMARK SMILES IDX 71 99
REMARK H PARENT 37 5 10 16 44 48 88 67 66 78
REMARK Flexibility Score: inf
ROOT
ATOM      1  C   UNL A   1      34.729  34.263  30.106  1.00  0.00     0.116 C 
ENDROOT
BRANCH   1   2
ATOM      2  N   UNL A   1      35.202  32.922  29.848  1.00  0.00    -0.353 N 
ATOM      3  O   UNL A   1      35.700  33.253  27.628  1.00  0.00    -0.271 OA
ATOM      4  C   UNL A   1      35.731  32.547  28.630  1.00  0.00     0.257 C 
ATOM      5  H   UNL A   1      35.144  32.253  30.566  1.00  0.00     0.163 HD
BRANCH   4   6
ATOM      6  C   UNL A   1      36.401  31.171  28.636  1.00  0.00     0.329 C 
BRANCH   6   7
ATOM      7  O   UNL A   1      36.402  30.476  29.875  1.00  0.00    -0.484 OA
BRANCH   7   8
ATOM      8  C   UNL A   1      37.373  29.526  30.058  1.00  0.00     0.122 A 
ATOM      9  C   UNL A   1      37.350  28.909  31.305  1.00  0.00     0.046 A 
ATOM     10  C   UNL A   1      38.430  29.269  29.171  1.00  0.00     0.072 A 
ATOM     11  C   UNL A   1      38.384  28.060  31.672  1.00  0.00     0.006 A 
ATOM     12  C   UNL A   1      39.502  28.442  29.540  1.00  0.00     0.045 A 
ATOM     13  C   UNL A   1      39.458  27.852  30.803  1.00  0.00     0.026 A 
BRANCH  12  14
ATOM     14  N   UNL A   1      40.607  28.369  28.651  1.00  0.00    -0.322 N 
ATOM     15  C   UNL A   1      41.341  27.307  28.148  1.00  0.00     0.255 C 
ATOM     16  H   UNL A   1      40.913  29.248  28.328  1.00  0.00     0.170 HD
ATOM     17  O   UNL A   1      42.430  27.472  27.612  1.00  0.00    -0.269 OA
BRANCH  15  18
ATOM     18  C   UNL A   1      40.725  25.970  28.111  1.00  0.00     0.041 A 
ATOM     19  C   UNL A   1      39.510  25.753  27.423  1.00  0.00     0.015 A 
ATOM     20  C   UNL A   1      41.534  24.918  28.530  1.00  0.00     0.028 A 
ATOM     21  C   UNL A   1      39.210  24.468  26.941  1.00  0.00     0.015 A 
ATOM     22  C   UNL A   1      41.208  23.681  28.030  1.00  0.00     0.054 A 
ATOM     23  C   UNL A   1      40.136  23.466  27.199  1.00  0.00     0.053 A 
ATOM     24  C   UNL A   1      42.074  22.528  27.957  1.00  0.00     0.266 C 
ATOM     25  C   UNL A   1      40.386  22.182  26.530  1.00  0.00     0.266 C 
ATOM     26  O   UNL A   1      42.950  22.392  28.790  1.00  0.00    -0.268 OA
ATOM     27  N   UNL A   1      41.676  21.805  26.854  1.00  0.00    -0.242 N 
ATOM     28  O   UNL A   1      39.495  21.648  25.897  1.00  0.00    -0.268 OA
BRANCH  27  29
ATOM     29  C   UNL A   1      42.547  20.873  26.176  1.00  0.00     0.060 A 
ATOM     30  C   UNL A   1      42.241  19.491  26.261  1.00  0.00     0.027 A 
ATOM     31  C   UNL A   1      43.774  21.204  25.540  1.00  0.00     0.006 A 
ATOM     32  C   UNL A   1      43.066  18.482  25.759  1.00  0.00     0.002 A 
ATOM     33  C   UNL A   1      44.578  20.160  25.002  1.00  0.00     0.011 A 
ATOM     34  C   UNL A   1      44.237  18.817  25.114  1.00  0.00     0.001 A 
BRANCH  31  35
ATOM     35  C   UNL A   1      44.402  22.532  25.484  1.00  0.00    -0.016 A 
ATOM     36  C   UNL A   1      45.687  22.743  26.010  1.00  0.00     0.009 A 
ATOM     37  C   UNL A   1      43.682  23.642  25.012  1.00  0.00     0.009 A 
ATOM     38  C   UNL A   1      46.256  24.019  26.010  1.00  0.00     0.001 A 
ATOM     39  C   UNL A   1      44.248  24.918  25.017  1.00  0.00     0.001 A 
ATOM     40  C   UNL A   1      45.540  25.103  25.507  1.00  0.00     0.000 A 
ENDBRANCH  31  35
ENDBRANCH  27  29
ENDBRANCH  15  18
ENDBRANCH  12  14
ENDBRANCH   7   8
ENDBRANCH   6   7
ENDBRANCH   4   6
ENDBRANCH   1   2
BRANCH   1  41
ATOM     41  C   UNL A   1      33.959  34.363  31.416  1.00  0.00     0.021 C 
BRANCH  41  42
ATOM     42  C   UNL A   1      34.092  35.711  32.133  1.00  0.00     0.002 C 
BRANCH  42  43
ATOM     43  C   UNL A   1      34.730  35.664  33.525  1.00  0.00     0.002 C 
BRANCH  43  44
ATOM     44  C   UNL A   1      35.260  34.299  33.967  1.00  0.00     0.021 C 
BRANCH  44  45
ATOM     45  C   UNL A   1      36.700  34.292  34.471  1.00  0.00     0.116 C 
BRANCH  45  46
ATOM     46  N   UNL A   1      36.859  33.551  35.711  1.00  0.00    -0.352 N 
ATOM     47  C   UNL A   1      37.726  32.529  36.010  1.00  0.00     0.251 C 
ATOM     48  H   UNL A   1      36.257  33.821  36.441  1.00  0.00     0.163 HD
ATOM     49  O   UNL A   1      37.617  31.925  37.074  1.00  0.00    -0.269 OA
BRANCH  47  50
ATOM     50  C   UNL A   1      38.777  32.134  35.047  1.00  0.00     0.039 A 
ATOM     51  C   UNL A   1      40.113  32.404  35.364  1.00  0.00     0.014 A 
ATOM     52  C   UNL A   1      38.458  31.532  33.826  1.00  0.00     0.014 A 
ATOM     53  C   UNL A   1      41.129  32.026  34.481  1.00  0.00     0.010 A 
ATOM     54  C   UNL A   1      39.475  31.096  32.978  1.00  0.00     0.010 A 
ATOM     55  C   UNL A   1      40.819  31.349  33.290  1.00  0.00    -0.014 A 
BRANCH  55  56
ATOM     56  C   UNL A   1      41.885  30.927  32.345  1.00  0.00     0.031 A 
ATOM     57  C   UNL A   1      42.351  31.871  31.268  1.00  0.00     0.074 A 
ATOM     58  C   UNL A   1      42.402  29.685  32.421  1.00  0.00     0.049 A 
ATOM     59  N   UNL A   1      43.213  31.664  30.304  1.00  0.00    -0.248 NA
ATOM     60  C   UNL A   1      41.755  33.216  31.262  1.00  0.00     0.031 C 
ATOM     61  C   UNL A   1      42.019  28.662  33.396  1.00  0.00     0.029 A 
ATOM     62  N   UNL A   1      43.358  29.069  31.651  1.00  0.00    -0.354 N 
ATOM     63  C   UNL A   1      43.251  32.846  29.574  1.00  0.00     0.074 A 
ATOM     64  C   UNL A   1      42.291  33.746  30.173  1.00  0.00     0.031 C 
ATOM     65  C   UNL A   1      42.745  27.553  33.177  1.00  0.00     0.029 A 
ATOM     66  C   UNL A   1      43.616  27.773  32.027  1.00  0.00     0.049 A 
ATOM     67  H   UNL A   1      43.815  29.514  30.902  1.00  0.00     0.167 HD
ATOM     68  C   UNL A   1      44.032  33.164  28.514  1.00  0.00     0.031 A 
ATOM     69  C   UNL A   1      44.456  26.862  31.500  1.00  0.00     0.031 A 
ATOM     70  C   UNL A   1      44.997  32.277  27.921  1.00  0.00     0.049 A 
ATOM     71  C   UNL A   1      45.306  27.240  30.318  1.00  0.00     0.074 A 
ATOM     72  C   UNL A   1      45.848  32.517  26.855  1.00  0.00     0.029 A 
ATOM     73  N   UNL A   1      45.248  30.985  28.351  1.00  0.00    -0.354 N 
ATOM     74  N   UNL A   1      45.357  28.374  29.664  1.00  0.00    -0.248 NA
ATOM     75  C   UNL A   1      46.230  26.213  29.812  1.00  0.00     0.031 C 
ATOM     76  C   UNL A   1      46.593  31.357  26.622  1.00  0.00     0.029 A 
ATOM     77  C   UNL A   1      46.240  30.415  27.573  1.00  0.00     0.049 A 
ATOM     78  H   UNL A   1      44.789  30.539  29.100  1.00  0.00     0.167 HD
ATOM     79  C   UNL A   1      46.341  28.210  28.698  1.00  0.00     0.074 A 
ATOM     80  C   UNL A   1      46.871  26.873  28.858  1.00  0.00     0.031 C 
ATOM     81  C   UNL A   1      46.770  29.089  27.760  1.00  0.00     0.031 A 
BRANCH  68  82
ATOM     82  C   UNL A   1      43.880  34.541  27.932  1.00  0.00    -0.014 A 
ATOM     83  C   UNL A   1      44.838  35.538  28.181  1.00  0.00     0.009 A 
ATOM     84  C   UNL A   1      42.796  34.835  27.091  1.00  0.00     0.009 A 
ATOM     85  C   UNL A   1      44.698  36.809  27.622  1.00  0.00     0.001 A 
ATOM     86  C   UNL A   1      42.672  36.100  26.512  1.00  0.00     0.001 A 
ATOM     87  C   UNL A   1      43.618  37.088  26.784  1.00  0.00     0.000 A 
ENDBRANCH  68  82
BRANCH  69  88
ATOM     88  C   UNL A   1      44.550  25.499  32.085  1.00  0.00    -0.014 A 
ATOM     89  C   UNL A   1      44.044  24.388  31.393  1.00  0.00     0.009 A 
ATOM     90  C   UNL A   1      45.111  25.306  33.357  1.00  0.00     0.009 A 
ATOM     91  C   UNL A   1      44.061  23.119  31.978  1.00  0.00     0.001 A 
ATOM     92  C   UNL A   1      45.155  24.031  33.927  1.00  0.00     0.001 A 
ATOM     93  C   UNL A   1      44.617  22.943  33.243  1.00  0.00     0.000 A 
ENDBRANCH  69  88
BRANCH  81  94
ATOM     94  C   UNL A   1      47.905  28.656  26.878  1.00  0.00    -0.014 A 
ATOM     95  C   UNL A   1      47.679  27.984  25.668  1.00  0.00     0.009 A 
ATOM     96  C   UNL A   1      49.224  28.961  27.252  1.00  0.00     0.009 A 
ATOM     97  C   UNL A   1      48.754  27.591  24.868  1.00  0.00     0.001 A 
ATOM     98  C   UNL A   1      50.295  28.593  26.437  1.00  0.00     0.001 A 
ATOM     99  C   UNL A   1      50.060  27.899  25.251  1.00  0.00     0.000 A 
ENDBRANCH  81  94
ENDBRANCH  55  56
ENDBRANCH  47  50
ENDBRANCH  45  46
ENDBRANCH  44  45
ENDBRANCH  43  44
ENDBRANCH  42  43
ENDBRANCH  41  42
ENDBRANCH   1  41
TORSDOF 19
ENDMDL
MODEL 3
REMARK VINA RESULT:     -12.3      0.596      5.356
REMARK SMILES O=C(COc1cccc(NC(=O)c2ccc3c(c2)C(=O)N(c2ccccc2-c2ccccc2)C3=O)c1)NCCCCCCNC(=O)c1ccc(-c2c3nc(c(-c4ccccc4)c4ccc([nH]4)c(-c4ccccc4)c4nc(c(-c5ccccc5)c5ccc2[nH]5)C=C4)C=C3)cc1
REMARK SMILES IDX 38 1 37 2 1 3 2 4 3 6 4 7 5 8 6 9 36 10 7 11 9 12 8 13 10 14
REMARK SMILES IDX 11 15 12 17 13 18 14 19 18 20 15 21 17 22 16 23 19 24 34 25
REMARK SMILES IDX 20 26 21 27 35 28 22 29 23 30 27 31 24 32 26 33 25 34 28 35
REMARK SMILES IDX 29 36 33 37 30 38 32 39 31 40 39 41 40 42 41 43 42 44 43 45
REMARK SMILES IDX 44 46 45 47 46 49 47 50 48 51 94 52 49 53 93 54 50 55 51 56
REMARK SMILES IDX 52 57 87 58 53 59 92 60 86 61 88 62 54 63 91 64 85 65 84 66
REMARK SMILES IDX 55 68 77 69 62 70 76 71 63 72 66 73 75 74 89 75 64 76 65 77
REMARK SMILES IDX 74 79 90 80 67 81 56 82 57 83 61 84 58 85 60 86 59 87 78 88
REMARK SMILES IDX 79 89 83 90 80 91 82 92 81 93 68 94 69 95 73 96 70 97 72 98
REMARK SMILES IDX 71 99
REMARK H PARENT 37 5 10 16 44 48 88 67 66 78
REMARK Flexibility Score: inf
ROOT
ATOM      1  C   UNL A   1      34.125  30.866  27.916  1.00  0.00     0.116 C 
ENDROOT
BRANCH   1   2
ATOM      2  N   UNL A   1      34.305  30.138  26.681  1.00  0.00    -0.353 N 
ATOM      3  O   UNL A   1      33.154  28.255  27.327  1.00  0.00    -0.271 OA
ATOM      4  C   UNL A   1      33.727  28.905  26.458  1.00  0.00     0.257 C 
ATOM      5  H   UNL A   1      34.862  30.535  25.974  1.00  0.00     0.163 HD
BRANCH   4   6
ATOM      6  C   UNL A   1      33.827  28.419  25.012  1.00  0.00     0.329 C 
BRANCH   6   7
ATOM      7  O   UNL A   1      33.175  29.216  24.032  1.00  0.00    -0.484 OA
BRANCH   7   8
ATOM      8  C   UNL A   1      31.904  28.851  23.674  1.00  0.00     0.122 A 
ATOM      9  C   UNL A   1      30.957  29.863  23.791  1.00  0.00     0.046 A 
ATOM     10  C   UNL A   1      31.494  27.544  23.368  1.00  0.00     0.072 A 
ATOM     11  C   UNL A   1      29.612  29.570  23.626  1.00  0.00     0.006 A 
ATOM     12  C   UNL A   1      30.135  27.222  23.235  1.00  0.00     0.045 A 
ATOM     13  C   UNL A   1      29.209  28.256  23.375  1.00  0.00     0.026 A 
BRANCH  12  14
ATOM     14  N   UNL A   1      29.798  25.850  23.093  1.00  0.00    -0.322 N 
ATOM     15  C   UNL A   1      30.441  24.681  23.468  1.00  0.00     0.255 C 
ATOM     16  H   UNL A   1      28.938  25.698  22.638  1.00  0.00     0.170 HD
ATOM     17  O   UNL A   1      30.118  23.591  23.009  1.00  0.00    -0.269 OA
BRANCH  15  18
ATOM     18  C   UNL A   1      31.423  24.728  24.563  1.00  0.00     0.041 A 
ATOM     19  C   UNL A   1      31.031  24.481  25.898  1.00  0.00     0.015 A 
ATOM     20  C   UNL A   1      32.761  24.740  24.177  1.00  0.00     0.028 A 
ATOM     21  C   UNL A   1      31.981  24.009  26.820  1.00  0.00     0.015 A 
ATOM     22  C   UNL A   1      33.652  24.264  25.108  1.00  0.00     0.054 A 
ATOM     23  C   UNL A   1      33.277  23.835  26.357  1.00  0.00     0.053 A 
ATOM     24  C   UNL A   1      34.991  23.788  24.850  1.00  0.00     0.266 C 
ATOM     25  C   UNL A   1      34.379  23.000  26.853  1.00  0.00     0.266 C 
ATOM     26  O   UNL A   1      35.615  24.252  23.914  1.00  0.00    -0.268 OA
ATOM     27  N   UNL A   1      35.256  22.824  25.798  1.00  0.00    -0.242 N 
ATOM     28  O   UNL A   1      34.402  22.663  28.022  1.00  0.00    -0.268 OA
BRANCH  27  29
ATOM     29  C   UNL A   1      36.259  21.801  25.612  1.00  0.00     0.060 A 
ATOM     30  C   UNL A   1      37.619  22.162  25.784  1.00  0.00     0.027 A 
ATOM     31  C   UNL A   1      36.017  20.486  25.131  1.00  0.00     0.006 A 
ATOM     32  C   UNL A   1      38.689  21.305  25.513  1.00  0.00     0.002 A 
ATOM     33  C   UNL A   1      37.122  19.619  24.901  1.00  0.00     0.011 A 
ATOM     34  C   UNL A   1      38.441  20.021  25.080  1.00  0.00     0.001 A 
BRANCH  31  35
ATOM     35  C   UNL A   1      34.724  19.934  24.702  1.00  0.00    -0.016 A 
ATOM     36  C   UNL A   1      34.527  18.546  24.618  1.00  0.00     0.009 A 
ATOM     37  C   UNL A   1      33.699  20.783  24.254  1.00  0.00     0.009 A 
ATOM     38  C   UNL A   1      33.317  18.024  24.153  1.00  0.00     0.001 A 
ATOM     39  C   UNL A   1      32.492  20.263  23.784  1.00  0.00     0.001 A 
ATOM     40  C   UNL A   1      32.299  18.883  23.743  1.00  0.00     0.000 A 
ENDBRANCH  31  35
ENDBRANCH  27  29
ENDBRANCH  15  18
ENDBRANCH  12  14
ENDBRANCH   7   8
ENDBRANCH   6   7
ENDBRANCH   4   6
ENDBRANCH   1   2
BRANCH   1  41
ATOM     41  C   UNL A   1      34.254  32.371  27.725  1.00  0.00     0.021 C 
BRANCH  41  42
ATOM     42  C   UNL A   1      35.365  33.027  28.552  1.00  0.00     0.002 C 
BRANCH  42  43
ATOM     43  C   UNL A   1      35.054  34.426  29.094  1.00  0.00     0.002 C 
BRANCH  43  44
ATOM     44  C   UNL A   1      33.570  34.784  29.196  1.00  0.00     0.021 C 
BRANCH  44  45
ATOM     45  C   UNL A   1      33.272  36.160  29.785  1.00  0.00     0.116 C 
BRANCH  45  46
ATOM     46  N   UNL A   1      32.341  36.105  30.899  1.00  0.00    -0.352 N 
ATOM     47  C   UNL A   1      32.469  35.475  32.112  1.00  0.00     0.251 C 
ATOM     48  H   UNL A   1      31.495  36.589  30.763  1.00  0.00     0.163 HD
ATOM     49  O   UNL A   1      31.512  35.420  32.879  1.00  0.00    -0.269 OA
BRANCH  47  50
ATOM     50  C   UNL A   1      33.751  34.840  32.493  1.00  0.00     0.039 A 
ATOM     51  C   UNL A   1      33.755  33.480  32.819  1.00  0.00     0.014 A 
ATOM     52  C   UNL A   1      34.937  35.578  32.562  1.00  0.00     0.014 A 
ATOM     53  C   UNL A   1      34.954  32.850  33.165  1.00  0.00     0.010 A 
ATOM     54  C   UNL A   1      36.141  34.935  32.842  1.00  0.00     0.010 A 
ATOM     55  C   UNL A   1      36.161  33.568  33.158  1.00  0.00    -0.014 A 
BRANCH  55  56
ATOM     56  C   UNL A   1      37.448  32.913  33.510  1.00  0.00     0.031 A 
ATOM     57  C   UNL A   1      38.066  31.915  32.567  1.00  0.00     0.074 A 
ATOM     58  C   UNL A   1      38.038  33.177  34.692  1.00  0.00     0.049 A 
ATOM     59  N   UNL A   1      39.141  31.184  32.725  1.00  0.00    -0.248 NA
ATOM     60  C   UNL A   1      37.374  31.695  31.287  1.00  0.00     0.031 C 
ATOM     61  C   UNL A   1      37.531  34.100  35.709  1.00  0.00     0.029 A 
ATOM     62  N   UNL A   1      39.194  32.680  35.241  1.00  0.00    -0.354 N 
ATOM     63  C   UNL A   1      39.244  30.412  31.575  1.00  0.00     0.074 A 
ATOM     64  C   UNL A   1      38.098  30.725  30.749  1.00  0.00     0.031 C 
ATOM     65  C   UNL A   1      38.380  34.115  36.750  1.00  0.00     0.029 A 
ATOM     66  C   UNL A   1      39.470  33.181  36.491  1.00  0.00     0.049 A 
ATOM     67  H   UNL A   1      39.771  32.027  34.783  1.00  0.00     0.167 HD
ATOM     68  C   UNL A   1      40.217  29.538  31.223  1.00  0.00     0.031 A 
ATOM     69  C   UNL A   1      40.483  32.911  37.336  1.00  0.00     0.031 A 
ATOM     70  C   UNL A   1      41.365  29.231  32.034  1.00  0.00     0.049 A 
ATOM     71  C   UNL A   1      41.546  31.930  36.923  1.00  0.00     0.074 A 
ATOM     72  C   UNL A   1      42.414  28.371  31.754  1.00  0.00     0.029 A 
ATOM     73  N   UNL A   1      41.620  29.783  33.278  1.00  0.00    -0.354 N 
ATOM     74  N   UNL A   1      41.649  31.238  35.814  1.00  0.00    -0.248 NA
ATOM     75  C   UNL A   1      42.646  31.706  37.874  1.00  0.00     0.031 C 
ATOM     76  C   UNL A   1      43.289  28.381  32.844  1.00  0.00     0.029 A 
ATOM     77  C   UNL A   1      42.809  29.282  33.779  1.00  0.00     0.049 A 
ATOM     78  H   UNL A   1      41.041  30.433  33.738  1.00  0.00     0.167 HD
ATOM     79  C   UNL A   1      42.838  30.530  35.919  1.00  0.00     0.074 A 
ATOM     80  C   UNL A   1      43.430  30.884  37.191  1.00  0.00     0.031 C 
ATOM     81  C   UNL A   1      43.394  29.662  35.039  1.00  0.00     0.031 A 
BRANCH  68  82
ATOM     82  C   UNL A   1      40.085  28.857  29.890  1.00  0.00    -0.014 A 
ATOM     83  C   UNL A   1      40.606  29.445  28.726  1.00  0.00     0.009 A 
ATOM     84  C   UNL A   1      39.478  27.595  29.801  1.00  0.00     0.009 A 
ATOM     85  C   UNL A   1      40.494  28.797  27.494  1.00  0.00     0.001 A 
ATOM     86  C   UNL A   1      39.391  26.937  28.572  1.00  0.00     0.001 A 
ATOM     87  C   UNL A   1      39.891  27.541  27.420  1.00  0.00     0.000 A 
ENDBRANCH  68  82
BRANCH  69  88
ATOM     88  C   UNL A   1      40.556  33.582  38.660  1.00  0.00    -0.014 A 
ATOM     89  C   UNL A   1      39.961  32.999  39.790  1.00  0.00     0.009 A 
ATOM     90  C   UNL A   1      41.188  34.827  38.794  1.00  0.00     0.009 A 
ATOM     91  C   UNL A   1      39.962  33.668  41.016  1.00  0.00     0.001 A 
ATOM     92  C   UNL A   1      41.215  35.480  40.029  1.00  0.00     0.001 A 
ATOM     93  C   UNL A   1      40.590  34.907  41.135  1.00  0.00     0.000 A 
ENDBRANCH  69  88
BRANCH  81  94
ATOM     94  C   UNL A   1      44.734  29.085  35.393  1.00  0.00    -0.014 A 
ATOM     95  C   UNL A   1      45.927  29.748  35.068  1.00  0.00     0.009 A 
ATOM     96  C   UNL A   1      44.799  27.872  36.097  1.00  0.00     0.009 A 
ATOM     97  C   UNL A   1      47.160  29.187  35.408  1.00  0.00     0.001 A 
ATOM     98  C   UNL A   1      46.031  27.329  36.461  1.00  0.00     0.001 A 
ATOM     99  C   UNL A   1      47.211  27.981  36.108  1.00  0.00     0.000 A 
ENDBRANCH  81  94
ENDBRANCH  55  56
ENDBRANCH  47  50
ENDBRANCH  45  46
ENDBRANCH  44  45
ENDBRANCH  43  44
ENDBRANCH  42  43
ENDBRANCH  41  42
ENDBRANCH   1  41
TORSDOF 19
ENDMDL
