MODEL 1
REMARK VINA RESULT:     -10.6      0.000      0.000
REMARK SMILES C[C@@H](Cc1cnn(-c2ccccc2)n1)C(=O)NCCCCCCNC(=O)c1ccc(-c2c3nc(c(-c4ccccc4)c4ccc([nH]4)c(-c4ccccc4)c4nc(c(-c5ccccc5)c5ccc2[nH]5)C=C4)C=C3)cc1
REMARK SMILES IDX 20 1 19 2 18 3 17 4 15 5 16 6 2 8 1 9 3 10 4 11 5 12 14 13
REMARK SMILES IDX 6 14 7 15 8 16 9 17 13 18 10 19 12 20 11 21 21 22 22 23
REMARK SMILES IDX 23 24 24 25 25 26 26 28 27 29 28 30 74 31 29 32 73 33 30 34
REMARK SMILES IDX 31 35 32 36 67 37 33 38 72 39 66 40 68 41 34 42 71 43 65 44
REMARK SMILES IDX 64 45 35 47 57 48 42 49 56 50 43 51 46 52 55 53 69 54 44 55
REMARK SMILES IDX 45 56 54 58 70 59 47 60 36 61 37 62 41 63 38 64 40 65 39 66
REMARK SMILES IDX 58 67 59 68 63 69 60 70 62 71 61 72 48 73 49 74 53 75 50 76
REMARK SMILES IDX 52 77 51 78
REMARK H PARENT 17 7 24 27 68 46 46 57
REMARK Flexibility Score: inf
ROOT
ATOM      1  C   UNL A   1      40.363  21.686  25.986  1.00  0.00     0.002 C 
ENDROOT
BRANCH   1   2
ATOM      2  C   UNL A   1      39.100  22.438  26.397  1.00  0.00     0.021 C 
BRANCH   2   3
ATOM      3  C   UNL A   1      37.855  22.065  25.613  1.00  0.00     0.116 C 
BRANCH   3   4
ATOM      4  N   UNL A   1      36.642  21.987  26.389  1.00  0.00    -0.356 N 
ATOM      5  C   UNL A   1      35.372  21.757  25.957  1.00  0.00     0.223 C 
ATOM      6  O   UNL A   1      34.519  21.491  26.808  1.00  0.00    -0.275 OA
ATOM      7  H   UNL A   1      36.747  22.116  27.360  1.00  0.00     0.163 HD
BRANCH   5   8
ATOM      8  C   UNL A   1      34.971  21.860  24.486  1.00  0.00     0.081 C 
ATOM      9  C   UNL A   1      33.667  21.136  24.154  1.00  0.00     0.018 C 
BRANCH   8  10
ATOM     10  C   UNL A   1      35.184  23.238  23.843  1.00  0.00     0.073 C 
BRANCH  10  11
ATOM     11  C   UNL A   1      34.217  24.341  24.108  1.00  0.00     0.084 A 
ATOM     12  C   UNL A   1      33.239  24.884  23.255  1.00  0.00     0.161 A 
ATOM     13  N   UNL A   1      34.215  25.029  25.264  1.00  0.00    -0.153 NA
ATOM     14  N   UNL A   1      32.710  25.979  23.799  1.00  0.00    -0.157 NA
ATOM     15  N   UNL A   1      33.358  26.049  24.994  1.00  0.00    -0.151 N 
BRANCH  15  16
ATOM     16  C   UNL A   1      33.100  27.108  25.891  1.00  0.00     0.086 A 
ATOM     17  C   UNL A   1      31.902  27.161  26.608  1.00  0.00     0.030 A 
ATOM     18  C   UNL A   1      34.035  28.144  25.997  1.00  0.00     0.030 A 
ATOM     19  C   UNL A   1      31.599  28.311  27.347  1.00  0.00     0.002 A 
ATOM     20  C   UNL A   1      33.766  29.242  26.810  1.00  0.00     0.002 A 
ATOM     21  C   UNL A   1      32.533  29.343  27.455  1.00  0.00     0.000 A 
ENDBRANCH  15  16
ENDBRANCH  10  11
ENDBRANCH   8  10
ENDBRANCH   5   8
ENDBRANCH   3   4
ENDBRANCH   2   3
ENDBRANCH   1   2
BRANCH   1  22
ATOM     22  C   UNL A   1      40.723  20.441  26.815  1.00  0.00     0.002 C 
BRANCH  22  23
ATOM     23  C   UNL A   1      41.636  19.393  26.160  1.00  0.00     0.021 C 
BRANCH  23  24
ATOM     24  C   UNL A   1      43.074  19.423  26.627  1.00  0.00     0.116 C 
BRANCH  24  25
ATOM     25  N   UNL A   1      44.028  19.354  25.518  1.00  0.00    -0.352 N 
ATOM     26  C   UNL A   1      44.452  20.376  24.682  1.00  0.00     0.251 C 
ATOM     27  H   UNL A   1      44.418  18.468  25.342  1.00  0.00     0.163 HD
ATOM     28  O   UNL A   1      44.953  20.144  23.598  1.00  0.00    -0.269 OA
BRANCH  26  29
ATOM     29  C   UNL A   1      44.290  21.763  25.157  1.00  0.00     0.039 A 
ATOM     30  C   UNL A   1      43.390  22.658  24.574  1.00  0.00     0.014 A 
ATOM     31  C   UNL A   1      45.049  22.135  26.258  1.00  0.00     0.014 A 
ATOM     32  C   UNL A   1      43.231  23.910  25.163  1.00  0.00     0.010 A 
ATOM     33  C   UNL A   1      44.695  23.235  26.978  1.00  0.00     0.010 A 
ATOM     34  C   UNL A   1      43.885  24.180  26.378  1.00  0.00    -0.014 A 
BRANCH  34  35
ATOM     35  C   UNL A   1      43.680  25.410  27.122  1.00  0.00     0.031 A 
ATOM     36  C   UNL A   1      44.642  26.478  26.766  1.00  0.00     0.074 A 
ATOM     37  C   UNL A   1      42.578  25.632  27.875  1.00  0.00     0.049 A 
ATOM     38  N   UNL A   1      45.628  26.900  27.481  1.00  0.00    -0.248 NA
ATOM     39  C   UNL A   1      44.623  27.009  25.392  1.00  0.00     0.031 C 
ATOM     40  C   UNL A   1      41.389  24.782  28.036  1.00  0.00     0.029 A 
ATOM     41  N   UNL A   1      42.233  26.741  28.580  1.00  0.00    -0.354 N 
ATOM     42  C   UNL A   1      46.212  27.924  26.745  1.00  0.00     0.074 A 
ATOM     43  C   UNL A   1      45.703  27.794  25.403  1.00  0.00     0.031 C 
ATOM     44  C   UNL A   1      40.380  25.501  28.580  1.00  0.00     0.029 A 
ATOM     45  C   UNL A   1      40.899  26.797  28.971  1.00  0.00     0.049 A 
ATOM     46  H   UNL A   1      42.879  27.451  28.797  1.00  0.00     0.167 HD
ATOM     47  C   UNL A   1      46.817  28.968  27.376  1.00  0.00     0.031 A 
ATOM     48  C   UNL A   1      40.270  27.844  29.561  1.00  0.00     0.031 A 
ATOM     49  C   UNL A   1      47.032  28.677  28.775  1.00  0.00     0.049 A 
ATOM     50  C   UNL A   1      41.324  28.710  30.137  1.00  0.00     0.074 A 
ATOM     51  C   UNL A   1      47.727  27.714  29.478  1.00  0.00     0.029 A 
ATOM     52  N   UNL A   1      46.113  29.202  29.652  1.00  0.00    -0.354 N 
ATOM     53  N   UNL A   1      42.087  28.345  31.126  1.00  0.00    -0.248 NA
ATOM     54  C   UNL A   1      41.841  29.787  29.309  1.00  0.00     0.031 C 
ATOM     55  C   UNL A   1      46.887  27.390  30.585  1.00  0.00     0.029 A 
ATOM     56  C   UNL A   1      45.771  28.228  30.552  1.00  0.00     0.049 A 
ATOM     57  H   UNL A   1      45.762  30.122  29.637  1.00  0.00     0.167 HD
ATOM     58  C   UNL A   1      43.350  28.800  30.776  1.00  0.00     0.074 A 
ATOM     59  C   UNL A   1      43.118  29.769  29.704  1.00  0.00     0.031 C 
ATOM     60  C   UNL A   1      44.471  28.133  31.182  1.00  0.00     0.031 A 
BRANCH  47  61
ATOM     61  C   UNL A   1      46.767  30.389  26.867  1.00  0.00    -0.014 A 
ATOM     62  C   UNL A   1      47.929  31.174  26.976  1.00  0.00     0.009 A 
ATOM     63  C   UNL A   1      45.572  31.072  26.569  1.00  0.00     0.009 A 
ATOM     64  C   UNL A   1      47.879  32.569  26.884  1.00  0.00     0.001 A 
ATOM     65  C   UNL A   1      45.525  32.462  26.436  1.00  0.00     0.001 A 
ATOM     66  C   UNL A   1      46.674  33.213  26.625  1.00  0.00     0.000 A 
ENDBRANCH  47  61
BRANCH  48  67
ATOM     67  C   UNL A   1      38.871  28.309  29.429  1.00  0.00    -0.014 A 
ATOM     68  C   UNL A   1      38.083  28.553  30.568  1.00  0.00     0.009 A 
ATOM     69  C   UNL A   1      38.408  28.809  28.198  1.00  0.00     0.009 A 
ATOM     70  C   UNL A   1      36.904  29.309  30.484  1.00  0.00     0.001 A 
ATOM     71  C   UNL A   1      37.232  29.564  28.116  1.00  0.00     0.001 A 
ATOM     72  C   UNL A   1      36.489  29.829  29.262  1.00  0.00     0.000 A 
ENDBRANCH  48  67
BRANCH  60  73
ATOM     73  C   UNL A   1      44.310  27.051  32.225  1.00  0.00    -0.014 A 
ATOM     74  C   UNL A   1      44.253  25.678  31.925  1.00  0.00     0.009 A 
ATOM     75  C   UNL A   1      44.364  27.434  33.573  1.00  0.00     0.009 A 
ATOM     76  C   UNL A   1      44.225  24.722  32.950  1.00  0.00     0.001 A 
ATOM     77  C   UNL A   1      44.358  26.481  34.593  1.00  0.00     0.001 A 
ATOM     78  C   UNL A   1      44.283  25.125  34.282  1.00  0.00     0.000 A 
ENDBRANCH  60  73
ENDBRANCH  34  35
ENDBRANCH  26  29
ENDBRANCH  24  25
ENDBRANCH  23  24
ENDBRANCH  22  23
ENDBRANCH   1  22
TORSDOF 16
ENDMDL
MODEL 2
REMARK VINA RESULT:     -10.5      4.124      9.348
REMARK SMILES C[C@@H](Cc1cnn(-c2ccccc2)n1)C(=O)NCCCCCCNC(=O)c1ccc(-c2c3nc(c(-c4ccccc4)c4ccc([nH]4)c(-c4ccccc4)c4nc(c(-c5ccccc5)c5ccc2[nH]5)C=C4)C=C3)cc1
REMARK SMILES IDX 20 1 19 2 18 3 17 4 15 5 16 6 2 8 1 9 3 10 4 11 5 12 14 13
REMARK SMILES IDX 6 14 7 15 8 16 9 17 13 18 10 19 12 20 11 21 21 22 22 23
REMARK SMILES IDX 23 24 24 25 25 26 26 28 27 29 28 30 74 31 29 32 73 33 30 34
REMARK SMILES IDX 31 35 32 36 67 37 33 38 72 39 66 40 68 41 34 42 71 43 65 44
REMARK SMILES IDX 64 45 35 47 57 48 42 49 56 50 43 51 46 52 55 53 69 54 44 55
REMARK SMILES IDX 45 56 54 58 70 59 47 60 36 61 37 62 41 63 38 64 40 65 39 66
REMARK SMILES IDX 58 67 59 68 63 69 60 70 62 71 61 72 48 73 49 74 53 75 50 76
REMARK SMILES IDX 52 77 51 78
REMARK H PARENT 17 7 24 27 68 46 46 57
REMARK Flexibility Score: inf
ROOT
ATOM      1  C   UNL A   1      32.609  29.978  27.270  1.00  0.00     0.002 C 
ENDROOT
BRANCH   1   2
ATOM      2  C   UNL A   1      33.819  29.367  26.567  1.00  0.00     0.021 C 
BRANCH   2   3
ATOM      3  C   UNL A   1      33.548  28.047  25.867  1.00  0.00     0.116 C 
BRANCH   3   4
ATOM      4  N   UNL A   1      33.579  28.100  24.427  1.00  0.00    -0.356 N 
ATOM      5  C   UNL A   1      32.536  28.231  23.561  1.00  0.00     0.223 C 
ATOM      6  O   UNL A   1      32.801  28.496  22.385  1.00  0.00    -0.275 OA
ATOM      7  H   UNL A   1      34.471  28.033  24.015  1.00  0.00     0.163 HD
BRANCH   5   8
ATOM      8  C   UNL A   1      31.083  28.022  23.984  1.00  0.00     0.081 C 
ATOM      9  C   UNL A   1      30.137  29.116  23.489  1.00  0.00     0.018 C 
BRANCH   8  10
ATOM     10  C   UNL A   1      30.577  26.575  23.899  1.00  0.00     0.073 C 
BRANCH  10  11
ATOM     11  C   UNL A   1      31.424  25.460  24.409  1.00  0.00     0.084 A 
ATOM     12  C   UNL A   1      31.187  24.592  25.491  1.00  0.00     0.161 A 
ATOM     13  N   UNL A   1      32.629  25.177  23.883  1.00  0.00    -0.153 NA
ATOM     14  N   UNL A   1      32.270  23.858  25.739  1.00  0.00    -0.157 NA
ATOM     15  N   UNL A   1      33.128  24.273  24.768  1.00  0.00    -0.151 N 
BRANCH  15  16
ATOM     16  C   UNL A   1      34.434  23.744  24.687  1.00  0.00     0.086 A 
ATOM     17  C   UNL A   1      35.275  23.743  25.803  1.00  0.00     0.030 A 
ATOM     18  C   UNL A   1      34.900  23.286  23.449  1.00  0.00     0.030 A 
ATOM     19  C   UNL A   1      36.619  23.382  25.646  1.00  0.00     0.002 A 
ATOM     20  C   UNL A   1      36.214  22.839  23.324  1.00  0.00     0.002 A 
ATOM     21  C   UNL A   1      37.083  22.923  24.412  1.00  0.00     0.000 A 
ENDBRANCH  15  16
ENDBRANCH  10  11
ENDBRANCH   8  10
ENDBRANCH   5   8
ENDBRANCH   3   4
ENDBRANCH   2   3
ENDBRANCH   1   2
BRANCH   1  22
ATOM     22  C   UNL A   1      31.657  30.814  26.397  1.00  0.00     0.002 C 
BRANCH  22  23
ATOM     23  C   UNL A   1      31.547  32.315  26.707  1.00  0.00     0.021 C 
BRANCH  23  24
ATOM     24  C   UNL A   1      32.807  32.944  27.256  1.00  0.00     0.116 C 
BRANCH  24  25
ATOM     25  N   UNL A   1      32.545  34.191  27.980  1.00  0.00    -0.352 N 
ATOM     26  C   UNL A   1      33.137  34.650  29.146  1.00  0.00     0.251 C 
ATOM     27  H   UNL A   1      31.859  34.777  27.588  1.00  0.00     0.163 HD
ATOM     28  O   UNL A   1      32.605  35.498  29.838  1.00  0.00    -0.269 OA
BRANCH  26  29
ATOM     29  C   UNL A   1      34.449  34.088  29.518  1.00  0.00     0.039 A 
ATOM     30  C   UNL A   1      34.607  33.172  30.561  1.00  0.00     0.014 A 
ATOM     31  C   UNL A   1      35.533  34.476  28.743  1.00  0.00     0.014 A 
ATOM     32  C   UNL A   1      35.868  32.615  30.764  1.00  0.00     0.010 A 
ATOM     33  C   UNL A   1      36.676  33.738  28.768  1.00  0.00     0.010 A 
ATOM     34  C   UNL A   1      36.894  32.900  29.846  1.00  0.00    -0.014 A 
BRANCH  34  35
ATOM     35  C   UNL A   1      38.201  32.270  29.911  1.00  0.00     0.031 A 
ATOM     36  C   UNL A   1      38.190  30.853  29.483  1.00  0.00     0.074 A 
ATOM     37  C   UNL A   1      39.340  32.973  30.105  1.00  0.00     0.049 A 
ATOM     38  N   UNL A   1      38.302  29.815  30.240  1.00  0.00    -0.248 NA
ATOM     39  C   UNL A   1      37.832  30.544  28.088  1.00  0.00     0.031 C 
ATOM     40  C   UNL A   1      39.516  34.430  30.205  1.00  0.00     0.029 A 
ATOM     41  N   UNL A   1      40.624  32.528  30.141  1.00  0.00    -0.354 N 
ATOM     42  C   UNL A   1      38.271  28.722  29.383  1.00  0.00     0.074 A 
ATOM     43  C   UNL A   1      37.764  29.212  28.126  1.00  0.00     0.031 C 
ATOM     44  C   UNL A   1      40.821  34.748  30.047  1.00  0.00     0.029 A 
ATOM     45  C   UNL A   1      41.592  33.520  30.019  1.00  0.00     0.049 A 
ATOM     46  H   UNL A   1      40.850  31.576  30.245  1.00  0.00     0.167 HD
ATOM     47  C   UNL A   1      38.954  27.585  29.691  1.00  0.00     0.031 A 
ATOM     48  C   UNL A   1      42.930  33.335  29.890  1.00  0.00     0.031 A 
ATOM     49  C   UNL A   1      39.377  27.589  31.072  1.00  0.00     0.049 A 
ATOM     50  C   UNL A   1      43.224  31.965  30.369  1.00  0.00     0.074 A 
ATOM     51  C   UNL A   1      38.733  27.656  32.291  1.00  0.00     0.029 A 
ATOM     52  N   UNL A   1      40.680  27.957  31.308  1.00  0.00    -0.354 N 
ATOM     53  N   UNL A   1      43.084  31.596  31.609  1.00  0.00    -0.248 NA
ATOM     54  C   UNL A   1      43.215  30.890  29.390  1.00  0.00     0.031 C 
ATOM     55  C   UNL A   1      39.557  28.499  33.095  1.00  0.00     0.029 A 
ATOM     56  C   UNL A   1      40.698  28.830  32.362  1.00  0.00     0.049 A 
ATOM     57  H   UNL A   1      41.467  27.645  30.804  1.00  0.00     0.167 HD
ATOM     58  C   UNL A   1      42.511  30.336  31.535  1.00  0.00     0.074 A 
ATOM     59  C   UNL A   1      42.713  29.910  30.149  1.00  0.00     0.031 C 
ATOM     60  C   UNL A   1      41.673  29.888  32.517  1.00  0.00     0.031 A 
BRANCH  47  61
ATOM     61  C   UNL A   1      39.648  26.727  28.659  1.00  0.00    -0.014 A 
ATOM     62  C   UNL A   1      40.524  27.354  27.754  1.00  0.00     0.009 A 
ATOM     63  C   UNL A   1      39.261  25.409  28.349  1.00  0.00     0.009 A 
ATOM     64  C   UNL A   1      40.911  26.731  26.563  1.00  0.00     0.001 A 
ATOM     65  C   UNL A   1      39.679  24.768  27.180  1.00  0.00     0.001 A 
ATOM     66  C   UNL A   1      40.480  25.442  26.271  1.00  0.00     0.000 A 
ENDBRANCH  47  61
BRANCH  48  67
ATOM     67  C   UNL A   1      43.930  34.122  29.133  1.00  0.00    -0.014 A 
ATOM     68  C   UNL A   1      45.241  34.274  29.616  1.00  0.00     0.009 A 
ATOM     69  C   UNL A   1      43.687  34.465  27.791  1.00  0.00     0.009 A 
ATOM     70  C   UNL A   1      46.277  34.705  28.774  1.00  0.00     0.001 A 
ATOM     71  C   UNL A   1      44.721  34.894  26.951  1.00  0.00     0.001 A 
ATOM     72  C   UNL A   1      46.020  34.998  27.438  1.00  0.00     0.000 A 
ENDBRANCH  48  67
BRANCH  60  73
ATOM     73  C   UNL A   1      41.597  30.688  33.797  1.00  0.00    -0.014 A 
ATOM     74  C   UNL A   1      40.741  31.791  33.980  1.00  0.00     0.009 A 
ATOM     75  C   UNL A   1      42.313  30.214  34.905  1.00  0.00     0.009 A 
ATOM     76  C   UNL A   1      40.632  32.412  35.231  1.00  0.00     0.001 A 
ATOM     77  C   UNL A   1      42.188  30.820  36.156  1.00  0.00     0.001 A 
ATOM     78  C   UNL A   1      41.352  31.921  36.319  1.00  0.00     0.000 A 
ENDBRANCH  60  73
ENDBRANCH  34  35
ENDBRANCH  26  29
ENDBRANCH  24  25
ENDBRANCH  23  24
ENDBRANCH  22  23
ENDBRANCH   1  22
TORSDOF 16
ENDMDL
MODEL 3
REMARK VINA RESULT:     -10.4      2.079      5.441
REMARK SMILES C[C@@H](Cc1cnn(-c2ccccc2)n1)C(=O)NCCCCCCNC(=O)c1ccc(-c2c3nc(c(-c4ccccc4)c4ccc([nH]4)c(-c4ccccc4)c4nc(c(-c5ccccc5)c5ccc2[nH]5)C=C4)C=C3)cc1
REMARK SMILES IDX 20 1 19 2 18 3 17 4 15 5 16 6 2 8 1 9 3 10 4 11 5 12 14 13
REMARK SMILES IDX 6 14 7 15 8 16 9 17 13 18 10 19 12 20 11 21 21 22 22 23
REMARK SMILES IDX 23 24 24 25 25 26 26 28 27 29 28 30 74 31 29 32 73 33 30 34
REMARK SMILES IDX 31 35 32 36 67 37 33 38 72 39 66 40 68 41 34 42 71 43 65 44
REMARK SMILES IDX 64 45 35 47 57 48 42 49 56 50 43 51 46 52 55 53 69 54 44 55
REMARK SMILES IDX 45 56 54 58 70 59 47 60 36 61 37 62 41 63 38 64 40 65 39 66
REMARK SMILES IDX 58 67 59 68 63 69 60 70 62 71 61 72 48 73 49 74 53 75 50 76
REMARK SMILES IDX 52 77 51 78
REMARK H PARENT 17 7 24 27 68 46 46 57
REMARK Flexibility Score: inf
ROOT
ATOM      1  C   UNL A   1      37.194  22.186  24.544  1.00  0.00     0.002 C 
ENDROOT
BRANCH   1   2
ATOM      2  C   UNL A   1      35.871  21.424  24.569  1.00  0.00     0.021 C 
BRANCH   2   3
ATOM      3  C   UNL A   1      35.216  21.333  25.935  1.00  0.00     0.116 C 
BRANCH   3   4
ATOM      4  N   UNL A   1      34.146  20.372  26.039  1.00  0.00    -0.356 N 
ATOM      5  C   UNL A   1      32.949  20.362  25.389  1.00  0.00     0.223 C 
ATOM      6  O   UNL A   1      32.281  19.325  25.440  1.00  0.00    -0.275 OA
ATOM      7  H   UNL A   1      34.301  19.625  26.661  1.00  0.00     0.163 HD
BRANCH   5   8
ATOM      8  C   UNL A   1      32.401  21.583  24.652  1.00  0.00     0.081 C 
ATOM      9  C   UNL A   1      32.221  21.363  23.151  1.00  0.00     0.018 C 
BRANCH   8  10
ATOM     10  C   UNL A   1      31.284  22.343  25.383  1.00  0.00     0.073 C 
BRANCH  10  11
ATOM     11  C   UNL A   1      31.378  23.821  25.551  1.00  0.00     0.084 A 
ATOM     12  C   UNL A   1      31.818  24.559  26.666  1.00  0.00     0.161 A 
ATOM     13  N   UNL A   1      30.964  24.678  24.600  1.00  0.00    -0.153 NA
ATOM     14  N   UNL A   1      31.570  25.855  26.488  1.00  0.00    -0.157 NA
ATOM     15  N   UNL A   1      31.018  25.875  25.243  1.00  0.00    -0.151 N 
BRANCH  15  16
ATOM     16  C   UNL A   1      30.580  27.088  24.670  1.00  0.00     0.086 A 
ATOM     17  C   UNL A   1      29.586  27.096  23.688  1.00  0.00     0.030 A 
ATOM     18  C   UNL A   1      31.211  28.278  25.049  1.00  0.00     0.030 A 
ATOM     19  C   UNL A   1      29.305  28.289  23.011  1.00  0.00     0.002 A 
ATOM     20  C   UNL A   1      30.856  29.478  24.436  1.00  0.00     0.002 A 
ATOM     21  C   UNL A   1      29.931  29.477  23.392  1.00  0.00     0.000 A 
ENDBRANCH  15  16
ENDBRANCH  10  11
ENDBRANCH   8  10
ENDBRANCH   5   8
ENDBRANCH   3   4
ENDBRANCH   2   3
ENDBRANCH   1   2
BRANCH   1  22
ATOM     22  C   UNL A   1      38.298  21.677  25.487  1.00  0.00     0.002 C 
BRANCH  22  23
ATOM     23  C   UNL A   1      38.865  20.274  25.223  1.00  0.00     0.021 C 
BRANCH  23  24
ATOM     24  C   UNL A   1      39.694  19.701  26.350  1.00  0.00     0.116 C 
BRANCH  24  25
ATOM     25  N   UNL A   1      40.935  19.081  25.879  1.00  0.00    -0.352 N 
ATOM     26  C   UNL A   1      42.160  19.682  25.640  1.00  0.00     0.251 C 
ATOM     27  H   UNL A   1      40.892  18.113  25.709  1.00  0.00     0.163 HD
ATOM     28  O   UNL A   1      42.996  19.160  24.926  1.00  0.00    -0.269 OA
BRANCH  26  29
ATOM     29  C   UNL A   1      42.430  20.976  26.295  1.00  0.00     0.039 A 
ATOM     30  C   UNL A   1      42.680  22.147  25.575  1.00  0.00     0.014 A 
ATOM     31  C   UNL A   1      42.378  20.993  27.682  1.00  0.00     0.014 A 
ATOM     32  C   UNL A   1      42.815  23.339  26.282  1.00  0.00     0.010 A 
ATOM     33  C   UNL A   1      42.239  22.179  28.335  1.00  0.00     0.010 A 
ATOM     34  C   UNL A   1      42.578  23.341  27.668  1.00  0.00    -0.014 A 
BRANCH  34  35
ATOM     35  C   UNL A   1      42.577  24.557  28.461  1.00  0.00     0.031 A 
ATOM     36  C   UNL A   1      41.449  25.462  28.145  1.00  0.00     0.074 A 
ATOM     37  C   UNL A   1      43.377  24.724  29.539  1.00  0.00     0.049 A 
ATOM     38  N   UNL A   1      41.510  26.579  27.504  1.00  0.00    -0.248 NA
ATOM     39  C   UNL A   1      40.078  24.992  28.405  1.00  0.00     0.031 C 
ATOM     40  C   UNL A   1      44.299  23.759  30.158  1.00  0.00     0.029 A 
ATOM     41  N   UNL A   1      43.449  25.777  30.395  1.00  0.00    -0.354 N 
ATOM     42  C   UNL A   1      40.213  27.074  27.491  1.00  0.00     0.074 A 
ATOM     43  C   UNL A   1      39.359  25.972  27.853  1.00  0.00     0.031 C 
ATOM     44  C   UNL A   1      44.642  24.180  31.397  1.00  0.00     0.029 A 
ATOM     45  C   UNL A   1      44.116  25.518  31.589  1.00  0.00     0.049 A 
ATOM     46  H   UNL A   1      43.059  26.655  30.186  1.00  0.00     0.167 HD
ATOM     47  C   UNL A   1      39.987  28.417  27.487  1.00  0.00     0.031 A 
ATOM     48  C   UNL A   1      44.211  26.346  32.660  1.00  0.00     0.031 A 
ATOM     49  C   UNL A   1      41.194  29.148  27.175  1.00  0.00     0.049 A 
ATOM     50  C   UNL A   1      43.907  27.712  32.177  1.00  0.00     0.074 A 
ATOM     51  C   UNL A   1      42.066  29.185  26.106  1.00  0.00     0.029 A 
ATOM     52  N   UNL A   1      41.880  29.672  28.245  1.00  0.00    -0.354 N 
ATOM     53  N   UNL A   1      44.669  28.362  31.346  1.00  0.00    -0.248 NA
ATOM     54  C   UNL A   1      42.527  28.162  32.246  1.00  0.00     0.031 C 
ATOM     55  C   UNL A   1      43.362  29.294  26.692  1.00  0.00     0.029 A 
ATOM     56  C   UNL A   1      43.212  29.407  28.075  1.00  0.00     0.049 A 
ATOM     57  H   UNL A   1      41.480  30.157  29.004  1.00  0.00     0.167 HD
ATOM     58  C   UNL A   1      43.786  28.969  30.467  1.00  0.00     0.074 A 
ATOM     59  C   UNL A   1      42.483  28.898  31.131  1.00  0.00     0.031 C 
ATOM     60  C   UNL A   1      44.140  29.202  29.168  1.00  0.00     0.031 A 
BRANCH  47  61
ATOM     61  C   UNL A   1      38.841  29.071  28.224  1.00  0.00    -0.014 A 
ATOM     62  C   UNL A   1      38.729  28.846  29.608  1.00  0.00     0.009 A 
ATOM     63  C   UNL A   1      37.722  29.638  27.585  1.00  0.00     0.009 A 
ATOM     64  C   UNL A   1      37.532  29.089  30.291  1.00  0.00     0.001 A 
ATOM     65  C   UNL A   1      36.539  29.919  28.272  1.00  0.00     0.001 A 
ATOM     66  C   UNL A   1      36.434  29.615  29.620  1.00  0.00     0.000 A 
ENDBRANCH  47  61
BRANCH  48  67
ATOM     67  C   UNL A   1      44.263  26.028  34.105  1.00  0.00    -0.014 A 
ATOM     68  C   UNL A   1      45.156  26.699  34.958  1.00  0.00     0.009 A 
ATOM     69  C   UNL A   1      43.225  25.288  34.701  1.00  0.00     0.009 A 
ATOM     70  C   UNL A   1      44.986  26.671  36.351  1.00  0.00     0.001 A 
ATOM     71  C   UNL A   1      43.056  25.261  36.090  1.00  0.00     0.001 A 
ATOM     72  C   UNL A   1      43.926  25.967  36.914  1.00  0.00     0.000 A 
ENDBRANCH  48  67
BRANCH  60  73
ATOM     73  C   UNL A   1      45.592  29.021  28.789  1.00  0.00    -0.014 A 
ATOM     74  C   UNL A   1      46.546  30.054  28.835  1.00  0.00     0.009 A 
ATOM     75  C   UNL A   1      46.036  27.720  28.517  1.00  0.00     0.009 A 
ATOM     76  C   UNL A   1      47.900  29.789  28.588  1.00  0.00     0.001 A 
ATOM     77  C   UNL A   1      47.387  27.453  28.291  1.00  0.00     0.001 A 
ATOM     78  C   UNL A   1      48.319  28.487  28.322  1.00  0.00     0.000 A 
ENDBRANCH  60  73
ENDBRANCH  34  35
ENDBRANCH  26  29
ENDBRANCH  24  25
ENDBRANCH  23  24
ENDBRANCH  22  23
ENDBRANCH   1  22
TORSDOF 16
ENDMDL
