MODEL 1
REMARK VINA RESULT:     -11.0      0.000      0.000
REMARK SMILES Cc1ccc(F)c(NC(=O)[C@@H]2CCCC[C@@H]2C(=O)NCCCCCCNC(=O)c2ccc(-c3c4nc(c(-c5ccccc5)c5ccc([nH]5)c(-c5ccccc5)c5nc(c(-c6ccccc6)c6ccc3[nH]6)C=C5)C=C4)cc2)c1
REMARK SMILES IDX 22 1 21 2 20 3 19 4 17 5 18 6 16 8 11 9 12 10 13 11 15 12
REMARK SMILES IDX 14 13 9 14 8 15 10 17 7 18 1 19 2 20 3 21 77 22 4 23 5 24
REMARK SMILES IDX 6 25 23 26 24 27 25 28 26 29 27 30 28 32 29 33 30 34 76 35
REMARK SMILES IDX 31 36 75 37 32 38 33 39 34 40 69 41 35 42 74 43 68 44 70 45
REMARK SMILES IDX 36 46 73 47 67 48 66 49 37 51 59 52 44 53 58 54 45 55 48 56
REMARK SMILES IDX 57 57 71 58 46 59 47 60 56 62 72 63 49 64 38 65 39 66 43 67
REMARK SMILES IDX 40 68 42 69 41 70 60 71 61 72 65 73 62 74 64 75 63 76 50 77
REMARK SMILES IDX 51 78 55 79 52 80 54 81 53 82
REMARK H PARENT 19 7 8 16 26 31 70 50 48 61
REMARK Flexibility Score: inf
ROOT
ATOM      1  C   UNL A   1      34.036  28.224  23.868  1.00  0.00     0.002 C 
ENDROOT
BRANCH   1   2
ATOM      2  C   UNL A   1      33.604  28.061  22.413  1.00  0.00     0.021 C 
BRANCH   2   3
ATOM      3  C   UNL A   1      32.957  26.728  22.028  1.00  0.00     0.116 C 
BRANCH   3   4
ATOM      4  N   UNL A   1      31.708  26.594  22.745  1.00  0.00    -0.356 N 
ATOM      5  C   UNL A   1      31.276  25.765  23.729  1.00  0.00     0.223 C 
ATOM      6  O   UNL A   1      30.051  25.798  23.906  1.00  0.00    -0.275 OA
ATOM      7  H   UNL A   1      31.026  27.243  22.459  1.00  0.00     0.163 HD
BRANCH   5   8
ATOM      8  C   UNL A   1      32.213  24.983  24.681  1.00  0.00     0.091 C 
ATOM      9  C   UNL A   1      32.686  23.520  24.449  1.00  0.00     0.091 C 
ATOM     10  C   UNL A   1      31.828  22.328  24.920  1.00  0.00     0.014 C 
ATOM     11  C   UNL A   1      31.022  22.588  26.187  1.00  0.00     0.001 C 
ATOM     12  C   UNL A   1      31.572  25.038  26.096  1.00  0.00     0.014 C 
ATOM     13  C   UNL A   1      30.460  23.997  26.256  1.00  0.00     0.001 C 
BRANCH   9  14
ATOM     14  C   UNL A   1      33.552  23.282  23.225  1.00  0.00     0.228 C 
ATOM     15  N   UNL A   1      34.899  23.177  23.167  1.00  0.00    -0.323 N 
ATOM     16  H   UNL A   1      35.224  23.211  22.238  1.00  0.00     0.170 HD
ATOM     17  O   UNL A   1      32.984  23.177  22.123  1.00  0.00    -0.274 OA
BRANCH  15  18
ATOM     18  C   UNL A   1      35.961  23.034  24.080  1.00  0.00     0.077 A 
ATOM     19  C   UNL A   1      38.236  20.136  25.085  1.00  0.00     0.044 C 
ATOM     20  C   UNL A   1      37.667  21.518  24.963  1.00  0.00    -0.049 A 
ATOM     21  C   UNL A   1      38.104  22.515  25.837  1.00  0.00     0.006 A 
ATOM     22  C   UNL A   1      36.660  21.815  24.030  1.00  0.00     0.032 A 
ATOM     23  C   UNL A   1      37.402  23.707  25.922  1.00  0.00     0.042 A 
ATOM     24  C   UNL A   1      36.293  23.909  25.111  1.00  0.00     0.146 A 
ATOM     25  F   UNL A   1      35.487  24.914  25.456  1.00  0.00    -0.205 F 
ENDBRANCH  15  18
ENDBRANCH   9  14
ENDBRANCH   5   8
ENDBRANCH   3   4
ENDBRANCH   2   3
ENDBRANCH   1   2
BRANCH   1  26
ATOM     26  C   UNL A   1      33.128  29.122  24.707  1.00  0.00     0.002 C 
BRANCH  26  27
ATOM     27  C   UNL A   1      32.620  28.517  26.021  1.00  0.00     0.021 C 
BRANCH  27  28
ATOM     28  C   UNL A   1      33.504  28.754  27.245  1.00  0.00     0.116 C 
BRANCH  28  29
ATOM     29  N   UNL A   1      33.545  30.150  27.646  1.00  0.00    -0.352 N 
ATOM     30  C   UNL A   1      34.533  30.853  28.283  1.00  0.00     0.251 C 
ATOM     31  H   UNL A   1      32.738  30.671  27.426  1.00  0.00     0.163 HD
ATOM     32  O   UNL A   1      34.309  31.988  28.707  1.00  0.00    -0.269 OA
BRANCH  30  33
ATOM     33  C   UNL A   1      35.869  30.254  28.479  1.00  0.00     0.039 A 
ATOM     34  C   UNL A   1      36.776  30.256  27.415  1.00  0.00     0.014 A 
ATOM     35  C   UNL A   1      36.219  29.670  29.699  1.00  0.00     0.014 A 
ATOM     36  C   UNL A   1      38.059  29.732  27.595  1.00  0.00     0.010 A 
ATOM     37  C   UNL A   1      37.518  29.205  29.896  1.00  0.00     0.010 A 
ATOM     38  C   UNL A   1      38.452  29.234  28.848  1.00  0.00    -0.014 A 
BRANCH  38  39
ATOM     39  C   UNL A   1      39.830  28.734  29.089  1.00  0.00     0.031 A 
ATOM     40  C   UNL A   1      40.872  29.651  29.668  1.00  0.00     0.074 A 
ATOM     41  C   UNL A   1      40.163  27.478  28.730  1.00  0.00     0.049 A 
ATOM     42  N   UNL A   1      42.154  29.446  29.834  1.00  0.00    -0.248 NA
ATOM     43  C   UNL A   1      40.416  30.983  30.101  1.00  0.00     0.031 C 
ATOM     44  C   UNL A   1      39.249  26.487  28.156  1.00  0.00     0.029 A 
ATOM     45  N   UNL A   1      41.369  26.823  28.780  1.00  0.00    -0.354 N 
ATOM     46  C   UNL A   1      42.657  30.619  30.382  1.00  0.00     0.074 A 
ATOM     47  C   UNL A   1      41.554  31.551  30.474  1.00  0.00     0.031 C 
ATOM     48  C   UNL A   1      39.924  25.349  27.923  1.00  0.00     0.029 A 
ATOM     49  C   UNL A   1      41.326  25.543  28.278  1.00  0.00     0.049 A 
ATOM     50  H   UNL A   1      42.189  27.232  29.143  1.00  0.00     0.167 HD
ATOM     51  C   UNL A   1      43.919  30.891  30.792  1.00  0.00     0.031 A 
ATOM     52  C   UNL A   1      42.308  24.638  28.103  1.00  0.00     0.031 A 
ATOM     53  C   UNL A   1      45.015  29.965  30.702  1.00  0.00     0.049 A 
ATOM     54  C   UNL A   1      43.716  24.995  28.502  1.00  0.00     0.074 A 
ATOM     55  C   UNL A   1      46.329  30.146  31.102  1.00  0.00     0.029 A 
ATOM     56  N   UNL A   1      44.927  28.684  30.184  1.00  0.00    -0.354 N 
ATOM     57  N   UNL A   1      44.167  26.099  29.047  1.00  0.00    -0.248 NA
ATOM     58  C   UNL A   1      44.751  23.977  28.266  1.00  0.00     0.031 C 
ATOM     59  C   UNL A   1      47.046  28.991  30.782  1.00  0.00     0.029 A 
ATOM     60  C   UNL A   1      46.165  28.068  30.243  1.00  0.00     0.049 A 
ATOM     61  H   UNL A   1      44.106  28.274  29.827  1.00  0.00     0.167 HD
ATOM     62  C   UNL A   1      45.523  25.886  29.265  1.00  0.00     0.074 A 
ATOM     63  C   UNL A   1      45.822  24.549  28.797  1.00  0.00     0.031 C 
ATOM     64  C   UNL A   1      46.437  26.724  29.809  1.00  0.00     0.031 A 
BRANCH  51  65
ATOM     65  C   UNL A   1      44.185  32.247  31.383  1.00  0.00    -0.014 A 
ATOM     66  C   UNL A   1      44.545  33.331  30.569  1.00  0.00     0.009 A 
ATOM     67  C   UNL A   1      44.005  32.460  32.759  1.00  0.00     0.009 A 
ATOM     68  C   UNL A   1      44.744  34.597  31.123  1.00  0.00     0.001 A 
ATOM     69  C   UNL A   1      44.176  33.734  33.306  1.00  0.00     0.001 A 
ATOM     70  C   UNL A   1      44.550  34.799  32.489  1.00  0.00     0.000 A 
ENDBRANCH  51  65
BRANCH  52  71
ATOM     71  C   UNL A   1      42.014  23.303  27.514  1.00  0.00    -0.014 A 
ATOM     72  C   UNL A   1      41.441  22.288  28.296  1.00  0.00     0.009 A 
ATOM     73  C   UNL A   1      42.356  23.018  26.182  1.00  0.00     0.009 A 
ATOM     74  C   UNL A   1      41.261  21.005  27.772  1.00  0.00     0.001 A 
ATOM     75  C   UNL A   1      42.142  21.745  25.651  1.00  0.00     0.001 A 
ATOM     76  C   UNL A   1      41.610  20.735  26.451  1.00  0.00     0.000 A 
ENDBRANCH  52  71
BRANCH  64  77
ATOM     77  C   UNL A   1      47.832  26.201  30.011  1.00  0.00    -0.014 A 
ATOM     78  C   UNL A   1      48.789  26.239  28.987  1.00  0.00     0.009 A 
ATOM     79  C   UNL A   1      48.211  25.734  31.281  1.00  0.00     0.009 A 
ATOM     80  C   UNL A   1      50.093  25.799  29.227  1.00  0.00     0.001 A 
ATOM     81  C   UNL A   1      49.521  25.324  31.525  1.00  0.00     0.001 A 
ATOM     82  C   UNL A   1      50.460  25.351  30.496  1.00  0.00     0.000 A 
ENDBRANCH  64  77
ENDBRANCH  38  39
ENDBRANCH  30  33
ENDBRANCH  28  29
ENDBRANCH  27  28
ENDBRANCH  26  27
ENDBRANCH   1  26
TORSDOF 15
ENDMDL
MODEL 2
REMARK VINA RESULT:     -10.8      1.850      7.070
REMARK SMILES Cc1ccc(F)c(NC(=O)[C@@H]2CCCC[C@@H]2C(=O)NCCCCCCNC(=O)c2ccc(-c3c4nc(c(-c5ccccc5)c5ccc([nH]5)c(-c5ccccc5)c5nc(c(-c6ccccc6)c6ccc3[nH]6)C=C5)C=C4)cc2)c1
REMARK SMILES IDX 22 1 21 2 20 3 19 4 17 5 18 6 16 8 11 9 12 10 13 11 15 12
REMARK SMILES IDX 14 13 9 14 8 15 10 17 7 18 1 19 2 20 3 21 77 22 4 23 5 24
REMARK SMILES IDX 6 25 23 26 24 27 25 28 26 29 27 30 28 32 29 33 30 34 76 35
REMARK SMILES IDX 31 36 75 37 32 38 33 39 34 40 69 41 35 42 74 43 68 44 70 45
REMARK SMILES IDX 36 46 73 47 67 48 66 49 37 51 59 52 44 53 58 54 45 55 48 56
REMARK SMILES IDX 57 57 71 58 46 59 47 60 56 62 72 63 49 64 38 65 39 66 43 67
REMARK SMILES IDX 40 68 42 69 41 70 60 71 61 72 65 73 62 74 64 75 63 76 50 77
REMARK SMILES IDX 51 78 55 79 52 80 54 81 53 82
REMARK H PARENT 19 7 8 16 26 31 70 50 48 61
REMARK Flexibility Score: inf
ROOT
ATOM      1  C   UNL A   1      37.032  23.024  24.779  1.00  0.00     0.002 C 
ENDROOT
BRANCH   1   2
ATOM      2  C   UNL A   1      35.790  23.911  24.842  1.00  0.00     0.021 C 
BRANCH   2   3
ATOM      3  C   UNL A   1      34.761  23.742  23.721  1.00  0.00     0.116 C 
BRANCH   3   4
ATOM      4  N   UNL A   1      34.179  25.033  23.427  1.00  0.00    -0.356 N 
ATOM      5  C   UNL A   1      33.330  25.853  24.095  1.00  0.00     0.223 C 
ATOM      6  O   UNL A   1      32.864  26.764  23.399  1.00  0.00    -0.275 OA
ATOM      7  H   UNL A   1      34.460  25.395  22.555  1.00  0.00     0.163 HD
BRANCH   5   8
ATOM      8  C   UNL A   1      33.090  25.797  25.624  1.00  0.00     0.091 C 
ATOM      9  C   UNL A   1      31.716  26.041  26.311  1.00  0.00     0.091 C 
ATOM     10  C   UNL A   1      31.255  27.469  26.669  1.00  0.00     0.014 C 
ATOM     11  C   UNL A   1      32.381  28.424  27.044  1.00  0.00     0.001 C 
ATOM     12  C   UNL A   1      34.109  26.768  26.281  1.00  0.00     0.014 C 
ATOM     13  C   UNL A   1      33.635  28.223  26.210  1.00  0.00     0.001 C 
BRANCH   9  14
ATOM     14  C   UNL A   1      30.619  25.041  25.992  1.00  0.00     0.228 C 
ATOM     15  N   UNL A   1      30.751  23.728  25.701  1.00  0.00    -0.323 N 
ATOM     16  H   UNL A   1      29.912  23.349  25.351  1.00  0.00     0.170 HD
ATOM     17  O   UNL A   1      29.445  25.452  25.976  1.00  0.00    -0.274 OA
BRANCH  15  18
ATOM     18  C   UNL A   1      31.768  22.756  25.763  1.00  0.00     0.077 A 
ATOM     19  C   UNL A   1      32.574  19.614  23.747  1.00  0.00     0.044 C 
ATOM     20  C   UNL A   1      32.700  20.747  24.720  1.00  0.00    -0.049 A 
ATOM     21  C   UNL A   1      33.697  20.700  25.696  1.00  0.00     0.006 A 
ATOM     22  C   UNL A   1      31.800  21.825  24.708  1.00  0.00     0.032 A 
ATOM     23  C   UNL A   1      33.655  21.588  26.760  1.00  0.00     0.042 A 
ATOM     24  C   UNL A   1      32.643  22.537  26.823  1.00  0.00     0.146 A 
ATOM     25  F   UNL A   1      32.471  23.137  28.001  1.00  0.00    -0.205 F 
ENDBRANCH  15  18
ENDBRANCH   9  14
ENDBRANCH   5   8
ENDBRANCH   3   4
ENDBRANCH   2   3
ENDBRANCH   1   2
BRANCH   1  26
ATOM     26  C   UNL A   1      36.875  21.766  23.925  1.00  0.00     0.002 C 
BRANCH  26  27
ATOM     27  C   UNL A   1      37.388  20.465  24.553  1.00  0.00     0.021 C 
BRANCH  27  28
ATOM     28  C   UNL A   1      38.362  20.631  25.719  1.00  0.00     0.116 C 
BRANCH  28  29
ATOM     29  N   UNL A   1      39.440  19.657  25.692  1.00  0.00    -0.352 N 
ATOM     30  C   UNL A   1      40.771  19.812  25.975  1.00  0.00     0.251 C 
ATOM     31  H   UNL A   1      39.172  18.746  25.431  1.00  0.00     0.163 HD
ATOM     32  O   UNL A   1      41.568  18.908  25.715  1.00  0.00    -0.269 OA
BRANCH  30  33
ATOM     33  C   UNL A   1      41.266  21.065  26.580  1.00  0.00     0.039 A 
ATOM     34  C   UNL A   1      41.816  22.048  25.752  1.00  0.00     0.014 A 
ATOM     35  C   UNL A   1      41.211  21.262  27.963  1.00  0.00     0.014 A 
ATOM     36  C   UNL A   1      42.250  23.257  26.302  1.00  0.00     0.010 A 
ATOM     37  C   UNL A   1      41.586  22.492  28.501  1.00  0.00     0.010 A 
ATOM     38  C   UNL A   1      42.106  23.502  27.677  1.00  0.00    -0.014 A 
BRANCH  38  39
ATOM     39  C   UNL A   1      42.496  24.803  28.280  1.00  0.00     0.031 A 
ATOM     40  C   UNL A   1      41.470  25.890  28.449  1.00  0.00     0.074 A 
ATOM     41  C   UNL A   1      43.781  25.032  28.616  1.00  0.00     0.049 A 
ATOM     42  N   UNL A   1      41.634  27.130  28.834  1.00  0.00    -0.248 NA
ATOM     43  C   UNL A   1      40.075  25.541  28.128  1.00  0.00     0.031 C 
ATOM     44  C   UNL A   1      44.876  24.066  28.500  1.00  0.00     0.029 A 
ATOM     45  N   UNL A   1      44.389  26.161  29.109  1.00  0.00    -0.354 N 
ATOM     46  C   UNL A   1      40.372  27.709  28.793  1.00  0.00     0.074 A 
ATOM     47  C   UNL A   1      39.459  26.702  28.299  1.00  0.00     0.031 C 
ATOM     48  C   UNL A   1      46.015  24.637  28.925  1.00  0.00     0.029 A 
ATOM     49  C   UNL A   1      45.745  26.024  29.292  1.00  0.00     0.049 A 
ATOM     50  H   UNL A   1      43.899  26.990  29.315  1.00  0.00     0.167 HD
ATOM     51  C   UNL A   1      40.001  28.961  29.154  1.00  0.00     0.031 A 
ATOM     52  C   UNL A   1      46.670  26.920  29.688  1.00  0.00     0.031 A 
ATOM     53  C   UNL A   1      40.908  29.963  29.646  1.00  0.00     0.049 A 
ATOM     54  C   UNL A   1      46.239  28.326  30.014  1.00  0.00     0.074 A 
ATOM     55  C   UNL A   1      40.624  31.257  30.048  1.00  0.00     0.029 A 
ATOM     56  N   UNL A   1      42.271  29.782  29.811  1.00  0.00    -0.354 N 
ATOM     57  N   UNL A   1      45.036  28.847  29.999  1.00  0.00    -0.248 NA
ATOM     58  C   UNL A   1      47.294  29.267  30.418  1.00  0.00     0.031 C 
ATOM     59  C   UNL A   1      41.823  31.875  30.411  1.00  0.00     0.029 A 
ATOM     60  C   UNL A   1      42.843  30.944  30.297  1.00  0.00     0.049 A 
ATOM     61  H   UNL A   1      42.760  28.951  29.610  1.00  0.00     0.167 HD
ATOM     62  C   UNL A   1      45.185  30.155  30.440  1.00  0.00     0.074 A 
ATOM     63  C   UNL A   1      46.593  30.351  30.717  1.00  0.00     0.031 C 
ATOM     64  C   UNL A   1      44.239  31.110  30.604  1.00  0.00     0.031 A 
BRANCH  51  65
ATOM     65  C   UNL A   1      38.547  29.321  29.036  1.00  0.00    -0.014 A 
ATOM     66  C   UNL A   1      37.698  29.268  30.152  1.00  0.00     0.009 A 
ATOM     67  C   UNL A   1      38.036  29.787  27.815  1.00  0.00     0.009 A 
ATOM     68  C   UNL A   1      36.360  29.650  30.042  1.00  0.00     0.001 A 
ATOM     69  C   UNL A   1      36.704  30.196  27.715  1.00  0.00     0.001 A 
ATOM     70  C   UNL A   1      35.867  30.122  28.826  1.00  0.00     0.000 A 
ENDBRANCH  51  65
BRANCH  52  71
ATOM     71  C   UNL A   1      48.104  26.535  29.794  1.00  0.00    -0.014 A 
ATOM     72  C   UNL A   1      48.965  26.678  28.694  1.00  0.00     0.009 A 
ATOM     73  C   UNL A   1      48.608  25.969  30.976  1.00  0.00     0.009 A 
ATOM     74  C   UNL A   1      50.284  26.221  28.761  1.00  0.00     0.001 A 
ATOM     75  C   UNL A   1      49.936  25.546  31.052  1.00  0.00     0.001 A 
ATOM     76  C   UNL A   1      50.769  25.657  29.940  1.00  0.00     0.000 A 
ENDBRANCH  52  71
BRANCH  64  77
ATOM     77  C   UNL A   1      44.667  32.428  31.186  1.00  0.00    -0.014 A 
ATOM     78  C   UNL A   1      45.046  33.505  30.371  1.00  0.00     0.009 A 
ATOM     79  C   UNL A   1      44.612  32.612  32.578  1.00  0.00     0.009 A 
ATOM     80  C   UNL A   1      45.382  34.735  30.943  1.00  0.00     0.001 A 
ATOM     81  C   UNL A   1      44.919  33.850  33.142  1.00  0.00     0.001 A 
ATOM     82  C   UNL A   1      45.310  34.909  32.325  1.00  0.00     0.000 A 
ENDBRANCH  64  77
ENDBRANCH  38  39
ENDBRANCH  30  33
ENDBRANCH  28  29
ENDBRANCH  27  28
ENDBRANCH  26  27
ENDBRANCH   1  26
TORSDOF 15
ENDMDL
MODEL 3
REMARK VINA RESULT:     -10.8      2.011      2.925
REMARK SMILES Cc1ccc(F)c(NC(=O)[C@@H]2CCCC[C@@H]2C(=O)NCCCCCCNC(=O)c2ccc(-c3c4nc(c(-c5ccccc5)c5ccc([nH]5)c(-c5ccccc5)c5nc(c(-c6ccccc6)c6ccc3[nH]6)C=C5)C=C4)cc2)c1
REMARK SMILES IDX 22 1 21 2 20 3 19 4 17 5 18 6 16 8 11 9 12 10 13 11 15 12
REMARK SMILES IDX 14 13 9 14 8 15 10 17 7 18 1 19 2 20 3 21 77 22 4 23 5 24
REMARK SMILES IDX 6 25 23 26 24 27 25 28 26 29 27 30 28 32 29 33 30 34 76 35
REMARK SMILES IDX 31 36 75 37 32 38 33 39 34 40 69 41 35 42 74 43 68 44 70 45
REMARK SMILES IDX 36 46 73 47 67 48 66 49 37 51 59 52 44 53 58 54 45 55 48 56
REMARK SMILES IDX 57 57 71 58 46 59 47 60 56 62 72 63 49 64 38 65 39 66 43 67
REMARK SMILES IDX 40 68 42 69 41 70 60 71 61 72 65 73 62 74 64 75 63 76 50 77
REMARK SMILES IDX 51 78 55 79 52 80 54 81 53 82
REMARK H PARENT 19 7 8 16 26 31 70 50 48 61
REMARK Flexibility Score: inf
ROOT
ATOM      1  C   UNL A   1      33.514  28.443  23.318  1.00  0.00     0.002 C 
ENDROOT
BRANCH   1   2
ATOM      2  C   UNL A   1      32.730  27.266  22.742  1.00  0.00     0.021 C 
BRANCH   2   3
ATOM      3  C   UNL A   1      33.404  25.892  22.797  1.00  0.00     0.116 C 
BRANCH   3   4
ATOM      4  N   UNL A   1      33.901  25.673  24.138  1.00  0.00    -0.356 N 
ATOM      5  C   UNL A   1      34.210  24.562  24.853  1.00  0.00     0.223 C 
ATOM      6  O   UNL A   1      34.366  24.775  26.062  1.00  0.00    -0.275 OA
ATOM      7  H   UNL A   1      34.047  26.508  24.639  1.00  0.00     0.163 HD
BRANCH   5   8
ATOM      8  C   UNL A   1      34.527  23.183  24.224  1.00  0.00     0.091 C 
ATOM      9  C   UNL A   1      34.573  21.843  25.012  1.00  0.00     0.091 C 
ATOM     10  C   UNL A   1      35.861  21.393  25.731  1.00  0.00     0.014 C 
ATOM     11  C   UNL A   1      37.153  21.823  25.047  1.00  0.00     0.001 C 
ATOM     12  C   UNL A   1      35.885  23.323  23.482  1.00  0.00     0.014 C 
ATOM     13  C   UNL A   1      37.072  23.214  24.443  1.00  0.00     0.001 C 
BRANCH   9  14
ATOM     14  C   UNL A   1      33.264  21.382  25.629  1.00  0.00     0.228 C 
ATOM     15  N   UNL A   1      32.561  20.262  25.345  1.00  0.00    -0.323 N 
ATOM     16  H   UNL A   1      31.661  20.291  25.744  1.00  0.00     0.170 HD
ATOM     17  O   UNL A   1      32.742  22.107  26.494  1.00  0.00    -0.274 OA
BRANCH  15  18
ATOM     18  C   UNL A   1      32.771  19.067  24.632  1.00  0.00     0.077 A 
ATOM     19  C   UNL A   1      34.792  15.894  25.288  1.00  0.00     0.044 C 
ATOM     20  C   UNL A   1      33.832  16.862  24.664  1.00  0.00    -0.049 A 
ATOM     21  C   UNL A   1      33.334  16.601  23.386  1.00  0.00     0.006 A 
ATOM     22  C   UNL A   1      33.471  18.054  25.312  1.00  0.00     0.032 A 
ATOM     23  C   UNL A   1      32.674  17.603  22.691  1.00  0.00     0.042 A 
ATOM     24  C   UNL A   1      32.486  18.842  23.288  1.00  0.00     0.146 A 
ATOM     25  F   UNL A   1      32.141  19.841  22.474  1.00  0.00    -0.205 F 
ENDBRANCH  15  18
ENDBRANCH   9  14
ENDBRANCH   5   8
ENDBRANCH   3   4
ENDBRANCH   2   3
ENDBRANCH   1   2
BRANCH   1  26
ATOM     26  C   UNL A   1      33.089  28.866  24.724  1.00  0.00     0.002 C 
BRANCH  26  27
ATOM     27  C   UNL A   1      34.075  28.530  25.849  1.00  0.00     0.021 C 
BRANCH  27  28
ATOM     28  C   UNL A   1      33.557  28.749  27.270  1.00  0.00     0.116 C 
BRANCH  28  29
ATOM     29  N   UNL A   1      33.583  30.147  27.667  1.00  0.00    -0.352 N 
ATOM     30  C   UNL A   1      34.562  30.861  28.307  1.00  0.00     0.251 C 
ATOM     31  H   UNL A   1      32.774  30.660  27.440  1.00  0.00     0.163 HD
ATOM     32  O   UNL A   1      34.325  31.995  28.727  1.00  0.00    -0.269 OA
BRANCH  30  33
ATOM     33  C   UNL A   1      35.901  30.274  28.513  1.00  0.00     0.039 A 
ATOM     34  C   UNL A   1      36.821  30.295  27.461  1.00  0.00     0.014 A 
ATOM     35  C   UNL A   1      36.243  29.682  29.733  1.00  0.00     0.014 A 
ATOM     36  C   UNL A   1      38.107  29.783  27.651  1.00  0.00     0.010 A 
ATOM     37  C   UNL A   1      37.545  29.230  29.940  1.00  0.00     0.010 A 
ATOM     38  C   UNL A   1      38.490  29.278  28.904  1.00  0.00    -0.014 A 
BRANCH  38  39
ATOM     39  C   UNL A   1      39.870  28.789  29.156  1.00  0.00     0.031 A 
ATOM     40  C   UNL A   1      40.901  29.716  29.742  1.00  0.00     0.074 A 
ATOM     41  C   UNL A   1      40.217  27.535  28.802  1.00  0.00     0.049 A 
ATOM     42  N   UNL A   1      42.183  29.522  29.918  1.00  0.00    -0.248 NA
ATOM     43  C   UNL A   1      40.430  31.045  30.170  1.00  0.00     0.031 C 
ATOM     44  C   UNL A   1      39.316  26.536  28.222  1.00  0.00     0.029 A 
ATOM     45  N   UNL A   1      41.429  26.891  28.862  1.00  0.00    -0.354 N 
ATOM     46  C   UNL A   1      42.671  30.700  30.469  1.00  0.00     0.074 A 
ATOM     47  C   UNL A   1      41.560  31.623  30.550  1.00  0.00     0.031 C 
ATOM     48  C   UNL A   1      40.002  25.403  27.996  1.00  0.00     0.029 A 
ATOM     49  C   UNL A   1      41.400  25.610  28.363  1.00  0.00     0.049 A 
ATOM     50  H   UNL A   1      42.242  27.307  29.231  1.00  0.00     0.167 HD
ATOM     51  C   UNL A   1      43.928  30.984  30.887  1.00  0.00     0.031 A 
ATOM     52  C   UNL A   1      42.391  24.713  28.196  1.00  0.00     0.031 A 
ATOM     53  C   UNL A   1      45.033  30.067  30.808  1.00  0.00     0.049 A 
ATOM     54  C   UNL A   1      43.793  25.083  28.605  1.00  0.00     0.074 A 
ATOM     55  C   UNL A   1      46.342  30.260  31.218  1.00  0.00     0.029 A 
ATOM     56  N   UNL A   1      44.959  28.784  30.291  1.00  0.00    -0.354 N 
ATOM     57  N   UNL A   1      44.231  26.191  29.152  1.00  0.00    -0.248 NA
ATOM     58  C   UNL A   1      44.838  24.073  28.380  1.00  0.00     0.031 C 
ATOM     59  C   UNL A   1      47.071  29.110  30.905  1.00  0.00     0.029 A 
ATOM     60  C   UNL A   1      46.202  28.179  30.361  1.00  0.00     0.049 A 
ATOM     61  H   UNL A   1      44.145  28.367  29.928  1.00  0.00     0.167 HD
ATOM     62  C   UNL A   1      45.586  25.990  29.381  1.00  0.00     0.074 A 
ATOM     63  C   UNL A   1      45.900  24.655  28.918  1.00  0.00     0.031 C 
ATOM     64  C   UNL A   1      46.489  26.836  29.931  1.00  0.00     0.031 A 
BRANCH  51  65
ATOM     65  C   UNL A   1      44.178  32.343  31.479  1.00  0.00    -0.014 A 
ATOM     66  C   UNL A   1      43.976  32.583  32.846  1.00  0.00     0.009 A 
ATOM     67  C   UNL A   1      44.690  33.374  30.675  1.00  0.00     0.009 A 
ATOM     68  C   UNL A   1      44.257  33.836  33.394  1.00  0.00     0.001 A 
ATOM     69  C   UNL A   1      44.999  34.617  31.231  1.00  0.00     0.001 A 
ATOM     70  C   UNL A   1      44.776  34.849  32.588  1.00  0.00     0.000 A 
ENDBRANCH  51  65
BRANCH  52  71
ATOM     71  C   UNL A   1      42.113  23.375  27.607  1.00  0.00    -0.014 A 
ATOM     72  C   UNL A   1      42.353  23.131  26.245  1.00  0.00     0.009 A 
ATOM     73  C   UNL A   1      41.554  22.351  28.388  1.00  0.00     0.009 A 
ATOM     74  C   UNL A   1      41.995  21.908  25.670  1.00  0.00     0.001 A 
ATOM     75  C   UNL A   1      41.232  21.118  27.818  1.00  0.00     0.001 A 
ATOM     76  C   UNL A   1      41.437  20.903  26.456  1.00  0.00     0.000 A 
ENDBRANCH  52  71
BRANCH  64  77
ATOM     77  C   UNL A   1      47.886  26.326  30.145  1.00  0.00    -0.014 A 
ATOM     78  C   UNL A   1      48.296  25.793  31.376  1.00  0.00     0.009 A 
ATOM     79  C   UNL A   1      48.783  26.311  29.063  1.00  0.00     0.009 A 
ATOM     80  C   UNL A   1      49.584  25.273  31.523  1.00  0.00     0.001 A 
ATOM     81  C   UNL A   1      50.058  25.764  29.206  1.00  0.00     0.001 A 
ATOM     82  C   UNL A   1      50.460  25.251  30.438  1.00  0.00     0.000 A 
ENDBRANCH  64  77
ENDBRANCH  38  39
ENDBRANCH  30  33
ENDBRANCH  28  29
ENDBRANCH  27  28
ENDBRANCH  26  27
ENDBRANCH   1  26
TORSDOF 15
ENDMDL
