MODEL 1
REMARK VINA RESULT:     -12.2      0.000      0.000
REMARK SMILES O=C(CNC(=O)[C@@H](CC1=c2ccccc2=NC1)N1C(=O)N=C2C=CC=C[C@H]2C1=O)NCCCCCCNC(=O)c1ccc(-c2c3nc(c(-c4ccccc4)c4ccc([nH]4)c(-c4ccccc4)c4nc(c(-c5ccccc5)c5ccc2[nH]5)C=C4)C=C3)cc1
REMARK SMILES IDX 32 1 31 2 30 3 1 4 2 5 3 7 4 8 5 9 6 11 7 12 8 13 9 14 10 15
REMARK SMILES IDX 17 16 11 17 15 18 16 19 12 20 14 21 13 22 18 23 19 24 28 25
REMARK SMILES IDX 21 26 20 27 27 28 29 29 22 30 26 31 23 32 25 33 24 34 33 35
REMARK SMILES IDX 34 36 35 37 36 38 37 39 38 40 39 42 40 43 41 44 87 45 42 46
REMARK SMILES IDX 86 47 43 48 44 49 45 50 80 51 46 52 85 53 79 54 81 55 47 56
REMARK SMILES IDX 84 57 78 58 77 59 48 61 70 62 55 63 69 64 56 65 59 66 68 67
REMARK SMILES IDX 82 68 57 69 58 70 67 72 83 73 60 74 49 75 50 76 54 77 51 78
REMARK SMILES IDX 53 79 52 80 71 81 72 82 76 83 73 84 75 85 74 86 61 87 62 88
REMARK SMILES IDX 66 89 63 90 65 91 64 92
REMARK H PARENT 30 6 4 10 37 41 81 60 59 71
REMARK Flexibility Score: inf
ROOT
ATOM      1  C   UNL A   1      40.962  21.888  27.949  1.00  0.00     0.021 C 
ENDROOT
BRANCH   1   2
ATOM      2  C   UNL A   1      40.302  21.548  26.598  1.00  0.00     0.116 C 
BRANCH   2   3
ATOM      3  N   UNL A   1      38.846  22.290  26.491  1.00  0.00    -0.355 N 
ATOM      4  O   UNL A   1      36.754  21.848  24.438  1.00  0.00    -0.273 OA
ATOM      5  C   UNL A   1      37.175  22.447  25.485  1.00  0.00     0.239 C 
ATOM      6  H   UNL A   1      38.787  22.918  27.246  1.00  0.00     0.163 HD
BRANCH   5   7
ATOM      7  C   UNL A   1      35.885  23.681  25.694  1.00  0.00     0.216 C 
BRANCH   7   8
ATOM      8  N   UNL A   1      35.115  24.352  24.654  1.00  0.00    -0.345 N 
ATOM      9  C   UNL A   1      33.877  24.179  24.147  1.00  0.00     0.244 C 
ATOM     10  H   UNL A   1      35.605  25.092  24.229  1.00  0.00     0.164 HD
ATOM     11  O   UNL A   1      33.676  24.815  23.100  1.00  0.00    -0.273 OA
BRANCH   9  12
ATOM     12  C   UNL A   1      32.693  23.434  24.801  1.00  0.00     0.188 C 
BRANCH  12  13
ATOM     13  C   UNL A   1      31.258  23.972  24.980  1.00  0.00     0.069 C 
BRANCH  13  14
ATOM     14  C   UNL A   1      30.935  25.386  24.650  1.00  0.00    -0.037 C 
ATOM     15  C   UNL A   1      31.226  26.473  25.350  1.00  0.00     0.001 A 
ATOM     16  C   UNL A   1      30.291  25.723  23.287  1.00  0.00     0.174 C 
ATOM     17  C   UNL A   1      31.999  27.148  26.955  1.00  0.00     0.010 A 
ATOM     18  C   UNL A   1      30.761  27.787  23.998  1.00  0.00     0.065 A 
ATOM     19  N   UNL A   1      30.268  27.205  22.956  1.00  0.00    -0.280 NA
ATOM     20  C   UNL A   1      32.230  28.718  27.175  1.00  0.00     0.001 A 
ATOM     21  C   UNL A   1      31.104  29.661  24.456  1.00  0.00     0.028 A 
ATOM     22  C   UNL A   1      31.753  30.035  25.904  1.00  0.00     0.002 A 
ENDBRANCH  13  14
ENDBRANCH  12  13
BRANCH  12  23
ATOM     23  N   UNL A   1      32.882  22.037  24.346  1.00  0.00    -0.249 N 
ATOM     24  C   UNL A   1      32.498  21.791  23.032  1.00  0.00     0.351 C 
ATOM     25  C   UNL A   1      33.378  21.048  25.174  1.00  0.00     0.244 C 
ATOM     26  N   UNL A   1      32.156  20.533  22.657  1.00  0.00    -0.197 NA
ATOM     27  O   UNL A   1      32.525  22.681  22.185  1.00  0.00    -0.246 OA
ATOM     28  C   UNL A   1      33.129  19.605  24.737  1.00  0.00     0.151 C 
ATOM     29  O   UNL A   1      33.959  21.300  26.232  1.00  0.00    -0.273 OA
ATOM     30  C   UNL A   1      32.484  19.519  23.378  1.00  0.00     0.062 C 
ATOM     31  C   UNL A   1      34.329  18.680  24.730  1.00  0.00    -0.007 C 
ATOM     32  C   UNL A   1      32.317  18.188  22.754  1.00  0.00     0.025 C 
ATOM     33  C   UNL A   1      34.400  17.629  23.891  1.00  0.00    -0.003 C 
ATOM     34  C   UNL A   1      33.320  17.330  22.974  1.00  0.00     0.002 C 
ENDBRANCH  12  23
ENDBRANCH   9  12
ENDBRANCH   7   8
ENDBRANCH   5   7
ENDBRANCH   2   3
ENDBRANCH   1   2
BRANCH   1  35
ATOM     35  C   UNL A   1      42.497  21.957  27.964  1.00  0.00     0.002 C 
BRANCH  35  36
ATOM     36  C   UNL A   1      43.169  22.249  26.619  1.00  0.00     0.002 C 
BRANCH  36  37
ATOM     37  C   UNL A   1      44.168  23.402  26.634  1.00  0.00     0.021 C 
BRANCH  37  38
ATOM     38  C   UNL A   1      43.663  24.690  26.002  1.00  0.00     0.116 C 
BRANCH  38  39
ATOM     39  N   UNL A   1      42.294  24.595  25.518  1.00  0.00    -0.352 N 
ATOM     40  C   UNL A   1      41.148  25.104  26.089  1.00  0.00     0.251 C 
ATOM     41  H   UNL A   1      42.171  24.104  24.674  1.00  0.00     0.163 HD
ATOM     42  O   UNL A   1      40.043  24.840  25.627  1.00  0.00    -0.269 OA
BRANCH  40  43
ATOM     43  C   UNL A   1      41.267  25.934  27.307  1.00  0.00     0.039 A 
ATOM     44  C   UNL A   1      40.644  25.538  28.492  1.00  0.00     0.014 A 
ATOM     45  C   UNL A   1      41.927  27.162  27.231  1.00  0.00     0.014 A 
ATOM     46  C   UNL A   1      40.509  26.450  29.531  1.00  0.00     0.010 A 
ATOM     47  C   UNL A   1      41.874  28.039  28.318  1.00  0.00     0.010 A 
ATOM     48  C   UNL A   1      41.112  27.717  29.453  1.00  0.00    -0.014 A 
BRANCH  48  49
ATOM     49  C   UNL A   1      40.920  28.693  30.557  1.00  0.00     0.031 A 
ATOM     50  C   UNL A   1      39.819  29.721  30.495  1.00  0.00     0.074 A 
ATOM     51  C   UNL A   1      41.710  28.620  31.646  1.00  0.00     0.049 A 
ATOM     52  N   UNL A   1      39.512  30.648  31.369  1.00  0.00    -0.248 NA
ATOM     53  C   UNL A   1      38.952  29.712  29.306  1.00  0.00     0.031 C 
ATOM     54  C   UNL A   1      42.787  27.647  31.839  1.00  0.00     0.029 A 
ATOM     55  N   UNL A   1      41.717  29.357  32.803  1.00  0.00    -0.354 N 
ATOM     56  C   UNL A   1      38.437  31.341  30.826  1.00  0.00     0.074 A 
ATOM     57  C   UNL A   1      38.160  30.751  29.536  1.00  0.00     0.031 C 
ATOM     58  C   UNL A   1      43.312  27.812  33.061  1.00  0.00     0.029 A 
ATOM     59  C   UNL A   1      42.667  28.950  33.707  1.00  0.00     0.049 A 
ATOM     60  H   UNL A   1      41.100  30.107  32.970  1.00  0.00     0.167 HD
ATOM     61  C   UNL A   1      37.738  32.370  31.362  1.00  0.00     0.031 A 
ATOM     62  C   UNL A   1      43.004  29.444  34.914  1.00  0.00     0.031 A 
ATOM     63  C   UNL A   1      38.007  32.945  32.654  1.00  0.00     0.049 A 
ATOM     64  C   UNL A   1      42.256  30.628  35.456  1.00  0.00     0.074 A 
ATOM     65  C   UNL A   1      37.334  33.975  33.290  1.00  0.00     0.029 A 
ATOM     66  N   UNL A   1      39.025  32.546  33.506  1.00  0.00    -0.354 N 
ATOM     67  N   UNL A   1      41.236  31.264  34.934  1.00  0.00    -0.248 NA
ATOM     68  C   UNL A   1      42.704  31.164  36.750  1.00  0.00     0.031 C 
ATOM     69  C   UNL A   1      37.988  34.246  34.492  1.00  0.00     0.029 A 
ATOM     70  C   UNL A   1      39.017  33.331  34.646  1.00  0.00     0.049 A 
ATOM     71  H   UNL A   1      39.657  31.812  33.328  1.00  0.00     0.167 HD
ATOM     72  C   UNL A   1      40.906  32.263  35.841  1.00  0.00     0.074 A 
ATOM     73  C   UNL A   1      41.824  32.137  36.954  1.00  0.00     0.031 C 
ATOM     74  C   UNL A   1      39.931  33.198  35.753  1.00  0.00     0.031 A 
BRANCH  61  75
ATOM     75  C   UNL A   1      36.612  32.966  30.559  1.00  0.00    -0.014 A 
ATOM     76  C   UNL A   1      35.303  32.485  30.735  1.00  0.00     0.009 A 
ATOM     77  C   UNL A   1      36.855  33.912  29.551  1.00  0.00     0.009 A 
ATOM     78  C   UNL A   1      34.267  32.921  29.906  1.00  0.00     0.001 A 
ATOM     79  C   UNL A   1      35.810  34.370  28.744  1.00  0.00     0.001 A 
ATOM     80  C   UNL A   1      34.521  33.866  28.914  1.00  0.00     0.000 A 
ENDBRANCH  61  75
BRANCH  62  81
ATOM     81  C   UNL A   1      44.107  28.803  35.678  1.00  0.00    -0.014 A 
ATOM     82  C   UNL A   1      43.829  27.821  36.645  1.00  0.00     0.009 A 
ATOM     83  C   UNL A   1      45.436  29.214  35.496  1.00  0.00     0.009 A 
ATOM     84  C   UNL A   1      44.850  27.293  37.438  1.00  0.00     0.001 A 
ATOM     85  C   UNL A   1      46.460  28.659  36.267  1.00  0.00     0.001 A 
ATOM     86  C   UNL A   1      46.165  27.709  37.245  1.00  0.00     0.000 A 
ENDBRANCH  62  81
BRANCH  74  87
ATOM     87  C   UNL A   1      39.773  34.168  36.891  1.00  0.00    -0.014 A 
ATOM     88  C   UNL A   1      38.966  33.823  37.989  1.00  0.00     0.009 A 
ATOM     89  C   UNL A   1      40.308  35.462  36.822  1.00  0.00     0.009 A 
ATOM     90  C   UNL A   1      38.677  34.762  38.980  1.00  0.00     0.001 A 
ATOM     91  C   UNL A   1      40.044  36.390  37.831  1.00  0.00     0.001 A 
ATOM     92  C   UNL A   1      39.218  36.044  38.901  1.00  0.00     0.000 A 
ENDBRANCH  74  87
ENDBRANCH  48  49
ENDBRANCH  40  43
ENDBRANCH  38  39
ENDBRANCH  37  38
ENDBRANCH  36  37
ENDBRANCH  35  36
ENDBRANCH   1  35
TORSDOF 18
ENDMDL
MODEL 2
REMARK VINA RESULT:     -11.9      1.544      2.326
REMARK SMILES O=C(CNC(=O)[C@@H](CC1=c2ccccc2=NC1)N1C(=O)N=C2C=CC=C[C@H]2C1=O)NCCCCCCNC(=O)c1ccc(-c2c3nc(c(-c4ccccc4)c4ccc([nH]4)c(-c4ccccc4)c4nc(c(-c5ccccc5)c5ccc2[nH]5)C=C4)C=C3)cc1
REMARK SMILES IDX 32 1 31 2 30 3 1 4 2 5 3 7 4 8 5 9 6 11 7 12 8 13 9 14 10 15
REMARK SMILES IDX 17 16 11 17 15 18 16 19 12 20 14 21 13 22 18 23 19 24 28 25
REMARK SMILES IDX 21 26 20 27 27 28 29 29 22 30 26 31 23 32 25 33 24 34 33 35
REMARK SMILES IDX 34 36 35 37 36 38 37 39 38 40 39 42 40 43 41 44 87 45 42 46
REMARK SMILES IDX 86 47 43 48 44 49 45 50 80 51 46 52 85 53 79 54 81 55 47 56
REMARK SMILES IDX 84 57 78 58 77 59 48 61 70 62 55 63 69 64 56 65 59 66 68 67
REMARK SMILES IDX 82 68 57 69 58 70 67 72 83 73 60 74 49 75 50 76 54 77 51 78
REMARK SMILES IDX 53 79 52 80 71 81 72 82 76 83 73 84 75 85 74 86 61 87 62 88
REMARK SMILES IDX 66 89 63 90 65 91 64 92
REMARK H PARENT 30 6 4 10 37 41 81 60 59 71
REMARK Flexibility Score: inf
ROOT
ATOM      1  C   UNL A   1      41.423  22.230  26.749  1.00  0.00     0.021 C 
ENDROOT
BRANCH   1   2
ATOM      2  C   UNL A   1      40.232  21.293  26.467  1.00  0.00     0.116 C 
BRANCH   2   3
ATOM      3  N   UNL A   1      38.842  22.157  26.441  1.00  0.00    -0.355 N 
ATOM      4  O   UNL A   1      36.768  22.155  24.323  1.00  0.00    -0.273 OA
ATOM      5  C   UNL A   1      37.211  22.577  25.444  1.00  0.00     0.239 C 
ATOM      6  H   UNL A   1      38.816  22.684  27.271  1.00  0.00     0.163 HD
BRANCH   5   7
ATOM      7  C   UNL A   1      36.018  23.873  25.798  1.00  0.00     0.216 C 
BRANCH   7   8
ATOM      8  N   UNL A   1      35.105  24.524  24.867  1.00  0.00    -0.345 N 
ATOM      9  C   UNL A   1      33.799  24.365  24.569  1.00  0.00     0.244 C 
ATOM     10  H   UNL A   1      35.536  25.235  24.339  1.00  0.00     0.164 HD
ATOM     11  O   UNL A   1      33.447  24.967  23.541  1.00  0.00    -0.273 OA
BRANCH   9  12
ATOM     12  C   UNL A   1      32.720  23.676  25.432  1.00  0.00     0.188 C 
BRANCH  12  13
ATOM     13  C   UNL A   1      31.304  24.214  25.730  1.00  0.00     0.069 C 
BRANCH  13  14
ATOM     14  C   UNL A   1      30.860  25.520  25.176  1.00  0.00    -0.037 C 
ATOM     15  C   UNL A   1      31.077  26.731  25.669  1.00  0.00     0.001 A 
ATOM     16  C   UNL A   1      30.161  25.567  23.800  1.00  0.00     0.174 C 
ATOM     17  C   UNL A   1      31.828  27.730  27.107  1.00  0.00     0.010 A 
ATOM     18  C   UNL A   1      30.477  27.752  24.131  1.00  0.00     0.065 A 
ATOM     19  N   UNL A   1      30.010  26.963  23.222  1.00  0.00    -0.280 NA
ATOM     20  C   UNL A   1      31.936  29.328  27.048  1.00  0.00     0.001 A 
ATOM     21  C   UNL A   1      30.676  29.698  24.250  1.00  0.00     0.028 A 
ATOM     22  C   UNL A   1      31.325  30.365  25.590  1.00  0.00     0.002 A 
ENDBRANCH  13  14
ENDBRANCH  12  13
BRANCH  12  23
ATOM     23  N   UNL A   1      32.885  22.244  25.096  1.00  0.00    -0.249 N 
ATOM     24  C   UNL A   1      33.471  21.471  26.093  1.00  0.00     0.351 C 
ATOM     25  C   UNL A   1      32.509  21.721  23.873  1.00  0.00     0.244 C 
ATOM     26  N   UNL A   1      34.112  20.322  25.762  1.00  0.00    -0.197 NA
ATOM     27  O   UNL A   1      33.362  21.775  27.278  1.00  0.00    -0.246 OA
ATOM     28  C   UNL A   1      33.106  20.365  23.498  1.00  0.00     0.151 C 
ATOM     29  O   UNL A   1      31.762  22.322  23.097  1.00  0.00    -0.273 OA
ATOM     30  C   UNL A   1      33.917  19.765  24.618  1.00  0.00     0.062 C 
ATOM     31  C   UNL A   1      32.136  19.304  23.020  1.00  0.00    -0.007 C 
ATOM     32  C   UNL A   1      34.434  18.388  24.461  1.00  0.00     0.025 C 
ATOM     33  C   UNL A   1      32.391  17.992  23.192  1.00  0.00    -0.003 C 
ATOM     34  C   UNL A   1      33.614  17.544  23.824  1.00  0.00     0.002 C 
ENDBRANCH  12  23
ENDBRANCH   9  12
ENDBRANCH   7   8
ENDBRANCH   5   7
ENDBRANCH   2   3
ENDBRANCH   1   2
BRANCH   1  35
ATOM     35  C   UNL A   1      41.949  22.255  28.193  1.00  0.00     0.002 C 
BRANCH  35  36
ATOM     36  C   UNL A   1      43.282  22.978  28.409  1.00  0.00     0.002 C 
BRANCH  36  37
ATOM     37  C   UNL A   1      44.336  22.720  27.336  1.00  0.00     0.021 C 
BRANCH  37  38
ATOM     38  C   UNL A   1      45.566  23.611  27.424  1.00  0.00     0.116 C 
BRANCH  38  39
ATOM     39  N   UNL A   1      45.927  24.220  26.152  1.00  0.00    -0.352 N 
ATOM     40  C   UNL A   1      45.561  25.455  25.662  1.00  0.00     0.251 C 
ATOM     41  H   UNL A   1      46.505  23.680  25.567  1.00  0.00     0.163 HD
ATOM     42  O   UNL A   1      45.844  25.786  24.516  1.00  0.00    -0.269 OA
BRANCH  40  43
ATOM     43  C   UNL A   1      44.771  26.358  26.525  1.00  0.00     0.039 A 
ATOM     44  C   UNL A   1      45.384  27.442  27.158  1.00  0.00     0.014 A 
ATOM     45  C   UNL A   1      43.430  26.059  26.776  1.00  0.00     0.014 A 
ATOM     46  C   UNL A   1      44.719  28.099  28.186  1.00  0.00     0.010 A 
ATOM     47  C   UNL A   1      42.732  26.789  27.743  1.00  0.00     0.010 A 
ATOM     48  C   UNL A   1      43.388  27.773  28.499  1.00  0.00    -0.014 A 
BRANCH  48  49
ATOM     49  C   UNL A   1      42.710  28.459  29.629  1.00  0.00     0.031 A 
ATOM     50  C   UNL A   1      41.333  29.049  29.460  1.00  0.00     0.074 A 
ATOM     51  C   UNL A   1      43.316  28.506  30.832  1.00  0.00     0.049 A 
ATOM     52  N   UNL A   1      40.598  29.682  30.340  1.00  0.00    -0.248 NA
ATOM     53  C   UNL A   1      40.697  28.914  28.139  1.00  0.00     0.031 C 
ATOM     54  C   UNL A   1      44.634  27.941  31.130  1.00  0.00     0.029 A 
ATOM     55  N   UNL A   1      42.900  29.030  32.029  1.00  0.00    -0.354 N 
ATOM     56  C   UNL A   1      39.430  30.038  29.675  1.00  0.00     0.074 A 
ATOM     57  C   UNL A   1      39.562  29.577  28.311  1.00  0.00     0.031 C 
ATOM     58  C   UNL A   1      44.893  28.100  32.435  1.00  0.00     0.029 A 
ATOM     59  C   UNL A   1      43.800  28.848  33.050  1.00  0.00     0.049 A 
ATOM     60  H   UNL A   1      42.039  29.493  32.146  1.00  0.00     0.167 HD
ATOM     61  C   UNL A   1      38.342  30.681  30.163  1.00  0.00     0.031 A 
ATOM     62  C   UNL A   1      43.770  29.251  34.335  1.00  0.00     0.031 A 
ATOM     63  C   UNL A   1      38.208  31.124  31.526  1.00  0.00     0.049 A 
ATOM     64  C   UNL A   1      42.581  30.020  34.833  1.00  0.00     0.074 A 
ATOM     65  C   UNL A   1      37.131  31.762  32.117  1.00  0.00     0.029 A 
ATOM     66  N   UNL A   1      39.175  30.978  32.508  1.00  0.00    -0.354 N 
ATOM     67  N   UNL A   1      41.481  30.338  34.194  1.00  0.00    -0.248 NA
ATOM     68  C   UNL A   1      42.625  30.488  36.226  1.00  0.00     0.031 C 
ATOM     69  C   UNL A   1      37.473  32.066  33.435  1.00  0.00     0.029 A 
ATOM     70  C   UNL A   1      38.730  31.545  33.691  1.00  0.00     0.049 A 
ATOM     71  H   UNL A   1      40.047  30.537  32.384  1.00  0.00     0.167 HD
ATOM     72  C   UNL A   1      40.695  31.026  35.108  1.00  0.00     0.074 A 
ATOM     73  C   UNL A   1      41.435  31.063  36.352  1.00  0.00     0.031 C 
ATOM     74  C   UNL A   1      39.471  31.576  34.927  1.00  0.00     0.031 A 
BRANCH  61  75
ATOM     75  C   UNL A   1      37.198  30.965  29.226  1.00  0.00    -0.014 A 
ATOM     76  C   UNL A   1      36.990  32.275  28.761  1.00  0.00     0.009 A 
ATOM     77  C   UNL A   1      36.260  29.974  28.898  1.00  0.00     0.009 A 
ATOM     78  C   UNL A   1      35.859  32.591  28.006  1.00  0.00     0.001 A 
ATOM     79  C   UNL A   1      35.145  30.287  28.116  1.00  0.00     0.001 A 
ATOM     80  C   UNL A   1      34.939  31.595  27.681  1.00  0.00     0.000 A 
ENDBRANCH  61  75
BRANCH  62  81
ATOM     81  C   UNL A   1      44.914  28.922  35.226  1.00  0.00    -0.014 A 
ATOM     82  C   UNL A   1      44.899  27.753  36.006  1.00  0.00     0.009 A 
ATOM     83  C   UNL A   1      45.997  29.806  35.355  1.00  0.00     0.009 A 
ATOM     84  C   UNL A   1      45.921  27.494  36.922  1.00  0.00     0.001 A 
ATOM     85  C   UNL A   1      47.035  29.526  36.246  1.00  0.00     0.001 A 
ATOM     86  C   UNL A   1      46.990  28.379  37.038  1.00  0.00     0.000 A 
ENDBRANCH  62  81
BRANCH  74  87
ATOM     87  C   UNL A   1      38.821  32.262  36.097  1.00  0.00    -0.014 A 
ATOM     88  C   UNL A   1      39.102  33.615  36.351  1.00  0.00     0.009 A 
ATOM     89  C   UNL A   1      38.042  31.545  37.017  1.00  0.00     0.009 A 
ATOM     90  C   UNL A   1      38.638  34.230  37.515  1.00  0.00     0.001 A 
ATOM     91  C   UNL A   1      37.552  32.171  38.165  1.00  0.00     0.001 A 
ATOM     92  C   UNL A   1      37.862  33.507  38.420  1.00  0.00     0.000 A 
ENDBRANCH  74  87
ENDBRANCH  48  49
ENDBRANCH  40  43
ENDBRANCH  38  39
ENDBRANCH  37  38
ENDBRANCH  36  37
ENDBRANCH  35  36
ENDBRANCH   1  35
TORSDOF 18
ENDMDL
MODEL 3
REMARK VINA RESULT:     -11.8      2.582      6.276
REMARK SMILES O=C(CNC(=O)[C@@H](CC1=c2ccccc2=NC1)N1C(=O)N=C2C=CC=C[C@H]2C1=O)NCCCCCCNC(=O)c1ccc(-c2c3nc(c(-c4ccccc4)c4ccc([nH]4)c(-c4ccccc4)c4nc(c(-c5ccccc5)c5ccc2[nH]5)C=C4)C=C3)cc1
REMARK SMILES IDX 32 1 31 2 30 3 1 4 2 5 3 7 4 8 5 9 6 11 7 12 8 13 9 14 10 15
REMARK SMILES IDX 17 16 11 17 15 18 16 19 12 20 14 21 13 22 18 23 19 24 28 25
REMARK SMILES IDX 21 26 20 27 27 28 29 29 22 30 26 31 23 32 25 33 24 34 33 35
REMARK SMILES IDX 34 36 35 37 36 38 37 39 38 40 39 42 40 43 41 44 87 45 42 46
REMARK SMILES IDX 86 47 43 48 44 49 45 50 80 51 46 52 85 53 79 54 81 55 47 56
REMARK SMILES IDX 84 57 78 58 77 59 48 61 70 62 55 63 69 64 56 65 59 66 68 67
REMARK SMILES IDX 82 68 57 69 58 70 67 72 83 73 60 74 49 75 50 76 54 77 51 78
REMARK SMILES IDX 53 79 52 80 71 81 72 82 76 83 73 84 75 85 74 86 61 87 62 88
REMARK SMILES IDX 66 89 63 90 65 91 64 92
REMARK H PARENT 30 6 4 10 37 41 81 60 59 71
REMARK Flexibility Score: inf
ROOT
ATOM      1  C   UNL A   1      38.777  28.502  29.162  1.00  0.00     0.021 C 
ENDROOT
BRANCH   1   2
ATOM      2  C   UNL A   1      39.729  27.320  28.891  1.00  0.00     0.116 C 
BRANCH   2   3
ATOM      3  N   UNL A   1      38.929  26.137  28.092  1.00  0.00    -0.355 N 
ATOM      4  O   UNL A   1      40.110  23.929  26.505  1.00  0.00    -0.273 OA
ATOM      5  C   UNL A   1      39.090  24.544  26.967  1.00  0.00     0.239 C 
ATOM      6  H   UNL A   1      37.968  26.290  28.239  1.00  0.00     0.163 HD
BRANCH   5   7
ATOM      7  C   UNL A   1      37.771  23.672  26.112  1.00  0.00     0.216 C 
BRANCH   7   8
ATOM      8  N   UNL A   1      37.542  23.588  24.675  1.00  0.00    -0.345 N 
ATOM      9  C   UNL A   1      36.461  23.324  23.912  1.00  0.00     0.244 C 
ATOM     10  H   UNL A   1      38.354  23.759  24.145  1.00  0.00     0.164 HD
ATOM     11  O   UNL A   1      36.734  23.116  22.719  1.00  0.00    -0.273 OA
BRANCH   9  12
ATOM     12  C   UNL A   1      34.977  23.415  24.330  1.00  0.00     0.188 C 
BRANCH  12  13
ATOM     13  C   UNL A   1      34.020  24.594  24.057  1.00  0.00     0.069 C 
BRANCH  13  14
ATOM     14  C   UNL A   1      33.289  25.248  25.175  1.00  0.00    -0.037 C 
ATOM     15  C   UNL A   1      33.281  26.532  25.502  1.00  0.00     0.001 A 
ATOM     16  C   UNL A   1      32.304  24.421  26.029  1.00  0.00     0.174 C 
ATOM     17  C   UNL A   1      33.984  28.259  25.108  1.00  0.00     0.010 A 
ATOM     18  C   UNL A   1      31.821  26.468  26.780  1.00  0.00     0.065 A 
ATOM     19  N   UNL A   1      31.421  25.251  26.945  1.00  0.00    -0.280 NA
ATOM     20  C   UNL A   1      33.408  29.577  25.814  1.00  0.00     0.001 A 
ATOM     21  C   UNL A   1      31.264  28.182  27.549  1.00  0.00     0.028 A 
ATOM     22  C   UNL A   1      32.018  29.555  27.095  1.00  0.00     0.002 A 
ENDBRANCH  13  14
ENDBRANCH  12  13
BRANCH  12  23
ATOM     23  N   UNL A   1      34.486  22.033  24.128  1.00  0.00    -0.249 N 
ATOM     24  C   UNL A   1      33.446  21.907  23.213  1.00  0.00     0.351 C 
ATOM     25  C   UNL A   1      35.004  20.954  24.819  1.00  0.00     0.244 C 
ATOM     26  N   UNL A   1      32.604  20.847  23.295  1.00  0.00    -0.197 NA
ATOM     27  O   UNL A   1      33.314  22.705  22.288  1.00  0.00    -0.246 OA
ATOM     28  C   UNL A   1      34.152  19.686  24.842  1.00  0.00     0.151 C 
ATOM     29  O   UNL A   1      36.079  21.008  25.421  1.00  0.00    -0.273 OA
ATOM     30  C   UNL A   1      32.925  19.802  23.974  1.00  0.00     0.062 C 
ATOM     31  C   UNL A   1      34.848  18.391  24.475  1.00  0.00    -0.007 C 
ATOM     32  C   UNL A   1      32.080  18.604  23.776  1.00  0.00     0.025 C 
ATOM     33  C   UNL A   1      34.172  17.363  23.925  1.00  0.00    -0.003 C 
ATOM     34  C   UNL A   1      32.748  17.449  23.682  1.00  0.00     0.002 C 
ENDBRANCH  12  23
ENDBRANCH   9  12
ENDBRANCH   7   8
ENDBRANCH   5   7
ENDBRANCH   2   3
ENDBRANCH   1   2
BRANCH   1  35
ATOM     35  C   UNL A   1      38.546  29.478  27.997  1.00  0.00     0.002 C 
BRANCH  35  36
ATOM     36  C   UNL A   1      37.845  30.792  28.352  1.00  0.00     0.002 C 
BRANCH  36  37
ATOM     37  C   UNL A   1      36.424  30.931  27.812  1.00  0.00     0.021 C 
BRANCH  37  38
ATOM     38  C   UNL A   1      35.328  30.562  28.800  1.00  0.00     0.116 C 
BRANCH  38  39
ATOM     39  N   UNL A   1      34.638  31.719  29.351  1.00  0.00    -0.352 N 
ATOM     40  C   UNL A   1      34.947  32.438  30.484  1.00  0.00     0.251 C 
ATOM     41  H   UNL A   1      33.848  32.025  28.850  1.00  0.00     0.163 HD
ATOM     42  O   UNL A   1      34.200  33.320  30.894  1.00  0.00    -0.269 OA
BRANCH  40  43
ATOM     43  C   UNL A   1      36.174  32.094  31.234  1.00  0.00     0.039 A 
ATOM     44  C   UNL A   1      36.159  31.057  32.170  1.00  0.00     0.014 A 
ATOM     45  C   UNL A   1      37.317  32.878  31.066  1.00  0.00     0.014 A 
ATOM     46  C   UNL A   1      37.209  30.935  33.072  1.00  0.00     0.010 A 
ATOM     47  C   UNL A   1      38.413  32.685  31.911  1.00  0.00     0.010 A 
ATOM     48  C   UNL A   1      38.345  31.755  32.961  1.00  0.00    -0.014 A 
BRANCH  48  49
ATOM     49  C   UNL A   1      39.438  31.637  33.960  1.00  0.00     0.031 A 
ATOM     50  C   UNL A   1      39.474  32.529  35.174  1.00  0.00     0.074 A 
ATOM     51  C   UNL A   1      40.377  30.684  33.800  1.00  0.00     0.049 A 
ATOM     52  N   UNL A   1      40.355  32.562  36.144  1.00  0.00    -0.248 NA
ATOM     53  C   UNL A   1      38.387  33.511  35.324  1.00  0.00     0.031 C 
ATOM     54  C   UNL A   1      40.430  29.736  32.686  1.00  0.00     0.029 A 
ATOM     55  N   UNL A   1      41.450  30.338  34.582  1.00  0.00    -0.354 N 
ATOM     56  C   UNL A   1      39.942  33.575  37.000  1.00  0.00     0.074 A 
ATOM     57  C   UNL A   1      38.749  34.155  36.426  1.00  0.00     0.031 C 
ATOM     58  C   UNL A   1      41.446  28.884  32.883  1.00  0.00     0.029 A 
ATOM     59  C   UNL A   1      42.164  29.272  34.093  1.00  0.00     0.049 A 
ATOM     60  H   UNL A   1      41.685  30.809  35.415  1.00  0.00     0.167 HD
ATOM     61  C   UNL A   1      40.502  33.978  38.166  1.00  0.00     0.031 A 
ATOM     62  C   UNL A   1      43.286  28.679  34.547  1.00  0.00     0.031 A 
ATOM     63  C   UNL A   1      41.682  33.387  38.742  1.00  0.00     0.049 A 
ATOM     64  C   UNL A   1      43.924  29.188  35.807  1.00  0.00     0.074 A 
ATOM     65  C   UNL A   1      42.308  33.713  39.933  1.00  0.00     0.029 A 
ATOM     66  N   UNL A   1      42.412  32.355  38.176  1.00  0.00    -0.354 N 
ATOM     67  N   UNL A   1      43.514  30.140  36.609  1.00  0.00    -0.248 NA
ATOM     68  C   UNL A   1      45.178  28.545  36.225  1.00  0.00     0.031 C 
ATOM     69  C   UNL A   1      43.455  32.928  40.052  1.00  0.00     0.029 A 
ATOM     70  C   UNL A   1      43.501  32.055  38.978  1.00  0.00     0.049 A 
ATOM     71  H   UNL A   1      42.190  31.900  37.330  1.00  0.00     0.167 HD
ATOM     72  C   UNL A   1      44.447  30.200  37.636  1.00  0.00     0.074 A 
ATOM     73  C   UNL A   1      45.434  29.176  37.365  1.00  0.00     0.031 C 
ATOM     74  C   UNL A   1      44.478  31.032  38.704  1.00  0.00     0.031 A 
BRANCH  61  75
ATOM     75  C   UNL A   1      39.866  35.122  38.909  1.00  0.00    -0.014 A 
ATOM     76  C   UNL A   1      40.208  36.443  38.575  1.00  0.00     0.009 A 
ATOM     77  C   UNL A   1      39.026  34.899  40.011  1.00  0.00     0.009 A 
ATOM     78  C   UNL A   1      39.741  37.515  39.339  1.00  0.00     0.001 A 
ATOM     79  C   UNL A   1      38.535  35.975  40.755  1.00  0.00     0.001 A 
ATOM     80  C   UNL A   1      38.901  37.279  40.426  1.00  0.00     0.000 A 
ENDBRANCH  61  75
BRANCH  62  81
ATOM     81  C   UNL A   1      43.860  27.536  33.789  1.00  0.00    -0.014 A 
ATOM     82  C   UNL A   1      44.633  27.759  32.637  1.00  0.00     0.009 A 
ATOM     83  C   UNL A   1      43.582  26.214  34.170  1.00  0.00     0.009 A 
ATOM     84  C   UNL A   1      45.084  26.688  31.863  1.00  0.00     0.001 A 
ATOM     85  C   UNL A   1      44.065  25.144  33.414  1.00  0.00     0.001 A 
ATOM     86  C   UNL A   1      44.803  25.381  32.255  1.00  0.00     0.000 A 
ENDBRANCH  62  81
BRANCH  74  87
ATOM     87  C   UNL A   1      45.603  30.879  39.690  1.00  0.00    -0.014 A 
ATOM     88  C   UNL A   1      45.435  30.048  40.810  1.00  0.00     0.009 A 
ATOM     89  C   UNL A   1      46.770  31.650  39.585  1.00  0.00     0.009 A 
ATOM     90  C   UNL A   1      46.401  30.012  41.818  1.00  0.00     0.001 A 
ATOM     91  C   UNL A   1      47.749  31.588  40.578  1.00  0.00     0.001 A 
ATOM     92  C   UNL A   1      47.557  30.781  41.700  1.00  0.00     0.000 A 
ENDBRANCH  74  87
ENDBRANCH  48  49
ENDBRANCH  40  43
ENDBRANCH  38  39
ENDBRANCH  37  38
ENDBRANCH  36  37
ENDBRANCH  35  36
ENDBRANCH   1  35
TORSDOF 18
ENDMDL
