MODEL 1
REMARK VINA RESULT:      -8.1      0.000      0.000
REMARK SMILES C[C@@H](CCCO)Nc1ccc(C(=O)NCCCCCCNC(=O)c2ccc(-c3c4nc(c(-c5ccccc5)c5ccc([nH]5)c(-c5ccccc5)c5nc(c(-c6ccccc6)c6ccc3[nH]6)C=C5)C=C4)cc2)o1
REMARK SMILES IDX 15 1 14 2 12 3 13 4 11 6 8 7 9 8 72 9 10 10 7 11 2 13 1 14
REMARK SMILES IDX 3 15 4 16 5 17 6 18 16 20 17 21 18 22 19 23 20 24 21 25
REMARK SMILES IDX 22 26 23 28 24 29 25 30 71 31 26 32 70 33 27 34 28 35 29 36
REMARK SMILES IDX 64 37 30 38 69 39 63 40 65 41 31 42 68 43 62 44 61 45 32 47
REMARK SMILES IDX 54 48 39 49 53 50 40 51 43 52 52 53 66 54 41 55 42 56 51 58
REMARK SMILES IDX 67 59 44 60 33 61 34 62 38 63 35 64 37 65 36 66 55 67 56 68
REMARK SMILES IDX 60 69 57 70 59 71 58 72 45 73 46 74 50 75 47 76 49 77 48 78
REMARK H PARENT 14 5 7 12 6 19 21 27 65 46 43 57
REMARK Flexibility Score: inf
ROOT
ATOM      1  C   UNL A   1      37.086  33.909  35.138  1.00  0.00     0.116 C 
ENDROOT
BRANCH   1   2
ATOM      2  N   UNL A   1      37.028  32.999  36.259  1.00  0.00    -0.349 N 
ATOM      3  C   UNL A   1      37.890  32.017  36.685  1.00  0.00     0.287 C 
ATOM      4  O   UNL A   1      37.549  31.422  37.708  1.00  0.00    -0.266 OA
ATOM      5  H   UNL A   1      36.224  33.101  36.820  1.00  0.00     0.163 HD
BRANCH   3   6
ATOM      6  C   UNL A   1      39.138  31.749  35.994  1.00  0.00     0.194 A 
ATOM      7  C   UNL A   1      40.283  30.722  34.409  1.00  0.00     0.194 A 
ATOM      8  C   UNL A   1      41.211  31.362  35.188  1.00  0.00     0.070 A 
ATOM      9  O   UNL A   1      39.035  30.980  34.860  1.00  0.00    -0.436 OA
ATOM     10  C   UNL A   1      40.473  32.071  36.171  1.00  0.00     0.058 A 
BRANCH   7  11
ATOM     11  N   UNL A   1      40.338  29.912  33.343  1.00  0.00    -0.354 N 
ATOM     12  H   UNL A   1      40.445  30.309  32.449  1.00  0.00     0.163 HD
BRANCH  11  13
ATOM     13  C   UNL A   1      40.246  28.467  33.464  1.00  0.00     0.079 C 
ATOM     14  C   UNL A   1      39.336  27.936  32.356  1.00  0.00     0.031 C 
BRANCH  13  15
ATOM     15  C   UNL A   1      41.629  27.797  33.476  1.00  0.00     0.027 C 
BRANCH  15  16
ATOM     16  C   UNL A   1      42.018  26.998  34.727  1.00  0.00     0.030 C 
BRANCH  16  17
ATOM     17  C   UNL A   1      42.220  27.810  36.001  1.00  0.00     0.156 C 
BRANCH  17  18
ATOM     18  O   UNL A   1      40.985  28.022  36.669  1.00  0.00    -0.396 OA
ATOM     19  H   UNL A   1      40.575  28.837  36.339  1.00  0.00     0.210 HD
ENDBRANCH  17  18
ENDBRANCH  16  17
ENDBRANCH  15  16
ENDBRANCH  13  15
ENDBRANCH  11  13
ENDBRANCH   7  11
ENDBRANCH   3   6
ENDBRANCH   1   2
BRANCH   1  20
ATOM     20  C   UNL A   1      35.794  33.833  34.327  1.00  0.00     0.021 C 
BRANCH  20  21
ATOM     21  C   UNL A   1      35.686  34.942  33.270  1.00  0.00     0.002 C 
BRANCH  21  22
ATOM     22  C   UNL A   1      34.470  35.865  33.429  1.00  0.00     0.002 C 
BRANCH  22  23
ATOM     23  C   UNL A   1      33.328  35.600  32.446  1.00  0.00     0.021 C 
BRANCH  23  24
ATOM     24  C   UNL A   1      33.512  36.262  31.084  1.00  0.00     0.116 C 
BRANCH  24  25
ATOM     25  N   UNL A   1      32.754  35.577  30.049  1.00  0.00    -0.352 N 
ATOM     26  C   UNL A   1      33.159  34.601  29.175  1.00  0.00     0.251 C 
ATOM     27  H   UNL A   1      31.813  35.852  29.965  1.00  0.00     0.163 HD
ATOM     28  O   UNL A   1      32.462  34.306  28.210  1.00  0.00    -0.269 OA
BRANCH  26  29
ATOM     29  C   UNL A   1      34.449  33.913  29.390  1.00  0.00     0.039 A 
ATOM     30  C   UNL A   1      35.542  34.261  28.594  1.00  0.00     0.014 A 
ATOM     31  C   UNL A   1      34.575  32.917  30.364  1.00  0.00     0.014 A 
ATOM     32  C   UNL A   1      36.778  33.651  28.814  1.00  0.00     0.010 A 
ATOM     33  C   UNL A   1      35.823  32.366  30.632  1.00  0.00     0.010 A 
ATOM     34  C   UNL A   1      36.936  32.725  29.859  1.00  0.00    -0.014 A 
BRANCH  34  35
ATOM     35  C   UNL A   1      38.263  32.135  30.164  1.00  0.00     0.031 A 
ATOM     36  C   UNL A   1      39.257  32.889  31.002  1.00  0.00     0.074 A 
ATOM     37  C   UNL A   1      38.595  30.943  29.630  1.00  0.00     0.049 A 
ATOM     38  N   UNL A   1      40.478  32.554  31.334  1.00  0.00    -0.248 NA
ATOM     39  C   UNL A   1      38.834  34.202  31.515  1.00  0.00     0.031 C 
ATOM     40  C   UNL A   1      37.735  30.131  28.767  1.00  0.00     0.029 A 
ATOM     41  N   UNL A   1      39.749  30.209  29.733  1.00  0.00    -0.354 N 
ATOM     42  C   UNL A   1      40.972  33.616  32.082  1.00  0.00     0.074 A 
ATOM     43  C   UNL A   1      39.938  34.627  32.111  1.00  0.00     0.031 C 
ATOM     44  C   UNL A   1      38.379  28.999  28.443  1.00  0.00     0.029 A 
ATOM     45  C   UNL A   1      39.712  29.025  29.037  1.00  0.00     0.049 A 
ATOM     46  H   UNL A   1      40.531  30.502  30.255  1.00  0.00     0.167 HD
ATOM     47  C   UNL A   1      42.170  33.731  32.703  1.00  0.00     0.031 A 
ATOM     48  C   UNL A   1      40.648  28.070  28.885  1.00  0.00     0.031 A 
ATOM     49  C   UNL A   1      43.195  32.722  32.674  1.00  0.00     0.049 A 
ATOM     50  C   UNL A   1      41.979  28.233  29.565  1.00  0.00     0.074 A 
ATOM     51  C   UNL A   1      44.420  32.720  33.319  1.00  0.00     0.029 A 
ATOM     52  N   UNL A   1      43.119  31.539  31.956  1.00  0.00    -0.354 N 
ATOM     53  N   UNL A   1      42.401  29.210  30.330  1.00  0.00    -0.248 NA
ATOM     54  C   UNL A   1      42.958  27.156  29.365  1.00  0.00     0.031 C 
ATOM     55  C   UNL A   1      45.110  31.565  32.940  1.00  0.00     0.029 A 
ATOM     56  C   UNL A   1      44.289  30.815  32.114  1.00  0.00     0.049 A 
ATOM     57  H   UNL A   1      42.349  31.255  31.413  1.00  0.00     0.167 HD
ATOM     58  C   UNL A   1      43.684  28.853  30.725  1.00  0.00     0.074 A 
ATOM     59  C   UNL A   1      43.961  27.562  30.131  1.00  0.00     0.031 C 
ATOM     60  C   UNL A   1      44.554  29.534  31.510  1.00  0.00     0.031 A 
BRANCH  47  61
ATOM     61  C   UNL A   1      42.440  35.004  33.458  1.00  0.00    -0.014 A 
ATOM     62  C   UNL A   1      43.148  36.066  32.870  1.00  0.00     0.009 A 
ATOM     63  C   UNL A   1      41.946  35.161  34.762  1.00  0.00     0.009 A 
ATOM     64  C   UNL A   1      43.388  37.240  33.587  1.00  0.00     0.001 A 
ATOM     65  C   UNL A   1      42.159  36.347  35.466  1.00  0.00     0.001 A 
ATOM     66  C   UNL A   1      42.889  37.382  34.882  1.00  0.00     0.000 A 
ENDBRANCH  47  61
BRANCH  48  67
ATOM     67  C   UNL A   1      40.358  26.868  28.059  1.00  0.00    -0.014 A 
ATOM     68  C   UNL A   1      39.631  25.793  28.593  1.00  0.00     0.009 A 
ATOM     69  C   UNL A   1      40.811  26.787  26.733  1.00  0.00     0.009 A 
ATOM     70  C   UNL A   1      39.390  24.651  27.826  1.00  0.00     0.001 A 
ATOM     71  C   UNL A   1      40.540  25.657  25.958  1.00  0.00     0.001 A 
ATOM     72  C   UNL A   1      39.840  24.586  26.508  1.00  0.00     0.000 A 
ENDBRANCH  48  67
BRANCH  60  73
ATOM     73  C   UNL A   1      45.879  28.881  31.795  1.00  0.00    -0.014 A 
ATOM     74  C   UNL A   1      46.043  28.004  32.880  1.00  0.00     0.009 A 
ATOM     75  C   UNL A   1      46.968  29.119  30.943  1.00  0.00     0.009 A 
ATOM     76  C   UNL A   1      47.282  27.408  33.124  1.00  0.00     0.001 A 
ATOM     77  C   UNL A   1      48.195  28.496  31.169  1.00  0.00     0.001 A 
ATOM     78  C   UNL A   1      48.354  27.650  32.265  1.00  0.00     0.000 A 
ENDBRANCH  60  73
ENDBRANCH  34  35
ENDBRANCH  26  29
ENDBRANCH  24  25
ENDBRANCH  23  24
ENDBRANCH  22  23
ENDBRANCH  21  22
ENDBRANCH  20  21
ENDBRANCH   1  20
TORSDOF 19
ENDMDL
MODEL 2
REMARK VINA RESULT:      -7.5      5.813     11.737
REMARK SMILES C[C@@H](CCCO)Nc1ccc(C(=O)NCCCCCCNC(=O)c2ccc(-c3c4nc(c(-c5ccccc5)c5ccc([nH]5)c(-c5ccccc5)c5nc(c(-c6ccccc6)c6ccc3[nH]6)C=C5)C=C4)cc2)o1
REMARK SMILES IDX 15 1 14 2 12 3 13 4 11 6 8 7 9 8 72 9 10 10 7 11 2 13 1 14
REMARK SMILES IDX 3 15 4 16 5 17 6 18 16 20 17 21 18 22 19 23 20 24 21 25
REMARK SMILES IDX 22 26 23 28 24 29 25 30 71 31 26 32 70 33 27 34 28 35 29 36
REMARK SMILES IDX 64 37 30 38 69 39 63 40 65 41 31 42 68 43 62 44 61 45 32 47
REMARK SMILES IDX 54 48 39 49 53 50 40 51 43 52 52 53 66 54 41 55 42 56 51 58
REMARK SMILES IDX 67 59 44 60 33 61 34 62 38 63 35 64 37 65 36 66 55 67 56 68
REMARK SMILES IDX 60 69 57 70 59 71 58 72 45 73 46 74 50 75 47 76 49 77 48 78
REMARK H PARENT 14 5 7 12 6 19 21 27 65 46 43 57
REMARK Flexibility Score: inf
ROOT
ATOM      1  C   UNL A   1      36.033  23.788  25.615  1.00  0.00     0.116 C 
ENDROOT
BRANCH   1   2
ATOM      2  N   UNL A   1      35.047  24.695  25.074  1.00  0.00    -0.349 N 
ATOM      3  C   UNL A   1      33.715  24.526  24.776  1.00  0.00     0.287 C 
ATOM      4  O   UNL A   1      33.142  25.523  24.336  1.00  0.00    -0.266 OA
ATOM      5  H   UNL A   1      35.391  25.597  24.882  1.00  0.00     0.163 HD
BRANCH   3   6
ATOM      6  C   UNL A   1      33.036  23.267  25.021  1.00  0.00     0.194 A 
ATOM      7  C   UNL A   1      32.404  21.257  24.361  1.00  0.00     0.194 A 
ATOM      8  C   UNL A   1      31.781  21.470  25.563  1.00  0.00     0.070 A 
ATOM      9  O   UNL A   1      33.188  22.310  24.047  1.00  0.00    -0.436 OA
ATOM     10  C   UNL A   1      32.233  22.736  26.018  1.00  0.00     0.058 A 
BRANCH   7  11
ATOM     11  N   UNL A   1      32.394  20.272  23.452  1.00  0.00    -0.354 N 
ATOM     12  H   UNL A   1      32.208  20.495  22.511  1.00  0.00     0.163 HD
BRANCH  11  13
ATOM     13  C   UNL A   1      32.649  18.887  23.809  1.00  0.00     0.079 C 
ATOM     14  C   UNL A   1      32.461  18.014  22.567  1.00  0.00     0.031 C 
BRANCH  13  15
ATOM     15  C   UNL A   1      34.024  18.701  24.468  1.00  0.00     0.027 C 
BRANCH  15  16
ATOM     16  C   UNL A   1      34.774  17.392  24.186  1.00  0.00     0.030 C 
BRANCH  16  17
ATOM     17  C   UNL A   1      34.598  16.286  25.220  1.00  0.00     0.156 C 
BRANCH  17  18
ATOM     18  O   UNL A   1      35.847  15.916  25.785  1.00  0.00    -0.396 OA
ATOM     19  H   UNL A   1      36.370  16.714  25.963  1.00  0.00     0.210 HD
ENDBRANCH  17  18
ENDBRANCH  16  17
ENDBRANCH  15  16
ENDBRANCH  13  15
ENDBRANCH  11  13
ENDBRANCH   7  11
ENDBRANCH   3   6
ENDBRANCH   1   2
BRANCH   1  20
ATOM     20  C   UNL A   1      36.812  23.117  24.485  1.00  0.00     0.021 C 
BRANCH  20  21
ATOM     21  C   UNL A   1      37.711  21.973  24.977  1.00  0.00     0.002 C 
BRANCH  21  22
ATOM     22  C   UNL A   1      37.306  20.578  24.482  1.00  0.00     0.002 C 
BRANCH  22  23
ATOM     23  C   UNL A   1      38.271  19.454  24.867  1.00  0.00     0.021 C 
BRANCH  23  24
ATOM     24  C   UNL A   1      39.205  19.803  26.022  1.00  0.00     0.116 C 
BRANCH  24  25
ATOM     25  N   UNL A   1      40.462  19.077  25.930  1.00  0.00    -0.352 N 
ATOM     26  C   UNL A   1      41.747  19.546  26.023  1.00  0.00     0.251 C 
ATOM     27  H   UNL A   1      40.378  18.107  25.781  1.00  0.00     0.163 HD
ATOM     28  O   UNL A   1      42.690  18.840  25.682  1.00  0.00    -0.269 OA
BRANCH  26  29
ATOM     29  C   UNL A   1      41.994  20.915  26.522  1.00  0.00     0.039 A 
ATOM     30  C   UNL A   1      42.024  21.137  27.901  1.00  0.00     0.014 A 
ATOM     31  C   UNL A   1      42.182  21.977  25.633  1.00  0.00     0.014 A 
ATOM     32  C   UNL A   1      42.300  22.415  28.387  1.00  0.00     0.010 A 
ATOM     33  C   UNL A   1      42.531  23.233  26.119  1.00  0.00     0.010 A 
ATOM     34  C   UNL A   1      42.591  23.465  27.500  1.00  0.00    -0.014 A 
BRANCH  34  35
ATOM     35  C   UNL A   1      42.975  24.808  28.003  1.00  0.00     0.031 A 
ATOM     36  C   UNL A   1      41.925  25.849  28.272  1.00  0.00     0.074 A 
ATOM     37  C   UNL A   1      44.279  25.107  28.157  1.00  0.00     0.049 A 
ATOM     38  N   UNL A   1      42.074  27.086  28.671  1.00  0.00    -0.248 NA
ATOM     39  C   UNL A   1      40.525  25.457  28.042  1.00  0.00     0.031 C 
ATOM     40  C   UNL A   1      45.396  24.198  27.890  1.00  0.00     0.029 A 
ATOM     41  N   UNL A   1      44.886  26.265  28.573  1.00  0.00    -0.354 N 
ATOM     42  C   UNL A   1      40.794  27.623  28.726  1.00  0.00     0.074 A 
ATOM     43  C   UNL A   1      39.885  26.594  28.271  1.00  0.00     0.031 C 
ATOM     44  C   UNL A   1      46.549  24.822  28.177  1.00  0.00     0.029 A 
ATOM     45  C   UNL A   1      46.258  26.187  28.604  1.00  0.00     0.049 A 
ATOM     46  H   UNL A   1      44.388  27.076  28.826  1.00  0.00     0.167 HD
ATOM     47  C   UNL A   1      40.408  28.855  29.136  1.00  0.00     0.031 A 
ATOM     48  C   UNL A   1      47.180  27.112  28.929  1.00  0.00     0.031 A 
ATOM     49  C   UNL A   1      41.314  29.876  29.590  1.00  0.00     0.049 A 
ATOM     50  C   UNL A   1      46.726  28.480  29.357  1.00  0.00     0.074 A 
ATOM     51  C   UNL A   1      41.016  31.137  30.080  1.00  0.00     0.029 A 
ATOM     52  N   UNL A   1      42.695  29.758  29.603  1.00  0.00    -0.354 N 
ATOM     53  N   UNL A   1      45.507  28.946  29.475  1.00  0.00    -0.248 NA
ATOM     54  C   UNL A   1      47.779  29.445  29.703  1.00  0.00     0.031 C 
ATOM     55  C   UNL A   1      42.220  31.803  30.329  1.00  0.00     0.029 A 
ATOM     56  C   UNL A   1      43.265  30.935  30.059  1.00  0.00     0.049 A 
ATOM     57  H   UNL A   1      43.197  28.958  29.327  1.00  0.00     0.167 HD
ATOM     58  C   UNL A   1      45.644  30.249  29.935  1.00  0.00     0.074 A 
ATOM     59  C   UNL A   1      47.063  30.491  30.093  1.00  0.00     0.031 C 
ATOM     60  C   UNL A   1      44.680  31.164  30.204  1.00  0.00     0.031 A 
BRANCH  47  61
ATOM     61  C   UNL A   1      38.937  29.170  29.098  1.00  0.00    -0.014 A 
ATOM     62  C   UNL A   1      38.111  28.935  30.209  1.00  0.00     0.009 A 
ATOM     63  C   UNL A   1      38.376  29.747  27.948  1.00  0.00     0.009 A 
ATOM     64  C   UNL A   1      36.748  29.234  30.155  1.00  0.00     0.001 A 
ATOM     65  C   UNL A   1      37.020  30.075  27.907  1.00  0.00     0.001 A 
ATOM     66  C   UNL A   1      36.205  29.809  29.006  1.00  0.00     0.000 A 
ENDBRANCH  47  61
BRANCH  48  67
ATOM     67  C   UNL A   1      48.627  26.774  28.871  1.00  0.00    -0.014 A 
ATOM     68  C   UNL A   1      49.352  26.941  27.682  1.00  0.00     0.009 A 
ATOM     69  C   UNL A   1      49.289  26.276  30.004  1.00  0.00     0.009 A 
ATOM     70  C   UNL A   1      50.702  26.590  27.620  1.00  0.00     0.001 A 
ATOM     71  C   UNL A   1      50.648  25.957  29.948  1.00  0.00     0.001 A 
ATOM     72  C   UNL A   1      51.350  26.104  28.754  1.00  0.00     0.000 A 
ENDBRANCH  48  67
BRANCH  60  73
ATOM     73  C   UNL A   1      45.128  32.502  30.724  1.00  0.00    -0.014 A 
ATOM     74  C   UNL A   1      45.386  33.575  29.856  1.00  0.00     0.009 A 
ATOM     75  C   UNL A   1      45.259  32.700  32.108  1.00  0.00     0.009 A 
ATOM     76  C   UNL A   1      45.799  34.809  30.363  1.00  0.00     0.001 A 
ATOM     77  C   UNL A   1      45.640  33.944  32.613  1.00  0.00     0.001 A 
ATOM     78  C   UNL A   1      45.920  34.993  31.740  1.00  0.00     0.000 A 
ENDBRANCH  60  73
ENDBRANCH  34  35
ENDBRANCH  26  29
ENDBRANCH  24  25
ENDBRANCH  23  24
ENDBRANCH  22  23
ENDBRANCH  21  22
ENDBRANCH  20  21
ENDBRANCH   1  20
TORSDOF 19
ENDMDL
MODEL 3
REMARK VINA RESULT:      -7.5      0.725      6.136
REMARK SMILES C[C@@H](CCCO)Nc1ccc(C(=O)NCCCCCCNC(=O)c2ccc(-c3c4nc(c(-c5ccccc5)c5ccc([nH]5)c(-c5ccccc5)c5nc(c(-c6ccccc6)c6ccc3[nH]6)C=C5)C=C4)cc2)o1
REMARK SMILES IDX 15 1 14 2 12 3 13 4 11 6 8 7 9 8 72 9 10 10 7 11 2 13 1 14
REMARK SMILES IDX 3 15 4 16 5 17 6 18 16 20 17 21 18 22 19 23 20 24 21 25
REMARK SMILES IDX 22 26 23 28 24 29 25 30 71 31 26 32 70 33 27 34 28 35 29 36
REMARK SMILES IDX 64 37 30 38 69 39 63 40 65 41 31 42 68 43 62 44 61 45 32 47
REMARK SMILES IDX 54 48 39 49 53 50 40 51 43 52 52 53 66 54 41 55 42 56 51 58
REMARK SMILES IDX 67 59 44 60 33 61 34 62 38 63 35 64 37 65 36 66 55 67 56 68
REMARK SMILES IDX 60 69 57 70 59 71 58 72 45 73 46 74 50 75 47 76 49 77 48 78
REMARK H PARENT 14 5 7 12 6 19 21 27 65 46 43 57
REMARK Flexibility Score: inf
ROOT
ATOM      1  C   UNL A   1      37.044  33.483  34.695  1.00  0.00     0.116 C 
ENDROOT
BRANCH   1   2
ATOM      2  N   UNL A   1      36.898  32.985  36.043  1.00  0.00    -0.349 N 
ATOM      3  C   UNL A   1      37.726  32.219  36.829  1.00  0.00     0.287 C 
ATOM      4  O   UNL A   1      37.304  31.979  37.961  1.00  0.00    -0.266 OA
ATOM      5  H   UNL A   1      36.052  33.240  36.477  1.00  0.00     0.163 HD
BRANCH   3   6
ATOM      6  C   UNL A   1      39.026  31.777  36.359  1.00  0.00     0.194 A 
ATOM      7  C   UNL A   1      40.405  30.172  35.729  1.00  0.00     0.194 A 
ATOM      8  C   UNL A   1      41.162  31.312  35.796  1.00  0.00     0.070 A 
ATOM      9  O   UNL A   1      39.116  30.447  36.025  1.00  0.00    -0.436 OA
ATOM     10  C   UNL A   1      40.265  32.356  36.143  1.00  0.00     0.058 A 
BRANCH   7  11
ATOM     11  N   UNL A   1      40.656  28.884  35.457  1.00  0.00    -0.354 N 
ATOM     12  H   UNL A   1      40.373  28.197  36.103  1.00  0.00     0.163 HD
BRANCH  11  13
ATOM     13  C   UNL A   1      41.334  28.468  34.241  1.00  0.00     0.079 C 
ATOM     14  C   UNL A   1      41.650  26.975  34.338  1.00  0.00     0.031 C 
BRANCH  13  15
ATOM     15  C   UNL A   1      40.534  28.829  32.979  1.00  0.00     0.027 C 
BRANCH  15  16
ATOM     16  C   UNL A   1      39.375  27.902  32.588  1.00  0.00     0.030 C 
BRANCH  16  17
ATOM     17  C   UNL A   1      37.987  28.532  32.591  1.00  0.00     0.156 C 
BRANCH  17  18
ATOM     18  O   UNL A   1      37.756  29.247  33.796  1.00  0.00    -0.396 OA
ATOM     19  H   UNL A   1      38.222  30.097  33.761  1.00  0.00     0.210 HD
ENDBRANCH  17  18
ENDBRANCH  16  17
ENDBRANCH  15  16
ENDBRANCH  13  15
ENDBRANCH  11  13
ENDBRANCH   7  11
ENDBRANCH   3   6
ENDBRANCH   1   2
BRANCH   1  20
ATOM     20  C   UNL A   1      35.692  33.938  34.148  1.00  0.00     0.021 C 
BRANCH  20  21
ATOM     21  C   UNL A   1      35.817  35.031  33.077  1.00  0.00     0.002 C 
BRANCH  21  22
ATOM     22  C   UNL A   1      34.812  36.183  33.214  1.00  0.00     0.002 C 
BRANCH  22  23
ATOM     23  C   UNL A   1      33.806  36.298  32.066  1.00  0.00     0.021 C 
BRANCH  23  24
ATOM     24  C   UNL A   1      32.994  35.031  31.820  1.00  0.00     0.116 C 
BRANCH  24  25
ATOM     25  N   UNL A   1      32.595  34.913  30.427  1.00  0.00    -0.352 N 
ATOM     26  C   UNL A   1      33.333  34.522  29.339  1.00  0.00     0.251 C 
ATOM     27  H   UNL A   1      31.658  35.148  30.236  1.00  0.00     0.163 HD
ATOM     28  O   UNL A   1      32.910  34.712  28.204  1.00  0.00    -0.269 OA
BRANCH  26  29
ATOM     29  C   UNL A   1      34.650  33.882  29.538  1.00  0.00     0.039 A 
ATOM     30  C   UNL A   1      35.739  34.330  28.788  1.00  0.00     0.014 A 
ATOM     31  C   UNL A   1      34.805  32.836  30.452  1.00  0.00     0.014 A 
ATOM     32  C   UNL A   1      36.998  33.765  28.996  1.00  0.00     0.010 A 
ATOM     33  C   UNL A   1      36.074  32.327  30.712  1.00  0.00     0.010 A 
ATOM     34  C   UNL A   1      37.182  32.784  29.985  1.00  0.00    -0.014 A 
BRANCH  34  35
ATOM     35  C   UNL A   1      38.530  32.239  30.281  1.00  0.00     0.031 A 
ATOM     36  C   UNL A   1      38.953  30.909  29.724  1.00  0.00     0.074 A 
ATOM     37  C   UNL A   1      39.351  32.919  31.105  1.00  0.00     0.049 A 
ATOM     38  N   UNL A   1      40.071  30.255  29.910  1.00  0.00    -0.248 NA
ATOM     39  C   UNL A   1      37.984  30.210  28.864  1.00  0.00     0.031 C 
ATOM     40  C   UNL A   1      39.042  34.200  31.743  1.00  0.00     0.029 A 
ATOM     41  N   UNL A   1      40.614  32.622  31.552  1.00  0.00    -0.354 N 
ATOM     42  C   UNL A   1      39.936  29.066  29.204  1.00  0.00     0.074 A 
ATOM     43  C   UNL A   1      38.609  29.066  28.628  1.00  0.00     0.031 C 
ATOM     44  C   UNL A   1      40.097  34.594  32.473  1.00  0.00     0.029 A 
ATOM     45  C   UNL A   1      41.138  33.574  32.393  1.00  0.00     0.049 A 
ATOM     46  H   UNL A   1      41.100  31.805  31.294  1.00  0.00     0.167 HD
ATOM     47  C   UNL A   1      40.841  28.073  29.035  1.00  0.00     0.031 A 
ATOM     48  C   UNL A   1      42.319  33.617  33.037  1.00  0.00     0.031 A 
ATOM     49  C   UNL A   1      42.162  28.077  29.606  1.00  0.00     0.049 A 
ATOM     50  C   UNL A   1      43.297  32.490  32.852  1.00  0.00     0.074 A 
ATOM     51  C   UNL A   1      43.173  27.144  29.446  1.00  0.00     0.029 A 
ATOM     52  N   UNL A   1      42.652  29.057  30.455  1.00  0.00    -0.354 N 
ATOM     53  N   UNL A   1      43.181  31.409  32.120  1.00  0.00    -0.248 NA
ATOM     54  C   UNL A   1      44.570  32.596  33.578  1.00  0.00     0.031 C 
ATOM     55  C   UNL A   1      44.251  27.529  30.248  1.00  0.00     0.029 A 
ATOM     56  C   UNL A   1      43.938  28.735  30.855  1.00  0.00     0.049 A 
ATOM     57  H   UNL A   1      42.159  29.862  30.734  1.00  0.00     0.167 HD
ATOM     58  C   UNL A   1      44.376  30.718  32.275  1.00  0.00     0.074 A 
ATOM     59  C   UNL A   1      45.209  31.514  33.154  1.00  0.00     0.031 C 
ATOM     60  C   UNL A   1      44.752  29.532  31.736  1.00  0.00     0.031 A 
BRANCH  47  61
ATOM     61  C   UNL A   1      40.425  26.889  28.204  1.00  0.00    -0.014 A 
ATOM     62  C   UNL A   1      39.608  25.876  28.733  1.00  0.00     0.009 A 
ATOM     63  C   UNL A   1      40.822  26.805  26.861  1.00  0.00     0.009 A 
ATOM     64  C   UNL A   1      39.232  24.785  27.946  1.00  0.00     0.001 A 
ATOM     65  C   UNL A   1      40.419  25.730  26.066  1.00  0.00     0.001 A 
ATOM     66  C   UNL A   1      39.633  24.716  26.612  1.00  0.00     0.000 A 
ENDBRANCH  47  61
BRANCH  48  67
ATOM     67  C   UNL A   1      42.647  34.773  33.913  1.00  0.00    -0.014 A 
ATOM     68  C   UNL A   1      42.434  34.703  35.298  1.00  0.00     0.009 A 
ATOM     69  C   UNL A   1      43.172  35.954  33.366  1.00  0.00     0.009 A 
ATOM     70  C   UNL A   1      42.712  35.803  36.113  1.00  0.00     0.001 A 
ATOM     71  C   UNL A   1      43.479  37.041  34.189  1.00  0.00     0.001 A 
ATOM     72  C   UNL A   1      43.238  36.969  35.559  1.00  0.00     0.000 A 
ENDBRANCH  48  67
BRANCH  60  73
ATOM     73  C   UNL A   1      46.134  29.037  32.060  1.00  0.00    -0.014 A 
ATOM     74  C   UNL A   1      46.371  28.199  33.161  1.00  0.00     0.009 A 
ATOM     75  C   UNL A   1      47.210  29.386  31.228  1.00  0.00     0.009 A 
ATOM     76  C   UNL A   1      47.664  27.750  33.442  1.00  0.00     0.001 A 
ATOM     77  C   UNL A   1      48.494  28.910  31.491  1.00  0.00     0.001 A 
ATOM     78  C   UNL A   1      48.722  28.101  32.603  1.00  0.00     0.000 A 
ENDBRANCH  60  73
ENDBRANCH  34  35
ENDBRANCH  26  29
ENDBRANCH  24  25
ENDBRANCH  23  24
ENDBRANCH  22  23
ENDBRANCH  21  22
ENDBRANCH  20  21
ENDBRANCH   1  20
TORSDOF 19
ENDMDL
