MODEL 1
REMARK VINA RESULT:     -11.4      0.000      0.000
REMARK SMILES CC(C)(C)c1cc2c(cc1Cl)C=C(C(=O)NCCCCCCNC(=O)c1ccc(-c3c4nc(c(-c5ccccc5)c5ccc([nH]5)c(-c5ccccc5)c5nc(c(-c6ccccc6)c6ccc3[nH]6)C=C5)C=C4)cc1)[C@H](C(F)(F)F)O2
REMARK SMILES IDX 20 1 19 2 18 3 17 4 16 5 14 6 15 7 13 9 5 10 6 11 10 12 7 13
REMARK SMILES IDX 9 14 11 15 8 16 79 17 12 18 74 19 2 20 1 21 3 22 4 23 75 24
REMARK SMILES IDX 76 25 77 26 78 27 21 28 22 29 23 30 24 31 25 33 26 34 27 35
REMARK SMILES IDX 73 36 28 37 72 38 29 39 30 40 31 41 66 42 32 43 71 44 65 45
REMARK SMILES IDX 67 46 33 47 70 48 64 49 63 50 34 52 56 53 41 54 55 55 42 56
REMARK SMILES IDX 45 57 54 58 68 59 43 60 44 61 53 63 69 64 46 65 35 66 36 67
REMARK SMILES IDX 40 68 37 69 39 70 38 71 57 72 58 73 62 74 59 75 61 76 60 77
REMARK SMILES IDX 47 78 48 79 52 80 49 81 51 82 50 83
REMARK H PARENT 16 8 23 32 67 51 45 62
REMARK Flexibility Score: inf
ROOT
ATOM      1  C   UNL A   1      34.514  33.841  29.068  1.00  0.00     0.002 C 
ENDROOT
BRANCH   1   2
ATOM      2  C   UNL A   1      34.266  32.330  28.985  1.00  0.00     0.002 C 
BRANCH   2   3
ATOM      3  C   UNL A   1      34.681  31.662  27.673  1.00  0.00     0.021 C 
BRANCH   3   4
ATOM      4  C   UNL A   1      34.053  30.292  27.432  1.00  0.00     0.116 C 
BRANCH   4   5
ATOM      5  N   UNL A   1      32.890  30.374  26.564  1.00  0.00    -0.352 N 
ATOM      6  C   UNL A   1      32.231  29.571  25.695  1.00  0.00     0.251 C 
ATOM      7  O   UNL A   1      31.236  30.080  25.171  1.00  0.00    -0.270 OA
ATOM      8  H   UNL A   1      32.464  31.259  26.624  1.00  0.00     0.163 HD
BRANCH   6   9
ATOM      9  C   UNL A   1      32.604  28.164  25.352  1.00  0.00     0.067 C 
ATOM     10  C   UNL A   1      32.771  23.085  24.998  1.00  0.00    -0.020 A 
ATOM     11  C   UNL A   1      33.633  24.159  24.694  1.00  0.00     0.053 A 
ATOM     12  C   UNL A   1      31.541  23.437  25.605  1.00  0.00     0.045 A 
ATOM     13  C   UNL A   1      33.290  25.487  24.946  1.00  0.00     0.128 A 
ATOM     14  C   UNL A   1      31.199  24.784  25.850  1.00  0.00     0.032 A 
ATOM     15  Cl  UNL A   1      30.372  22.293  26.163  1.00  0.00    -0.084 Cl
ATOM     16  C   UNL A   1      32.074  25.815  25.521  1.00  0.00     0.019 A 
ATOM     17  O   UNL A   1      34.242  26.411  24.642  1.00  0.00    -0.475 OA
ATOM     18  C   UNL A   1      31.777  27.210  25.819  1.00  0.00     0.025 C 
ATOM     19  C   UNL A   1      33.793  27.785  24.516  1.00  0.00     0.314 C 
BRANCH  10  20
ATOM     20  C   UNL A   1      33.249  21.640  24.710  1.00  0.00    -0.012 C 
ATOM     21  C   UNL A   1      32.372  20.903  23.656  1.00  0.00     0.016 C 
ATOM     22  C   UNL A   1      33.215  20.728  25.956  1.00  0.00     0.016 C 
ATOM     23  C   UNL A   1      34.676  21.699  24.129  1.00  0.00     0.016 C 
ENDBRANCH  10  20
BRANCH  19  24
ATOM     24  C   UNL A   1      33.613  28.115  23.026  1.00  0.00     0.429 C 
ATOM     25  F   UNL A   1      33.596  27.011  22.246  1.00  0.00    -0.167 F 
ATOM     26  F   UNL A   1      32.470  28.791  22.775  1.00  0.00    -0.167 F 
ATOM     27  F   UNL A   1      34.630  28.904  22.591  1.00  0.00    -0.167 F 
ENDBRANCH  19  24
ENDBRANCH   6   9
ENDBRANCH   4   5
ENDBRANCH   3   4
ENDBRANCH   2   3
ENDBRANCH   1   2
BRANCH   1  28
ATOM     28  C   UNL A   1      33.263  34.719  29.047  1.00  0.00     0.021 C 
BRANCH  28  29
ATOM     29  C   UNL A   1      33.446  36.116  29.626  1.00  0.00     0.116 C 
BRANCH  29  30
ATOM     30  N   UNL A   1      32.480  36.424  30.667  1.00  0.00    -0.352 N 
ATOM     31  C   UNL A   1      32.441  35.998  31.975  1.00  0.00     0.251 C 
ATOM     32  H   UNL A   1      31.748  37.026  30.398  1.00  0.00     0.163 HD
ATOM     33  O   UNL A   1      31.471  36.231  32.677  1.00  0.00    -0.269 OA
BRANCH  31  34
ATOM     34  C   UNL A   1      33.579  35.221  32.514  1.00  0.00     0.039 A 
ATOM     35  C   UNL A   1      34.845  35.798  32.613  1.00  0.00     0.014 A 
ATOM     36  C   UNL A   1      33.380  33.892  32.899  1.00  0.00     0.014 A 
ATOM     37  C   UNL A   1      35.939  35.001  32.927  1.00  0.00     0.010 A 
ATOM     38  C   UNL A   1      34.470  33.116  33.308  1.00  0.00     0.010 A 
ATOM     39  C   UNL A   1      35.766  33.650  33.279  1.00  0.00    -0.014 A 
BRANCH  39  40
ATOM     40  C   UNL A   1      36.964  32.846  33.631  1.00  0.00     0.031 A 
ATOM     41  C   UNL A   1      37.584  31.891  32.647  1.00  0.00     0.074 A 
ATOM     42  C   UNL A   1      37.550  33.052  34.828  1.00  0.00     0.049 A 
ATOM     43  N   UNL A   1      38.702  31.218  32.753  1.00  0.00    -0.248 NA
ATOM     44  C   UNL A   1      36.863  31.656  31.385  1.00  0.00     0.031 C 
ATOM     45  C   UNL A   1      37.041  33.951  35.866  1.00  0.00     0.029 A 
ATOM     46  N   UNL A   1      38.721  32.566  35.352  1.00  0.00    -0.354 N 
ATOM     47  C   UNL A   1      38.814  30.475  31.584  1.00  0.00     0.074 A 
ATOM     48  C   UNL A   1      37.634  30.752  30.795  1.00  0.00     0.031 C 
ATOM     49  C   UNL A   1      37.934  34.021  36.862  1.00  0.00     0.029 A 
ATOM     50  C   UNL A   1      39.047  33.123  36.566  1.00  0.00     0.049 A 
ATOM     51  H   UNL A   1      39.274  31.886  34.904  1.00  0.00     0.167 HD
ATOM     52  C   UNL A   1      39.814  29.648  31.199  1.00  0.00     0.031 A 
ATOM     53  C   UNL A   1      40.121  32.942  37.356  1.00  0.00     0.031 A 
ATOM     54  C   UNL A   1      40.992  29.376  31.983  1.00  0.00     0.049 A 
ATOM     55  C   UNL A   1      41.202  32.000  36.915  1.00  0.00     0.074 A 
ATOM     56  C   UNL A   1      42.071  28.572  31.660  1.00  0.00     0.029 A 
ATOM     57  N   UNL A   1      41.244  29.897  33.243  1.00  0.00    -0.354 N 
ATOM     58  N   UNL A   1      41.303  31.329  35.795  1.00  0.00    -0.248 NA
ATOM     59  C   UNL A   1      42.317  31.790  37.849  1.00  0.00     0.031 C 
ATOM     60  C   UNL A   1      42.946  28.557  32.749  1.00  0.00     0.029 A 
ATOM     61  C   UNL A   1      42.446  29.406  33.723  1.00  0.00     0.049 A 
ATOM     62  H   UNL A   1      40.655  30.523  33.724  1.00  0.00     0.167 HD
ATOM     63  C   UNL A   1      42.489  30.614  35.887  1.00  0.00     0.074 A 
ATOM     64  C   UNL A   1      43.091  30.964  37.157  1.00  0.00     0.031 C 
ATOM     65  C   UNL A   1      43.024  29.739  35.001  1.00  0.00     0.031 A 
BRANCH  52  66
ATOM     66  C   UNL A   1      39.690  28.957  29.867  1.00  0.00    -0.014 A 
ATOM     67  C   UNL A   1      39.248  27.625  29.810  1.00  0.00     0.009 A 
ATOM     68  C   UNL A   1      40.099  29.587  28.680  1.00  0.00     0.009 A 
ATOM     69  C   UNL A   1      39.232  26.933  28.597  1.00  0.00     0.001 A 
ATOM     70  C   UNL A   1      40.056  28.900  27.465  1.00  0.00     0.001 A 
ATOM     71  C   UNL A   1      39.631  27.573  27.426  1.00  0.00     0.000 A 
ENDBRANCH  52  66
BRANCH  53  72
ATOM     72  C   UNL A   1      40.218  33.692  38.635  1.00  0.00    -0.014 A 
ATOM     73  C   UNL A   1      40.910  34.915  38.694  1.00  0.00     0.009 A 
ATOM     74  C   UNL A   1      39.674  33.165  39.815  1.00  0.00     0.009 A 
ATOM     75  C   UNL A   1      41.083  35.575  39.911  1.00  0.00     0.001 A 
ATOM     76  C   UNL A   1      39.819  33.844  41.026  1.00  0.00     0.001 A 
ATOM     77  C   UNL A   1      40.533  35.042  41.075  1.00  0.00     0.000 A 
ENDBRANCH  53  72
BRANCH  65  78
ATOM     78  C   UNL A   1      44.320  29.078  35.378  1.00  0.00    -0.014 A 
ATOM     79  C   UNL A   1      44.313  27.873  36.098  1.00  0.00     0.009 A 
ATOM     80  C   UNL A   1      45.552  29.685  35.082  1.00  0.00     0.009 A 
ATOM     81  C   UNL A   1      45.509  27.293  36.520  1.00  0.00     0.001 A 
ATOM     82  C   UNL A   1      46.748  29.086  35.478  1.00  0.00     0.001 A 
ATOM     83  C   UNL A   1      46.725  27.894  36.204  1.00  0.00     0.000 A 
ENDBRANCH  65  78
ENDBRANCH  39  40
ENDBRANCH  31  34
ENDBRANCH  29  30
ENDBRANCH  28  29
ENDBRANCH   1  28
TORSDOF 15
ENDMDL
MODEL 2
REMARK VINA RESULT:     -11.3      5.162     10.143
REMARK SMILES CC(C)(C)c1cc2c(cc1Cl)C=C(C(=O)NCCCCCCNC(=O)c1ccc(-c3c4nc(c(-c5ccccc5)c5ccc([nH]5)c(-c5ccccc5)c5nc(c(-c6ccccc6)c6ccc3[nH]6)C=C5)C=C4)cc1)[C@H](C(F)(F)F)O2
REMARK SMILES IDX 20 1 19 2 18 3 17 4 16 5 14 6 15 7 13 9 5 10 6 11 10 12 7 13
REMARK SMILES IDX 9 14 11 15 8 16 79 17 12 18 74 19 2 20 1 21 3 22 4 23 75 24
REMARK SMILES IDX 76 25 77 26 78 27 21 28 22 29 23 30 24 31 25 33 26 34 27 35
REMARK SMILES IDX 73 36 28 37 72 38 29 39 30 40 31 41 66 42 32 43 71 44 65 45
REMARK SMILES IDX 67 46 33 47 70 48 64 49 63 50 34 52 56 53 41 54 55 55 42 56
REMARK SMILES IDX 45 57 54 58 68 59 43 60 44 61 53 63 69 64 46 65 35 66 36 67
REMARK SMILES IDX 40 68 37 69 39 70 38 71 57 72 58 73 62 74 59 75 61 76 60 77
REMARK SMILES IDX 47 78 48 79 52 80 49 81 51 82 50 83
REMARK H PARENT 16 8 23 32 67 51 45 62
REMARK Flexibility Score: inf
ROOT
ATOM      1  C   UNL A   1      36.097  21.405  24.877  1.00  0.00     0.002 C 
ENDROOT
BRANCH   1   2
ATOM      2  C   UNL A   1      36.365  22.680  24.068  1.00  0.00     0.002 C 
BRANCH   2   3
ATOM      3  C   UNL A   1      35.366  22.975  22.947  1.00  0.00     0.021 C 
BRANCH   3   4
ATOM      4  C   UNL A   1      34.456  24.173  23.207  1.00  0.00     0.116 C 
BRANCH   4   5
ATOM      5  N   UNL A   1      34.008  24.224  24.589  1.00  0.00    -0.352 N 
ATOM      6  C   UNL A   1      33.241  25.027  25.363  1.00  0.00     0.251 C 
ATOM      7  O   UNL A   1      33.117  24.655  26.534  1.00  0.00    -0.270 OA
ATOM      8  H   UNL A   1      34.362  23.464  25.105  1.00  0.00     0.163 HD
BRANCH   6   9
ATOM      9  C   UNL A   1      32.552  26.275  24.912  1.00  0.00     0.067 C 
ATOM     10  C   UNL A   1      29.134  29.639  23.195  1.00  0.00    -0.020 A 
ATOM     11  C   UNL A   1      30.529  29.614  23.396  1.00  0.00     0.053 A 
ATOM     12  C   UNL A   1      28.450  28.433  23.480  1.00  0.00     0.045 A 
ATOM     13  C   UNL A   1      31.195  28.485  23.874  1.00  0.00     0.128 A 
ATOM     14  C   UNL A   1      29.129  27.298  23.969  1.00  0.00     0.032 A 
ATOM     15  Cl  UNL A   1      26.759  28.190  23.211  1.00  0.00    -0.084 Cl
ATOM     16  C   UNL A   1      30.507  27.320  24.167  1.00  0.00     0.019 A 
ATOM     17  O   UNL A   1      32.548  28.595  23.974  1.00  0.00    -0.475 OA
ATOM     18  C   UNL A   1      31.246  26.145  24.611  1.00  0.00     0.025 C 
ATOM     19  C   UNL A   1      33.216  27.619  24.814  1.00  0.00     0.314 C 
BRANCH  10  20
ATOM     20  C   UNL A   1      28.485  30.929  22.633  1.00  0.00    -0.012 C 
ATOM     21  C   UNL A   1      29.477  32.127  22.549  1.00  0.00     0.016 C 
ATOM     22  C   UNL A   1      27.315  31.448  23.496  1.00  0.00     0.016 C 
ATOM     23  C   UNL A   1      28.008  30.654  21.193  1.00  0.00     0.016 C 
ENDBRANCH  10  20
BRANCH  19  24
ATOM     24  C   UNL A   1      33.497  28.253  26.186  1.00  0.00     0.429 C 
ATOM     25  F   UNL A   1      34.693  27.882  26.696  1.00  0.00    -0.167 F 
ATOM     26  F   UNL A   1      33.489  29.605  26.149  1.00  0.00    -0.167 F 
ATOM     27  F   UNL A   1      32.543  27.888  27.080  1.00  0.00    -0.167 F 
ENDBRANCH  19  24
ENDBRANCH   6   9
ENDBRANCH   4   5
ENDBRANCH   3   4
ENDBRANCH   2   3
ENDBRANCH   1   2
BRANCH   1  28
ATOM     28  C   UNL A   1      37.204  20.351  24.836  1.00  0.00     0.021 C 
BRANCH  28  29
ATOM     29  C   UNL A   1      38.508  20.761  25.507  1.00  0.00     0.116 C 
BRANCH  29  30
ATOM     30  N   UNL A   1      39.482  19.682  25.546  1.00  0.00    -0.352 N 
ATOM     31  C   UNL A   1      40.800  19.711  25.946  1.00  0.00     0.251 C 
ATOM     32  H   UNL A   1      39.153  18.805  25.243  1.00  0.00     0.163 HD
ATOM     33  O   UNL A   1      41.524  18.744  25.772  1.00  0.00    -0.269 OA
BRANCH  31  34
ATOM     34  C   UNL A   1      41.340  20.943  26.563  1.00  0.00     0.039 A 
ATOM     35  C   UNL A   1      41.260  21.136  27.941  1.00  0.00     0.014 A 
ATOM     36  C   UNL A   1      41.908  21.925  25.746  1.00  0.00     0.014 A 
ATOM     37  C   UNL A   1      41.583  22.376  28.479  1.00  0.00     0.010 A 
ATOM     38  C   UNL A   1      42.323  23.138  26.305  1.00  0.00     0.010 A 
ATOM     39  C   UNL A   1      42.119  23.392  27.669  1.00  0.00    -0.014 A 
BRANCH  39  40
ATOM     40  C   UNL A   1      42.473  24.692  28.295  1.00  0.00     0.031 A 
ATOM     41  C   UNL A   1      43.901  25.054  28.600  1.00  0.00     0.074 A 
ATOM     42  C   UNL A   1      41.491  25.592  28.508  1.00  0.00     0.049 A 
ATOM     43  N   UNL A   1      44.385  26.195  29.022  1.00  0.00    -0.248 NA
ATOM     44  C   UNL A   1      44.919  24.007  28.412  1.00  0.00     0.031 C 
ATOM     45  C   UNL A   1      40.068  25.356  28.255  1.00  0.00     0.029 A 
ATOM     46  N   UNL A   1      41.542  26.897  28.931  1.00  0.00    -0.354 N 
ATOM     47  C   UNL A   1      45.754  26.004  29.159  1.00  0.00     0.074 A 
ATOM     48  C   UNL A   1      46.023  24.626  28.809  1.00  0.00     0.031 C 
ATOM     49  C   UNL A   1      39.394  26.499  28.442  1.00  0.00     0.029 A 
ATOM     50  C   UNL A   1      40.324  27.531  28.892  1.00  0.00     0.049 A 
ATOM     51  H   UNL A   1      42.371  27.335  29.234  1.00  0.00     0.167 HD
ATOM     52  C   UNL A   1      46.701  26.897  29.531  1.00  0.00     0.031 A 
ATOM     53  C   UNL A   1      39.984  28.801  29.178  1.00  0.00     0.031 A 
ATOM     54  C   UNL A   1      46.432  28.270  29.874  1.00  0.00     0.049 A 
ATOM     55  C   UNL A   1      41.051  29.763  29.613  1.00  0.00     0.074 A 
ATOM     56  C   UNL A   1      47.334  29.256  30.238  1.00  0.00     0.029 A 
ATOM     57  N   UNL A   1      45.174  28.850  29.901  1.00  0.00    -0.354 N 
ATOM     58  N   UNL A   1      42.343  29.570  29.709  1.00  0.00    -0.248 NA
ATOM     59  C   UNL A   1      40.612  31.116  29.978  1.00  0.00     0.031 C 
ATOM     60  C   UNL A   1      46.615  30.414  30.542  1.00  0.00     0.029 A 
ATOM     61  C   UNL A   1      45.272  30.171  30.304  1.00  0.00     0.049 A 
ATOM     62  H   UNL A   1      44.335  28.391  29.668  1.00  0.00     0.167 HD
ATOM     63  C   UNL A   1      42.874  30.775  30.148  1.00  0.00     0.074 A 
ATOM     64  C   UNL A   1      41.767  31.702  30.262  1.00  0.00     0.031 C 
ATOM     65  C   UNL A   1      44.162  31.079  30.440  1.00  0.00     0.031 A 
BRANCH  52  66
ATOM     66  C   UNL A   1      48.130  26.428  29.599  1.00  0.00    -0.014 A 
ATOM     67  C   UNL A   1      48.632  25.893  30.796  1.00  0.00     0.009 A 
ATOM     68  C   UNL A   1      49.005  26.604  28.515  1.00  0.00     0.009 A 
ATOM     69  C   UNL A   1      49.982  25.556  30.912  1.00  0.00     0.001 A 
ATOM     70  C   UNL A   1      50.349  26.241  28.626  1.00  0.00     0.001 A 
ATOM     71  C   UNL A   1      50.838  25.726  29.826  1.00  0.00     0.000 A 
ENDBRANCH  52  66
BRANCH  53  72
ATOM     72  C   UNL A   1      38.567  29.224  29.040  1.00  0.00    -0.014 A 
ATOM     73  C   UNL A   1      38.085  29.714  27.814  1.00  0.00     0.009 A 
ATOM     74  C   UNL A   1      37.703  29.197  30.145  1.00  0.00     0.009 A 
ATOM     75  C   UNL A   1      36.781  30.199  27.707  1.00  0.00     0.001 A 
ATOM     76  C   UNL A   1      36.388  29.651  30.026  1.00  0.00     0.001 A 
ATOM     77  C   UNL A   1      35.932  30.163  28.810  1.00  0.00     0.000 A 
ENDBRANCH  53  72
BRANCH  65  78
ATOM     78  C   UNL A   1      44.449  32.470  30.932  1.00  0.00    -0.014 A 
ATOM     79  C   UNL A   1      44.463  32.741  32.309  1.00  0.00     0.009 A 
ATOM     80  C   UNL A   1      44.637  33.530  30.029  1.00  0.00     0.009 A 
ATOM     81  C   UNL A   1      44.652  34.044  32.773  1.00  0.00     0.001 A 
ATOM     82  C   UNL A   1      44.857  34.826  30.496  1.00  0.00     0.001 A 
ATOM     83  C   UNL A   1      44.856  35.083  31.868  1.00  0.00     0.000 A 
ENDBRANCH  65  78
ENDBRANCH  39  40
ENDBRANCH  31  34
ENDBRANCH  29  30
ENDBRANCH  28  29
ENDBRANCH   1  28
TORSDOF 15
ENDMDL
MODEL 3
REMARK VINA RESULT:     -11.3      3.687      8.649
REMARK SMILES CC(C)(C)c1cc2c(cc1Cl)C=C(C(=O)NCCCCCCNC(=O)c1ccc(-c3c4nc(c(-c5ccccc5)c5ccc([nH]5)c(-c5ccccc5)c5nc(c(-c6ccccc6)c6ccc3[nH]6)C=C5)C=C4)cc1)[C@H](C(F)(F)F)O2
REMARK SMILES IDX 20 1 19 2 18 3 17 4 16 5 14 6 15 7 13 9 5 10 6 11 10 12 7 13
REMARK SMILES IDX 9 14 11 15 8 16 79 17 12 18 74 19 2 20 1 21 3 22 4 23 75 24
REMARK SMILES IDX 76 25 77 26 78 27 21 28 22 29 23 30 24 31 25 33 26 34 27 35
REMARK SMILES IDX 73 36 28 37 72 38 29 39 30 40 31 41 66 42 32 43 71 44 65 45
REMARK SMILES IDX 67 46 33 47 70 48 64 49 63 50 34 52 56 53 41 54 55 55 42 56
REMARK SMILES IDX 45 57 54 58 68 59 43 60 44 61 53 63 69 64 46 65 35 66 36 67
REMARK SMILES IDX 40 68 37 69 39 70 38 71 57 72 58 73 62 74 59 75 61 76 60 77
REMARK SMILES IDX 47 78 48 79 52 80 49 81 51 82 50 83
REMARK H PARENT 16 8 23 32 67 51 45 62
REMARK Flexibility Score: inf
ROOT
ATOM      1  C   UNL A   1      35.212  22.757  26.717  1.00  0.00     0.002 C 
ENDROOT
BRANCH   1   2
ATOM      2  C   UNL A   1      33.896  21.977  26.820  1.00  0.00     0.002 C 
BRANCH   2   3
ATOM      3  C   UNL A   1      32.653  22.814  27.125  1.00  0.00     0.021 C 
BRANCH   3   4
ATOM      4  C   UNL A   1      31.671  22.940  25.963  1.00  0.00     0.116 C 
BRANCH   4   5
ATOM      5  N   UNL A   1      32.353  23.000  24.681  1.00  0.00    -0.352 N 
ATOM      6  C   UNL A   1      32.585  23.917  23.713  1.00  0.00     0.251 C 
ATOM      7  O   UNL A   1      33.260  23.510  22.762  1.00  0.00    -0.270 OA
ATOM      8  H   UNL A   1      32.759  22.132  24.454  1.00  0.00     0.163 HD
BRANCH   6   9
ATOM      9  C   UNL A   1      32.110  25.335  23.722  1.00  0.00     0.067 C 
ATOM     10  C   UNL A   1      29.276  29.557  23.407  1.00  0.00    -0.020 A 
ATOM     11  C   UNL A   1      30.652  29.253  23.469  1.00  0.00     0.053 A 
ATOM     12  C   UNL A   1      28.402  28.444  23.372  1.00  0.00     0.045 A 
ATOM     13  C   UNL A   1      31.125  27.942  23.523  1.00  0.00     0.128 A 
ATOM     14  C   UNL A   1      28.888  27.122  23.433  1.00  0.00     0.032 A 
ATOM     15  Cl  UNL A   1      26.687  28.564  23.188  1.00  0.00    -0.084 Cl
ATOM     16  C   UNL A   1      30.255  26.865  23.509  1.00  0.00     0.019 A 
ATOM     17  O   UNL A   1      32.479  27.803  23.534  1.00  0.00    -0.475 OA
ATOM     18  C   UNL A   1      30.791  25.511  23.510  1.00  0.00     0.025 C 
ATOM     19  C   UNL A   1      32.994  26.521  23.979  1.00  0.00     0.314 C 
BRANCH  10  20
ATOM     20  C   UNL A   1      28.845  31.042  23.320  1.00  0.00    -0.012 C 
ATOM     21  C   UNL A   1      27.378  31.283  23.787  1.00  0.00     0.016 C 
ATOM     22  C   UNL A   1      28.896  31.608  21.884  1.00  0.00     0.016 C 
ATOM     23  C   UNL A   1      29.745  31.873  24.256  1.00  0.00     0.016 C 
ENDBRANCH  10  20
BRANCH  19  24
ATOM     24  C   UNL A   1      33.428  26.643  25.448  1.00  0.00     0.429 C 
ATOM     25  F   UNL A   1      34.017  27.829  25.721  1.00  0.00    -0.167 F 
ATOM     26  F   UNL A   1      32.397  26.509  26.311  1.00  0.00    -0.167 F 
ATOM     27  F   UNL A   1      34.319  25.666  25.760  1.00  0.00    -0.167 F 
ENDBRANCH  19  24
ENDBRANCH   6   9
ENDBRANCH   4   5
ENDBRANCH   3   4
ENDBRANCH   2   3
ENDBRANCH   1   2
BRANCH   1  28
ATOM     28  C   UNL A   1      35.920  22.685  25.363  1.00  0.00     0.021 C 
BRANCH  28  29
ATOM     29  C   UNL A   1      37.235  23.450  25.283  1.00  0.00     0.116 C 
BRANCH  29  30
ATOM     30  N   UNL A   1      38.389  22.616  25.574  1.00  0.00    -0.352 N 
ATOM     31  C   UNL A   1      39.569  22.948  26.201  1.00  0.00     0.251 C 
ATOM     32  H   UNL A   1      38.316  21.678  25.283  1.00  0.00     0.163 HD
ATOM     33  O   UNL A   1      40.501  22.160  26.230  1.00  0.00    -0.269 OA
BRANCH  31  34
ATOM     34  C   UNL A   1      39.709  24.287  26.813  1.00  0.00     0.039 A 
ATOM     35  C   UNL A   1      40.344  25.318  26.121  1.00  0.00     0.014 A 
ATOM     36  C   UNL A   1      39.222  24.503  28.106  1.00  0.00     0.014 A 
ATOM     37  C   UNL A   1      40.648  26.501  26.781  1.00  0.00     0.010 A 
ATOM     38  C   UNL A   1      39.446  25.732  28.735  1.00  0.00     0.010 A 
ATOM     39  C   UNL A   1      40.203  26.725  28.096  1.00  0.00    -0.014 A 
BRANCH  39  40
ATOM     40  C   UNL A   1      40.532  28.017  28.751  1.00  0.00     0.031 A 
ATOM     41  C   UNL A   1      39.510  29.113  28.881  1.00  0.00     0.074 A 
ATOM     42  C   UNL A   1      41.748  28.163  29.313  1.00  0.00     0.049 A 
ATOM     43  N   UNL A   1      39.599  30.243  29.538  1.00  0.00    -0.248 NA
ATOM     44  C   UNL A   1      38.224  28.926  28.188  1.00  0.00     0.031 C 
ATOM     45  C   UNL A   1      42.824  27.171  29.252  1.00  0.00     0.029 A 
ATOM     46  N   UNL A   1      42.267  29.168  30.089  1.00  0.00    -0.354 N 
ATOM     47  C   UNL A   1      38.394  30.903  29.331  1.00  0.00     0.074 A 
ATOM     48  C   UNL A   1      37.600  30.065  28.459  1.00  0.00     0.031 C 
ATOM     49  C   UNL A   1      43.838  27.575  30.028  1.00  0.00     0.029 A 
ATOM     50  C   UNL A   1      43.515  28.883  30.590  1.00  0.00     0.049 A 
ATOM     51  H   UNL A   1      41.792  30.013  30.270  1.00  0.00     0.167 HD
ATOM     52  C   UNL A   1      37.983  32.092  29.831  1.00  0.00     0.031 A 
ATOM     53  C   UNL A   1      44.313  29.585  31.415  1.00  0.00     0.031 A 
ATOM     54  C   UNL A   1      38.772  32.923  30.704  1.00  0.00     0.049 A 
ATOM     55  C   UNL A   1      43.842  30.912  31.934  1.00  0.00     0.074 A 
ATOM     56  C   UNL A   1      38.426  34.132  31.281  1.00  0.00     0.029 A 
ATOM     57  N   UNL A   1      40.063  32.635  31.120  1.00  0.00    -0.354 N 
ATOM     58  N   UNL A   1      42.689  31.505  31.749  1.00  0.00    -0.248 NA
ATOM     59  C   UNL A   1      44.782  31.665  32.774  1.00  0.00     0.031 C 
ATOM     60  C   UNL A   1      39.528  34.605  31.998  1.00  0.00     0.029 A 
ATOM     61  C   UNL A   1      40.537  33.659  31.923  1.00  0.00     0.049 A 
ATOM     62  H   UNL A   1      40.566  31.823  30.882  1.00  0.00     0.167 HD
ATOM     63  C   UNL A   1      42.763  32.703  32.447  1.00  0.00     0.074 A 
ATOM     64  C   UNL A   1      44.062  32.733  33.089  1.00  0.00     0.031 C 
ATOM     65  C   UNL A   1      41.841  33.692  32.536  1.00  0.00     0.031 A 
BRANCH  52  66
ATOM     66  C   UNL A   1      36.614  32.587  29.448  1.00  0.00    -0.014 A 
ATOM     67  C   UNL A   1      36.459  33.405  28.317  1.00  0.00     0.009 A 
ATOM     68  C   UNL A   1      35.495  32.327  30.255  1.00  0.00     0.009 A 
ATOM     69  C   UNL A   1      35.216  33.964  28.010  1.00  0.00     0.001 A 
ATOM     70  C   UNL A   1      34.248  32.865  29.929  1.00  0.00     0.001 A 
ATOM     71  C   UNL A   1      34.112  33.689  28.813  1.00  0.00     0.000 A 
ENDBRANCH  52  66
BRANCH  53  72
ATOM     72  C   UNL A   1      45.632  29.023  31.805  1.00  0.00    -0.014 A 
ATOM     73  C   UNL A   1      45.761  28.250  32.972  1.00  0.00     0.009 A 
ATOM     74  C   UNL A   1      46.779  29.303  31.048  1.00  0.00     0.009 A 
ATOM     75  C   UNL A   1      47.014  27.799  33.390  1.00  0.00     0.001 A 
ATOM     76  C   UNL A   1      48.027  28.822  31.451  1.00  0.00     0.001 A 
ATOM     77  C   UNL A   1      48.144  28.081  32.627  1.00  0.00     0.000 A 
ENDBRANCH  53  72
BRANCH  65  78
ATOM     78  C   UNL A   1      42.205  34.906  33.344  1.00  0.00    -0.014 A 
ATOM     79  C   UNL A   1      41.695  35.066  34.643  1.00  0.00     0.009 A 
ATOM     80  C   UNL A   1      42.997  35.928  32.795  1.00  0.00     0.009 A 
ATOM     81  C   UNL A   1      41.964  36.225  35.371  1.00  0.00     0.001 A 
ATOM     82  C   UNL A   1      43.290  37.071  33.538  1.00  0.00     0.001 A 
ATOM     83  C   UNL A   1      42.766  37.223  34.822  1.00  0.00     0.000 A 
ENDBRANCH  65  78
ENDBRANCH  39  40
ENDBRANCH  31  34
ENDBRANCH  29  30
ENDBRANCH  28  29
ENDBRANCH   1  28
TORSDOF 15
ENDMDL
