MODEL 1
REMARK VINA RESULT:     -11.3      0.000      0.000
REMARK SMILES CC1=CC2=[NH+]C(=O)C[C@@](C)(C(=O)NCCCCCCNC(=O)c3ccc(-c4c5nc(c(-c6ccccc6)c6ccc([nH]6)c(-c6ccccc6)c6nc(c(-c7ccccc7)c7ccc4[nH]7)C=C6)C=C5)cc3)N2C=C1
REMARK SMILES IDX 17 1 16 2 15 3 14 4 13 5 11 6 12 7 9 9 1 10 2 11 3 12 73 13
REMARK SMILES IDX 4 14 72 15 5 16 71 17 6 18 7 20 8 21 10 22 18 23 19 24 20 25
REMARK SMILES IDX 21 26 22 28 23 29 24 30 70 31 25 32 69 33 26 34 27 35 28 36
REMARK SMILES IDX 63 37 29 38 68 39 62 40 64 41 30 42 67 43 61 44 60 45 31 47
REMARK SMILES IDX 53 48 38 49 52 50 39 51 42 52 51 53 65 54 40 55 41 56 50 58
REMARK SMILES IDX 66 59 43 60 32 61 33 62 37 63 34 64 36 65 35 66 54 67 55 68
REMARK SMILES IDX 59 69 56 70 58 71 57 72 44 73 45 74 49 75 46 76 48 77 47 78
REMARK H PARENT 13 8 5 19 20 27 64 46 42 57
REMARK Flexibility Score: inf
ROOT
ATOM      1  C   UNL A   1      36.148  20.561  25.002  1.00  0.00     0.002 C 
ENDROOT
BRANCH   1   2
ATOM      2  C   UNL A   1      35.779  21.969  24.538  1.00  0.00     0.002 C 
BRANCH   2   3
ATOM      3  C   UNL A   1      35.796  23.069  25.600  1.00  0.00     0.021 C 
BRANCH   3   4
ATOM      4  C   UNL A   1      35.029  24.357  25.296  1.00  0.00     0.116 C 
BRANCH   4   5
ATOM      5  N   UNL A   1      34.481  24.512  23.963  1.00  0.00    -0.352 N 
ATOM      6  C   UNL A   1      33.191  24.712  23.545  1.00  0.00     0.268 C 
ATOM      7  O   UNL A   1      33.072  25.396  22.522  1.00  0.00    -0.270 OA
ATOM      8  H   UNL A   1      35.145  24.464  23.237  1.00  0.00     0.163 HD
BRANCH   6   9
ATOM      9  C   UNL A   1      31.983  23.952  24.180  1.00  0.00     0.197 C 
ATOM     10  C   UNL A   1      32.663  18.178  23.859  1.00  0.00     0.045 C 
ATOM     11  C   UNL A   1      32.490  19.658  24.017  1.00  0.00    -0.039 C 
ATOM     12  C   UNL A   1      32.380  20.241  25.223  1.00  0.00     0.102 C 
ATOM     13  C   UNL A   1      32.435  20.461  22.806  1.00  0.00     0.047 C 
ATOM     14  C   UNL A   1      32.096  21.711  25.276  1.00  0.00     0.282 C 
ATOM     15  C   UNL A   1      32.331  21.796  22.892  1.00  0.00     0.202 C 
ATOM     16  N   UNL A   1      31.705  22.148  26.436  1.00  0.00    -0.210 N 
ATOM     17  N   UNL A   1      32.197  22.474  24.107  1.00  0.00    -0.219 N 
ATOM     18  C   UNL A   1      31.288  23.445  26.486  1.00  0.00     0.312 C 
ATOM     19  H   UNL A   1      31.710  21.573  27.235  1.00  0.00     0.315 HD
ATOM     20  O   UNL A   1      30.376  23.834  27.207  1.00  0.00    -0.247 OA
ATOM     21  C   UNL A   1      32.045  24.407  25.638  1.00  0.00     0.191 C 
ATOM     22  C   UNL A   1      30.619  24.216  23.527  1.00  0.00     0.074 C 
ENDBRANCH   6   9
ENDBRANCH   4   5
ENDBRANCH   3   4
ENDBRANCH   2   3
ENDBRANCH   1   2
BRANCH   1  23
ATOM     23  C   UNL A   1      37.550  20.077  24.630  1.00  0.00     0.021 C 
BRANCH  23  24
ATOM     24  C   UNL A   1      38.663  20.499  25.583  1.00  0.00     0.116 C 
BRANCH  24  25
ATOM     25  N   UNL A   1      39.706  19.494  25.698  1.00  0.00    -0.352 N 
ATOM     26  C   UNL A   1      41.023  19.639  26.067  1.00  0.00     0.251 C 
ATOM     27  H   UNL A   1      39.430  18.575  25.480  1.00  0.00     0.163 HD
ATOM     28  O   UNL A   1      41.809  18.707  25.924  1.00  0.00    -0.269 OA
BRANCH  26  29
ATOM     29  C   UNL A   1      41.505  20.925  26.618  1.00  0.00     0.039 A 
ATOM     30  C   UNL A   1      41.962  21.911  25.739  1.00  0.00     0.014 A 
ATOM     31  C   UNL A   1      41.526  21.154  27.996  1.00  0.00     0.014 A 
ATOM     32  C   UNL A   1      42.382  23.147  26.238  1.00  0.00     0.010 A 
ATOM     33  C   UNL A   1      41.872  22.411  28.486  1.00  0.00     0.010 A 
ATOM     34  C   UNL A   1      42.311  23.419  27.613  1.00  0.00    -0.014 A 
BRANCH  34  35
ATOM     35  C   UNL A   1      42.711  24.738  28.167  1.00  0.00     0.031 A 
ATOM     36  C   UNL A   1      41.675  25.810  28.377  1.00  0.00     0.074 A 
ATOM     37  C   UNL A   1      44.009  25.001  28.415  1.00  0.00     0.049 A 
ATOM     38  N   UNL A   1      41.836  27.053  28.756  1.00  0.00    -0.248 NA
ATOM     39  C   UNL A   1      40.277  25.444  28.099  1.00  0.00     0.031 C 
ATOM     40  C   UNL A   1      45.116  24.060  28.232  1.00  0.00     0.029 A 
ATOM     41  N   UNL A   1      44.618  26.146  28.866  1.00  0.00    -0.354 N 
ATOM     42  C   UNL A   1      40.567  27.619  28.740  1.00  0.00     0.074 A 
ATOM     43  C   UNL A   1      39.655  26.601  28.268  1.00  0.00     0.031 C 
ATOM     44  C   UNL A   1      46.264  24.661  28.587  1.00  0.00     0.029 A 
ATOM     45  C   UNL A   1      45.983  26.038  28.979  1.00  0.00     0.049 A 
ATOM     46  H   UNL A   1      44.122  26.968  29.087  1.00  0.00     0.167 HD
ATOM     47  C   UNL A   1      40.190  28.868  29.103  1.00  0.00     0.031 A 
ATOM     48  C   UNL A   1      46.906  26.946  29.345  1.00  0.00     0.031 A 
ATOM     49  C   UNL A   1      41.093  29.879  29.585  1.00  0.00     0.049 A 
ATOM     50  C   UNL A   1      46.465  28.335  29.720  1.00  0.00     0.074 A 
ATOM     51  C   UNL A   1      40.799  31.159  30.023  1.00  0.00     0.029 A 
ATOM     52  N   UNL A   1      42.466  29.724  29.692  1.00  0.00    -0.354 N 
ATOM     53  N   UNL A   1      45.254  28.838  29.750  1.00  0.00    -0.248 NA
ATOM     54  C   UNL A   1      47.519  29.278  30.121  1.00  0.00     0.031 C 
ATOM     55  C   UNL A   1      42.001  31.796  30.346  1.00  0.00     0.029 A 
ATOM     56  C   UNL A   1      43.036  30.891  30.169  1.00  0.00     0.049 A 
ATOM     57  H   UNL A   1      42.961  28.905  29.463  1.00  0.00     0.167 HD
ATOM     58  C   UNL A   1      45.397  30.141  30.209  1.00  0.00     0.074 A 
ATOM     59  C   UNL A   1      46.809  30.349  30.452  1.00  0.00     0.031 C 
ATOM     60  C   UNL A   1      44.442  31.081  30.414  1.00  0.00     0.031 A 
BRANCH  47  61
ATOM     61  C   UNL A   1      38.731  29.215  28.979  1.00  0.00    -0.014 A 
ATOM     62  C   UNL A   1      38.189  29.667  27.764  1.00  0.00     0.009 A 
ATOM     63  C   UNL A   1      37.879  29.054  30.082  1.00  0.00     0.009 A 
ATOM     64  C   UNL A   1      36.835  29.990  27.669  1.00  0.00     0.001 A 
ATOM     65  C   UNL A   1      36.518  29.347  29.976  1.00  0.00     0.001 A 
ATOM     66  C   UNL A   1      36.000  29.825  28.773  1.00  0.00     0.000 A 
ENDBRANCH  47  61
BRANCH  48  67
ATOM     67  C   UNL A   1      48.345  26.574  29.387  1.00  0.00    -0.014 A 
ATOM     68  C   UNL A   1      48.912  26.056  30.562  1.00  0.00     0.009 A 
ATOM     69  C   UNL A   1      49.162  26.745  28.259  1.00  0.00     0.009 A 
ATOM     70  C   UNL A   1      50.272  25.745  30.615  1.00  0.00     0.001 A 
ATOM     71  C   UNL A   1      50.516  26.404  28.306  1.00  0.00     0.001 A 
ATOM     72  C   UNL A   1      51.072  25.914  29.486  1.00  0.00     0.000 A 
ENDBRANCH  48  67
BRANCH  60  73
ATOM     73  C   UNL A   1      44.882  32.403  30.978  1.00  0.00    -0.014 A 
ATOM     74  C   UNL A   1      45.259  33.467  30.145  1.00  0.00     0.009 A 
ATOM     75  C   UNL A   1      44.866  32.600  32.368  1.00  0.00     0.009 A 
ATOM     76  C   UNL A   1      45.642  34.692  30.695  1.00  0.00     0.001 A 
ATOM     77  C   UNL A   1      45.219  33.834  32.914  1.00  0.00     0.001 A 
ATOM     78  C   UNL A   1      45.615  34.877  32.078  1.00  0.00     0.000 A 
ENDBRANCH  60  73
ENDBRANCH  34  35
ENDBRANCH  26  29
ENDBRANCH  24  25
ENDBRANCH  23  24
ENDBRANCH   1  23
TORSDOF 13
ENDMDL
MODEL 2
REMARK VINA RESULT:     -11.3      0.486      5.970
REMARK SMILES CC1=CC2=[NH+]C(=O)C[C@@](C)(C(=O)NCCCCCCNC(=O)c3ccc(-c4c5nc(c(-c6ccccc6)c6ccc([nH]6)c(-c6ccccc6)c6nc(c(-c7ccccc7)c7ccc4[nH]7)C=C6)C=C5)cc3)N2C=C1
REMARK SMILES IDX 17 1 16 2 15 3 14 4 13 5 11 6 12 7 9 9 1 10 2 11 3 12 73 13
REMARK SMILES IDX 4 14 72 15 5 16 71 17 6 18 7 20 8 21 10 22 18 23 19 24 20 25
REMARK SMILES IDX 21 26 22 28 23 29 24 30 70 31 25 32 69 33 26 34 27 35 28 36
REMARK SMILES IDX 63 37 29 38 68 39 62 40 64 41 30 42 67 43 61 44 60 45 31 47
REMARK SMILES IDX 53 48 38 49 52 50 39 51 42 52 51 53 65 54 40 55 41 56 50 58
REMARK SMILES IDX 66 59 43 60 32 61 33 62 37 63 34 64 36 65 35 66 54 67 55 68
REMARK SMILES IDX 59 69 56 70 58 71 57 72 44 73 45 74 49 75 46 76 48 77 47 78
REMARK H PARENT 13 8 5 19 20 27 64 46 42 57
REMARK Flexibility Score: inf
ROOT
ATOM      1  C   UNL A   1      36.394  20.022  24.999  1.00  0.00     0.002 C 
ENDROOT
BRANCH   1   2
ATOM      2  C   UNL A   1      36.175  21.492  25.353  1.00  0.00     0.002 C 
BRANCH   2   3
ATOM      3  C   UNL A   1      36.087  22.475  24.184  1.00  0.00     0.021 C 
BRANCH   3   4
ATOM      4  C   UNL A   1      35.419  23.826  24.444  1.00  0.00     0.116 C 
BRANCH   4   5
ATOM      5  N   UNL A   1      34.522  24.336  23.426  1.00  0.00    -0.352 N 
ATOM      6  C   UNL A   1      33.205  24.710  23.502  1.00  0.00     0.268 C 
ATOM      7  O   UNL A   1      32.878  25.632  22.745  1.00  0.00    -0.270 OA
ATOM      8  H   UNL A   1      34.924  24.430  22.533  1.00  0.00     0.163 HD
BRANCH   6   9
ATOM      9  C   UNL A   1      32.152  23.891  24.315  1.00  0.00     0.197 C 
ATOM     10  C   UNL A   1      32.550  18.187  23.214  1.00  0.00     0.045 C 
ATOM     11  C   UNL A   1      32.467  19.640  23.569  1.00  0.00    -0.039 C 
ATOM     12  C   UNL A   1      32.659  20.083  24.824  1.00  0.00     0.102 C 
ATOM     13  C   UNL A   1      32.159  20.577  22.500  1.00  0.00     0.047 C 
ATOM     14  C   UNL A   1      32.443  21.539  25.102  1.00  0.00     0.282 C 
ATOM     15  C   UNL A   1      32.122  21.893  22.754  1.00  0.00     0.202 C 
ATOM     16  N   UNL A   1      32.346  21.843  26.362  1.00  0.00    -0.210 N 
ATOM     17  N   UNL A   1      32.295  22.429  24.032  1.00  0.00    -0.219 N 
ATOM     18  C   UNL A   1      31.995  23.129  26.650  1.00  0.00     0.312 C 
ATOM     19  H   UNL A   1      32.516  21.181  27.070  1.00  0.00     0.315 HD
ATOM     20  O   UNL A   1      31.288  23.439  27.602  1.00  0.00    -0.247 OA
ATOM     21  C   UNL A   1      32.566  24.176  25.759  1.00  0.00     0.191 C 
ATOM     22  C   UNL A   1      30.684  24.236  24.032  1.00  0.00     0.074 C 
ENDBRANCH   6   9
ENDBRANCH   4   5
ENDBRANCH   3   4
ENDBRANCH   2   3
ENDBRANCH   1   2
BRANCH   1  23
ATOM     23  C   UNL A   1      37.836  19.609  24.707  1.00  0.00     0.021 C 
BRANCH  23  24
ATOM     24  C   UNL A   1      38.872  20.089  25.718  1.00  0.00     0.116 C 
BRANCH  24  25
ATOM     25  N   UNL A   1      40.008  19.188  25.820  1.00  0.00    -0.352 N 
ATOM     26  C   UNL A   1      41.318  19.465  26.130  1.00  0.00     0.251 C 
ATOM     27  H   UNL A   1      39.810  18.241  25.641  1.00  0.00     0.163 HD
ATOM     28  O   UNL A   1      42.181  18.605  25.984  1.00  0.00    -0.269 OA
BRANCH  26  29
ATOM     29  C   UNL A   1      41.700  20.808  26.623  1.00  0.00     0.039 A 
ATOM     30  C   UNL A   1      42.182  21.753  25.713  1.00  0.00     0.014 A 
ATOM     31  C   UNL A   1      41.602  21.130  27.979  1.00  0.00     0.014 A 
ATOM     32  C   UNL A   1      42.508  23.039  26.153  1.00  0.00     0.010 A 
ATOM     33  C   UNL A   1      41.853  22.434  28.403  1.00  0.00     0.010 A 
ATOM     34  C   UNL A   1      42.316  23.399  27.496  1.00  0.00    -0.014 A 
BRANCH  34  35
ATOM     35  C   UNL A   1      42.614  24.771  27.983  1.00  0.00     0.031 A 
ATOM     36  C   UNL A   1      44.016  25.136  28.391  1.00  0.00     0.074 A 
ATOM     37  C   UNL A   1      41.617  25.667  28.126  1.00  0.00     0.049 A 
ATOM     38  N   UNL A   1      44.458  26.244  28.931  1.00  0.00    -0.248 NA
ATOM     39  C   UNL A   1      45.052  24.111  28.192  1.00  0.00     0.031 C 
ATOM     40  C   UNL A   1      40.212  25.435  27.790  1.00  0.00     0.029 A 
ATOM     41  N   UNL A   1      41.637  26.955  28.603  1.00  0.00    -0.354 N 
ATOM     42  C   UNL A   1      45.815  26.039  29.153  1.00  0.00     0.074 A 
ATOM     43  C   UNL A   1      46.113  24.687  28.737  1.00  0.00     0.031 C 
ATOM     44  C   UNL A   1      39.509  26.550  28.053  1.00  0.00     0.029 A 
ATOM     45  C   UNL A   1      40.402  27.557  28.615  1.00  0.00     0.049 A 
ATOM     46  H   UNL A   1      42.459  27.404  28.907  1.00  0.00     0.167 HD
ATOM     47  C   UNL A   1      46.735  26.904  29.643  1.00  0.00     0.031 A 
ATOM     48  C   UNL A   1      40.028  28.778  29.041  1.00  0.00     0.031 A 
ATOM     49  C   UNL A   1      46.444  28.254  30.045  1.00  0.00     0.049 A 
ATOM     50  C   UNL A   1      41.064  29.712  29.604  1.00  0.00     0.074 A 
ATOM     51  C   UNL A   1      47.318  29.222  30.508  1.00  0.00     0.029 A 
ATOM     52  N   UNL A   1      45.182  28.826  30.032  1.00  0.00    -0.354 N 
ATOM     53  N   UNL A   1      42.353  29.521  29.758  1.00  0.00    -0.248 NA
ATOM     54  C   UNL A   1      40.595  31.035  30.042  1.00  0.00     0.031 C 
ATOM     55  C   UNL A   1      46.576  30.364  30.825  1.00  0.00     0.029 A 
ATOM     56  C   UNL A   1      45.249  30.127  30.500  1.00  0.00     0.049 A 
ATOM     57  H   UNL A   1      44.360  28.374  29.735  1.00  0.00     0.167 HD
ATOM     58  C   UNL A   1      42.853  30.710  30.274  1.00  0.00     0.074 A 
ATOM     59  C   UNL A   1      41.732  31.618  30.399  1.00  0.00     0.031 C 
ATOM     60  C   UNL A   1      44.128  31.023  30.611  1.00  0.00     0.031 A 
BRANCH  47  61
ATOM     61  C   UNL A   1      48.148  26.406  29.781  1.00  0.00    -0.014 A 
ATOM     62  C   UNL A   1      49.076  26.545  28.735  1.00  0.00     0.009 A 
ATOM     63  C   UNL A   1      48.567  25.819  30.986  1.00  0.00     0.009 A 
ATOM     64  C   UNL A   1      50.381  26.071  28.879  1.00  0.00     0.001 A 
ATOM     65  C   UNL A   1      49.882  25.376  31.138  1.00  0.00     0.001 A 
ATOM     66  C   UNL A   1      50.784  25.492  30.081  1.00  0.00     0.000 A 
ENDBRANCH  47  61
BRANCH  48  67
ATOM     67  C   UNL A   1      38.605  29.199  28.946  1.00  0.00    -0.014 A 
ATOM     68  C   UNL A   1      37.756  29.097  30.059  1.00  0.00     0.009 A 
ATOM     69  C   UNL A   1      38.084  29.692  27.739  1.00  0.00     0.009 A 
ATOM     70  C   UNL A   1      36.410  29.453  29.958  1.00  0.00     0.001 A 
ATOM     71  C   UNL A   1      36.744  30.076  27.651  1.00  0.00     0.001 A 
ATOM     72  C   UNL A   1      35.905  29.947  28.756  1.00  0.00     0.000 A 
ENDBRANCH  48  67
BRANCH  60  73
ATOM     73  C   UNL A   1      44.393  32.420  31.096  1.00  0.00    -0.014 A 
ATOM     74  C   UNL A   1      44.686  33.463  30.205  1.00  0.00     0.009 A 
ATOM     75  C   UNL A   1      44.292  32.704  32.468  1.00  0.00     0.009 A 
ATOM     76  C   UNL A   1      44.904  34.757  30.682  1.00  0.00     0.001 A 
ATOM     77  C   UNL A   1      44.482  34.004  32.939  1.00  0.00     0.001 A 
ATOM     78  C   UNL A   1      44.796  35.028  32.047  1.00  0.00     0.000 A 
ENDBRANCH  60  73
ENDBRANCH  34  35
ENDBRANCH  26  29
ENDBRANCH  24  25
ENDBRANCH  23  24
ENDBRANCH   1  23
TORSDOF 13
ENDMDL
MODEL 3
REMARK VINA RESULT:     -11.2      4.469      9.368
REMARK SMILES CC1=CC2=[NH+]C(=O)C[C@@](C)(C(=O)NCCCCCCNC(=O)c3ccc(-c4c5nc(c(-c6ccccc6)c6ccc([nH]6)c(-c6ccccc6)c6nc(c(-c7ccccc7)c7ccc4[nH]7)C=C6)C=C5)cc3)N2C=C1
REMARK SMILES IDX 17 1 16 2 15 3 14 4 13 5 11 6 12 7 9 9 1 10 2 11 3 12 73 13
REMARK SMILES IDX 4 14 72 15 5 16 71 17 6 18 7 20 8 21 10 22 18 23 19 24 20 25
REMARK SMILES IDX 21 26 22 28 23 29 24 30 70 31 25 32 69 33 26 34 27 35 28 36
REMARK SMILES IDX 63 37 29 38 68 39 62 40 64 41 30 42 67 43 61 44 60 45 31 47
REMARK SMILES IDX 53 48 38 49 52 50 39 51 42 52 51 53 65 54 40 55 41 56 50 58
REMARK SMILES IDX 66 59 43 60 32 61 33 62 37 63 34 64 36 65 35 66 54 67 55 68
REMARK SMILES IDX 59 69 56 70 58 71 57 72 44 73 45 74 49 75 46 76 48 77 47 78
REMARK H PARENT 13 8 5 19 20 27 64 46 42 57
REMARK Flexibility Score: inf
ROOT
ATOM      1  C   UNL A   1      31.182  30.631  25.493  1.00  0.00     0.002 C 
ENDROOT
BRANCH   1   2
ATOM      2  C   UNL A   1      32.234  29.671  26.046  1.00  0.00     0.002 C 
BRANCH   2   3
ATOM      3  C   UNL A   1      31.720  28.476  26.850  1.00  0.00     0.021 C 
BRANCH   3   4
ATOM      4  C   UNL A   1      32.282  27.096  26.506  1.00  0.00     0.116 C 
BRANCH   4   5
ATOM      5  N   UNL A   1      31.353  25.983  26.473  1.00  0.00    -0.352 N 
ATOM      6  C   UNL A   1      31.191  24.982  25.551  1.00  0.00     0.268 C 
ATOM      7  O   UNL A   1      30.823  23.897  26.016  1.00  0.00    -0.270 OA
ATOM      8  H   UNL A   1      30.737  25.939  27.239  1.00  0.00     0.163 HD
BRANCH   6   9
ATOM      9  C   UNL A   1      31.250  25.248  24.013  1.00  0.00     0.197 C 
ATOM     10  C   UNL A   1      28.094  29.906  22.513  1.00  0.00     0.045 C 
ATOM     11  C   UNL A   1      28.968  28.744  22.875  1.00  0.00    -0.039 C 
ATOM     12  C   UNL A   1      30.290  28.738  22.629  1.00  0.00     0.102 C 
ATOM     13  C   UNL A   1      28.334  27.596  23.506  1.00  0.00     0.047 C 
ATOM     14  C   UNL A   1      31.060  27.486  22.923  1.00  0.00     0.282 C 
ATOM     15  C   UNL A   1      29.078  26.551  23.895  1.00  0.00     0.202 C 
ATOM     16  N   UNL A   1      32.244  27.439  22.390  1.00  0.00    -0.210 N 
ATOM     17  N   UNL A   1      30.453  26.463  23.661  1.00  0.00    -0.219 N 
ATOM     18  C   UNL A   1      32.913  26.256  22.504  1.00  0.00     0.312 C 
ATOM     19  H   UNL A   1      32.637  28.215  21.930  1.00  0.00     0.315 HD
ATOM     20  O   UNL A   1      33.654  25.813  21.634  1.00  0.00    -0.247 OA
ATOM     21  C   UNL A   1      32.737  25.529  23.791  1.00  0.00     0.191 C 
ATOM     22  C   UNL A   1      30.713  24.117  23.125  1.00  0.00     0.074 C 
ENDBRANCH   6   9
ENDBRANCH   4   5
ENDBRANCH   3   4
ENDBRANCH   2   3
ENDBRANCH   1   2
BRANCH   1  23
ATOM     23  C   UNL A   1      31.038  31.964  26.226  1.00  0.00     0.021 C 
BRANCH  23  24
ATOM     24  C   UNL A   1      32.293  32.462  26.934  1.00  0.00     0.116 C 
BRANCH  24  25
ATOM     25  N   UNL A   1      32.168  33.838  27.385  1.00  0.00    -0.352 N 
ATOM     26  C   UNL A   1      32.895  34.516  28.333  1.00  0.00     0.251 C 
ATOM     27  H   UNL A   1      31.458  34.361  26.947  1.00  0.00     0.163 HD
ATOM     28  O   UNL A   1      32.525  35.620  28.721  1.00  0.00    -0.269 OA
BRANCH  26  29
ATOM     29  C   UNL A   1      34.117  33.911  28.909  1.00  0.00     0.039 A 
ATOM     30  C   UNL A   1      35.367  34.335  28.446  1.00  0.00     0.014 A 
ATOM     31  C   UNL A   1      34.036  32.917  29.887  1.00  0.00     0.014 A 
ATOM     32  C   UNL A   1      36.532  33.807  29.007  1.00  0.00     0.010 A 
ATOM     33  C   UNL A   1      35.196  32.447  30.498  1.00  0.00     0.010 A 
ATOM     34  C   UNL A   1      36.457  32.881  30.060  1.00  0.00    -0.014 A 
BRANCH  34  35
ATOM     35  C   UNL A   1      37.679  32.334  30.704  1.00  0.00     0.031 A 
ATOM     36  C   UNL A   1      38.360  31.126  30.118  1.00  0.00     0.074 A 
ATOM     37  C   UNL A   1      38.137  32.874  31.850  1.00  0.00     0.049 A 
ATOM     38  N   UNL A   1      39.376  30.442  30.584  1.00  0.00    -0.248 NA
ATOM     39  C   UNL A   1      37.811  30.602  28.858  1.00  0.00     0.031 C 
ATOM     40  C   UNL A   1      37.557  34.030  32.536  1.00  0.00     0.029 A 
ATOM     41  N   UNL A   1      39.195  32.512  32.647  1.00  0.00    -0.354 N 
ATOM     42  C   UNL A   1      39.570  29.399  29.687  1.00  0.00     0.074 A 
ATOM     43  C   UNL A   1      38.540  29.510  28.678  1.00  0.00     0.031 C 
ATOM     44  C   UNL A   1      38.279  34.293  33.638  1.00  0.00     0.029 A 
ATOM     45  C   UNL A   1      39.342  33.302  33.762  1.00  0.00     0.049 A 
ATOM     46  H   UNL A   1      39.792  31.757  32.439  1.00  0.00     0.167 HD
ATOM     47  C   UNL A   1      40.530  28.444  29.690  1.00  0.00     0.031 A 
ATOM     48  C   UNL A   1      40.225  33.230  34.776  1.00  0.00     0.031 A 
ATOM     49  C   UNL A   1      41.564  28.339  30.685  1.00  0.00     0.049 A 
ATOM     50  C   UNL A   1      41.267  32.146  34.769  1.00  0.00     0.074 A 
ATOM     51  C   UNL A   1      42.611  27.435  30.748  1.00  0.00     0.029 A 
ATOM     52  N   UNL A   1      41.681  29.165  31.791  1.00  0.00    -0.354 N 
ATOM     53  N   UNL A   1      41.470  31.199  33.885  1.00  0.00    -0.248 NA
ATOM     54  C   UNL A   1      42.210  32.127  35.898  1.00  0.00     0.031 C 
ATOM     55  C   UNL A   1      43.331  27.683  31.920  1.00  0.00     0.029 A 
ATOM     56  C   UNL A   1      42.770  28.780  32.555  1.00  0.00     0.049 A 
ATOM     57  H   UNL A   1      41.079  29.915  32.003  1.00  0.00     0.167 HD
ATOM     58  C   UNL A   1      42.583  30.497  34.330  1.00  0.00     0.074 A 
ATOM     59  C   UNL A   1      43.017  31.132  35.557  1.00  0.00     0.031 C 
ATOM     60  C   UNL A   1      43.195  29.425  33.769  1.00  0.00     0.031 A 
BRANCH  47  61
ATOM     61  C   UNL A   1      40.498  27.426  28.583  1.00  0.00    -0.014 A 
ATOM     62  C   UNL A   1      39.759  26.237  28.707  1.00  0.00     0.009 A 
ATOM     63  C   UNL A   1      41.189  27.673  27.387  1.00  0.00     0.009 A 
ATOM     64  C   UNL A   1      39.747  25.301  27.672  1.00  0.00     0.001 A 
ATOM     65  C   UNL A   1      41.148  26.749  26.341  1.00  0.00     0.001 A 
ATOM     66  C   UNL A   1      40.436  25.559  26.489  1.00  0.00     0.000 A 
ENDBRANCH  47  61
BRANCH  48  67
ATOM     67  C   UNL A   1      40.173  34.221  35.882  1.00  0.00    -0.014 A 
ATOM     68  C   UNL A   1      39.416  33.961  37.036  1.00  0.00     0.009 A 
ATOM     69  C   UNL A   1      40.868  35.437  35.788  1.00  0.00     0.009 A 
ATOM     70  C   UNL A   1      39.334  34.909  38.058  1.00  0.00     0.001 A 
ATOM     71  C   UNL A   1      40.808  36.370  36.826  1.00  0.00     0.001 A 
ATOM     72  C   UNL A   1      40.033  36.111  37.955  1.00  0.00     0.000 A 
ENDBRANCH  48  67
BRANCH  60  73
ATOM     73  C   UNL A   1      44.430  28.900  34.445  1.00  0.00    -0.014 A 
ATOM     74  C   UNL A   1      45.702  29.413  34.150  1.00  0.00     0.009 A 
ATOM     75  C   UNL A   1      44.307  27.913  35.435  1.00  0.00     0.009 A 
ATOM     76  C   UNL A   1      46.831  28.923  34.811  1.00  0.00     0.001 A 
ATOM     77  C   UNL A   1      45.432  27.446  36.116  1.00  0.00     0.001 A 
ATOM     78  C   UNL A   1      46.694  27.945  35.797  1.00  0.00     0.000 A 
ENDBRANCH  60  73
ENDBRANCH  34  35
ENDBRANCH  26  29
ENDBRANCH  24  25
ENDBRANCH  23  24
ENDBRANCH   1  23
TORSDOF 13
ENDMDL
