MODEL 1
REMARK VINA RESULT:     -11.3      0.000      0.000
REMARK SMILES O=C(CCn1cc(/C=C\C(=O)c2ccc(F)cc2)c(-c2cccc(Cl)c2)n1)NCCCCCCNC(=O)c1ccc(-c2c3nc(c(-c4ccccc4)c4ccc([nH]4)c(-c4ccccc4)c4nc(c(-c5ccccc5)c5ccc2[nH]5)C=C4)C=C3)cc1
REMARK SMILES IDX 30 1 29 2 28 3 1 4 2 5 3 7 4 8 5 9 6 10 27 11 7 12 19 13
REMARK SMILES IDX 8 14 9 15 10 16 11 17 12 18 13 19 18 20 14 21 17 22 15 23
REMARK SMILES IDX 16 24 20 25 21 26 26 27 22 28 24 29 23 30 25 31 31 32 32 33
REMARK SMILES IDX 33 34 34 35 35 36 36 37 37 39 38 40 39 41 85 42 40 43 84 44
REMARK SMILES IDX 41 45 42 46 43 47 78 48 44 49 83 50 77 51 79 52 45 53 82 54
REMARK SMILES IDX 76 55 75 56 46 58 68 59 53 60 67 61 54 62 57 63 66 64 80 65
REMARK SMILES IDX 55 66 56 67 65 69 81 70 58 71 47 72 48 73 52 74 49 75 51 76
REMARK SMILES IDX 50 77 69 78 70 79 74 80 71 81 73 82 72 83 59 84 60 85 64 86
REMARK SMILES IDX 61 87 63 88 62 89
REMARK H PARENT 28 6 35 38 79 57 57 68
REMARK Flexibility Score: inf
ROOT
ATOM      1  C   UNL A   1      34.920  32.573  30.441  1.00  0.00     0.021 C 
ENDROOT
BRANCH   1   2
ATOM      2  C   UNL A   1      35.699  32.560  29.115  1.00  0.00     0.116 C 
BRANCH   2   3
ATOM      3  N   UNL A   1      35.315  31.490  28.206  1.00  0.00    -0.356 N 
ATOM      4  O   UNL A   1      36.544  29.808  29.163  1.00  0.00    -0.275 OA
ATOM      5  C   UNL A   1      35.698  30.174  28.349  1.00  0.00     0.221 C 
ATOM      6  H   UNL A   1      34.744  31.720  27.438  1.00  0.00     0.163 HD
BRANCH   5   7
ATOM      7  C   UNL A   1      35.000  29.165  27.435  1.00  0.00     0.123 C 
BRANCH   7   8
ATOM      8  C   UNL A   1      33.680  29.689  26.826  1.00  0.00     0.154 C 
BRANCH   8   9
ATOM      9  N   UNL A   1      33.246  28.954  25.647  1.00  0.00    -0.271 N 
ATOM     10  C   UNL A   1      33.941  28.550  24.534  1.00  0.00     0.117 A 
ATOM     11  N   UNL A   1      31.949  28.664  25.574  1.00  0.00    -0.172 NA
ATOM     12  C   UNL A   1      32.996  28.051  23.646  1.00  0.00     0.021 A 
ATOM     13  C   UNL A   1      31.762  28.276  24.326  1.00  0.00     0.100 A 
BRANCH  12  14
ATOM     14  C   UNL A   1      33.248  27.445  22.355  1.00  0.00     0.016 C 
ATOM     15  C   UNL A   1      33.384  26.156  21.944  1.00  0.00     0.053 C 
BRANCH  15  16
ATOM     16  C   UNL A   1      33.310  24.743  22.559  1.00  0.00     0.185 C 
ATOM     17  O   UNL A   1      33.646  23.775  21.888  1.00  0.00    -0.289 OA
BRANCH  16  18
ATOM     18  C   UNL A   1      32.717  24.578  23.982  1.00  0.00     0.022 A 
ATOM     19  C   UNL A   1      34.263  24.463  24.933  1.00  0.00     0.015 A 
ATOM     20  C   UNL A   1      31.043  23.825  24.867  1.00  0.00     0.015 A 
ATOM     21  C   UNL A   1      34.250  23.637  26.489  1.00  0.00     0.040 A 
ATOM     22  C   UNL A   1      31.207  23.039  26.480  1.00  0.00     0.040 A 
ATOM     23  C   UNL A   1      32.789  22.951  27.201  1.00  0.00     0.123 A 
ATOM     24  F   UNL A   1      32.914  22.289  28.362  1.00  0.00    -0.207 F 
ENDBRANCH  16  18
ENDBRANCH  15  16
ENDBRANCH  12  14
BRANCH  13  25
ATOM     25  C   UNL A   1      30.404  27.959  23.816  1.00  0.00     0.004 A 
ATOM     26  C   UNL A   1      28.961  26.559  24.114  1.00  0.00     0.010 A 
ATOM     27  C   UNL A   1      29.843  29.602  23.276  1.00  0.00     0.031 A 
ATOM     28  C   UNL A   1      27.249  27.036  23.879  1.00  0.00     0.002 A 
ATOM     29  C   UNL A   1      28.130  29.903  23.121  1.00  0.00     0.041 A 
ATOM     30  C   UNL A   1      26.901  28.680  23.407  1.00  0.00     0.020 A 
ATOM     31  Cl  UNL A   1      27.650  31.535  22.839  1.00  0.00    -0.084 Cl
ENDBRANCH  13  25
ENDBRANCH   8   9
ENDBRANCH   7   8
ENDBRANCH   5   7
ENDBRANCH   2   3
ENDBRANCH   1   2
BRANCH   1  32
ATOM     32  C   UNL A   1      34.424  33.956  30.868  1.00  0.00     0.002 C 
BRANCH  32  33
ATOM     33  C   UNL A   1      35.128  34.681  32.021  1.00  0.00     0.002 C 
BRANCH  33  34
ATOM     34  C   UNL A   1      36.116  33.902  32.883  1.00  0.00     0.021 C 
BRANCH  34  35
ATOM     35  C   UNL A   1      37.581  34.296  32.708  1.00  0.00     0.116 C 
BRANCH  35  36
ATOM     36  N   UNL A   1      38.003  34.675  31.349  1.00  0.00    -0.352 N 
ATOM     37  C   UNL A   1      38.975  34.057  30.556  1.00  0.00     0.251 C 
ATOM     38  H   UNL A   1      37.547  35.452  30.952  1.00  0.00     0.163 HD
ATOM     39  O   UNL A   1      39.435  34.546  29.535  1.00  0.00    -0.269 OA
BRANCH  37  40
ATOM     40  C   UNL A   1      39.338  32.686  30.918  1.00  0.00     0.039 A 
ATOM     41  C   UNL A   1      38.469  31.639  31.240  1.00  0.00     0.014 A 
ATOM     42  C   UNL A   1      40.691  32.458  30.825  1.00  0.00     0.014 A 
ATOM     43  C   UNL A   1      39.034  30.363  31.371  1.00  0.00     0.010 A 
ATOM     44  C   UNL A   1      40.991  31.240  30.343  1.00  0.00     0.010 A 
ATOM     45  C   UNL A   1      40.369  30.200  30.978  1.00  0.00    -0.014 A 
BRANCH  45  46
ATOM     46  C   UNL A   1      41.077  28.967  30.711  1.00  0.00     0.031 A 
ATOM     47  C   UNL A   1      41.569  28.374  31.980  1.00  0.00     0.074 A 
ATOM     48  C   UNL A   1      40.997  28.353  29.501  1.00  0.00     0.049 A 
ATOM     49  N   UNL A   1      42.723  28.633  32.496  1.00  0.00    -0.248 NA
ATOM     50  C   UNL A   1      40.637  27.749  32.947  1.00  0.00     0.031 C 
ATOM     51  C   UNL A   1      40.290  28.730  28.264  1.00  0.00     0.029 A 
ATOM     52  N   UNL A   1      41.565  27.175  29.133  1.00  0.00    -0.354 N 
ATOM     53  C   UNL A   1      42.781  27.887  33.659  1.00  0.00     0.074 A 
ATOM     54  C   UNL A   1      41.414  27.645  34.032  1.00  0.00     0.031 C 
ATOM     55  C   UNL A   1      40.294  27.693  27.382  1.00  0.00     0.029 A 
ATOM     56  C   UNL A   1      41.137  26.640  27.911  1.00  0.00     0.049 A 
ATOM     57  H   UNL A   1      42.240  26.724  29.693  1.00  0.00     0.167 HD
ATOM     58  C   UNL A   1      43.922  27.206  33.955  1.00  0.00     0.031 A 
ATOM     59  C   UNL A   1      41.516  25.427  27.408  1.00  0.00     0.031 A 
ATOM     60  C   UNL A   1      44.995  27.624  33.075  1.00  0.00     0.049 A 
ATOM     61  C   UNL A   1      42.795  25.083  28.098  1.00  0.00     0.074 A 
ATOM     62  C   UNL A   1      45.601  28.835  32.799  1.00  0.00     0.029 A 
ATOM     63  N   UNL A   1      45.196  26.830  31.966  1.00  0.00    -0.354 N 
ATOM     64  N   UNL A   1      43.880  25.792  27.921  1.00  0.00    -0.248 NA
ATOM     65  C   UNL A   1      42.680  24.414  29.390  1.00  0.00     0.031 C 
ATOM     66  C   UNL A   1      45.705  28.874  31.375  1.00  0.00     0.029 A 
ATOM     67  C   UNL A   1      45.313  27.636  30.861  1.00  0.00     0.049 A 
ATOM     68  H   UNL A   1      45.248  25.847  31.967  1.00  0.00     0.167 HD
ATOM     69  C   UNL A   1      44.355  26.036  29.203  1.00  0.00     0.074 A 
ATOM     70  C   UNL A   1      43.573  25.143  30.073  1.00  0.00     0.031 C 
ATOM     71  C   UNL A   1      45.041  27.180  29.513  1.00  0.00     0.031 A 
BRANCH  58  72
ATOM     72  C   UNL A   1      43.944  25.855  34.619  1.00  0.00    -0.014 A 
ATOM     73  C   UNL A   1      44.864  25.651  35.661  1.00  0.00     0.009 A 
ATOM     74  C   UNL A   1      43.322  24.708  34.087  1.00  0.00     0.009 A 
ATOM     75  C   UNL A   1      45.203  24.364  36.090  1.00  0.00     0.001 A 
ATOM     76  C   UNL A   1      43.635  23.424  34.535  1.00  0.00     0.001 A 
ATOM     77  C   UNL A   1      44.595  23.251  35.520  1.00  0.00     0.000 A 
ENDBRANCH  58  72
BRANCH  59  78
ATOM     78  C   UNL A   1      40.670  24.383  26.754  1.00  0.00    -0.014 A 
ATOM     79  C   UNL A   1      41.116  23.059  26.564  1.00  0.00     0.009 A 
ATOM     80  C   UNL A   1      39.294  24.619  26.582  1.00  0.00     0.009 A 
ATOM     81  C   UNL A   1      40.217  22.020  26.243  1.00  0.00     0.001 A 
ATOM     82  C   UNL A   1      38.398  23.584  26.275  1.00  0.00     0.001 A 
ATOM     83  C   UNL A   1      38.856  22.282  26.115  1.00  0.00     0.000 A 
ENDBRANCH  59  78
BRANCH  71  84
ATOM     84  C   UNL A   1      45.433  28.124  28.394  1.00  0.00    -0.014 A 
ATOM     85  C   UNL A   1      46.506  27.924  27.499  1.00  0.00     0.009 A 
ATOM     86  C   UNL A   1      44.554  29.182  28.131  1.00  0.00     0.009 A 
ATOM     87  C   UNL A   1      46.702  28.787  26.408  1.00  0.00     0.001 A 
ATOM     88  C   UNL A   1      44.737  30.028  27.035  1.00  0.00     0.001 A 
ATOM     89  C   UNL A   1      45.817  29.838  26.179  1.00  0.00     0.000 A 
ENDBRANCH  71  84
ENDBRANCH  45  46
ENDBRANCH  37  40
ENDBRANCH  35  36
ENDBRANCH  34  35
ENDBRANCH  33  34
ENDBRANCH  32  33
ENDBRANCH   1  32
TORSDOF 19
ENDMDL
MODEL 2
REMARK VINA RESULT:     -11.0      3.016      7.568
REMARK SMILES O=C(CCn1cc(/C=C\C(=O)c2ccc(F)cc2)c(-c2cccc(Cl)c2)n1)NCCCCCCNC(=O)c1ccc(-c2c3nc(c(-c4ccccc4)c4ccc([nH]4)c(-c4ccccc4)c4nc(c(-c5ccccc5)c5ccc2[nH]5)C=C4)C=C3)cc1
REMARK SMILES IDX 30 1 29 2 28 3 1 4 2 5 3 7 4 8 5 9 6 10 27 11 7 12 19 13
REMARK SMILES IDX 8 14 9 15 10 16 11 17 12 18 13 19 18 20 14 21 17 22 15 23
REMARK SMILES IDX 16 24 20 25 21 26 26 27 22 28 24 29 23 30 25 31 31 32 32 33
REMARK SMILES IDX 33 34 34 35 35 36 36 37 37 39 38 40 39 41 85 42 40 43 84 44
REMARK SMILES IDX 41 45 42 46 43 47 78 48 44 49 83 50 77 51 79 52 45 53 82 54
REMARK SMILES IDX 76 55 75 56 46 58 68 59 53 60 67 61 54 62 57 63 66 64 80 65
REMARK SMILES IDX 55 66 56 67 65 69 81 70 58 71 47 72 48 73 52 74 49 75 51 76
REMARK SMILES IDX 50 77 69 78 70 79 74 80 71 81 73 82 72 83 59 84 60 85 64 86
REMARK SMILES IDX 61 87 63 88 62 89
REMARK H PARENT 28 6 35 38 79 57 57 68
REMARK Flexibility Score: inf
ROOT
ATOM      1  C   UNL A   1      39.453  28.237  28.160  1.00  0.00     0.021 C 
ENDROOT
BRANCH   1   2
ATOM      2  C   UNL A   1      38.469  29.399  27.949  1.00  0.00     0.116 C 
BRANCH   2   3
ATOM      3  N   UNL A   1      37.067  29.027  28.076  1.00  0.00    -0.356 N 
ATOM      4  O   UNL A   1      36.154  31.070  27.583  1.00  0.00    -0.275 OA
ATOM      5  C   UNL A   1      36.013  29.868  27.798  1.00  0.00     0.221 C 
ATOM      6  H   UNL A   1      36.858  28.114  28.379  1.00  0.00     0.163 HD
BRANCH   5   7
ATOM      7  C   UNL A   1      34.626  29.222  27.760  1.00  0.00     0.123 C 
BRANCH   7   8
ATOM      8  C   UNL A   1      33.619  29.969  26.856  1.00  0.00     0.154 C 
BRANCH   8   9
ATOM      9  N   UNL A   1      33.238  29.226  25.664  1.00  0.00    -0.271 N 
ATOM     10  C   UNL A   1      33.969  28.861  24.560  1.00  0.00     0.117 A 
ATOM     11  N   UNL A   1      31.957  28.878  25.567  1.00  0.00    -0.172 NA
ATOM     12  C   UNL A   1      33.062  28.328  23.652  1.00  0.00     0.021 A 
ATOM     13  C   UNL A   1      31.808  28.494  24.313  1.00  0.00     0.100 A 
BRANCH  12  14
ATOM     14  C   UNL A   1      33.362  27.745  22.361  1.00  0.00     0.016 C 
ATOM     15  C   UNL A   1      33.513  26.464  21.933  1.00  0.00     0.053 C 
BRANCH  15  16
ATOM     16  C   UNL A   1      33.413  25.040  22.519  1.00  0.00     0.185 C 
ATOM     17  O   UNL A   1      33.429  24.075  21.765  1.00  0.00    -0.289 OA
BRANCH  16  18
ATOM     18  C   UNL A   1      33.194  24.875  24.045  1.00  0.00     0.022 A 
ATOM     19  C   UNL A   1      34.905  24.515  24.549  1.00  0.00     0.015 A 
ATOM     20  C   UNL A   1      31.723  24.292  25.328  1.00  0.00     0.015 A 
ATOM     21  C   UNL A   1      35.186  23.615  26.037  1.00  0.00     0.040 A 
ATOM     22  C   UNL A   1      32.194  23.405  26.825  1.00  0.00     0.040 A 
ATOM     23  C   UNL A   1      33.882  23.081  27.097  1.00  0.00     0.123 A 
ATOM     24  F   UNL A   1      34.215  22.346  28.171  1.00  0.00    -0.207 F 
ENDBRANCH  16  18
ENDBRANCH  15  16
ENDBRANCH  12  14
BRANCH  13  25
ATOM     25  C   UNL A   1      30.474  28.120  23.777  1.00  0.00     0.004 A 
ATOM     26  C   UNL A   1      29.124  26.616  23.983  1.00  0.00     0.010 A 
ATOM     27  C   UNL A   1      29.809  29.753  23.332  1.00  0.00     0.031 A 
ATOM     28  C   UNL A   1      27.385  26.994  23.767  1.00  0.00     0.002 A 
ATOM     29  C   UNL A   1      28.081  29.952  23.185  1.00  0.00     0.041 A 
ATOM     30  C   UNL A   1      26.932  28.637  23.391  1.00  0.00     0.020 A 
ATOM     31  Cl  UNL A   1      27.497  31.563  22.998  1.00  0.00    -0.084 Cl
ENDBRANCH  13  25
ENDBRANCH   8   9
ENDBRANCH   7   8
ENDBRANCH   5   7
ENDBRANCH   2   3
ENDBRANCH   1   2
BRANCH   1  32
ATOM     32  C   UNL A   1      40.317  27.911  26.940  1.00  0.00     0.002 C 
BRANCH  32  33
ATOM     33  C   UNL A   1      40.494  26.449  26.517  1.00  0.00     0.002 C 
BRANCH  33  34
ATOM     34  C   UNL A   1      39.815  25.358  27.340  1.00  0.00     0.021 C 
BRANCH  34  35
ATOM     35  C   UNL A   1      40.758  24.481  28.159  1.00  0.00     0.116 C 
BRANCH  35  36
ATOM     36  N   UNL A   1      40.980  23.111  27.663  1.00  0.00    -0.352 N 
ATOM     37  C   UNL A   1      41.837  22.708  26.634  1.00  0.00     0.251 C 
ATOM     38  H   UNL A   1      40.466  22.399  28.107  1.00  0.00     0.163 HD
ATOM     39  O   UNL A   1      41.812  21.599  26.122  1.00  0.00    -0.269 OA
BRANCH  37  40
ATOM     40  C   UNL A   1      42.905  23.639  26.271  1.00  0.00     0.039 A 
ATOM     41  C   UNL A   1      42.981  24.431  25.120  1.00  0.00     0.014 A 
ATOM     42  C   UNL A   1      43.857  23.759  27.256  1.00  0.00     0.014 A 
ATOM     43  C   UNL A   1      44.004  25.387  25.074  1.00  0.00     0.010 A 
ATOM     44  C   UNL A   1      44.313  25.016  27.402  1.00  0.00     0.010 A 
ATOM     45  C   UNL A   1      44.736  25.612  26.247  1.00  0.00    -0.014 A 
BRANCH  45  46
ATOM     46  C   UNL A   1      45.600  26.730  26.559  1.00  0.00     0.031 A 
ATOM     47  C   UNL A   1      46.970  26.479  26.044  1.00  0.00     0.074 A 
ATOM     48  C   UNL A   1      45.094  27.917  26.985  1.00  0.00     0.049 A 
ATOM     49  N   UNL A   1      47.898  25.894  26.722  1.00  0.00    -0.248 NA
ATOM     50  C   UNL A   1      47.264  26.525  24.592  1.00  0.00     0.031 C 
ATOM     51  C   UNL A   1      43.709  28.345  27.251  1.00  0.00     0.029 A 
ATOM     52  N   UNL A   1      45.782  29.056  27.264  1.00  0.00    -0.354 N 
ATOM     53  C   UNL A   1      48.998  25.859  25.885  1.00  0.00     0.074 A 
ATOM     54  C   UNL A   1      48.473  25.950  24.551  1.00  0.00     0.031 C 
ATOM     55  C   UNL A   1      43.656  29.694  27.427  1.00  0.00     0.029 A 
ATOM     56  C   UNL A   1      45.010  30.210  27.453  1.00  0.00     0.049 A 
ATOM     57  H   UNL A   1      46.765  29.068  27.330  1.00  0.00     0.167 HD
ATOM     58  C   UNL A   1      50.224  26.175  26.386  1.00  0.00     0.031 A 
ATOM     59  C   UNL A   1      45.510  31.467  27.651  1.00  0.00     0.031 A 
ATOM     60  C   UNL A   1      50.170  26.242  27.833  1.00  0.00     0.049 A 
ATOM     61  C   UNL A   1      46.908  31.274  28.142  1.00  0.00     0.074 A 
ATOM     62  C   UNL A   1      49.818  25.349  28.828  1.00  0.00     0.029 A 
ATOM     63  N   UNL A   1      49.989  27.501  28.362  1.00  0.00    -0.354 N 
ATOM     64  N   UNL A   1      47.157  30.707  29.294  1.00  0.00    -0.248 NA
ATOM     65  C   UNL A   1      47.942  31.117  27.123  1.00  0.00     0.031 C 
ATOM     66  C   UNL A   1      48.992  26.102  29.717  1.00  0.00     0.029 A 
ATOM     67  C   UNL A   1      49.008  27.441  29.320  1.00  0.00     0.049 A 
ATOM     68  H   UNL A   1      50.483  28.310  28.098  1.00  0.00     0.167 HD
ATOM     69  C   UNL A   1      48.131  29.758  29.017  1.00  0.00     0.074 A 
ATOM     70  C   UNL A   1      48.586  30.069  27.653  1.00  0.00     0.031 C 
ATOM     71  C   UNL A   1      48.221  28.588  29.725  1.00  0.00     0.031 A 
BRANCH  58  72
ATOM     72  C   UNL A   1      51.279  26.922  25.613  1.00  0.00    -0.014 A 
ATOM     73  C   UNL A   1      52.598  26.442  25.672  1.00  0.00     0.009 A 
ATOM     74  C   UNL A   1      51.095  28.213  25.081  1.00  0.00     0.009 A 
ATOM     75  C   UNL A   1      53.681  27.243  25.295  1.00  0.00     0.001 A 
ATOM     76  C   UNL A   1      52.172  29.003  24.674  1.00  0.00     0.001 A 
ATOM     77  C   UNL A   1      53.467  28.527  24.804  1.00  0.00     0.000 A 
ENDBRANCH  58  72
BRANCH  59  78
ATOM     78  C   UNL A   1      45.061  32.756  27.044  1.00  0.00    -0.014 A 
ATOM     79  C   UNL A   1      44.590  32.845  25.718  1.00  0.00     0.009 A 
ATOM     80  C   UNL A   1      44.817  33.862  27.878  1.00  0.00     0.009 A 
ATOM     81  C   UNL A   1      43.885  33.978  25.263  1.00  0.00     0.001 A 
ATOM     82  C   UNL A   1      44.105  34.984  27.430  1.00  0.00     0.001 A 
ATOM     83  C   UNL A   1      43.629  35.041  26.126  1.00  0.00     0.000 A 
ENDBRANCH  59  78
BRANCH  71  84
ATOM     84  C   UNL A   1      47.341  28.402  30.944  1.00  0.00    -0.014 A 
ATOM     85  C   UNL A   1      47.633  28.880  32.239  1.00  0.00     0.009 A 
ATOM     86  C   UNL A   1      46.067  27.864  30.721  1.00  0.00     0.009 A 
ATOM     87  C   UNL A   1      46.688  28.778  33.274  1.00  0.00     0.001 A 
ATOM     88  C   UNL A   1      45.121  27.780  31.744  1.00  0.00     0.001 A 
ATOM     89  C   UNL A   1      45.433  28.227  33.023  1.00  0.00     0.000 A 
ENDBRANCH  71  84
ENDBRANCH  45  46
ENDBRANCH  37  40
ENDBRANCH  35  36
ENDBRANCH  34  35
ENDBRANCH  33  34
ENDBRANCH  32  33
ENDBRANCH   1  32
TORSDOF 19
ENDMDL
MODEL 3
REMARK VINA RESULT:     -11.0      3.584      5.828
REMARK SMILES O=C(CCn1cc(/C=C\C(=O)c2ccc(F)cc2)c(-c2cccc(Cl)c2)n1)NCCCCCCNC(=O)c1ccc(-c2c3nc(c(-c4ccccc4)c4ccc([nH]4)c(-c4ccccc4)c4nc(c(-c5ccccc5)c5ccc2[nH]5)C=C4)C=C3)cc1
REMARK SMILES IDX 30 1 29 2 28 3 1 4 2 5 3 7 4 8 5 9 6 10 27 11 7 12 19 13
REMARK SMILES IDX 8 14 9 15 10 16 11 17 12 18 13 19 18 20 14 21 17 22 15 23
REMARK SMILES IDX 16 24 20 25 21 26 26 27 22 28 24 29 23 30 25 31 31 32 32 33
REMARK SMILES IDX 33 34 34 35 35 36 36 37 37 39 38 40 39 41 85 42 40 43 84 44
REMARK SMILES IDX 41 45 42 46 43 47 78 48 44 49 83 50 77 51 79 52 45 53 82 54
REMARK SMILES IDX 76 55 75 56 46 58 68 59 53 60 67 61 54 62 57 63 66 64 80 65
REMARK SMILES IDX 55 66 56 67 65 69 81 70 58 71 47 72 48 73 52 74 49 75 51 76
REMARK SMILES IDX 50 77 69 78 70 79 74 80 71 81 73 82 72 83 59 84 60 85 64 86
REMARK SMILES IDX 61 87 63 88 62 89
REMARK H PARENT 28 6 35 38 79 57 57 68
REMARK Flexibility Score: inf
ROOT
ATOM      1  C   UNL A   1      34.370  31.345  27.316  1.00  0.00     0.021 C 
ENDROOT
BRANCH   1   2
ATOM      2  C   UNL A   1      32.850  31.184  27.482  1.00  0.00     0.116 C 
BRANCH   2   3
ATOM      3  N   UNL A   1      32.269  30.116  26.681  1.00  0.00    -0.356 N 
ATOM      4  O   UNL A   1      30.906  31.410  25.370  1.00  0.00    -0.275 OA
ATOM      5  C   UNL A   1      31.406  30.317  25.626  1.00  0.00     0.221 C 
ATOM      6  H   UNL A   1      32.510  29.189  26.906  1.00  0.00     0.163 HD
BRANCH   5   7
ATOM      7  C   UNL A   1      31.097  29.092  24.764  1.00  0.00     0.123 C 
BRANCH   7   8
ATOM      8  C   UNL A   1      32.097  28.883  23.604  1.00  0.00     0.154 C 
BRANCH   8   9
ATOM      9  N   UNL A   1      32.626  27.530  23.522  1.00  0.00    -0.271 N 
ATOM     10  C   UNL A   1      32.574  26.604  22.509  1.00  0.00     0.117 A 
ATOM     11  N   UNL A   1      33.211  27.054  24.619  1.00  0.00    -0.172 NA
ATOM     12  C   UNL A   1      33.077  25.421  23.036  1.00  0.00     0.021 A 
ATOM     13  C   UNL A   1      33.335  25.759  24.399  1.00  0.00     0.100 A 
BRANCH  12  14
ATOM     14  C   UNL A   1      33.285  24.172  22.334  1.00  0.00     0.016 C 
ATOM     15  C   UNL A   1      32.936  22.886  22.602  1.00  0.00     0.053 C 
BRANCH  15  16
ATOM     16  C   UNL A   1      32.154  22.112  23.684  1.00  0.00     0.185 C 
ATOM     17  O   UNL A   1      31.145  22.608  24.169  1.00  0.00    -0.289 OA
BRANCH  16  18
ATOM     18  C   UNL A   1      32.725  20.766  24.198  1.00  0.00     0.022 A 
ATOM     19  C   UNL A   1      32.547  19.774  22.684  1.00  0.00     0.015 A 
ATOM     20  C   UNL A   1      32.882  19.737  25.950  1.00  0.00     0.015 A 
ATOM     21  C   UNL A   1      32.423  18.022  22.819  1.00  0.00     0.040 A 
ATOM     22  C   UNL A   1      32.763  17.940  25.901  1.00  0.00     0.040 A 
ATOM     23  C   UNL A   1      32.512  17.169  24.361  1.00  0.00     0.123 A 
ATOM     24  F   UNL A   1      32.340  15.837  24.346  1.00  0.00    -0.207 F 
ENDBRANCH  16  18
ENDBRANCH  15  16
ENDBRANCH  12  14
BRANCH  13  25
ATOM     25  C   UNL A   1      33.860  24.848  25.448  1.00  0.00     0.004 A 
ATOM     26  C   UNL A   1      33.137  23.713  26.971  1.00  0.00     0.010 A 
ATOM     27  C   UNL A   1      35.405  24.283  24.677  1.00  0.00     0.031 A 
ATOM     28  C   UNL A   1      34.024  22.221  27.419  1.00  0.00     0.002 A 
ATOM     29  C   UNL A   1      36.126  22.789  25.220  1.00  0.00     0.041 A 
ATOM     30  C   UNL A   1      35.467  21.813  26.525  1.00  0.00     0.020 A 
ATOM     31  Cl  UNL A   1      37.450  22.183  24.297  1.00  0.00    -0.084 Cl
ENDBRANCH  13  25
ENDBRANCH   8   9
ENDBRANCH   7   8
ENDBRANCH   5   7
ENDBRANCH   2   3
ENDBRANCH   1   2
BRANCH   1  32
ATOM     32  C   UNL A   1      35.067  32.015  28.502  1.00  0.00     0.002 C 
BRANCH  32  33
ATOM     33  C   UNL A   1      35.624  33.434  28.338  1.00  0.00     0.002 C 
BRANCH  33  34
ATOM     34  C   UNL A   1      34.669  34.617  28.463  1.00  0.00     0.021 C 
BRANCH  34  35
ATOM     35  C   UNL A   1      33.483  34.397  29.399  1.00  0.00     0.116 C 
BRANCH  35  36
ATOM     36  N   UNL A   1      33.283  35.404  30.456  1.00  0.00    -0.352 N 
ATOM     37  C   UNL A   1      33.630  35.300  31.806  1.00  0.00     0.251 C 
ATOM     38  H   UNL A   1      32.858  36.247  30.179  1.00  0.00     0.163 HD
ATOM     39  O   UNL A   1      33.240  36.069  32.672  1.00  0.00    -0.269 OA
BRANCH  37  40
ATOM     40  C   UNL A   1      34.629  34.287  32.148  1.00  0.00     0.039 A 
ATOM     41  C   UNL A   1      34.469  32.898  32.118  1.00  0.00     0.014 A 
ATOM     42  C   UNL A   1      35.858  34.834  32.434  1.00  0.00     0.014 A 
ATOM     43  C   UNL A   1      35.620  32.121  32.306  1.00  0.00     0.010 A 
ATOM     44  C   UNL A   1      36.885  34.106  31.965  1.00  0.00     0.010 A 
ATOM     45  C   UNL A   1      36.856  32.782  32.306  1.00  0.00    -0.014 A 
BRANCH  45  46
ATOM     46  C   UNL A   1      38.175  32.207  32.159  1.00  0.00     0.031 A 
ATOM     47  C   UNL A   1      38.842  32.109  33.482  1.00  0.00     0.074 A 
ATOM     48  C   UNL A   1      38.556  31.594  31.007  1.00  0.00     0.049 A 
ATOM     49  N   UNL A   1      39.576  33.040  33.989  1.00  0.00    -0.248 NA
ATOM     50  C   UNL A   1      38.407  31.111  34.488  1.00  0.00     0.031 C 
ATOM     51  C   UNL A   1      37.844  31.393  29.732  1.00  0.00     0.029 A 
ATOM     52  N   UNL A   1      39.737  30.973  30.753  1.00  0.00    -0.354 N 
ATOM     53  C   UNL A   1      39.993  32.553  35.215  1.00  0.00     0.074 A 
ATOM     54  C   UNL A   1      39.021  31.564  35.589  1.00  0.00     0.031 C 
ATOM     55  C   UNL A   1      38.523  30.513  28.945  1.00  0.00     0.029 A 
ATOM     56  C   UNL A   1      39.792  30.213  29.577  1.00  0.00     0.049 A 
ATOM     57  H   UNL A   1      40.509  31.054  31.359  1.00  0.00     0.167 HD
ATOM     58  C   UNL A   1      41.293  32.714  35.585  1.00  0.00     0.031 A 
ATOM     59  C   UNL A   1      40.851  29.442  29.188  1.00  0.00     0.031 A 
ATOM     60  C   UNL A   1      41.959  33.636  34.686  1.00  0.00     0.049 A 
ATOM     61  C   UNL A   1      42.036  29.979  29.924  1.00  0.00     0.074 A 
ATOM     62  C   UNL A   1      41.738  34.948  34.313  1.00  0.00     0.029 A 
ATOM     63  N   UNL A   1      42.665  33.055  33.655  1.00  0.00    -0.354 N 
ATOM     64  N   UNL A   1      42.491  31.185  29.700  1.00  0.00    -0.248 NA
ATOM     65  C   UNL A   1      42.261  29.457  31.268  1.00  0.00     0.031 C 
ATOM     66  C   UNL A   1      41.889  34.953  32.892  1.00  0.00     0.029 A 
ATOM     67  C   UNL A   1      42.348  33.699  32.485  1.00  0.00     0.049 A 
ATOM     68  H   UNL A   1      43.293  32.302  33.744  1.00  0.00     0.167 HD
ATOM     69  C   UNL A   1      42.644  31.744  30.962  1.00  0.00     0.074 A 
ATOM     70  C   UNL A   1      42.495  30.616  31.896  1.00  0.00     0.031 C 
ATOM     71  C   UNL A   1      42.489  33.088  31.178  1.00  0.00     0.031 A 
BRANCH  58  72
ATOM     72  C   UNL A   1      42.075  31.691  36.367  1.00  0.00    -0.014 A 
ATOM     73  C   UNL A   1      42.804  32.135  37.483  1.00  0.00     0.009 A 
ATOM     74  C   UNL A   1      42.360  30.394  35.897  1.00  0.00     0.009 A 
ATOM     75  C   UNL A   1      43.818  31.355  38.047  1.00  0.00     0.001 A 
ATOM     76  C   UNL A   1      43.350  29.600  36.478  1.00  0.00     0.001 A 
ATOM     77  C   UNL A   1      44.097  30.091  37.538  1.00  0.00     0.000 A 
ENDBRANCH  58  72
BRANCH  59  78
ATOM     78  C   UNL A   1      40.841  28.060  28.618  1.00  0.00    -0.014 A 
ATOM     79  C   UNL A   1      42.001  27.444  28.106  1.00  0.00     0.009 A 
ATOM     80  C   UNL A   1      39.732  27.227  28.853  1.00  0.00     0.009 A 
ATOM     81  C   UNL A   1      42.051  26.055  27.867  1.00  0.00     0.001 A 
ATOM     82  C   UNL A   1      39.785  25.844  28.628  1.00  0.00     0.001 A 
ATOM     83  C   UNL A   1      40.947  25.254  28.144  1.00  0.00     0.000 A 
ENDBRANCH  59  78
BRANCH  71  84
ATOM     84  C   UNL A   1      42.311  34.005  29.986  1.00  0.00    -0.014 A 
ATOM     85  C   UNL A   1      41.076  34.502  29.519  1.00  0.00     0.009 A 
ATOM     86  C   UNL A   1      43.480  34.526  29.417  1.00  0.00     0.009 A 
ATOM     87  C   UNL A   1      41.028  35.458  28.490  1.00  0.00     0.001 A 
ATOM     88  C   UNL A   1      43.434  35.491  28.409  1.00  0.00     0.001 A 
ATOM     89  C   UNL A   1      42.209  35.950  27.937  1.00  0.00     0.000 A 
ENDBRANCH  71  84
ENDBRANCH  45  46
ENDBRANCH  37  40
ENDBRANCH  35  36
ENDBRANCH  34  35
ENDBRANCH  33  34
ENDBRANCH  32  33
ENDBRANCH   1  32
TORSDOF 19
ENDMDL
