MODEL 1
REMARK VINA RESULT:     -12.1      0.000      0.000
REMARK SMILES COc1ccc(/C=N/NC(=O)c2cc(C)nc3ccccc23)c(C(=O)NCCCCCCNC(=O)c2ccc(-c3c4nc(c(-c5ccccc5)c5ccc([nH]5)c(-c5ccccc5)c5nc(c(-c6ccccc6)c6ccc3[nH]6)C=C5)C=C4)cc2)c1OC
REMARK SMILES IDX 29 1 28 2 27 3 26 4 24 5 25 6 23 8 3 9 4 10 84 11 5 12 6 13
REMARK SMILES IDX 2 14 1 15 85 16 86 17 7 18 8 19 9 20 10 21 11 23 12 24 13 25
REMARK SMILES IDX 22 26 14 27 17 28 21 29 15 30 16 31 18 32 20 33 19 34 30 35
REMARK SMILES IDX 31 36 32 37 33 38 34 39 35 41 36 42 37 43 83 44 38 45 82 46
REMARK SMILES IDX 39 47 40 48 41 49 76 50 42 51 81 52 75 53 77 54 43 55 80 56
REMARK SMILES IDX 74 57 73 58 44 60 66 61 51 62 65 63 52 64 55 65 64 66 78 67
REMARK SMILES IDX 53 68 54 69 63 71 79 72 56 73 45 74 46 75 50 76 47 77 49 78
REMARK SMILES IDX 48 79 67 80 68 81 72 82 69 83 71 84 70 85 57 86 58 87 62 88
REMARK SMILES IDX 59 89 61 90 60 91
REMARK H PARENT 26 7 9 22 33 40 77 59 55 70
REMARK Flexibility Score: inf
ROOT
ATOM      1  C   UNL A   1      35.408  30.308  28.239  1.00  0.00     0.002 C 
ENDROOT
BRANCH   1   2
ATOM      2  C   UNL A   1      35.619  29.415  27.091  1.00  0.00     0.021 C 
BRANCH   2   3
ATOM      3  C   UNL A   1      34.250  28.824  26.886  1.00  0.00     0.116 C 
BRANCH   3   4
ATOM      4  N   UNL A   1      33.228  28.291  27.664  1.00  0.00    -0.352 N 
ATOM      5  C   UNL A   1      31.929  28.159  27.172  1.00  0.00     0.255 C 
ATOM      6  O   UNL A   1      31.080  28.264  28.053  1.00  0.00    -0.269 OA
ATOM      7  H   UNL A   1      33.426  28.001  28.584  1.00  0.00     0.163 HD
BRANCH   5   8
ATOM      8  C   UNL A   1      31.563  28.103  25.659  1.00  0.00     0.094 A 
ATOM      9  C   UNL A   1      30.713  29.236  23.550  1.00  0.00     0.161 A 
ATOM     10  C   UNL A   1      30.838  28.002  22.920  1.00  0.00     0.051 A 
ATOM     11  C   UNL A   1      31.187  29.273  24.873  1.00  0.00     0.174 A 
ATOM     12  C   UNL A   1      31.201  26.833  23.637  1.00  0.00     0.015 A 
ATOM     13  C   UNL A   1      31.577  26.864  24.996  1.00  0.00     0.011 A 
BRANCH   9  14
ATOM     14  O   UNL A   1      30.083  30.241  22.838  1.00  0.00    -0.493 OA
ATOM     15  C   UNL A   1      28.992  30.048  21.929  1.00  0.00     0.278 C 
ENDBRANCH   9  14
BRANCH  11  16
ATOM     16  O   UNL A   1      31.753  30.444  25.309  1.00  0.00    -0.492 OA
ATOM     17  C   UNL A   1      30.975  31.271  26.130  1.00  0.00     0.278 C 
ENDBRANCH  11  16
BRANCH  13  18
ATOM     18  C   UNL A   1      32.127  25.602  25.599  1.00  0.00     0.142 C 
ATOM     19  N   UNL A   1      31.484  24.476  25.573  1.00  0.00    -0.180 NA
BRANCH  19  20
ATOM     20  N   UNL A   1      32.064  23.364  26.124  1.00  0.00    -0.243 N 
ATOM     21  C   UNL A   1      32.769  22.313  25.648  1.00  0.00     0.272 C 
ATOM     22  H   UNL A   1      31.935  23.318  27.099  1.00  0.00     0.194 HD
ATOM     23  O   UNL A   1      32.935  21.866  26.854  1.00  0.00    -0.267 OA
BRANCH  21  24
ATOM     24  C   UNL A   1      33.508  21.165  25.253  1.00  0.00     0.052 A 
ATOM     25  C   UNL A   1      35.063  21.546  25.402  1.00  0.00     0.038 A 
ATOM     26  C   UNL A   1      33.009  19.487  24.690  1.00  0.00     0.013 A 
ATOM     27  C   UNL A   1      35.848  20.545  25.109  1.00  0.00     0.039 A 
ATOM     28  C   UNL A   1      34.181  18.870  24.595  1.00  0.00     0.071 A 
ATOM     29  C   UNL A   1      32.365  18.018  24.193  1.00  0.00     0.011 A 
ATOM     30  C   UNL A   1      37.031  19.841  24.846  1.00  0.00     0.067 C 
ATOM     31  N   UNL A   1      34.875  19.818  24.900  1.00  0.00    -0.253 NA
ATOM     32  C   UNL A   1      34.941  17.762  24.244  1.00  0.00     0.029 A 
ATOM     33  C   UNL A   1      33.096  16.742  23.681  1.00  0.00     0.001 A 
ATOM     34  C   UNL A   1      34.447  16.728  23.585  1.00  0.00     0.002 A 
ENDBRANCH  21  24
ENDBRANCH  19  20
ENDBRANCH  13  18
ENDBRANCH   5   8
ENDBRANCH   3   4
ENDBRANCH   2   3
ENDBRANCH   1   2
BRANCH   1  35
ATOM     35  C   UNL A   1      34.906  31.665  27.734  1.00  0.00     0.002 C 
BRANCH  35  36
ATOM     36  C   UNL A   1      33.949  32.302  28.726  1.00  0.00     0.021 C 
BRANCH  36  37
ATOM     37  C   UNL A   1      34.647  33.425  29.439  1.00  0.00     0.116 C 
BRANCH  37  38
ATOM     38  N   UNL A   1      34.407  33.378  30.867  1.00  0.00    -0.352 N 
ATOM     39  C   UNL A   1      35.139  32.680  31.797  1.00  0.00     0.251 C 
ATOM     40  H   UNL A   1      33.642  33.897  31.205  1.00  0.00     0.163 HD
ATOM     41  O   UNL A   1      34.802  32.638  32.972  1.00  0.00    -0.269 OA
BRANCH  39  42
ATOM     42  C   UNL A   1      36.390  32.025  31.345  1.00  0.00     0.039 A 
ATOM     43  C   UNL A   1      36.806  30.794  31.846  1.00  0.00     0.014 A 
ATOM     44  C   UNL A   1      37.198  32.706  30.428  1.00  0.00     0.014 A 
ATOM     45  C   UNL A   1      38.054  30.293  31.462  1.00  0.00     0.010 A 
ATOM     46  C   UNL A   1      38.334  32.115  29.909  1.00  0.00     0.010 A 
ATOM     47  C   UNL A   1      38.775  30.896  30.422  1.00  0.00    -0.014 A 
BRANCH  47  48
ATOM     48  C   UNL A   1      39.996  30.274  29.862  1.00  0.00     0.031 A 
ATOM     49  C   UNL A   1      41.252  31.069  29.804  1.00  0.00     0.074 A 
ATOM     50  C   UNL A   1      39.970  29.022  29.357  1.00  0.00     0.049 A 
ATOM     51  N   UNL A   1      42.401  30.693  29.317  1.00  0.00    -0.248 NA
ATOM     52  C   UNL A   1      41.234  32.435  30.353  1.00  0.00     0.031 C 
ATOM     53  C   UNL A   1      38.797  28.153  29.363  1.00  0.00     0.029 A 
ATOM     54  N   UNL A   1      40.940  28.258  28.742  1.00  0.00    -0.354 N 
ATOM     55  C   UNL A   1      43.247  31.764  29.514  1.00  0.00     0.074 A 
ATOM     56  C   UNL A   1      42.478  32.827  30.123  1.00  0.00     0.031 C 
ATOM     57  C   UNL A   1      39.112  26.979  28.802  1.00  0.00     0.029 A 
ATOM     58  C   UNL A   1      40.501  27.008  28.367  1.00  0.00     0.049 A 
ATOM     59  H   UNL A   1      41.857  28.577  28.586  1.00  0.00     0.167 HD
ATOM     60  C   UNL A   1      44.557  31.825  29.210  1.00  0.00     0.031 A 
ATOM     61  C   UNL A   1      41.117  25.985  27.740  1.00  0.00     0.031 A 
ATOM     62  C   UNL A   1      45.282  30.781  28.568  1.00  0.00     0.049 A 
ATOM     63  C   UNL A   1      42.543  26.126  27.310  1.00  0.00     0.074 A 
ATOM     64  C   UNL A   1      46.619  30.809  28.230  1.00  0.00     0.029 A 
ATOM     65  N   UNL A   1      44.770  29.566  28.155  1.00  0.00    -0.354 N 
ATOM     66  N   UNL A   1      43.327  27.148  27.523  1.00  0.00    -0.248 NA
ATOM     67  C   UNL A   1      43.177  25.023  26.562  1.00  0.00     0.031 C 
ATOM     68  C   UNL A   1      46.919  29.635  27.577  1.00  0.00     0.029 A 
ATOM     69  C   UNL A   1      45.779  28.857  27.535  1.00  0.00     0.049 A 
ATOM     70  H   UNL A   1      43.844  29.258  28.281  1.00  0.00     0.167 HD
ATOM     71  C   UNL A   1      44.545  26.806  26.969  1.00  0.00     0.074 A 
ATOM     72  C   UNL A   1      44.414  25.479  26.411  1.00  0.00     0.031 C 
ATOM     73  C   UNL A   1      45.667  27.553  26.960  1.00  0.00     0.031 A 
BRANCH  60  74
ATOM     74  C   UNL A   1      45.290  33.086  29.512  1.00  0.00    -0.014 A 
ATOM     75  C   UNL A   1      45.360  34.125  28.583  1.00  0.00     0.009 A 
ATOM     76  C   UNL A   1      45.891  33.241  30.771  1.00  0.00     0.009 A 
ATOM     77  C   UNL A   1      46.174  35.221  28.848  1.00  0.00     0.001 A 
ATOM     78  C   UNL A   1      46.594  34.397  31.079  1.00  0.00     0.001 A 
ATOM     79  C   UNL A   1      46.735  35.387  30.114  1.00  0.00     0.000 A 
ENDBRANCH  60  74
BRANCH  61  80
ATOM     80  C   UNL A   1      40.373  24.747  27.413  1.00  0.00    -0.014 A 
ATOM     81  C   UNL A   1      40.802  23.499  27.878  1.00  0.00     0.009 A 
ATOM     82  C   UNL A   1      39.280  24.811  26.536  1.00  0.00     0.009 A 
ATOM     83  C   UNL A   1      40.242  22.337  27.351  1.00  0.00     0.001 A 
ATOM     84  C   UNL A   1      38.640  23.650  26.115  1.00  0.00     0.001 A 
ATOM     85  C   UNL A   1      39.122  22.413  26.527  1.00  0.00     0.000 A 
ENDBRANCH  61  80
BRANCH  73  86
ATOM     86  C   UNL A   1      46.915  26.957  26.405  1.00  0.00    -0.014 A 
ATOM     87  C   UNL A   1      47.814  26.225  27.181  1.00  0.00     0.009 A 
ATOM     88  C   UNL A   1      47.155  27.107  25.029  1.00  0.00     0.009 A 
ATOM     89  C   UNL A   1      49.012  25.798  26.613  1.00  0.00     0.001 A 
ATOM     90  C   UNL A   1      48.287  26.563  24.441  1.00  0.00     0.001 A 
ATOM     91  C   UNL A   1      49.217  25.909  25.237  1.00  0.00     0.000 A 
ENDBRANCH  73  86
ENDBRANCH  47  48
ENDBRANCH  39  42
ENDBRANCH  37  38
ENDBRANCH  36  37
ENDBRANCH  35  36
ENDBRANCH   1  35
TORSDOF 18
ENDMDL
MODEL 2
REMARK VINA RESULT:     -12.1      2.716      9.474
REMARK SMILES COc1ccc(/C=N/NC(=O)c2cc(C)nc3ccccc23)c(C(=O)NCCCCCCNC(=O)c2ccc(-c3c4nc(c(-c5ccccc5)c5ccc([nH]5)c(-c5ccccc5)c5nc(c(-c6ccccc6)c6ccc3[nH]6)C=C5)C=C4)cc2)c1OC
REMARK SMILES IDX 29 1 28 2 27 3 26 4 24 5 25 6 23 8 3 9 4 10 84 11 5 12 6 13
REMARK SMILES IDX 2 14 1 15 85 16 86 17 7 18 8 19 9 20 10 21 11 23 12 24 13 25
REMARK SMILES IDX 22 26 14 27 17 28 21 29 15 30 16 31 18 32 20 33 19 34 30 35
REMARK SMILES IDX 31 36 32 37 33 38 34 39 35 41 36 42 37 43 83 44 38 45 82 46
REMARK SMILES IDX 39 47 40 48 41 49 76 50 42 51 81 52 75 53 77 54 43 55 80 56
REMARK SMILES IDX 74 57 73 58 44 60 66 61 51 62 65 63 52 64 55 65 64 66 78 67
REMARK SMILES IDX 53 68 54 69 63 71 79 72 56 73 45 74 46 75 50 76 47 77 49 78
REMARK SMILES IDX 48 79 67 80 68 81 72 82 69 83 71 84 70 85 57 86 58 87 62 88
REMARK SMILES IDX 59 89 61 90 60 91
REMARK H PARENT 26 7 9 22 33 40 77 59 55 70
REMARK Flexibility Score: inf
ROOT
ATOM      1  C   UNL A   1      36.579  21.870  24.230  1.00  0.00     0.002 C 
ENDROOT
BRANCH   1   2
ATOM      2  C   UNL A   1      35.605  20.975  24.871  1.00  0.00     0.021 C 
BRANCH   2   3
ATOM      3  C   UNL A   1      34.596  21.943  25.428  1.00  0.00     0.116 C 
BRANCH   3   4
ATOM      4  N   UNL A   1      33.362  21.895  26.068  1.00  0.00    -0.352 N 
ATOM      5  C   UNL A   1      32.212  21.469  25.404  1.00  0.00     0.255 C 
ATOM      6  O   UNL A   1      31.196  22.015  25.827  1.00  0.00    -0.269 OA
ATOM      7  H   UNL A   1      33.300  22.168  27.012  1.00  0.00     0.163 HD
BRANCH   5   8
ATOM      8  C   UNL A   1      32.213  20.574  24.129  1.00  0.00     0.094 A 
ATOM      9  C   UNL A   1      32.535  18.310  23.021  1.00  0.00     0.161 A 
ATOM     10  C   UNL A   1      32.275  18.944  21.809  1.00  0.00     0.051 A 
ATOM     11  C   UNL A   1      32.385  19.125  24.156  1.00  0.00     0.174 A 
ATOM     12  C   UNL A   1      32.099  20.349  21.727  1.00  0.00     0.015 A 
ATOM     13  C   UNL A   1      32.053  21.175  22.869  1.00  0.00     0.011 A 
BRANCH   9  14
ATOM     14  O   UNL A   1      32.973  16.999  22.959  1.00  0.00    -0.493 OA
ATOM     15  C   UNL A   1      34.333  16.576  23.118  1.00  0.00     0.278 C 
ENDBRANCH   9  14
BRANCH  11  16
ATOM     16  O   UNL A   1      31.929  18.530  25.305  1.00  0.00    -0.492 OA
ATOM     17  C   UNL A   1      32.869  17.871  26.108  1.00  0.00     0.278 C 
ENDBRANCH  11  16
BRANCH  13  18
ATOM     18  C   UNL A   1      31.669  22.616  22.676  1.00  0.00     0.142 C 
ATOM     19  N   UNL A   1      32.476  23.492  22.165  1.00  0.00    -0.180 NA
BRANCH  19  20
ATOM     20  N   UNL A   1      32.043  24.782  22.000  1.00  0.00    -0.243 N 
ATOM     21  C   UNL A   1      31.933  25.867  22.800  1.00  0.00     0.272 C 
ATOM     22  H   UNL A   1      31.739  24.961  21.082  1.00  0.00     0.194 HD
ATOM     23  O   UNL A   1      31.528  26.578  21.794  1.00  0.00    -0.267 OA
BRANCH  21  24
ATOM     24  C   UNL A   1      31.768  27.061  23.553  1.00  0.00     0.052 A 
ATOM     25  C   UNL A   1      30.581  27.887  22.850  1.00  0.00     0.038 A 
ATOM     26  C   UNL A   1      32.591  27.713  25.062  1.00  0.00     0.013 A 
ATOM     27  C   UNL A   1      30.304  28.992  23.487  1.00  0.00     0.039 A 
ATOM     28  C   UNL A   1      31.888  28.814  25.305  1.00  0.00     0.071 A 
ATOM     29  C   UNL A   1      33.457  28.145  26.435  1.00  0.00     0.011 A 
ATOM     30  C   UNL A   1      29.718  30.237  23.757  1.00  0.00     0.067 C 
ATOM     31  N   UNL A   1      31.150  28.735  24.343  1.00  0.00    -0.253 NA
ATOM     32  C   UNL A   1      31.673  29.978  26.030  1.00  0.00     0.029 A 
ATOM     33  C   UNL A   1      33.387  29.454  27.275  1.00  0.00     0.001 A 
ATOM     34  C   UNL A   1      32.536  30.445  26.916  1.00  0.00     0.002 A 
ENDBRANCH  21  24
ENDBRANCH  19  20
ENDBRANCH  13  18
ENDBRANCH   5   8
ENDBRANCH   3   4
ENDBRANCH   2   3
ENDBRANCH   1   2
BRANCH   1  35
ATOM     35  C   UNL A   1      37.901  21.810  25.002  1.00  0.00     0.002 C 
BRANCH  35  36
ATOM     36  C   UNL A   1      38.461  20.399  25.025  1.00  0.00     0.021 C 
BRANCH  36  37
ATOM     37  C   UNL A   1      39.299  20.217  26.259  1.00  0.00     0.116 C 
BRANCH  37  38
ATOM     38  N   UNL A   1      40.379  19.277  26.035  1.00  0.00    -0.352 N 
ATOM     39  C   UNL A   1      41.723  19.559  26.040  1.00  0.00     0.251 C 
ATOM     40  H   UNL A   1      40.123  18.343  25.859  1.00  0.00     0.163 HD
ATOM     41  O   UNL A   1      42.554  18.708  25.755  1.00  0.00    -0.269 OA
BRANCH  39  42
ATOM     42  C   UNL A   1      42.145  20.916  26.463  1.00  0.00     0.039 A 
ATOM     43  C   UNL A   1      42.478  21.910  25.546  1.00  0.00     0.014 A 
ATOM     44  C   UNL A   1      42.262  21.174  27.833  1.00  0.00     0.014 A 
ATOM     45  C   UNL A   1      42.981  23.127  26.018  1.00  0.00     0.010 A 
ATOM     46  C   UNL A   1      42.573  22.440  28.292  1.00  0.00     0.010 A 
ATOM     47  C   UNL A   1      42.936  23.435  27.385  1.00  0.00    -0.014 A 
BRANCH  47  48
ATOM     48  C   UNL A   1      43.272  24.785  27.888  1.00  0.00     0.031 A 
ATOM     49  C   UNL A   1      42.176  25.760  28.133  1.00  0.00     0.074 A 
ATOM     50  C   UNL A   1      44.556  25.159  28.074  1.00  0.00     0.049 A 
ATOM     51  N   UNL A   1      42.293  26.993  28.540  1.00  0.00    -0.248 NA
ATOM     52  C   UNL A   1      40.790  25.317  27.904  1.00  0.00     0.031 C 
ATOM     53  C   UNL A   1      45.708  24.286  27.868  1.00  0.00     0.029 A 
ATOM     54  N   UNL A   1      45.118  26.353  28.472  1.00  0.00    -0.354 N 
ATOM     55  C   UNL A   1      41.003  27.468  28.635  1.00  0.00     0.074 A 
ATOM     56  C   UNL A   1      40.111  26.415  28.200  1.00  0.00     0.031 C 
ATOM     57  C   UNL A   1      46.831  24.958  28.154  1.00  0.00     0.029 A 
ATOM     58  C   UNL A   1      46.493  26.321  28.539  1.00  0.00     0.049 A 
ATOM     59  H   UNL A   1      44.587  27.154  28.687  1.00  0.00     0.167 HD
ATOM     60  C   UNL A   1      40.620  28.686  29.061  1.00  0.00     0.031 A 
ATOM     61  C   UNL A   1      47.404  27.261  28.863  1.00  0.00     0.031 A 
ATOM     62  C   UNL A   1      41.519  29.724  29.440  1.00  0.00     0.049 A 
ATOM     63  C   UNL A   1      46.953  28.642  29.221  1.00  0.00     0.074 A 
ATOM     64  C   UNL A   1      41.168  30.986  29.870  1.00  0.00     0.029 A 
ATOM     65  N   UNL A   1      42.899  29.654  29.426  1.00  0.00    -0.354 N 
ATOM     66  N   UNL A   1      45.721  29.063  29.317  1.00  0.00    -0.248 NA
ATOM     67  C   UNL A   1      47.969  29.675  29.503  1.00  0.00     0.031 C 
ATOM     68  C   UNL A   1      42.325  31.702  30.081  1.00  0.00     0.029 A 
ATOM     69  C   UNL A   1      43.401  30.879  29.815  1.00  0.00     0.049 A 
ATOM     70  H   UNL A   1      43.433  28.865  29.180  1.00  0.00     0.167 HD
ATOM     71  C   UNL A   1      45.808  30.388  29.697  1.00  0.00     0.074 A 
ATOM     72  C   UNL A   1      47.210  30.715  29.823  1.00  0.00     0.031 C 
ATOM     73  C   UNL A   1      44.781  31.230  29.930  1.00  0.00     0.031 A 
BRANCH  60  74
ATOM     74  C   UNL A   1      39.163  28.996  29.088  1.00  0.00    -0.014 A 
ATOM     75  C   UNL A   1      38.498  29.453  27.949  1.00  0.00     0.009 A 
ATOM     76  C   UNL A   1      38.443  28.789  30.274  1.00  0.00     0.009 A 
ATOM     77  C   UNL A   1      37.175  29.868  28.055  1.00  0.00     0.001 A 
ATOM     78  C   UNL A   1      37.088  29.081  30.337  1.00  0.00     0.001 A 
ATOM     79  C   UNL A   1      36.455  29.622  29.224  1.00  0.00     0.000 A 
ENDBRANCH  60  74
BRANCH  61  80
ATOM     80  C   UNL A   1      48.852  26.956  28.803  1.00  0.00    -0.014 A 
ATOM     81  C   UNL A   1      49.567  27.065  27.604  1.00  0.00     0.009 A 
ATOM     82  C   UNL A   1      49.498  26.445  29.939  1.00  0.00     0.009 A 
ATOM     83  C   UNL A   1      50.851  26.530  27.516  1.00  0.00     0.001 A 
ATOM     84  C   UNL A   1      50.824  26.034  29.876  1.00  0.00     0.001 A 
ATOM     85  C   UNL A   1      51.500  26.080  28.662  1.00  0.00     0.000 A 
ENDBRANCH  61  80
BRANCH  73  86
ATOM     86  C   UNL A   1      45.085  32.598  30.439  1.00  0.00    -0.014 A 
ATOM     87  C   UNL A   1      45.244  32.882  31.796  1.00  0.00     0.009 A 
ATOM     88  C   UNL A   1      45.262  33.623  29.494  1.00  0.00     0.009 A 
ATOM     89  C   UNL A   1      45.414  34.205  32.197  1.00  0.00     0.001 A 
ATOM     90  C   UNL A   1      45.563  34.915  29.894  1.00  0.00     0.001 A 
ATOM     91  C   UNL A   1      45.638  35.205  31.250  1.00  0.00     0.000 A 
ENDBRANCH  73  86
ENDBRANCH  47  48
ENDBRANCH  39  42
ENDBRANCH  37  38
ENDBRANCH  36  37
ENDBRANCH  35  36
ENDBRANCH   1  35
TORSDOF 18
ENDMDL
MODEL 3
REMARK VINA RESULT:     -12.1      2.700      9.015
REMARK SMILES COc1ccc(/C=N/NC(=O)c2cc(C)nc3ccccc23)c(C(=O)NCCCCCCNC(=O)c2ccc(-c3c4nc(c(-c5ccccc5)c5ccc([nH]5)c(-c5ccccc5)c5nc(c(-c6ccccc6)c6ccc3[nH]6)C=C5)C=C4)cc2)c1OC
REMARK SMILES IDX 29 1 28 2 27 3 26 4 24 5 25 6 23 8 3 9 4 10 84 11 5 12 6 13
REMARK SMILES IDX 2 14 1 15 85 16 86 17 7 18 8 19 9 20 10 21 11 23 12 24 13 25
REMARK SMILES IDX 22 26 14 27 17 28 21 29 15 30 16 31 18 32 20 33 19 34 30 35
REMARK SMILES IDX 31 36 32 37 33 38 34 39 35 41 36 42 37 43 83 44 38 45 82 46
REMARK SMILES IDX 39 47 40 48 41 49 76 50 42 51 81 52 75 53 77 54 43 55 80 56
REMARK SMILES IDX 74 57 73 58 44 60 66 61 51 62 65 63 52 64 55 65 64 66 78 67
REMARK SMILES IDX 53 68 54 69 63 71 79 72 56 73 45 74 46 75 50 76 47 77 49 78
REMARK SMILES IDX 48 79 67 80 68 81 72 82 69 83 71 84 70 85 57 86 58 87 62 88
REMARK SMILES IDX 59 89 61 90 60 91
REMARK H PARENT 26 7 9 22 33 40 77 59 55 70
REMARK Flexibility Score: inf
ROOT
ATOM      1  C   UNL A   1      36.906  21.900  24.293  1.00  0.00     0.002 C 
ENDROOT
BRANCH   1   2
ATOM      2  C   UNL A   1      35.768  21.038  24.646  1.00  0.00     0.021 C 
BRANCH   2   3
ATOM      3  C   UNL A   1      34.771  22.026  25.188  1.00  0.00     0.116 C 
BRANCH   3   4
ATOM      4  N   UNL A   1      33.584  22.004  25.912  1.00  0.00    -0.352 N 
ATOM      5  C   UNL A   1      32.390  21.564  25.343  1.00  0.00     0.255 C 
ATOM      6  O   UNL A   1      31.407  22.128  25.817  1.00  0.00    -0.269 OA
ATOM      7  H   UNL A   1      33.588  22.308  26.849  1.00  0.00     0.163 HD
BRANCH   5   8
ATOM      8  C   UNL A   1      32.300  20.630  24.100  1.00  0.00     0.094 A 
ATOM      9  C   UNL A   1      32.490  18.322  23.054  1.00  0.00     0.161 A 
ATOM     10  C   UNL A   1      32.197  18.927  21.835  1.00  0.00     0.051 A 
ATOM     11  C   UNL A   1      32.421  19.177  24.168  1.00  0.00     0.174 A 
ATOM     12  C   UNL A   1      32.068  20.334  21.714  1.00  0.00     0.015 A 
ATOM     13  C   UNL A   1      32.104  21.197  22.829  1.00  0.00     0.011 A 
BRANCH   9  14
ATOM     14  O   UNL A   1      32.878  16.994  23.016  1.00  0.00    -0.493 OA
ATOM     15  C   UNL A   1      34.226  16.525  23.138  1.00  0.00     0.278 C 
ENDBRANCH   9  14
BRANCH  11  16
ATOM     16  O   UNL A   1      31.997  18.636  25.355  1.00  0.00    -0.492 OA
ATOM     17  C   UNL A   1      32.940  17.935  26.118  1.00  0.00     0.278 C 
ENDBRANCH  11  16
BRANCH  13  18
ATOM     18  C   UNL A   1      31.764  22.644  22.605  1.00  0.00     0.142 C 
ATOM     19  N   UNL A   1      32.630  23.508  22.176  1.00  0.00    -0.180 NA
BRANCH  19  20
ATOM     20  N   UNL A   1      32.235  24.805  21.975  1.00  0.00    -0.243 N 
ATOM     21  C   UNL A   1      32.063  25.889  22.765  1.00  0.00     0.272 C 
ATOM     22  H   UNL A   1      32.026  24.991  21.031  1.00  0.00     0.194 HD
ATOM     23  O   UNL A   1      31.771  26.610  21.727  1.00  0.00    -0.267 OA
BRANCH  21  24
ATOM     24  C   UNL A   1      31.842  27.082  23.504  1.00  0.00     0.052 A 
ATOM     25  C   UNL A   1      30.646  27.865  22.767  1.00  0.00     0.038 A 
ATOM     26  C   UNL A   1      32.609  27.773  25.026  1.00  0.00     0.013 A 
ATOM     27  C   UNL A   1      30.319  28.965  23.388  1.00  0.00     0.039 A 
ATOM     28  C   UNL A   1      31.866  28.852  25.243  1.00  0.00     0.071 A 
ATOM     29  C   UNL A   1      33.429  28.243  26.413  1.00  0.00     0.011 A 
ATOM     30  C   UNL A   1      29.688  30.193  23.634  1.00  0.00     0.067 C 
ATOM     31  N   UNL A   1      31.153  28.742  24.265  1.00  0.00    -0.253 NA
ATOM     32  C   UNL A   1      31.598  30.014  25.952  1.00  0.00     0.029 A 
ATOM     33  C   UNL A   1      33.299  29.556  27.240  1.00  0.00     0.001 A 
ATOM     34  C   UNL A   1      32.424  30.516  26.854  1.00  0.00     0.002 A 
ENDBRANCH  21  24
ENDBRANCH  19  20
ENDBRANCH  13  18
ENDBRANCH   5   8
ENDBRANCH   3   4
ENDBRANCH   2   3
ENDBRANCH   1   2
BRANCH   1  35
ATOM     35  C   UNL A   1      38.056  21.638  25.271  1.00  0.00     0.002 C 
BRANCH  35  36
ATOM     36  C   UNL A   1      38.631  20.246  25.085  1.00  0.00     0.021 C 
BRANCH  36  37
ATOM     37  C   UNL A   1      39.444  19.878  26.294  1.00  0.00     0.116 C 
BRANCH  37  38
ATOM     38  N   UNL A   1      40.625  19.122  25.930  1.00  0.00    -0.352 N 
ATOM     39  C   UNL A   1      41.917  19.587  25.905  1.00  0.00     0.251 C 
ATOM     40  H   UNL A   1      40.488  18.182  25.674  1.00  0.00     0.163 HD
ATOM     41  O   UNL A   1      42.838  18.889  25.501  1.00  0.00    -0.269 OA
BRANCH  39  42
ATOM     42  C   UNL A   1      42.177  20.943  26.443  1.00  0.00     0.039 A 
ATOM     43  C   UNL A   1      42.208  21.207  27.810  1.00  0.00     0.014 A 
ATOM     44  C   UNL A   1      42.336  21.995  25.534  1.00  0.00     0.014 A 
ATOM     45  C   UNL A   1      42.340  22.531  28.242  1.00  0.00     0.010 A 
ATOM     46  C   UNL A   1      42.659  23.266  25.969  1.00  0.00     0.010 A 
ATOM     47  C   UNL A   1      42.666  23.548  27.335  1.00  0.00    -0.014 A 
BRANCH  47  48
ATOM     48  C   UNL A   1      43.009  24.914  27.790  1.00  0.00     0.031 A 
ATOM     49  C   UNL A   1      44.436  25.265  28.017  1.00  0.00     0.074 A 
ATOM     50  C   UNL A   1      42.045  25.822  28.051  1.00  0.00     0.049 A 
ATOM     51  N   UNL A   1      44.910  26.401  28.445  1.00  0.00    -0.248 NA
ATOM     52  C   UNL A   1      45.456  24.241  27.733  1.00  0.00     0.031 C 
ATOM     53  C   UNL A   1      40.616  25.588  27.862  1.00  0.00     0.029 A 
ATOM     54  N   UNL A   1      42.103  27.114  28.529  1.00  0.00    -0.354 N 
ATOM     55  C   UNL A   1      46.279  26.238  28.467  1.00  0.00     0.074 A 
ATOM     56  C   UNL A   1      46.569  24.882  28.053  1.00  0.00     0.031 C 
ATOM     57  C   UNL A   1      39.937  26.692  28.199  1.00  0.00     0.029 A 
ATOM     58  C   UNL A   1      40.870  27.713  28.656  1.00  0.00     0.049 A 
ATOM     59  H   UNL A   1      42.947  27.566  28.758  1.00  0.00     0.167 HD
ATOM     60  C   UNL A   1      47.197  27.165  28.799  1.00  0.00     0.031 A 
ATOM     61  C   UNL A   1      40.498  28.934  29.092  1.00  0.00     0.031 A 
ATOM     62  C   UNL A   1      46.886  28.480  29.247  1.00  0.00     0.049 A 
ATOM     63  C   UNL A   1      41.536  29.902  29.565  1.00  0.00     0.074 A 
ATOM     64  C   UNL A   1      47.795  29.452  29.608  1.00  0.00     0.029 A 
ATOM     65  N   UNL A   1      45.619  29.006  29.417  1.00  0.00    -0.354 N 
ATOM     66  N   UNL A   1      42.829  29.727  29.561  1.00  0.00    -0.248 NA
ATOM     67  C   UNL A   1      41.103  31.206  30.105  1.00  0.00     0.031 C 
ATOM     68  C   UNL A   1      47.092  30.556  30.035  1.00  0.00     0.029 A 
ATOM     69  C   UNL A   1      45.744  30.289  29.911  1.00  0.00     0.049 A 
ATOM     70  H   UNL A   1      44.773  28.545  29.219  1.00  0.00     0.167 HD
ATOM     71  C   UNL A   1      43.365  30.897  30.062  1.00  0.00     0.074 A 
ATOM     72  C   UNL A   1      42.267  31.789  30.360  1.00  0.00     0.031 C 
ATOM     73  C   UNL A   1      44.673  31.180  30.230  1.00  0.00     0.031 A 
BRANCH  60  74
ATOM     74  C   UNL A   1      48.635  26.778  28.751  1.00  0.00    -0.014 A 
ATOM     75  C   UNL A   1      49.399  26.968  27.598  1.00  0.00     0.009 A 
ATOM     76  C   UNL A   1      49.237  26.245  29.901  1.00  0.00     0.009 A 
ATOM     77  C   UNL A   1      50.693  26.462  27.548  1.00  0.00     0.001 A 
ATOM     78  C   UNL A   1      50.571  25.862  29.884  1.00  0.00     0.001 A 
ATOM     79  C   UNL A   1      51.298  25.970  28.705  1.00  0.00     0.000 A 
ENDBRANCH  60  74
BRANCH  61  80
ATOM     80  C   UNL A   1      39.065  29.299  29.168  1.00  0.00    -0.014 A 
ATOM     81  C   UNL A   1      38.318  29.065  30.328  1.00  0.00     0.009 A 
ATOM     82  C   UNL A   1      38.416  29.789  28.025  1.00  0.00     0.009 A 
ATOM     83  C   UNL A   1      36.929  29.177  30.288  1.00  0.00     0.001 A 
ATOM     84  C   UNL A   1      37.046  30.024  28.033  1.00  0.00     0.001 A 
ATOM     85  C   UNL A   1      36.304  29.719  29.168  1.00  0.00     0.000 A 
ENDBRANCH  61  80
BRANCH  73  86
ATOM     86  C   UNL A   1      45.053  32.547  30.686  1.00  0.00    -0.014 A 
ATOM     87  C   UNL A   1      45.239  32.871  32.030  1.00  0.00     0.009 A 
ATOM     88  C   UNL A   1      45.274  33.526  29.703  1.00  0.00     0.009 A 
ATOM     89  C   UNL A   1      45.482  34.197  32.382  1.00  0.00     0.001 A 
ATOM     90  C   UNL A   1      45.647  34.814  30.054  1.00  0.00     0.001 A 
ATOM     91  C   UNL A   1      45.749  35.149  31.397  1.00  0.00     0.000 A 
ENDBRANCH  73  86
ENDBRANCH  47  48
ENDBRANCH  39  42
ENDBRANCH  37  38
ENDBRANCH  36  37
ENDBRANCH  35  36
ENDBRANCH   1  35
TORSDOF 18
ENDMDL
