MODEL 1
REMARK VINA RESULT:     -10.6      0.000      0.000
REMARK SMILES C[C@@H](NS(=O)(=O)/C=C/c1ccccc1)C(=O)NCCCCCCNC(=O)c1ccc(-c2c3nc(c(-c4ccccc4)c4ccc([nH]4)c(-c4ccccc4)c4nc(c(-c5ccccc5)c5ccc2[nH]5)C=C4)C=C3)cc1
REMARK SMILES IDX 19 1 18 2 17 3 15 4 16 5 2 7 1 8 3 9 4 11 5 12 6 13 7 14
REMARK SMILES IDX 8 15 9 16 10 17 14 18 11 19 13 20 12 21 20 22 21 23 22 24
REMARK SMILES IDX 23 25 24 26 25 27 26 29 27 30 28 31 74 32 29 33 73 34 30 35
REMARK SMILES IDX 31 36 32 37 67 38 33 39 72 40 66 41 68 42 34 43 71 44 65 45
REMARK SMILES IDX 64 46 35 48 57 49 42 50 56 51 43 52 46 53 55 54 69 55 44 56
REMARK SMILES IDX 45 57 54 59 70 60 47 61 36 62 37 63 41 64 38 65 40 66 39 67
REMARK SMILES IDX 58 68 59 69 63 70 60 71 62 72 61 73 48 74 49 75 53 76 50 77
REMARK SMILES IDX 52 78 51 79
REMARK H PARENT 17 6 3 10 24 28 68 47 46 58
REMARK Flexibility Score: inf
ROOT
ATOM      1  C   UNL A   1      36.923  23.559  26.099  1.00  0.00     0.021 C 
ENDROOT
BRANCH   1   2
ATOM      2  C   UNL A   1      35.405  23.706  26.056  1.00  0.00     0.116 C 
BRANCH   2   3
ATOM      3  N   UNL A   1      35.016  24.691  25.061  1.00  0.00    -0.355 N 
ATOM      4  C   UNL A   1      33.841  25.357  24.883  1.00  0.00     0.237 C 
ATOM      5  O   UNL A   1      33.808  26.231  24.012  1.00  0.00    -0.273 OA
ATOM      6  H   UNL A   1      35.718  24.913  24.407  1.00  0.00     0.163 HD
BRANCH   4   7
ATOM      7  C   UNL A   1      32.604  25.041  25.719  1.00  0.00     0.155 C 
ATOM      8  C   UNL A   1      31.698  26.262  25.843  1.00  0.00     0.036 C 
BRANCH   7   9
ATOM      9  N   UNL A   1      31.852  23.873  25.184  1.00  0.00    -0.199 NA
ATOM     10  H   UNL A   1      32.345  23.536  24.357  1.00  0.00     0.142 HD
BRANCH   9  11
ATOM     11  S   UNL A   1      31.662  22.557  26.254  1.00  0.00     0.234 S 
ATOM     12  O   UNL A   1      32.175  23.017  27.527  1.00  0.00    -0.208 OA
ATOM     13  O   UNL A   1      30.265  22.197  26.130  1.00  0.00    -0.208 OA
BRANCH  11  14
ATOM     14  C   UNL A   1      32.647  21.257  25.679  1.00  0.00     0.123 C 
ATOM     15  C   UNL A   1      32.125  20.389  24.803  1.00  0.00     0.021 C 
BRANCH  15  16
ATOM     16  C   UNL A   1      32.873  19.285  24.203  1.00  0.00    -0.025 A 
ATOM     17  C   UNL A   1      32.351  18.538  23.140  1.00  0.00     0.008 A 
ATOM     18  C   UNL A   1      34.096  18.909  24.766  1.00  0.00     0.008 A 
ATOM     19  C   UNL A   1      33.019  17.401  22.681  1.00  0.00     0.001 A 
ATOM     20  C   UNL A   1      34.776  17.786  24.289  1.00  0.00     0.001 A 
ATOM     21  C   UNL A   1      34.229  17.023  23.258  1.00  0.00     0.000 A 
ENDBRANCH  15  16
ENDBRANCH  11  14
ENDBRANCH   9  11
ENDBRANCH   7   9
ENDBRANCH   4   7
ENDBRANCH   2   3
ENDBRANCH   1   2
BRANCH   1  22
ATOM     22  C   UNL A   1      37.507  22.774  24.917  1.00  0.00     0.002 C 
BRANCH  22  23
ATOM     23  C   UNL A   1      36.853  21.413  24.656  1.00  0.00     0.002 C 
BRANCH  23  24
ATOM     24  C   UNL A   1      37.722  20.199  24.990  1.00  0.00     0.021 C 
BRANCH  24  25
ATOM     25  C   UNL A   1      38.991  20.513  25.775  1.00  0.00     0.116 C 
BRANCH  25  26
ATOM     26  N   UNL A   1      39.913  19.389  25.823  1.00  0.00    -0.352 N 
ATOM     27  C   UNL A   1      41.264  19.392  26.067  1.00  0.00     0.251 C 
ATOM     28  H   UNL A   1      39.513  18.504  25.658  1.00  0.00     0.163 HD
ATOM     29  O   UNL A   1      41.928  18.371  25.926  1.00  0.00    -0.269 OA
BRANCH  27  30
ATOM     30  C   UNL A   1      41.922  20.651  26.472  1.00  0.00     0.039 A 
ATOM     31  C   UNL A   1      42.347  21.539  25.482  1.00  0.00     0.014 A 
ATOM     32  C   UNL A   1      42.086  20.966  27.824  1.00  0.00     0.014 A 
ATOM     33  C   UNL A   1      42.871  22.780  25.848  1.00  0.00     0.010 A 
ATOM     34  C   UNL A   1      42.543  22.230  28.186  1.00  0.00     0.010 A 
ATOM     35  C   UNL A   1      42.933  23.151  27.202  1.00  0.00    -0.014 A 
BRANCH  35  36
ATOM     36  C   UNL A   1      43.376  24.508  27.606  1.00  0.00     0.031 A 
ATOM     37  C   UNL A   1      42.367  25.559  27.975  1.00  0.00     0.074 A 
ATOM     38  C   UNL A   1      44.686  24.817  27.563  1.00  0.00     0.049 A 
ATOM     39  N   UNL A   1      42.561  26.815  28.287  1.00  0.00    -0.248 NA
ATOM     40  C   UNL A   1      40.953  25.150  27.968  1.00  0.00     0.031 C 
ATOM     41  C   UNL A   1      45.761  23.902  27.176  1.00  0.00     0.029 A 
ATOM     42  N   UNL A   1      45.336  25.996  27.836  1.00  0.00    -0.354 N 
ATOM     43  C   UNL A   1      41.297  27.349  28.501  1.00  0.00     0.074 A 
ATOM     44  C   UNL A   1      40.342  26.295  28.230  1.00  0.00     0.031 C 
ATOM     45  C   UNL A   1      46.935  24.546  27.251  1.00  0.00     0.029 A 
ATOM     46  C   UNL A   1      46.695  25.930  27.650  1.00  0.00     0.049 A 
ATOM     47  H   UNL A   1      44.871  26.810  28.136  1.00  0.00     0.167 HD
ATOM     48  C   UNL A   1      40.960  28.598  28.905  1.00  0.00     0.031 A 
ATOM     49  C   UNL A   1      47.643  26.878  27.771  1.00  0.00     0.031 A 
ATOM     50  C   UNL A   1      41.911  29.646  29.167  1.00  0.00     0.049 A 
ATOM     51  C   UNL A   1      47.245  28.263  28.195  1.00  0.00     0.074 A 
ATOM     52  C   UNL A   1      41.674  30.927  29.632  1.00  0.00     0.029 A 
ATOM     53  N   UNL A   1      43.280  29.536  28.975  1.00  0.00    -0.354 N 
ATOM     54  N   UNL A   1      46.052  28.732  28.470  1.00  0.00    -0.248 NA
ATOM     55  C   UNL A   1      48.327  29.249  28.335  1.00  0.00     0.031 C 
ATOM     56  C   UNL A   1      42.893  31.612  29.665  1.00  0.00     0.029 A 
ATOM     57  C   UNL A   1      43.898  30.737  29.281  1.00  0.00     0.049 A 
ATOM     58  H   UNL A   1      43.743  28.724  28.668  1.00  0.00     0.167 HD
ATOM     59  C   UNL A   1      46.240  30.059  28.833  1.00  0.00     0.074 A 
ATOM     60  C   UNL A   1      47.664  30.314  28.764  1.00  0.00     0.031 C 
ATOM     61  C   UNL A   1      45.314  30.982  29.194  1.00  0.00     0.031 A 
BRANCH  48  62
ATOM     62  C   UNL A   1      39.494  28.896  29.068  1.00  0.00    -0.014 A 
ATOM     63  C   UNL A   1      38.841  28.690  30.294  1.00  0.00     0.009 A 
ATOM     64  C   UNL A   1      38.760  29.404  27.986  1.00  0.00     0.009 A 
ATOM     65  C   UNL A   1      37.473  28.941  30.418  1.00  0.00     0.001 A 
ATOM     66  C   UNL A   1      37.400  29.686  28.122  1.00  0.00     0.001 A 
ATOM     67  C   UNL A   1      36.754  29.442  29.334  1.00  0.00     0.000 A 
ENDBRANCH  48  62
BRANCH  49  68
ATOM     68  C   UNL A   1      49.061  26.543  27.482  1.00  0.00    -0.014 A 
ATOM     69  C   UNL A   1      49.911  26.086  28.501  1.00  0.00     0.009 A 
ATOM     70  C   UNL A   1      49.569  26.664  26.179  1.00  0.00     0.009 A 
ATOM     71  C   UNL A   1      51.245  25.778  28.224  1.00  0.00     0.001 A 
ATOM     72  C   UNL A   1      50.895  26.326  25.899  1.00  0.00     0.001 A 
ATOM     73  C   UNL A   1      51.734  25.891  26.923  1.00  0.00     0.000 A 
ENDBRANCH  49  68
BRANCH  61  74
ATOM     74  C   UNL A   1      45.816  32.352  29.558  1.00  0.00    -0.014 A 
ATOM     75  C   UNL A   1      46.271  32.640  30.856  1.00  0.00     0.009 A 
ATOM     76  C   UNL A   1      45.876  33.355  28.578  1.00  0.00     0.009 A 
ATOM     77  C   UNL A   1      46.748  33.914  31.169  1.00  0.00     0.001 A 
ATOM     78  C   UNL A   1      46.382  34.618  28.887  1.00  0.00     0.001 A 
ATOM     79  C   UNL A   1      46.809  34.900  30.183  1.00  0.00     0.000 A 
ENDBRANCH  61  74
ENDBRANCH  35  36
ENDBRANCH  27  30
ENDBRANCH  25  26
ENDBRANCH  24  25
ENDBRANCH  23  24
ENDBRANCH  22  23
ENDBRANCH   1  22
TORSDOF 17
ENDMDL
MODEL 2
REMARK VINA RESULT:     -10.4      1.688      3.440
REMARK SMILES C[C@@H](NS(=O)(=O)/C=C/c1ccccc1)C(=O)NCCCCCCNC(=O)c1ccc(-c2c3nc(c(-c4ccccc4)c4ccc([nH]4)c(-c4ccccc4)c4nc(c(-c5ccccc5)c5ccc2[nH]5)C=C4)C=C3)cc1
REMARK SMILES IDX 19 1 18 2 17 3 15 4 16 5 2 7 1 8 3 9 4 11 5 12 6 13 7 14
REMARK SMILES IDX 8 15 9 16 10 17 14 18 11 19 13 20 12 21 20 22 21 23 22 24
REMARK SMILES IDX 23 25 24 26 25 27 26 29 27 30 28 31 74 32 29 33 73 34 30 35
REMARK SMILES IDX 31 36 32 37 67 38 33 39 72 40 66 41 68 42 34 43 71 44 65 45
REMARK SMILES IDX 64 46 35 48 57 49 42 50 56 51 43 52 46 53 55 54 69 55 44 56
REMARK SMILES IDX 45 57 54 59 70 60 47 61 36 62 37 63 41 64 38 65 40 66 39 67
REMARK SMILES IDX 58 68 59 69 63 70 60 71 62 72 61 73 48 74 49 75 53 76 50 77
REMARK SMILES IDX 52 78 51 79
REMARK H PARENT 17 6 3 10 24 28 68 47 46 58
REMARK Flexibility Score: inf
ROOT
ATOM      1  C   UNL A   1      35.762  22.793  25.066  1.00  0.00     0.021 C 
ENDROOT
BRANCH   1   2
ATOM      2  C   UNL A   1      35.229  22.186  26.361  1.00  0.00     0.116 C 
BRANCH   2   3
ATOM      3  N   UNL A   1      34.601  20.903  26.102  1.00  0.00    -0.355 N 
ATOM      4  C   UNL A   1      33.437  20.596  25.463  1.00  0.00     0.237 C 
ATOM      5  O   UNL A   1      33.182  19.402  25.285  1.00  0.00    -0.273 OA
ATOM      6  H   UNL A   1      35.098  20.125  26.446  1.00  0.00     0.163 HD
BRANCH   4   7
ATOM      7  C   UNL A   1      32.474  21.680  24.985  1.00  0.00     0.155 C 
ATOM      8  C   UNL A   1      32.112  21.483  23.516  1.00  0.00     0.036 C 
BRANCH   7   9
ATOM      9  N   UNL A   1      31.250  21.752  25.829  1.00  0.00    -0.199 NA
ATOM     10  H   UNL A   1      31.173  20.875  26.344  1.00  0.00     0.142 HD
BRANCH   9  11
ATOM     11  S   UNL A   1      31.201  23.029  26.960  1.00  0.00     0.234 S 
ATOM     12  O   UNL A   1      29.827  23.098  27.406  1.00  0.00    -0.208 OA
ATOM     13  O   UNL A   1      32.249  22.706  27.906  1.00  0.00    -0.208 OA
BRANCH  11  14
ATOM     14  C   UNL A   1      31.604  24.491  26.129  1.00  0.00     0.123 C 
ATOM     15  C   UNL A   1      32.837  24.997  26.269  1.00  0.00     0.021 C 
BRANCH  15  16
ATOM     16  C   UNL A   1      33.313  26.192  25.576  1.00  0.00    -0.025 A 
ATOM     17  C   UNL A   1      33.586  27.379  26.266  1.00  0.00     0.008 A 
ATOM     18  C   UNL A   1      33.408  26.176  24.181  1.00  0.00     0.008 A 
ATOM     19  C   UNL A   1      33.901  28.546  25.567  1.00  0.00     0.001 A 
ATOM     20  C   UNL A   1      33.747  27.338  23.484  1.00  0.00     0.001 A 
ATOM     21  C   UNL A   1      33.977  28.526  24.175  1.00  0.00     0.000 A 
ENDBRANCH  15  16
ENDBRANCH  11  14
ENDBRANCH   9  11
ENDBRANCH   7   9
ENDBRANCH   4   7
ENDBRANCH   2   3
ENDBRANCH   1   2
BRANCH   1  22
ATOM     22  C   UNL A   1      36.838  21.943  24.377  1.00  0.00     0.002 C 
BRANCH  22  23
ATOM     23  C   UNL A   1      38.026  21.558  25.264  1.00  0.00     0.002 C 
BRANCH  23  24
ATOM     24  C   UNL A   1      38.605  20.165  25.009  1.00  0.00     0.021 C 
BRANCH  24  25
ATOM     25  C   UNL A   1      39.304  19.530  26.207  1.00  0.00     0.116 C 
BRANCH  25  26
ATOM     26  N   UNL A   1      40.604  18.974  25.867  1.00  0.00    -0.352 N 
ATOM     27  C   UNL A   1      41.835  19.581  25.894  1.00  0.00     0.251 C 
ATOM     28  H   UNL A   1      40.602  18.032  25.579  1.00  0.00     0.163 HD
ATOM     29  O   UNL A   1      42.822  19.018  25.434  1.00  0.00    -0.269 OA
BRANCH  27  30
ATOM     30  C   UNL A   1      41.957  20.943  26.454  1.00  0.00     0.039 A 
ATOM     31  C   UNL A   1      41.901  21.110  27.839  1.00  0.00     0.014 A 
ATOM     32  C   UNL A   1      42.160  22.043  25.615  1.00  0.00     0.014 A 
ATOM     33  C   UNL A   1      42.124  22.373  28.390  1.00  0.00     0.010 A 
ATOM     34  C   UNL A   1      42.451  23.286  26.168  1.00  0.00     0.010 A 
ATOM     35  C   UNL A   1      42.443  23.461  27.561  1.00  0.00    -0.014 A 
BRANCH  35  36
ATOM     36  C   UNL A   1      42.798  24.783  28.133  1.00  0.00     0.031 A 
ATOM     37  C   UNL A   1      41.743  25.834  28.334  1.00  0.00     0.074 A 
ATOM     38  C   UNL A   1      44.088  25.065  28.399  1.00  0.00     0.049 A 
ATOM     39  N   UNL A   1      41.874  27.065  28.756  1.00  0.00    -0.248 NA
ATOM     40  C   UNL A   1      40.362  25.457  27.991  1.00  0.00     0.031 C 
ATOM     41  C   UNL A   1      45.214  24.150  28.203  1.00  0.00     0.029 A 
ATOM     42  N   UNL A   1      44.672  26.212  28.877  1.00  0.00    -0.354 N 
ATOM     43  C   UNL A   1      40.598  27.614  28.718  1.00  0.00     0.074 A 
ATOM     44  C   UNL A   1      39.718  26.599  28.181  1.00  0.00     0.031 C 
ATOM     45  C   UNL A   1      46.348  24.763  28.573  1.00  0.00     0.029 A 
ATOM     46  C   UNL A   1      46.038  26.127  28.991  1.00  0.00     0.049 A 
ATOM     47  H   UNL A   1      44.160  27.018  29.116  1.00  0.00     0.167 HD
ATOM     48  C   UNL A   1      40.193  28.846  29.112  1.00  0.00     0.031 A 
ATOM     49  C   UNL A   1      46.944  27.046  29.375  1.00  0.00     0.031 A 
ATOM     50  C   UNL A   1      41.071  29.856  29.639  1.00  0.00     0.049 A 
ATOM     51  C   UNL A   1      46.475  28.413  29.783  1.00  0.00     0.074 A 
ATOM     52  C   UNL A   1      40.749  31.114  30.116  1.00  0.00     0.029 A 
ATOM     53  N   UNL A   1      42.448  29.727  29.746  1.00  0.00    -0.354 N 
ATOM     54  N   UNL A   1      45.255  28.892  29.816  1.00  0.00    -0.248 NA
ATOM     55  C   UNL A   1      47.508  29.365  30.216  1.00  0.00     0.031 C 
ATOM     56  C   UNL A   1      41.937  31.769  30.458  1.00  0.00     0.029 A 
ATOM     57  C   UNL A   1      42.993  30.895  30.252  1.00  0.00     0.049 A 
ATOM     58  H   UNL A   1      42.960  28.924  29.501  1.00  0.00     0.167 HD
ATOM     59  C   UNL A   1      45.370  30.191  30.291  1.00  0.00     0.074 A 
ATOM     60  C   UNL A   1      46.777  30.419  30.552  1.00  0.00     0.031 C 
ATOM     61  C   UNL A   1      44.396  31.113  30.494  1.00  0.00     0.031 A 
BRANCH  48  62
ATOM     62  C   UNL A   1      38.729  29.166  28.966  1.00  0.00    -0.014 A 
ATOM     63  C   UNL A   1      37.846  29.048  30.051  1.00  0.00     0.009 A 
ATOM     64  C   UNL A   1      38.231  29.608  27.731  1.00  0.00     0.009 A 
ATOM     65  C   UNL A   1      36.486  29.318  29.889  1.00  0.00     0.001 A 
ATOM     66  C   UNL A   1      36.876  29.910  27.581  1.00  0.00     0.001 A 
ATOM     67  C   UNL A   1      36.002  29.752  28.656  1.00  0.00     0.000 A 
ENDBRANCH  48  62
BRANCH  49  68
ATOM     68  C   UNL A   1      48.389  26.697  29.386  1.00  0.00    -0.014 A 
ATOM     69  C   UNL A   1      49.003  26.228  30.557  1.00  0.00     0.009 A 
ATOM     70  C   UNL A   1      49.158  26.816  28.217  1.00  0.00     0.009 A 
ATOM     71  C   UNL A   1      50.363  25.906  30.561  1.00  0.00     0.001 A 
ATOM     72  C   UNL A   1      50.509  26.464  28.218  1.00  0.00     0.001 A 
ATOM     73  C   UNL A   1      51.112  26.018  29.391  1.00  0.00     0.000 A 
ENDBRANCH  49  68
BRANCH  61  74
ATOM     74  C   UNL A   1      44.817  32.449  31.041  1.00  0.00    -0.014 A 
ATOM     75  C   UNL A   1      44.949  32.661  32.423  1.00  0.00     0.009 A 
ATOM     76  C   UNL A   1      45.131  33.495  30.159  1.00  0.00     0.009 A 
ATOM     77  C   UNL A   1      45.357  33.905  32.910  1.00  0.00     0.001 A 
ATOM     78  C   UNL A   1      45.568  34.726  30.648  1.00  0.00     0.001 A 
ATOM     79  C   UNL A   1      45.672  34.934  32.022  1.00  0.00     0.000 A 
ENDBRANCH  61  74
ENDBRANCH  35  36
ENDBRANCH  27  30
ENDBRANCH  25  26
ENDBRANCH  24  25
ENDBRANCH  23  24
ENDBRANCH  22  23
ENDBRANCH   1  22
TORSDOF 17
ENDMDL
MODEL 3
REMARK VINA RESULT:     -10.2      4.910      9.807
REMARK SMILES C[C@@H](NS(=O)(=O)/C=C/c1ccccc1)C(=O)NCCCCCCNC(=O)c1ccc(-c2c3nc(c(-c4ccccc4)c4ccc([nH]4)c(-c4ccccc4)c4nc(c(-c5ccccc5)c5ccc2[nH]5)C=C4)C=C3)cc1
REMARK SMILES IDX 19 1 18 2 17 3 15 4 16 5 2 7 1 8 3 9 4 11 5 12 6 13 7 14
REMARK SMILES IDX 8 15 9 16 10 17 14 18 11 19 13 20 12 21 20 22 21 23 22 24
REMARK SMILES IDX 23 25 24 26 25 27 26 29 27 30 28 31 74 32 29 33 73 34 30 35
REMARK SMILES IDX 31 36 32 37 67 38 33 39 72 40 66 41 68 42 34 43 71 44 65 45
REMARK SMILES IDX 64 46 35 48 57 49 42 50 56 51 43 52 46 53 55 54 69 55 44 56
REMARK SMILES IDX 45 57 54 59 70 60 47 61 36 62 37 63 41 64 38 65 40 66 39 67
REMARK SMILES IDX 58 68 59 69 63 70 60 71 62 72 61 73 48 74 49 75 53 76 50 77
REMARK SMILES IDX 52 78 51 79
REMARK H PARENT 17 6 3 10 24 28 68 47 46 58
REMARK Flexibility Score: inf
ROOT
ATOM      1  C   UNL A   1      33.180  28.666  27.230  1.00  0.00     0.021 C 
ENDROOT
BRANCH   1   2
ATOM      2  C   UNL A   1      33.458  27.456  26.342  1.00  0.00     0.116 C 
BRANCH   2   3
ATOM      3  N   UNL A   1      32.370  26.498  26.431  1.00  0.00    -0.355 N 
ATOM      4  C   UNL A   1      32.124  25.364  25.717  1.00  0.00     0.237 C 
ATOM      5  O   UNL A   1      31.170  24.664  26.068  1.00  0.00    -0.273 OA
ATOM      6  H   UNL A   1      31.697  26.703  27.120  1.00  0.00     0.163 HD
BRANCH   4   7
ATOM      7  C   UNL A   1      32.987  24.965  24.523  1.00  0.00     0.155 C 
ATOM      8  C   UNL A   1      33.722  23.655  24.789  1.00  0.00     0.036 C 
BRANCH   7   9
ATOM      9  N   UNL A   1      32.196  24.884  23.264  1.00  0.00    -0.199 NA
ATOM     10  H   UNL A   1      31.236  24.646  23.513  1.00  0.00     0.142 HD
BRANCH   9  11
ATOM     11  S   UNL A   1      32.157  26.304  22.318  1.00  0.00     0.234 S 
ATOM     12  O   UNL A   1      33.349  27.041  22.677  1.00  0.00    -0.208 OA
ATOM     13  O   UNL A   1      31.990  25.823  20.963  1.00  0.00    -0.208 OA
BRANCH  11  14
ATOM     14  C   UNL A   1      30.763  27.215  22.784  1.00  0.00     0.123 C 
ATOM     15  C   UNL A   1      30.722  28.524  22.505  1.00  0.00     0.021 C 
BRANCH  15  16
ATOM     16  C   UNL A   1      29.579  29.387  22.797  1.00  0.00    -0.025 A 
ATOM     17  C   UNL A   1      29.745  30.738  23.125  1.00  0.00     0.008 A 
ATOM     18  C   UNL A   1      28.299  28.826  22.840  1.00  0.00     0.008 A 
ATOM     19  C   UNL A   1      28.653  31.503  23.539  1.00  0.00     0.001 A 
ATOM     20  C   UNL A   1      27.204  29.600  23.230  1.00  0.00     0.001 A 
ATOM     21  C   UNL A   1      27.383  30.932  23.596  1.00  0.00     0.000 A 
ENDBRANCH  15  16
ENDBRANCH  11  14
ENDBRANCH   9  11
ENDBRANCH   7   9
ENDBRANCH   4   7
ENDBRANCH   2   3
ENDBRANCH   1   2
BRANCH   1  22
ATOM     22  C   UNL A   1      31.800  29.298  27.006  1.00  0.00     0.002 C 
BRANCH  22  23
ATOM     23  C   UNL A   1      31.782  30.493  26.047  1.00  0.00     0.002 C 
BRANCH  23  24
ATOM     24  C   UNL A   1      31.506  31.849  26.701  1.00  0.00     0.021 C 
BRANCH  24  25
ATOM     25  C   UNL A   1      32.728  32.529  27.311  1.00  0.00     0.116 C 
BRANCH  25  26
ATOM     26  N   UNL A   1      32.480  33.918  27.660  1.00  0.00    -0.352 N 
ATOM     27  C   UNL A   1      33.144  34.712  28.562  1.00  0.00     0.251 C 
ATOM     28  H   UNL A   1      31.733  34.350  27.185  1.00  0.00     0.163 HD
ATOM     29  O   UNL A   1      32.717  35.824  28.851  1.00  0.00    -0.269 OA
BRANCH  27  30
ATOM     30  C   UNL A   1      34.368  34.200  29.212  1.00  0.00     0.039 A 
ATOM     31  C   UNL A   1      34.256  33.541  30.438  1.00  0.00     0.014 A 
ATOM     32  C   UNL A   1      35.614  34.341  28.594  1.00  0.00     0.014 A 
ATOM     33  C   UNL A   1      35.386  32.956  31.010  1.00  0.00     0.010 A 
ATOM     34  C   UNL A   1      36.725  33.697  29.131  1.00  0.00     0.010 A 
ATOM     35  C   UNL A   1      36.620  32.993  30.340  1.00  0.00    -0.014 A 
BRANCH  35  36
ATOM     36  C   UNL A   1      37.806  32.278  30.874  1.00  0.00     0.031 A 
ATOM     37  C   UNL A   1      38.568  32.835  32.043  1.00  0.00     0.074 A 
ATOM     38  C   UNL A   1      38.242  31.164  30.255  1.00  0.00     0.049 A 
ATOM     39  N   UNL A   1      39.663  32.388  32.602  1.00  0.00    -0.248 NA
ATOM     40  C   UNL A   1      38.043  34.072  32.645  1.00  0.00     0.031 C 
ATOM     41  C   UNL A   1      37.620  30.547  29.082  1.00  0.00     0.029 A 
ATOM     42  N   UNL A   1      39.324  30.360  30.517  1.00  0.00    -0.354 N 
ATOM     43  C   UNL A   1      39.966  33.293  33.612  1.00  0.00     0.074 A 
ATOM     44  C   UNL A   1      38.970  34.341  33.552  1.00  0.00     0.031 C 
ATOM     45  C   UNL A   1      38.319  29.455  28.737  1.00  0.00     0.029 A 
ATOM     46  C   UNL A   1      39.461  29.317  29.635  1.00  0.00     0.049 A 
ATOM     47  H   UNL A   1      39.942  30.518  31.268  1.00  0.00     0.167 HD
ATOM     48  C   UNL A   1      40.971  33.246  34.520  1.00  0.00     0.031 A 
ATOM     49  C   UNL A   1      40.407  28.363  29.547  1.00  0.00     0.031 A 
ATOM     50  C   UNL A   1      41.964  32.206  34.573  1.00  0.00     0.049 A 
ATOM     51  C   UNL A   1      41.527  28.345  30.548  1.00  0.00     0.074 A 
ATOM     52  C   UNL A   1      42.989  32.040  35.488  1.00  0.00     0.029 A 
ATOM     53  N   UNL A   1      42.063  31.162  33.666  1.00  0.00    -0.354 N 
ATOM     54  N   UNL A   1      41.755  29.163  31.546  1.00  0.00    -0.248 NA
ATOM     55  C   UNL A   1      42.515  27.265  30.416  1.00  0.00     0.031 C 
ATOM     56  C   UNL A   1      43.744  30.929  35.100  1.00  0.00     0.029 A 
ATOM     57  C   UNL A   1      43.152  30.366  33.980  1.00  0.00     0.049 A 
ATOM     58  H   UNL A   1      41.449  31.009  32.913  1.00  0.00     0.167 HD
ATOM     59  C   UNL A   1      42.899  28.688  32.172  1.00  0.00     0.074 A 
ATOM     60  C   UNL A   1      43.306  27.497  31.454  1.00  0.00     0.031 C 
ATOM     61  C   UNL A   1      43.553  29.192  33.248  1.00  0.00     0.031 A 
BRANCH  48  62
ATOM     62  C   UNL A   1      41.048  34.370  35.518  1.00  0.00    -0.014 A 
ATOM     63  C   UNL A   1      40.356  34.310  36.739  1.00  0.00     0.009 A 
ATOM     64  C   UNL A   1      41.836  35.497  35.241  1.00  0.00     0.009 A 
ATOM     65  C   UNL A   1      40.414  35.376  37.638  1.00  0.00     0.001 A 
ATOM     66  C   UNL A   1      41.919  36.548  36.157  1.00  0.00     0.001 A 
ATOM     67  C   UNL A   1      41.197  36.492  37.349  1.00  0.00     0.000 A 
ENDBRANCH  48  62
BRANCH  49  68
ATOM     68  C   UNL A   1      40.332  27.349  28.463  1.00  0.00    -0.014 A 
ATOM     69  C   UNL A   1      39.675  26.127  28.671  1.00  0.00     0.009 A 
ATOM     70  C   UNL A   1      40.904  27.606  27.207  1.00  0.00     0.009 A 
ATOM     71  C   UNL A   1      39.612  25.175  27.650  1.00  0.00     0.001 A 
ATOM     72  C   UNL A   1      40.813  26.666  26.179  1.00  0.00     0.001 A 
ATOM     73  C   UNL A   1      40.174  25.448  26.403  1.00  0.00     0.000 A 
ENDBRANCH  49  68
BRANCH  61  74
ATOM     74  C   UNL A   1      44.769  28.447  33.725  1.00  0.00    -0.014 A 
ATOM     75  C   UNL A   1      44.662  27.384  34.637  1.00  0.00     0.009 A 
ATOM     76  C   UNL A   1      46.035  28.783  33.219  1.00  0.00     0.009 A 
ATOM     77  C   UNL A   1      45.802  26.694  35.054  1.00  0.00     0.001 A 
ATOM     78  C   UNL A   1      47.168  28.073  33.615  1.00  0.00     0.001 A 
ATOM     79  C   UNL A   1      47.053  27.035  34.538  1.00  0.00     0.000 A 
ENDBRANCH  61  74
ENDBRANCH  35  36
ENDBRANCH  27  30
ENDBRANCH  25  26
ENDBRANCH  24  25
ENDBRANCH  23  24
ENDBRANCH  22  23
ENDBRANCH   1  22
TORSDOF 17
ENDMDL
