MODEL 1
REMARK VINA RESULT:     -12.0      0.000      0.000
REMARK SMILES CC1=Nc2c(c(C)nn2-c2ccc(F)cc2)[C@H](c2ccc(C(=O)NCCCCCCNC(=O)c3ccc(-c4c5nc(c(-c6ccccc6)c6ccc([nH]6)c(-c6ccccc6)c6nc(c(-c7ccccc7)c7ccc4[nH]7)C=C6)C=C5)cc3)cc2)S1
REMARK SMILES IDX 27 1 26 2 25 3 24 4 22 5 23 6 21 8 18 9 19 10 83 11 20 12
REMARK SMILES IDX 82 13 17 14 1 15 2 16 3 17 84 18 4 19 5 20 9 21 6 22 8 23
REMARK SMILES IDX 7 24 10 25 11 26 16 27 12 28 15 29 13 30 14 31 28 32 29 33
REMARK SMILES IDX 30 34 31 35 32 36 33 38 34 39 35 40 81 41 36 42 80 43 37 44
REMARK SMILES IDX 38 45 39 46 74 47 40 48 79 49 73 50 75 51 41 52 78 53 72 54
REMARK SMILES IDX 71 55 42 57 64 58 49 59 63 60 50 61 53 62 62 63 76 64 51 65
REMARK SMILES IDX 52 66 61 68 77 69 54 70 43 71 44 72 48 73 45 74 47 75 46 76
REMARK SMILES IDX 65 77 66 78 70 79 67 80 69 81 68 82 55 83 56 84 60 85 57 86
REMARK SMILES IDX 59 87 58 88
REMARK H PARENT 24 7 31 37 75 56 53 67
REMARK Flexibility Score: inf
ROOT
ATOM      1  C   UNL A   1      34.405  33.454  28.250  1.00  0.00     0.002 C 
ENDROOT
BRANCH   1   2
ATOM      2  C   UNL A   1      32.989  33.035  27.835  1.00  0.00     0.021 C 
BRANCH   2   3
ATOM      3  C   UNL A   1      32.925  31.628  27.238  1.00  0.00     0.116 C 
BRANCH   3   4
ATOM      4  N   UNL A   1      34.207  30.970  27.394  1.00  0.00    -0.352 N 
ATOM      5  C   UNL A   1      34.614  29.688  27.144  1.00  0.00     0.251 C 
ATOM      6  O   UNL A   1      35.783  29.390  27.383  1.00  0.00    -0.269 OA
ATOM      7  H   UNL A   1      34.916  31.555  27.745  1.00  0.00     0.163 HD
BRANCH   5   8
ATOM      8  C   UNL A   1      33.723  28.678  26.522  1.00  0.00     0.039 A 
ATOM      9  C   UNL A   1      32.017  26.879  25.161  1.00  0.00    -0.030 A 
ATOM     10  C   UNL A   1      32.885  27.727  24.453  1.00  0.00     0.006 A 
ATOM     11  C   UNL A   1      32.054  26.922  26.566  1.00  0.00     0.006 A 
ATOM     12  C   UNL A   1      33.734  28.607  25.126  1.00  0.00     0.014 A 
ATOM     13  C   UNL A   1      32.914  27.796  27.239  1.00  0.00     0.014 A 
BRANCH   9  14
ATOM     14  C   UNL A   1      31.148  25.902  24.381  1.00  0.00     0.119 C 
ATOM     15  C   UNL A   1      29.568  23.368  27.250  1.00  0.00     0.075 C 
ATOM     16  C   UNL A   1      30.314  23.832  26.026  1.00  0.00     0.074 C 
ATOM     17  N   UNL A   1      31.299  23.105  25.602  1.00  0.00    -0.227 NA
ATOM     18  S   UNL A   1      29.693  25.308  25.300  1.00  0.00    -0.098 SA
ATOM     19  C   UNL A   1      32.025  23.554  24.549  1.00  0.00     0.161 A 
ATOM     20  C   UNL A   1      32.051  24.803  23.976  1.00  0.00     0.038 A 
ATOM     21  N   UNL A   1      33.001  22.811  23.903  1.00  0.00    -0.215 N 
ATOM     22  C   UNL A   1      33.103  24.749  23.023  1.00  0.00     0.067 A 
ATOM     23  N   UNL A   1      33.745  23.575  23.064  1.00  0.00    -0.171 NA
ATOM     24  C   UNL A   1      33.560  25.805  22.084  1.00  0.00     0.069 C 
BRANCH  21  25
ATOM     25  C   UNL A   1      33.227  21.419  24.011  1.00  0.00     0.067 A 
ATOM     26  C   UNL A   1      34.348  20.954  24.715  1.00  0.00     0.031 A 
ATOM     27  C   UNL A   1      32.324  20.519  23.432  1.00  0.00     0.031 A 
ATOM     28  C   UNL A   1      34.567  19.584  24.836  1.00  0.00     0.041 A 
ATOM     29  C   UNL A   1      32.581  19.150  23.514  1.00  0.00     0.041 A 
ATOM     30  C   UNL A   1      33.692  18.696  24.219  1.00  0.00     0.123 A 
ATOM     31  F   UNL A   1      33.925  17.381  24.309  1.00  0.00    -0.207 F 
ENDBRANCH  21  25
ENDBRANCH   9  14
ENDBRANCH   5   8
ENDBRANCH   3   4
ENDBRANCH   2   3
ENDBRANCH   1   2
BRANCH   1  32
ATOM     32  C   UNL A   1      34.559  34.921  28.686  1.00  0.00     0.002 C 
BRANCH  32  33
ATOM     33  C   UNL A   1      33.263  35.665  29.046  1.00  0.00     0.021 C 
BRANCH  33  34
ATOM     34  C   UNL A   1      33.443  36.706  30.137  1.00  0.00     0.116 C 
BRANCH  34  35
ATOM     35  N   UNL A   1      32.658  36.398  31.337  1.00  0.00    -0.352 N 
ATOM     36  C   UNL A   1      32.755  35.311  32.191  1.00  0.00     0.251 C 
ATOM     37  H   UNL A   1      31.963  37.056  31.568  1.00  0.00     0.163 HD
ATOM     38  O   UNL A   1      31.834  34.987  32.917  1.00  0.00    -0.269 OA
BRANCH  36  39
ATOM     39  C   UNL A   1      34.024  34.564  32.215  1.00  0.00     0.039 A 
ATOM     40  C   UNL A   1      34.112  33.205  31.899  1.00  0.00     0.014 A 
ATOM     41  C   UNL A   1      35.159  35.292  32.542  1.00  0.00     0.014 A 
ATOM     42  C   UNL A   1      35.372  32.614  31.867  1.00  0.00     0.010 A 
ATOM     43  C   UNL A   1      36.386  34.788  32.244  1.00  0.00     0.010 A 
ATOM     44  C   UNL A   1      36.503  33.424  32.040  1.00  0.00    -0.014 A 
BRANCH  44  45
ATOM     45  C   UNL A   1      37.859  32.911  31.981  1.00  0.00     0.031 A 
ATOM     46  C   UNL A   1      38.570  32.893  33.278  1.00  0.00     0.074 A 
ATOM     47  C   UNL A   1      38.319  32.248  30.897  1.00  0.00     0.049 A 
ATOM     48  N   UNL A   1      39.572  33.624  33.631  1.00  0.00    -0.248 NA
ATOM     49  C   UNL A   1      38.018  32.064  34.362  1.00  0.00     0.031 C 
ATOM     50  C   UNL A   1      37.598  31.871  29.670  1.00  0.00     0.029 A 
ATOM     51  N   UNL A   1      39.519  31.642  30.725  1.00  0.00    -0.354 N 
ATOM     52  C   UNL A   1      39.915  33.205  34.910  1.00  0.00     0.074 A 
ATOM     53  C   UNL A   1      38.815  32.400  35.379  1.00  0.00     0.031 C 
ATOM     54  C   UNL A   1      38.286  30.909  29.016  1.00  0.00     0.029 A 
ATOM     55  C   UNL A   1      39.568  30.737  29.673  1.00  0.00     0.049 A 
ATOM     56  H   UNL A   1      40.295  31.830  31.301  1.00  0.00     0.167 HD
ATOM     57  C   UNL A   1      41.190  33.327  35.372  1.00  0.00     0.031 A 
ATOM     58  C   UNL A   1      40.581  29.883  29.390  1.00  0.00     0.031 A 
ATOM     59  C   UNL A   1      41.980  34.186  34.522  1.00  0.00     0.049 A 
ATOM     60  C   UNL A   1      41.788  30.402  30.080  1.00  0.00     0.074 A 
ATOM     61  C   UNL A   1      41.880  35.501  34.108  1.00  0.00     0.029 A 
ATOM     62  N   UNL A   1      42.821  33.572  33.623  1.00  0.00    -0.354 N 
ATOM     63  N   UNL A   1      42.352  31.535  29.768  1.00  0.00    -0.248 NA
ATOM     64  C   UNL A   1      42.065  29.917  31.423  1.00  0.00     0.031 C 
ATOM     65  C   UNL A   1      42.247  35.474  32.729  1.00  0.00     0.029 A 
ATOM     66  C   UNL A   1      42.626  34.169  32.404  1.00  0.00     0.049 A 
ATOM     67  H   UNL A   1      43.449  32.839  33.819  1.00  0.00     0.167 HD
ATOM     68  C   UNL A   1      42.676  32.117  30.986  1.00  0.00     0.074 A 
ATOM     69  C   UNL A   1      42.563  31.033  31.964  1.00  0.00     0.031 C 
ATOM     70  C   UNL A   1      42.715  33.476  31.137  1.00  0.00     0.031 A 
BRANCH  57  71
ATOM     71  C   UNL A   1      41.834  32.350  36.323  1.00  0.00    -0.014 A 
ATOM     72  C   UNL A   1      42.364  32.842  37.530  1.00  0.00     0.009 A 
ATOM     73  C   UNL A   1      42.191  31.037  35.965  1.00  0.00     0.009 A 
ATOM     74  C   UNL A   1      43.269  32.089  38.288  1.00  0.00     0.001 A 
ATOM     75  C   UNL A   1      43.059  30.266  36.741  1.00  0.00     0.001 A 
ATOM     76  C   UNL A   1      43.623  30.804  37.887  1.00  0.00     0.000 A 
ENDBRANCH  57  71
BRANCH  58  77
ATOM     77  C   UNL A   1      40.495  28.517  28.828  1.00  0.00    -0.014 A 
ATOM     78  C   UNL A   1      39.786  27.501  29.487  1.00  0.00     0.009 A 
ATOM     79  C   UNL A   1      40.897  28.275  27.501  1.00  0.00     0.009 A 
ATOM     80  C   UNL A   1      39.466  26.303  28.831  1.00  0.00     0.001 A 
ATOM     81  C   UNL A   1      40.579  27.080  26.845  1.00  0.00     0.001 A 
ATOM     82  C   UNL A   1      39.851  26.099  27.507  1.00  0.00     0.000 A 
ENDBRANCH  58  77
BRANCH  70  83
ATOM     83  C   UNL A   1      42.576  34.334  29.899  1.00  0.00    -0.014 A 
ATOM     84  C   UNL A   1      41.340  34.820  29.437  1.00  0.00     0.009 A 
ATOM     85  C   UNL A   1      43.744  34.815  29.290  1.00  0.00     0.009 A 
ATOM     86  C   UNL A   1      41.276  35.745  28.387  1.00  0.00     0.001 A 
ATOM     87  C   UNL A   1      43.682  35.751  28.256  1.00  0.00     0.001 A 
ATOM     88  C   UNL A   1      42.449  36.215  27.802  1.00  0.00     0.000 A 
ENDBRANCH  70  83
ENDBRANCH  44  45
ENDBRANCH  36  39
ENDBRANCH  34  35
ENDBRANCH  33  34
ENDBRANCH  32  33
ENDBRANCH   1  32
TORSDOF 15
ENDMDL
MODEL 2
REMARK VINA RESULT:     -11.7      3.785      6.147
REMARK SMILES CC1=Nc2c(c(C)nn2-c2ccc(F)cc2)[C@H](c2ccc(C(=O)NCCCCCCNC(=O)c3ccc(-c4c5nc(c(-c6ccccc6)c6ccc([nH]6)c(-c6ccccc6)c6nc(c(-c7ccccc7)c7ccc4[nH]7)C=C6)C=C5)cc3)cc2)S1
REMARK SMILES IDX 27 1 26 2 25 3 24 4 22 5 23 6 21 8 18 9 19 10 83 11 20 12
REMARK SMILES IDX 82 13 17 14 1 15 2 16 3 17 84 18 4 19 5 20 9 21 6 22 8 23
REMARK SMILES IDX 7 24 10 25 11 26 16 27 12 28 15 29 13 30 14 31 28 32 29 33
REMARK SMILES IDX 30 34 31 35 32 36 33 38 34 39 35 40 81 41 36 42 80 43 37 44
REMARK SMILES IDX 38 45 39 46 74 47 40 48 79 49 73 50 75 51 41 52 78 53 72 54
REMARK SMILES IDX 71 55 42 57 64 58 49 59 63 60 50 61 53 62 62 63 76 64 51 65
REMARK SMILES IDX 52 66 61 68 77 69 54 70 43 71 44 72 48 73 45 74 47 75 46 76
REMARK SMILES IDX 65 77 66 78 70 79 67 80 69 81 68 82 55 83 56 84 60 85 57 86
REMARK SMILES IDX 59 87 58 88
REMARK H PARENT 24 7 31 37 75 56 53 67
REMARK Flexibility Score: inf
ROOT
ATOM      1  C   UNL A   1      37.916  30.508  28.905  1.00  0.00     0.002 C 
ENDROOT
BRANCH   1   2
ATOM      2  C   UNL A   1      36.644  29.739  29.284  1.00  0.00     0.021 C 
BRANCH   2   3
ATOM      3  C   UNL A   1      35.701  29.508  28.102  1.00  0.00     0.116 C 
BRANCH   3   4
ATOM      4  N   UNL A   1      34.729  30.581  28.033  1.00  0.00    -0.352 N 
ATOM      5  C   UNL A   1      33.515  30.678  27.409  1.00  0.00     0.251 C 
ATOM      6  O   UNL A   1      32.890  31.733  27.509  1.00  0.00    -0.269 OA
ATOM      7  H   UNL A   1      34.991  31.390  28.529  1.00  0.00     0.163 HD
BRANCH   5   8
ATOM      8  C   UNL A   1      32.897  29.536  26.692  1.00  0.00     0.039 A 
ATOM      9  C   UNL A   1      31.604  27.501  25.213  1.00  0.00    -0.030 A 
ATOM     10  C   UNL A   1      31.772  28.789  24.676  1.00  0.00     0.006 A 
ATOM     11  C   UNL A   1      32.135  27.245  26.490  1.00  0.00     0.006 A 
ATOM     12  C   UNL A   1      32.420  29.789  25.402  1.00  0.00     0.014 A 
ATOM     13  C   UNL A   1      32.794  28.245  27.211  1.00  0.00     0.014 A 
BRANCH   9  14
ATOM     14  C   UNL A   1      30.935  26.432  24.361  1.00  0.00     0.119 C 
ATOM     15  C   UNL A   1      29.356  23.741  27.083  1.00  0.00     0.075 C 
ATOM     16  C   UNL A   1      30.169  24.284  25.937  1.00  0.00     0.074 C 
ATOM     17  N   UNL A   1      31.268  23.671  25.627  1.00  0.00    -0.227 NA
ATOM     18  S   UNL A   1      29.467  25.680  25.131  1.00  0.00    -0.098 SA
ATOM     19  C   UNL A   1      32.045  24.198  24.649  1.00  0.00     0.161 A 
ATOM     20  C   UNL A   1      31.992  25.441  24.065  1.00  0.00     0.038 A 
ATOM     21  N   UNL A   1      33.159  23.568  24.116  1.00  0.00    -0.215 N 
ATOM     22  C   UNL A   1      33.137  25.504  23.227  1.00  0.00     0.067 A 
ATOM     23  N   UNL A   1      33.897  24.410  23.349  1.00  0.00    -0.171 NA
ATOM     24  C   UNL A   1      33.569  26.603  22.327  1.00  0.00     0.069 C 
BRANCH  21  25
ATOM     25  C   UNL A   1      33.527  22.210  24.265  1.00  0.00     0.067 A 
ATOM     26  C   UNL A   1      32.623  21.204  23.889  1.00  0.00     0.031 A 
ATOM     27  C   UNL A   1      34.791  21.882  24.768  1.00  0.00     0.031 A 
ATOM     28  C   UNL A   1      32.987  19.866  24.021  1.00  0.00     0.041 A 
ATOM     29  C   UNL A   1      35.126  20.538  24.945  1.00  0.00     0.041 A 
ATOM     30  C   UNL A   1      34.226  19.546  24.564  1.00  0.00     0.123 A 
ATOM     31  F   UNL A   1      34.558  18.258  24.720  1.00  0.00    -0.207 F 
ENDBRANCH  21  25
ENDBRANCH   9  14
ENDBRANCH   5   8
ENDBRANCH   3   4
ENDBRANCH   2   3
ENDBRANCH   1   2
BRANCH   1  32
ATOM     32  C   UNL A   1      37.726  32.013  28.644  1.00  0.00     0.002 C 
BRANCH  32  33
ATOM     33  C   UNL A   1      37.663  32.917  29.886  1.00  0.00     0.021 C 
BRANCH  33  34
ATOM     34  C   UNL A   1      38.740  33.988  29.911  1.00  0.00     0.116 C 
BRANCH  34  35
ATOM     35  N   UNL A   1      39.247  34.238  31.264  1.00  0.00    -0.352 N 
ATOM     36  C   UNL A   1      39.859  33.360  32.145  1.00  0.00     0.251 C 
ATOM     37  H   UNL A   1      39.137  35.160  31.594  1.00  0.00     0.163 HD
ATOM     38  O   UNL A   1      39.899  33.583  33.340  1.00  0.00    -0.269 OA
BRANCH  36  39
ATOM     39  C   UNL A   1      40.485  32.149  31.588  1.00  0.00     0.039 A 
ATOM     40  C   UNL A   1      41.667  32.181  30.842  1.00  0.00     0.014 A 
ATOM     41  C   UNL A   1      39.855  30.946  31.871  1.00  0.00     0.014 A 
ATOM     42  C   UNL A   1      42.225  30.972  30.435  1.00  0.00     0.010 A 
ATOM     43  C   UNL A   1      40.538  29.781  31.713  1.00  0.00     0.010 A 
ATOM     44  C   UNL A   1      41.645  29.777  30.884  1.00  0.00    -0.014 A 
BRANCH  44  45
ATOM     45  C   UNL A   1      42.177  28.468  30.551  1.00  0.00     0.031 A 
ATOM     46  C   UNL A   1      42.917  27.805  31.648  1.00  0.00     0.074 A 
ATOM     47  C   UNL A   1      41.785  27.804  29.441  1.00  0.00     0.049 A 
ATOM     48  N   UNL A   1      44.184  27.569  31.706  1.00  0.00    -0.248 NA
ATOM     49  C   UNL A   1      42.188  27.490  32.887  1.00  0.00     0.031 C 
ATOM     50  C   UNL A   1      40.773  28.190  28.445  1.00  0.00     0.029 A 
ATOM     51  N   UNL A   1      42.123  26.554  29.043  1.00  0.00    -0.354 N 
ATOM     52  C   UNL A   1      44.387  26.887  32.899  1.00  0.00     0.074 A 
ATOM     53  C   UNL A   1      43.177  27.046  33.666  1.00  0.00     0.031 C 
ATOM     54  C   UNL A   1      40.412  27.106  27.721  1.00  0.00     0.029 A 
ATOM     55  C   UNL A   1      41.289  26.007  28.077  1.00  0.00     0.049 A 
ATOM     56  H   UNL A   1      42.899  26.072  29.409  1.00  0.00     0.167 HD
ATOM     57  C   UNL A   1      45.428  26.021  33.046  1.00  0.00     0.031 A 
ATOM     58  C   UNL A   1      41.302  24.727  27.631  1.00  0.00     0.031 A 
ATOM     59  C   UNL A   1      46.387  26.163  31.976  1.00  0.00     0.049 A 
ATOM     60  C   UNL A   1      42.627  24.160  27.984  1.00  0.00     0.074 A 
ATOM     61  C   UNL A   1      47.167  27.201  31.501  1.00  0.00     0.029 A 
ATOM     62  N   UNL A   1      46.325  25.243  30.955  1.00  0.00    -0.354 N 
ATOM     63  N   UNL A   1      43.744  24.591  27.469  1.00  0.00    -0.248 NA
ATOM     64  C   UNL A   1      42.753  23.471  29.259  1.00  0.00     0.031 C 
ATOM     65  C   UNL A   1      47.101  27.082  30.081  1.00  0.00     0.029 A 
ATOM     66  C   UNL A   1      46.360  25.939  29.774  1.00  0.00     0.049 A 
ATOM     67  H   UNL A   1      46.266  24.265  31.054  1.00  0.00     0.167 HD
ATOM     68  C   UNL A   1      44.634  24.630  28.534  1.00  0.00     0.074 A 
ATOM     69  C   UNL A   1      43.995  23.839  29.588  1.00  0.00     0.031 C 
ATOM     70  C   UNL A   1      45.657  25.537  28.573  1.00  0.00     0.031 A 
BRANCH  57  71
ATOM     71  C   UNL A   1      45.368  24.774  33.891  1.00  0.00    -0.014 A 
ATOM     72  C   UNL A   1      44.610  23.685  33.423  1.00  0.00     0.009 A 
ATOM     73  C   UNL A   1      45.783  24.724  35.235  1.00  0.00     0.009 A 
ATOM     74  C   UNL A   1      44.218  22.650  34.280  1.00  0.00     0.001 A 
ATOM     75  C   UNL A   1      45.431  23.671  36.082  1.00  0.00     0.001 A 
ATOM     76  C   UNL A   1      44.622  22.649  35.612  1.00  0.00     0.000 A 
ENDBRANCH  57  71
BRANCH  58  77
ATOM     77  C   UNL A   1      40.154  23.897  27.205  1.00  0.00    -0.014 A 
ATOM     78  C   UNL A   1      38.925  24.476  26.857  1.00  0.00     0.009 A 
ATOM     79  C   UNL A   1      40.347  22.538  26.888  1.00  0.00     0.009 A 
ATOM     80  C   UNL A   1      37.939  23.731  26.190  1.00  0.00     0.001 A 
ATOM     81  C   UNL A   1      39.365  21.795  26.223  1.00  0.00     0.001 A 
ATOM     82  C   UNL A   1      38.165  22.395  25.863  1.00  0.00     0.000 A 
ENDBRANCH  58  77
BRANCH  70  83
ATOM     83  C   UNL A   1      45.911  26.377  27.342  1.00  0.00    -0.014 A 
ATOM     84  C   UNL A   1      46.802  25.995  26.322  1.00  0.00     0.009 A 
ATOM     85  C   UNL A   1      45.093  27.494  27.120  1.00  0.00     0.009 A 
ATOM     86  C   UNL A   1      46.882  26.719  25.126  1.00  0.00     0.001 A 
ATOM     87  C   UNL A   1      45.159  28.206  25.920  1.00  0.00     0.001 A 
ATOM     88  C   UNL A   1      46.054  27.820  24.924  1.00  0.00     0.000 A 
ENDBRANCH  70  83
ENDBRANCH  44  45
ENDBRANCH  36  39
ENDBRANCH  34  35
ENDBRANCH  33  34
ENDBRANCH  32  33
ENDBRANCH   1  32
TORSDOF 15
ENDMDL
MODEL 3
REMARK VINA RESULT:     -11.6      3.775      8.869
REMARK SMILES CC1=Nc2c(c(C)nn2-c2ccc(F)cc2)[C@H](c2ccc(C(=O)NCCCCCCNC(=O)c3ccc(-c4c5nc(c(-c6ccccc6)c6ccc([nH]6)c(-c6ccccc6)c6nc(c(-c7ccccc7)c7ccc4[nH]7)C=C6)C=C5)cc3)cc2)S1
REMARK SMILES IDX 27 1 26 2 25 3 24 4 22 5 23 6 21 8 18 9 19 10 83 11 20 12
REMARK SMILES IDX 82 13 17 14 1 15 2 16 3 17 84 18 4 19 5 20 9 21 6 22 8 23
REMARK SMILES IDX 7 24 10 25 11 26 16 27 12 28 15 29 13 30 14 31 28 32 29 33
REMARK SMILES IDX 30 34 31 35 32 36 33 38 34 39 35 40 81 41 36 42 80 43 37 44
REMARK SMILES IDX 38 45 39 46 74 47 40 48 79 49 73 50 75 51 41 52 78 53 72 54
REMARK SMILES IDX 71 55 42 57 64 58 49 59 63 60 50 61 53 62 62 63 76 64 51 65
REMARK SMILES IDX 52 66 61 68 77 69 54 70 43 71 44 72 48 73 45 74 47 75 46 76
REMARK SMILES IDX 65 77 66 78 70 79 67 80 69 81 68 82 55 83 56 84 60 85 57 86
REMARK SMILES IDX 59 87 58 88
REMARK H PARENT 24 7 31 37 75 56 53 67
REMARK Flexibility Score: inf
ROOT
ATOM      1  C   UNL A   1      34.729  22.970  26.871  1.00  0.00     0.002 C 
ENDROOT
BRANCH   1   2
ATOM      2  C   UNL A   1      34.968  21.455  26.866  1.00  0.00     0.021 C 
BRANCH   2   3
ATOM      3  C   UNL A   1      33.675  20.638  26.860  1.00  0.00     0.116 C 
BRANCH   3   4
ATOM      4  N   UNL A   1      33.526  19.963  25.586  1.00  0.00    -0.352 N 
ATOM      5  C   UNL A   1      32.909  20.331  24.422  1.00  0.00     0.251 C 
ATOM      6  O   UNL A   1      32.926  19.542  23.478  1.00  0.00    -0.269 OA
ATOM      7  H   UNL A   1      33.948  19.075  25.553  1.00  0.00     0.163 HD
BRANCH   5   8
ATOM      8  C   UNL A   1      32.298  21.670  24.235  1.00  0.00     0.039 A 
ATOM      9  C   UNL A   1      31.327  24.293  23.815  1.00  0.00    -0.030 A 
ATOM     10  C   UNL A   1      32.429  23.806  23.091  1.00  0.00     0.006 A 
ATOM     11  C   UNL A   1      30.697  23.422  24.722  1.00  0.00     0.006 A 
ATOM     12  C   UNL A   1      32.900  22.508  23.292  1.00  0.00     0.014 A 
ATOM     13  C   UNL A   1      31.164  22.118  24.913  1.00  0.00     0.014 A 
BRANCH   9  14
ATOM     14  C   UNL A   1      30.821  25.698  23.523  1.00  0.00     0.119 C 
ATOM     15  C   UNL A   1      34.029  27.635  21.761  1.00  0.00     0.075 C 
ATOM     16  C   UNL A   1      32.916  27.330  22.732  1.00  0.00     0.074 C 
ATOM     17  N   UNL A   1      33.037  27.758  23.948  1.00  0.00    -0.227 NA
ATOM     18  S   UNL A   1      31.555  26.458  22.041  1.00  0.00    -0.098 SA
ATOM     19  C   UNL A   1      32.079  27.423  24.847  1.00  0.00     0.161 A 
ATOM     20  C   UNL A   1      31.084  26.478  24.752  1.00  0.00     0.038 A 
ATOM     21  N   UNL A   1      32.004  27.934  26.133  1.00  0.00    -0.215 N 
ATOM     22  C   UNL A   1      30.484  26.445  26.038  1.00  0.00     0.067 A 
ATOM     23  N   UNL A   1      31.119  27.249  26.899  1.00  0.00    -0.171 NA
ATOM     24  C   UNL A   1      29.332  25.631  26.504  1.00  0.00     0.069 C 
BRANCH  21  25
ATOM     25  C   UNL A   1      32.694  29.057  26.648  1.00  0.00     0.067 A 
ATOM     26  C   UNL A   1      32.059  30.309  26.667  1.00  0.00     0.031 A 
ATOM     27  C   UNL A   1      33.992  28.908  27.150  1.00  0.00     0.031 A 
ATOM     28  C   UNL A   1      32.729  31.414  27.186  1.00  0.00     0.041 A 
ATOM     29  C   UNL A   1      34.674  30.032  27.619  1.00  0.00     0.041 A 
ATOM     30  C   UNL A   1      34.036  31.269  27.640  1.00  0.00     0.123 A 
ATOM     31  F   UNL A   1      34.688  32.340  28.107  1.00  0.00    -0.207 F 
ENDBRANCH  21  25
ENDBRANCH   9  14
ENDBRANCH   5   8
ENDBRANCH   3   4
ENDBRANCH   2   3
ENDBRANCH   1   2
BRANCH   1  32
ATOM     32  C   UNL A   1      35.275  23.730  25.650  1.00  0.00     0.002 C 
BRANCH  32  33
ATOM     33  C   UNL A   1      36.245  22.956  24.742  1.00  0.00     0.021 C 
BRANCH  33  34
ATOM     34  C   UNL A   1      37.697  23.364  24.917  1.00  0.00     0.116 C 
BRANCH  34  35
ATOM     35  N   UNL A   1      38.447  22.416  25.746  1.00  0.00    -0.352 N 
ATOM     36  C   UNL A   1      39.518  22.651  26.594  1.00  0.00     0.251 C 
ATOM     37  H   UNL A   1      38.148  21.479  25.693  1.00  0.00     0.163 HD
ATOM     38  O   UNL A   1      40.269  21.757  26.933  1.00  0.00    -0.269 OA
BRANCH  36  39
ATOM     39  C   UNL A   1      39.710  24.021  27.098  1.00  0.00     0.039 A 
ATOM     40  C   UNL A   1      38.688  24.974  27.116  1.00  0.00     0.014 A 
ATOM     41  C   UNL A   1      40.970  24.321  27.596  1.00  0.00     0.014 A 
ATOM     42  C   UNL A   1      38.949  26.214  27.693  1.00  0.00     0.010 A 
ATOM     43  C   UNL A   1      41.132  25.412  28.391  1.00  0.00     0.010 A 
ATOM     44  C   UNL A   1      40.182  26.415  28.331  1.00  0.00    -0.014 A 
BRANCH  44  45
ATOM     45  C   UNL A   1      40.532  27.655  29.000  1.00  0.00     0.031 A 
ATOM     46  C   UNL A   1      41.569  28.455  28.313  1.00  0.00     0.074 A 
ATOM     47  C   UNL A   1      39.775  28.160  29.999  1.00  0.00     0.049 A 
ATOM     48  N   UNL A   1      42.776  28.677  28.709  1.00  0.00    -0.248 NA
ATOM     49  C   UNL A   1      41.279  28.954  26.959  1.00  0.00     0.031 C 
ATOM     50  C   UNL A   1      38.504  27.652  30.541  1.00  0.00     0.029 A 
ATOM     51  N   UNL A   1      39.922  29.335  30.656  1.00  0.00    -0.354 N 
ATOM     52  C   UNL A   1      43.338  29.518  27.757  1.00  0.00     0.074 A 
ATOM     53  C   UNL A   1      42.454  29.489  26.620  1.00  0.00     0.031 C 
ATOM     54  C   UNL A   1      37.891  28.627  31.248  1.00  0.00     0.029 A 
ATOM     55  C   UNL A   1      38.800  29.752  31.359  1.00  0.00     0.049 A 
ATOM     56  H   UNL A   1      40.759  29.852  30.638  1.00  0.00     0.167 HD
ATOM     57  C   UNL A   1      44.341  30.380  28.085  1.00  0.00     0.031 A 
ATOM     58  C   UNL A   1      38.623  30.955  31.958  1.00  0.00     0.031 A 
ATOM     59  C   UNL A   1      44.899  30.073  29.380  1.00  0.00     0.049 A 
ATOM     60  C   UNL A   1      39.971  31.546  32.144  1.00  0.00     0.074 A 
ATOM     61  C   UNL A   1      45.512  28.967  29.936  1.00  0.00     0.029 A 
ATOM     62  N   UNL A   1      44.474  30.839  30.441  1.00  0.00    -0.354 N 
ATOM     63  N   UNL A   1      40.871  31.030  32.934  1.00  0.00    -0.248 NA
ATOM     64  C   UNL A   1      40.488  32.408  31.091  1.00  0.00     0.031 C 
ATOM     65  C   UNL A   1      44.979  28.883  31.257  1.00  0.00     0.029 A 
ATOM     66  C   UNL A   1      44.141  29.982  31.459  1.00  0.00     0.049 A 
ATOM     67  H   UNL A   1      44.420  31.822  30.466  1.00  0.00     0.167 HD
ATOM     68  C   UNL A   1      42.062  31.128  32.228  1.00  0.00     0.074 A 
ATOM     69  C   UNL A   1      41.780  32.071  31.143  1.00  0.00     0.031 C 
ATOM     70  C   UNL A   1      43.070  30.221  32.403  1.00  0.00     0.031 A 
BRANCH  57  71
ATOM     71  C   UNL A   1      44.521  31.736  27.449  1.00  0.00    -0.014 A 
ATOM     72  C   UNL A   1      43.967  32.856  28.094  1.00  0.00     0.009 A 
ATOM     73  C   UNL A   1      44.959  31.922  26.125  1.00  0.00     0.009 A 
ATOM     74  C   UNL A   1      43.783  34.068  27.419  1.00  0.00     0.001 A 
ATOM     75  C   UNL A   1      44.817  33.142  25.461  1.00  0.00     0.001 A 
ATOM     76  C   UNL A   1      44.200  34.207  26.098  1.00  0.00     0.000 A 
ENDBRANCH  57  71
BRANCH  58  77
ATOM     77  C   UNL A   1      37.373  31.735  32.092  1.00  0.00    -0.014 A 
ATOM     78  C   UNL A   1      36.438  31.798  31.049  1.00  0.00     0.009 A 
ATOM     79  C   UNL A   1      36.972  32.211  33.356  1.00  0.00     0.009 A 
ATOM     80  C   UNL A   1      35.142  32.291  31.270  1.00  0.00     0.001 A 
ATOM     81  C   UNL A   1      35.681  32.702  33.578  1.00  0.00     0.001 A 
ATOM     82  C   UNL A   1      34.761  32.730  32.536  1.00  0.00     0.000 A 
ENDBRANCH  58  77
BRANCH  70  83
ATOM     83  C   UNL A   1      42.932  29.210  33.520  1.00  0.00    -0.014 A 
ATOM     84  C   UNL A   1      42.233  27.998  33.376  1.00  0.00     0.009 A 
ATOM     85  C   UNL A   1      43.684  29.404  34.688  1.00  0.00     0.009 A 
ATOM     86  C   UNL A   1      42.271  27.020  34.378  1.00  0.00     0.001 A 
ATOM     87  C   UNL A   1      43.738  28.422  35.679  1.00  0.00     0.001 A 
ATOM     88  C   UNL A   1      43.030  27.232  35.526  1.00  0.00     0.000 A 
ENDBRANCH  70  83
ENDBRANCH  44  45
ENDBRANCH  36  39
ENDBRANCH  34  35
ENDBRANCH  33  34
ENDBRANCH  32  33
ENDBRANCH   1  32
TORSDOF 15
ENDMDL
