MODEL 1
REMARK VINA RESULT:     -12.5      0.000      0.000
REMARK SMILES Cc1c(Cl)cccc1NC(=O)C[C@](C)(C(=O)NCCCCCCNC(=O)c1ccc(-c2c3nc(c(-c4ccccc4)c4ccc([nH]4)c(-c4ccccc4)c4nc(c(-c5ccccc5)c5ccc2[nH]5)C=C4)C=C3)cc1)c1ccccc1
REMARK SMILES IDX 20 1 19 2 18 3 17 4 15 5 16 6 13 8 14 9 12 10 10 11 9 12
REMARK SMILES IDX 11 14 8 15 1 16 2 17 3 18 4 19 5 20 7 21 6 22 75 23 76 24
REMARK SMILES IDX 80 25 77 26 79 27 78 28 21 29 22 30 23 31 24 32 25 33 26 35
REMARK SMILES IDX 27 36 28 37 74 38 29 39 73 40 30 41 31 42 32 43 67 44 33 45
REMARK SMILES IDX 72 46 66 47 68 48 34 49 71 50 65 51 64 52 35 54 57 55 42 56
REMARK SMILES IDX 56 57 43 58 46 59 55 60 69 61 44 62 45 63 54 65 70 66 47 67
REMARK SMILES IDX 36 68 37 69 41 70 38 71 40 72 39 73 58 74 59 75 63 76 60 77
REMARK SMILES IDX 62 78 61 79 48 80 49 81 53 82 50 83 52 84 51 85
REMARK H PARENT 17 7 9 13 24 34 68 53 46 64
REMARK Flexibility Score: inf
ROOT
ATOM      1  C   UNL A   1      35.673  18.391  24.997  1.00  0.00     0.002 C 
ENDROOT
BRANCH   1   2
ATOM      2  C   UNL A   1      34.417  18.146  24.154  1.00  0.00     0.021 C 
BRANCH   2   3
ATOM      3  C   UNL A   1      32.986  18.637  24.928  1.00  0.00     0.116 C 
BRANCH   3   4
ATOM      4  N   UNL A   1      32.146  20.524  25.250  1.00  0.00    -0.355 N 
ATOM      5  C   UNL A   1      31.979  21.915  24.996  1.00  0.00     0.230 C 
ATOM      6  O   UNL A   1      31.102  22.348  25.769  1.00  0.00    -0.274 OA
ATOM      7  H   UNL A   1      31.516  20.360  25.989  1.00  0.00     0.163 HD
BRANCH   5   8
ATOM      8  C   UNL A   1      32.744  22.928  23.996  1.00  0.00     0.080 C 
ATOM      9  C   UNL A   1      32.705  22.292  22.555  1.00  0.00     0.027 C 
BRANCH   8  10
ATOM     10  C   UNL A   1      32.248  24.418  23.999  1.00  0.00     0.121 C 
BRANCH  10  11
ATOM     11  C   UNL A   1      32.749  25.383  22.942  1.00  0.00     0.225 C 
ATOM     12  N   UNL A   1      32.644  26.731  23.123  1.00  0.00    -0.326 N 
ATOM     13  H   UNL A   1      32.606  27.310  22.328  1.00  0.00     0.169 HD
ATOM     14  O   UNL A   1      33.214  24.977  21.876  1.00  0.00    -0.275 OA
BRANCH  12  15
ATOM     15  C   UNL A   1      32.587  27.327  24.380  1.00  0.00     0.045 A 
ATOM     16  C   UNL A   1      30.303  28.904  23.617  1.00  0.00     0.048 C 
ATOM     17  C   UNL A   1      31.572  28.831  24.421  1.00  0.00    -0.009 A 
ATOM     18  C   UNL A   1      31.856  30.052  25.709  1.00  0.00     0.046 A 
ATOM     19  Cl  UNL A   1      30.918  31.496  25.759  1.00  0.00    -0.084 Cl
ATOM     20  C   UNL A   1      33.215  29.857  26.878  1.00  0.00     0.021 A 
ATOM     21  C   UNL A   1      33.893  27.044  25.634  1.00  0.00     0.026 A 
ATOM     22  C   UNL A   1      34.205  28.333  26.882  1.00  0.00     0.004 A 
ENDBRANCH  12  15
ENDBRANCH  10  11
ENDBRANCH   8  10
BRANCH   8  23
ATOM     23  C   UNL A   1      34.306  23.053  24.224  1.00  0.00    -0.032 A 
ATOM     24  C   UNL A   1      34.769  23.373  25.533  1.00  0.00     0.005 A 
ATOM     25  C   UNL A   1      35.280  22.907  23.235  1.00  0.00     0.005 A 
ATOM     26  C   UNL A   1      36.099  23.683  25.798  1.00  0.00     0.000 A 
ATOM     27  C   UNL A   1      36.623  23.208  23.504  1.00  0.00     0.000 A 
ATOM     28  C   UNL A   1      37.027  23.621  24.773  1.00  0.00     0.000 A 
ENDBRANCH   8  23
ENDBRANCH   5   8
ENDBRANCH   3   4
ENDBRANCH   2   3
ENDBRANCH   1   2
BRANCH   1  29
ATOM     29  C   UNL A   1      36.211  19.831  24.907  1.00  0.00     0.002 C 
BRANCH  29  30
ATOM     30  C   UNL A   1      37.688  19.875  24.517  1.00  0.00     0.021 C 
BRANCH  30  31
ATOM     31  C   UNL A   1      38.551  20.196  25.723  1.00  0.00     0.116 C 
BRANCH  31  32
ATOM     32  N   UNL A   1      39.671  19.253  25.817  1.00  0.00    -0.352 N 
ATOM     33  C   UNL A   1      40.979  19.517  26.072  1.00  0.00     0.251 C 
ATOM     34  H   UNL A   1      39.444  18.305  25.676  1.00  0.00     0.163 HD
ATOM     35  O   UNL A   1      41.868  18.701  25.887  1.00  0.00    -0.269 OA
BRANCH  33  36
ATOM     36  C   UNL A   1      41.234  20.844  26.605  1.00  0.00     0.039 A 
ATOM     37  C   UNL A   1      41.569  20.981  27.944  1.00  0.00     0.014 A 
ATOM     38  C   UNL A   1      41.346  21.889  25.678  1.00  0.00     0.014 A 
ATOM     39  C   UNL A   1      42.020  22.217  28.371  1.00  0.00     0.010 A 
ATOM     40  C   UNL A   1      41.936  23.062  26.078  1.00  0.00     0.010 A 
ATOM     41  C   UNL A   1      42.214  23.251  27.436  1.00  0.00    -0.014 A 
BRANCH  41  42
ATOM     42  C   UNL A   1      42.613  24.590  27.886  1.00  0.00     0.031 A 
ATOM     43  C   UNL A   1      44.071  24.943  27.878  1.00  0.00     0.074 A 
ATOM     44  C   UNL A   1      41.668  25.456  28.287  1.00  0.00     0.049 A 
ATOM     45  N   UNL A   1      44.642  26.073  28.198  1.00  0.00    -0.248 NA
ATOM     46  C   UNL A   1      45.021  23.879  27.498  1.00  0.00     0.031 C 
ATOM     47  C   UNL A   1      40.232  25.173  28.364  1.00  0.00     0.029 A 
ATOM     48  N   UNL A   1      41.776  26.759  28.679  1.00  0.00    -0.354 N 
ATOM     49  C   UNL A   1      46.005  25.846  28.067  1.00  0.00     0.074 A 
ATOM     50  C   UNL A   1      46.186  24.454  27.737  1.00  0.00     0.031 C 
ATOM     51  C   UNL A   1      39.585  26.297  28.711  1.00  0.00     0.029 A 
ATOM     52  C   UNL A   1      40.566  27.355  28.929  1.00  0.00     0.049 A 
ATOM     53  H   UNL A   1      42.637  27.226  28.772  1.00  0.00     0.167 HD
ATOM     54  C   UNL A   1      47.016  26.735  28.169  1.00  0.00     0.031 A 
ATOM     55  C   UNL A   1      40.291  28.621  29.283  1.00  0.00     0.031 A 
ATOM     56  C   UNL A   1      46.812  28.118  28.489  1.00  0.00     0.049 A 
ATOM     57  C   UNL A   1      41.438  29.583  29.424  1.00  0.00     0.074 A 
ATOM     58  C   UNL A   1      47.749  29.127  28.587  1.00  0.00     0.029 A 
ATOM     59  N   UNL A   1      45.575  28.681  28.766  1.00  0.00    -0.354 N 
ATOM     60  N   UNL A   1      42.720  29.378  29.231  1.00  0.00    -0.248 NA
ATOM     61  C   UNL A   1      41.095  30.954  29.814  1.00  0.00     0.031 C 
ATOM     62  C   UNL A   1      47.087  30.287  28.997  1.00  0.00     0.029 A 
ATOM     63  C   UNL A   1      45.726  30.021  29.069  1.00  0.00     0.049 A 
ATOM     64  H   UNL A   1      44.716  28.199  28.750  1.00  0.00     0.167 HD
ATOM     65  C   UNL A   1      43.335  30.604  29.445  1.00  0.00     0.074 A 
ATOM     66  C   UNL A   1      42.279  31.546  29.760  1.00  0.00     0.031 C 
ATOM     67  C   UNL A   1      44.651  30.928  29.384  1.00  0.00     0.031 A 
BRANCH  54  68
ATOM     68  C   UNL A   1      48.411  26.219  27.949  1.00  0.00    -0.014 A 
ATOM     69  C   UNL A   1      49.174  25.689  29.005  1.00  0.00     0.009 A 
ATOM     70  C   UNL A   1      48.977  26.274  26.667  1.00  0.00     0.009 A 
ATOM     71  C   UNL A   1      50.488  25.269  28.788  1.00  0.00     0.001 A 
ATOM     72  C   UNL A   1      50.277  25.818  26.447  1.00  0.00     0.001 A 
ATOM     73  C   UNL A   1      51.036  25.328  27.508  1.00  0.00     0.000 A 
ENDBRANCH  54  68
BRANCH  55  74
ATOM     74  C   UNL A   1      38.885  29.047  29.502  1.00  0.00    -0.014 A 
ATOM     75  C   UNL A   1      38.124  29.577  28.450  1.00  0.00     0.009 A 
ATOM     76  C   UNL A   1      38.295  28.924  30.770  1.00  0.00     0.009 A 
ATOM     77  C   UNL A   1      36.815  30.010  28.671  1.00  0.00     0.001 A 
ATOM     78  C   UNL A   1      36.974  29.324  30.980  1.00  0.00     0.001 A 
ATOM     79  C   UNL A   1      36.240  29.880  29.935  1.00  0.00     0.000 A 
ENDBRANCH  55  74
BRANCH  67  80
ATOM     80  C   UNL A   1      45.010  32.368  29.620  1.00  0.00    -0.014 A 
ATOM     81  C   UNL A   1      45.032  33.302  28.573  1.00  0.00     0.009 A 
ATOM     82  C   UNL A   1      45.294  32.800  30.925  1.00  0.00     0.009 A 
ATOM     83  C   UNL A   1      45.383  34.630  28.822  1.00  0.00     0.001 A 
ATOM     84  C   UNL A   1      45.600  34.137  31.178  1.00  0.00     0.001 A 
ATOM     85  C   UNL A   1      45.660  35.047  30.125  1.00  0.00     0.000 A 
ENDBRANCH  67  80
ENDBRANCH  41  42
ENDBRANCH  33  36
ENDBRANCH  31  32
ENDBRANCH  30  31
ENDBRANCH  29  30
ENDBRANCH   1  29
TORSDOF 17
ENDMDL
MODEL 2
REMARK VINA RESULT:     -12.4      2.180      6.674
REMARK SMILES Cc1c(Cl)cccc1NC(=O)C[C@](C)(C(=O)NCCCCCCNC(=O)c1ccc(-c2c3nc(c(-c4ccccc4)c4ccc([nH]4)c(-c4ccccc4)c4nc(c(-c5ccccc5)c5ccc2[nH]5)C=C4)C=C3)cc1)c1ccccc1
REMARK SMILES IDX 20 1 19 2 18 3 17 4 15 5 16 6 13 8 14 9 12 10 10 11 9 12
REMARK SMILES IDX 11 14 8 15 1 16 2 17 3 18 4 19 5 20 7 21 6 22 75 23 76 24
REMARK SMILES IDX 80 25 77 26 79 27 78 28 21 29 22 30 23 31 24 32 25 33 26 35
REMARK SMILES IDX 27 36 28 37 74 38 29 39 73 40 30 41 31 42 32 43 67 44 33 45
REMARK SMILES IDX 72 46 66 47 68 48 34 49 71 50 65 51 64 52 35 54 57 55 42 56
REMARK SMILES IDX 56 57 43 58 46 59 55 60 69 61 44 62 45 63 54 65 70 66 47 67
REMARK SMILES IDX 36 68 37 69 41 70 38 71 40 72 39 73 58 74 59 75 63 76 60 77
REMARK SMILES IDX 62 78 61 79 48 80 49 81 53 82 50 83 52 84 51 85
REMARK H PARENT 17 7 9 13 24 34 68 53 46 64
REMARK Flexibility Score: inf
ROOT
ATOM      1  C   UNL A   1      39.725  22.347  26.794  1.00  0.00     0.002 C 
ENDROOT
BRANCH   1   2
ATOM      2  C   UNL A   1      39.318  23.799  26.522  1.00  0.00     0.021 C 
BRANCH   2   3
ATOM      3  C   UNL A   1      37.640  24.003  26.350  1.00  0.00     0.116 C 
BRANCH   3   4
ATOM      4  N   UNL A   1      36.165  22.797  25.490  1.00  0.00    -0.355 N 
ATOM      5  C   UNL A   1      34.864  22.530  24.980  1.00  0.00     0.230 C 
ATOM      6  O   UNL A   1      34.841  21.352  24.573  1.00  0.00    -0.274 OA
ATOM      7  H   UNL A   1      36.626  21.935  25.375  1.00  0.00     0.163 HD
BRANCH   5   8
ATOM      8  C   UNL A   1      33.520  23.426  24.925  1.00  0.00     0.080 C 
ATOM      9  C   UNL A   1      32.353  22.500  24.413  1.00  0.00     0.027 C 
BRANCH   8  10
ATOM     10  C   UNL A   1      33.135  24.188  26.243  1.00  0.00     0.121 C 
BRANCH  10  11
ATOM     11  C   UNL A   1      31.714  24.121  26.767  1.00  0.00     0.225 C 
ATOM     12  N   UNL A   1      30.869  25.182  26.629  1.00  0.00    -0.326 N 
ATOM     13  H   UNL A   1      30.131  25.281  27.273  1.00  0.00     0.169 HD
ATOM     14  O   UNL A   1      31.304  23.130  27.376  1.00  0.00    -0.275 OA
BRANCH  12  15
ATOM     15  C   UNL A   1      31.001  26.132  25.620  1.00  0.00     0.045 A 
ATOM     16  C   UNL A   1      32.633  27.806  27.301  1.00  0.00     0.048 C 
ATOM     17  C   UNL A   1      31.593  27.741  26.217  1.00  0.00    -0.009 A 
ATOM     18  C   UNL A   1      31.249  29.220  25.254  1.00  0.00     0.046 A 
ATOM     19  Cl  UNL A   1      31.784  30.761  25.807  1.00  0.00    -0.084 Cl
ATOM     20  C   UNL A   1      30.221  29.135  23.775  1.00  0.00     0.021 A 
ATOM     21  C   UNL A   1      30.062  26.002  24.053  1.00  0.00     0.026 A 
ATOM     22  C   UNL A   1      29.668  27.527  23.137  1.00  0.00     0.004 A 
ENDBRANCH  12  15
ENDBRANCH  10  11
ENDBRANCH   8  10
BRANCH   8  23
ATOM     23  C   UNL A   1      33.507  24.560  23.820  1.00  0.00    -0.032 A 
ATOM     24  C   UNL A   1      33.982  25.853  24.181  1.00  0.00     0.005 A 
ATOM     25  C   UNL A   1      33.036  24.409  22.515  1.00  0.00     0.005 A 
ATOM     26  C   UNL A   1      33.846  26.958  23.347  1.00  0.00     0.000 A 
ATOM     27  C   UNL A   1      32.908  25.520  21.668  1.00  0.00     0.000 A 
ATOM     28  C   UNL A   1      33.285  26.793  22.092  1.00  0.00     0.000 A 
ENDBRANCH   8  23
ENDBRANCH   5   8
ENDBRANCH   3   4
ENDBRANCH   2   3
ENDBRANCH   1   2
BRANCH   1  29
ATOM     29  C   UNL A   1      41.058  21.942  26.139  1.00  0.00     0.002 C 
BRANCH  29  30
ATOM     30  C   UNL A   1      41.251  20.427  26.105  1.00  0.00     0.021 C 
BRANCH  30  31
ATOM     31  C   UNL A   1      42.621  20.048  26.636  1.00  0.00     0.116 C 
BRANCH  31  32
ATOM     32  N   UNL A   1      43.406  19.377  25.595  1.00  0.00    -0.352 N 
ATOM     33  C   UNL A   1      44.221  19.933  24.661  1.00  0.00     0.251 C 
ATOM     34  H   UNL A   1      43.332  18.395  25.569  1.00  0.00     0.163 HD
ATOM     35  O   UNL A   1      44.634  19.317  23.691  1.00  0.00    -0.269 OA
BRANCH  33  36
ATOM     36  C   UNL A   1      44.581  21.316  24.920  1.00  0.00     0.039 A 
ATOM     37  C   UNL A   1      44.046  22.314  24.120  1.00  0.00     0.014 A 
ATOM     38  C   UNL A   1      45.276  21.578  26.108  1.00  0.00     0.014 A 
ATOM     39  C   UNL A   1      44.226  23.625  24.521  1.00  0.00     0.010 A 
ATOM     40  C   UNL A   1      45.317  22.870  26.574  1.00  0.00     0.010 A 
ATOM     41  C   UNL A   1      44.850  23.900  25.752  1.00  0.00    -0.014 A 
BRANCH  41  42
ATOM     42  C   UNL A   1      45.121  25.286  26.152  1.00  0.00     0.031 A 
ATOM     43  C   UNL A   1      44.004  26.092  26.745  1.00  0.00     0.074 A 
ATOM     44  C   UNL A   1      46.354  25.790  25.978  1.00  0.00     0.049 A 
ATOM     45  N   UNL A   1      44.028  27.317  27.198  1.00  0.00    -0.248 NA
ATOM     46  C   UNL A   1      42.672  25.458  26.807  1.00  0.00     0.031 C 
ATOM     47  C   UNL A   1      47.484  25.083  25.367  1.00  0.00     0.029 A 
ATOM     48  N   UNL A   1      46.866  27.007  26.324  1.00  0.00    -0.354 N 
ATOM     49  C   UNL A   1      42.723  27.592  27.582  1.00  0.00     0.074 A 
ATOM     50  C   UNL A   1      41.913  26.455  27.222  1.00  0.00     0.031 C 
ATOM     51  C   UNL A   1      48.577  25.858  25.448  1.00  0.00     0.029 A 
ATOM     52  C   UNL A   1      48.208  27.126  26.067  1.00  0.00     0.049 A 
ATOM     53  H   UNL A   1      46.326  27.728  26.721  1.00  0.00     0.167 HD
ATOM     54  C   UNL A   1      42.250  28.683  28.220  1.00  0.00     0.031 A 
ATOM     55  C   UNL A   1      49.041  28.150  26.317  1.00  0.00     0.031 A 
ATOM     56  C   UNL A   1      43.076  29.801  28.578  1.00  0.00     0.049 A 
ATOM     57  C   UNL A   1      48.482  29.368  26.999  1.00  0.00     0.074 A 
ATOM     58  C   UNL A   1      42.725  30.950  29.257  1.00  0.00     0.029 A 
ATOM     59  N   UNL A   1      44.426  29.901  28.273  1.00  0.00    -0.354 N 
ATOM     60  N   UNL A   1      47.260  29.595  27.421  1.00  0.00    -0.248 NA
ATOM     61  C   UNL A   1      49.423  30.464  27.252  1.00  0.00     0.031 C 
ATOM     62  C   UNL A   1      43.848  31.781  29.300  1.00  0.00     0.029 A 
ATOM     63  C   UNL A   1      44.919  31.111  28.725  1.00  0.00     0.049 A 
ATOM     64  H   UNL A   1      44.955  29.214  27.806  1.00  0.00     0.167 HD
ATOM     65  C   UNL A   1      47.293  30.846  28.021  1.00  0.00     0.074 A 
ATOM     66  C   UNL A   1      48.661  31.315  27.924  1.00  0.00     0.031 C 
ATOM     67  C   UNL A   1      46.288  31.547  28.604  1.00  0.00     0.031 A 
BRANCH  54  68
ATOM     68  C   UNL A   1      40.782  28.709  28.544  1.00  0.00    -0.014 A 
ATOM     69  C   UNL A   1      39.840  29.242  27.647  1.00  0.00     0.009 A 
ATOM     70  C   UNL A   1      40.334  28.203  29.774  1.00  0.00     0.009 A 
ATOM     71  C   UNL A   1      38.489  29.308  27.994  1.00  0.00     0.001 A 
ATOM     72  C   UNL A   1      38.978  28.235  30.101  1.00  0.00     0.001 A 
ATOM     73  C   UNL A   1      38.059  28.799  29.218  1.00  0.00     0.000 A 
ENDBRANCH  54  68
BRANCH  55  74
ATOM     74  C   UNL A   1      50.475  28.054  25.946  1.00  0.00    -0.014 A 
ATOM     75  C   UNL A   1      50.920  28.473  24.684  1.00  0.00     0.009 A 
ATOM     76  C   UNL A   1      51.412  27.542  26.858  1.00  0.00     0.009 A 
ATOM     77  C   UNL A   1      52.264  28.346  24.327  1.00  0.00     0.001 A 
ATOM     78  C   UNL A   1      52.762  27.449  26.513  1.00  0.00     0.001 A 
ATOM     79  C   UNL A   1      53.184  27.838  25.243  1.00  0.00     0.000 A 
ENDBRANCH  55  74
BRANCH  67  80
ATOM     80  C   UNL A   1      46.647  32.871  29.218  1.00  0.00    -0.014 A 
ATOM     81  C   UNL A   1      47.090  32.970  30.545  1.00  0.00     0.009 A 
ATOM     82  C   UNL A   1      46.574  34.034  28.434  1.00  0.00     0.009 A 
ATOM     83  C   UNL A   1      47.403  34.217  31.090  1.00  0.00     0.001 A 
ATOM     84  C   UNL A   1      46.931  35.271  28.968  1.00  0.00     0.001 A 
ATOM     85  C   UNL A   1      47.330  35.364  30.300  1.00  0.00     0.000 A 
ENDBRANCH  67  80
ENDBRANCH  41  42
ENDBRANCH  33  36
ENDBRANCH  31  32
ENDBRANCH  30  31
ENDBRANCH  29  30
ENDBRANCH   1  29
TORSDOF 17
ENDMDL
MODEL 3
REMARK VINA RESULT:     -12.4      5.518     10.769
REMARK SMILES Cc1c(Cl)cccc1NC(=O)C[C@](C)(C(=O)NCCCCCCNC(=O)c1ccc(-c2c3nc(c(-c4ccccc4)c4ccc([nH]4)c(-c4ccccc4)c4nc(c(-c5ccccc5)c5ccc2[nH]5)C=C4)C=C3)cc1)c1ccccc1
REMARK SMILES IDX 20 1 19 2 18 3 17 4 15 5 16 6 13 8 14 9 12 10 10 11 9 12
REMARK SMILES IDX 11 14 8 15 1 16 2 17 3 18 4 19 5 20 7 21 6 22 75 23 76 24
REMARK SMILES IDX 80 25 77 26 79 27 78 28 21 29 22 30 23 31 24 32 25 33 26 35
REMARK SMILES IDX 27 36 28 37 74 38 29 39 73 40 30 41 31 42 32 43 67 44 33 45
REMARK SMILES IDX 72 46 66 47 68 48 34 49 71 50 65 51 64 52 35 54 57 55 42 56
REMARK SMILES IDX 56 57 43 58 46 59 55 60 69 61 44 62 45 63 54 65 70 66 47 67
REMARK SMILES IDX 36 68 37 69 41 70 38 71 40 72 39 73 58 74 59 75 63 76 60 77
REMARK SMILES IDX 62 78 61 79 48 80 49 81 53 82 50 83 52 84 51 85
REMARK H PARENT 17 7 9 13 24 34 68 53 46 64
REMARK Flexibility Score: inf
ROOT
ATOM      1  C   UNL A   1      34.141  32.248  28.783  1.00  0.00     0.002 C 
ENDROOT
BRANCH   1   2
ATOM      2  C   UNL A   1      34.639  31.330  27.661  1.00  0.00     0.021 C 
BRANCH   2   3
ATOM      3  C   UNL A   1      33.381  30.576  26.804  1.00  0.00     0.116 C 
BRANCH   3   4
ATOM      4  N   UNL A   1      33.359  29.485  25.022  1.00  0.00    -0.355 N 
ATOM      5  C   UNL A   1      32.748  28.692  24.011  1.00  0.00     0.230 C 
ATOM      6  O   UNL A   1      33.605  28.445  23.140  1.00  0.00    -0.274 OA
ATOM      7  H   UNL A   1      34.290  29.560  24.708  1.00  0.00     0.163 HD
BRANCH   5   8
ATOM      8  C   UNL A   1      31.264  28.065  23.880  1.00  0.00     0.080 C 
ATOM      9  C   UNL A   1      31.180  27.331  22.489  1.00  0.00     0.027 C 
BRANCH   8  10
ATOM     10  C   UNL A   1      30.787  27.148  25.062  1.00  0.00     0.121 C 
BRANCH  10  11
ATOM     11  C   UNL A   1      31.650  27.002  26.301  1.00  0.00     0.225 C 
ATOM     12  N   UNL A   1      32.356  25.858  26.528  1.00  0.00    -0.326 N 
ATOM     13  H   UNL A   1      32.582  25.622  27.457  1.00  0.00     0.169 HD
ATOM     14  O   UNL A   1      31.694  27.888  27.156  1.00  0.00    -0.275 OA
BRANCH  12  15
ATOM     15  C   UNL A   1      32.771  25.005  25.508  1.00  0.00     0.045 A 
ATOM     16  C   UNL A   1      30.640  23.156  26.078  1.00  0.00     0.048 C 
ATOM     17  C   UNL A   1      32.063  23.338  25.627  1.00  0.00    -0.009 A 
ATOM     18  C   UNL A   1      32.905  21.963  24.833  1.00  0.00     0.046 A 
ATOM     19  Cl  UNL A   1      32.263  20.368  24.946  1.00  0.00    -0.084 Cl
ATOM     20  C   UNL A   1      34.503  22.203  24.032  1.00  0.00     0.021 A 
ATOM     21  C   UNL A   1      34.329  25.297  24.590  1.00  0.00     0.026 A 
ATOM     22  C   UNL A   1      35.197  23.873  23.859  1.00  0.00     0.004 A 
ENDBRANCH  12  15
ENDBRANCH  10  11
ENDBRANCH   8  10
BRANCH   8  23
ATOM     23  C   UNL A   1      30.094  29.121  23.731  1.00  0.00    -0.032 A 
ATOM     24  C   UNL A   1      28.899  28.710  23.074  1.00  0.00     0.005 A 
ATOM     25  C   UNL A   1      30.144  30.447  24.163  1.00  0.00     0.005 A 
ATOM     26  C   UNL A   1      27.890  29.604  22.731  1.00  0.00     0.000 A 
ATOM     27  C   UNL A   1      29.122  31.348  23.829  1.00  0.00     0.000 A 
ATOM     28  C   UNL A   1      28.014  30.935  23.092  1.00  0.00     0.000 A 
ENDBRANCH   8  23
ENDBRANCH   5   8
ENDBRANCH   3   4
ENDBRANCH   2   3
ENDBRANCH   1   2
BRANCH   1  29
ATOM     29  C   UNL A   1      34.422  33.741  28.535  1.00  0.00     0.002 C 
BRANCH  29  30
ATOM     30  C   UNL A   1      33.210  34.619  28.841  1.00  0.00     0.021 C 
BRANCH  30  31
ATOM     31  C   UNL A   1      33.615  35.824  29.669  1.00  0.00     0.116 C 
BRANCH  31  32
ATOM     32  N   UNL A   1      32.631  36.072  30.728  1.00  0.00    -0.352 N 
ATOM     33  C   UNL A   1      32.560  35.511  31.963  1.00  0.00     0.251 C 
ATOM     34  H   UNL A   1      31.930  36.731  30.515  1.00  0.00     0.163 HD
ATOM     35  O   UNL A   1      31.572  35.599  32.675  1.00  0.00    -0.269 OA
BRANCH  33  36
ATOM     36  C   UNL A   1      33.766  34.816  32.381  1.00  0.00     0.039 A 
ATOM     37  C   UNL A   1      33.728  33.439  32.545  1.00  0.00     0.014 A 
ATOM     38  C   UNL A   1      34.957  35.554  32.378  1.00  0.00     0.014 A 
ATOM     39  C   UNL A   1      34.931  32.781  32.726  1.00  0.00     0.010 A 
ATOM     40  C   UNL A   1      36.150  34.876  32.405  1.00  0.00     0.010 A 
ATOM     41  C   UNL A   1      36.139  33.497  32.644  1.00  0.00    -0.014 A 
BRANCH  41  42
ATOM     42  C   UNL A   1      37.417  32.828  32.914  1.00  0.00     0.031 A 
ATOM     43  C   UNL A   1      38.107  33.102  34.218  1.00  0.00     0.074 A 
ATOM     44  C   UNL A   1      37.929  31.994  31.994  1.00  0.00     0.049 A 
ATOM     45  N   UNL A   1      39.220  32.597  34.678  1.00  0.00    -0.248 NA
ATOM     46  C   UNL A   1      37.490  34.103  35.111  1.00  0.00     0.031 C 
ATOM     47  C   UNL A   1      37.340  31.708  30.683  1.00  0.00     0.029 A 
ATOM     48  N   UNL A   1      39.049  31.214  32.038  1.00  0.00    -0.354 N 
ATOM     49  C   UNL A   1      39.432  33.225  35.897  1.00  0.00     0.074 A 
ATOM     50  C   UNL A   1      38.397  34.215  36.064  1.00  0.00     0.031 C 
ATOM     51  C   UNL A   1      38.070  30.760  30.075  1.00  0.00     0.029 A 
ATOM     52  C   UNL A   1      39.198  30.415  30.932  1.00  0.00     0.049 A 
ATOM     53  H   UNL A   1      39.686  31.223  32.788  1.00  0.00     0.167 HD
ATOM     54  C   UNL A   1      40.384  32.967  36.819  1.00  0.00     0.031 A 
ATOM     55  C   UNL A   1      40.143  29.500  30.658  1.00  0.00     0.031 A 
ATOM     56  C   UNL A   1      41.400  31.970  36.636  1.00  0.00     0.049 A 
ATOM     57  C   UNL A   1      41.212  29.255  31.687  1.00  0.00     0.074 A 
ATOM     58  C   UNL A   1      42.399  31.588  37.508  1.00  0.00     0.029 A 
ATOM     59  N   UNL A   1      41.540  31.200  35.490  1.00  0.00    -0.354 N 
ATOM     60  N   UNL A   1      41.368  29.805  32.868  1.00  0.00    -0.248 NA
ATOM     61  C   UNL A   1      42.225  28.250  31.348  1.00  0.00     0.031 C 
ATOM     62  C   UNL A   1      43.191  30.637  36.860  1.00  0.00     0.029 A 
ATOM     63  C   UNL A   1      42.633  30.363  35.619  1.00  0.00     0.049 A 
ATOM     64  H   UNL A   1      40.950  31.242  34.703  1.00  0.00     0.167 HD
ATOM     65  C   UNL A   1      42.479  29.189  33.429  1.00  0.00     0.074 A 
ATOM     66  C   UNL A   1      42.939  28.211  32.464  1.00  0.00     0.031 C 
ATOM     67  C   UNL A   1      43.066  29.406  34.633  1.00  0.00     0.031 A 
BRANCH  54  68
ATOM     68  C   UNL A   1      40.366  33.789  38.077  1.00  0.00    -0.014 A 
ATOM     69  C   UNL A   1      41.103  34.982  38.188  1.00  0.00     0.009 A 
ATOM     70  C   UNL A   1      39.607  33.359  39.176  1.00  0.00     0.009 A 
ATOM     71  C   UNL A   1      41.116  35.697  39.387  1.00  0.00     0.001 A 
ATOM     72  C   UNL A   1      39.592  34.097  40.359  1.00  0.00     0.001 A 
ATOM     73  C   UNL A   1      40.356  35.258  40.469  1.00  0.00     0.000 A 
ENDBRANCH  54  68
BRANCH  55  74
ATOM     74  C   UNL A   1      40.102  28.744  29.381  1.00  0.00    -0.014 A 
ATOM     75  C   UNL A   1      39.472  27.494  29.308  1.00  0.00     0.009 A 
ATOM     76  C   UNL A   1      40.696  29.272  28.224  1.00  0.00     0.009 A 
ATOM     77  C   UNL A   1      39.469  26.770  28.113  1.00  0.00     0.001 A 
ATOM     78  C   UNL A   1      40.661  28.564  27.021  1.00  0.00     0.001 A 
ATOM     79  C   UNL A   1      40.060  27.308  26.970  1.00  0.00     0.000 A 
ENDBRANCH  55  74
BRANCH  67  80
ATOM     80  C   UNL A   1      44.240  28.536  34.984  1.00  0.00    -0.014 A 
ATOM     81  C   UNL A   1      45.557  28.929  34.703  1.00  0.00     0.009 A 
ATOM     82  C   UNL A   1      44.018  27.316  35.642  1.00  0.00     0.009 A 
ATOM     83  C   UNL A   1      46.625  28.092  35.030  1.00  0.00     0.001 A 
ATOM     84  C   UNL A   1      45.090  26.503  36.007  1.00  0.00     0.001 A 
ATOM     85  C   UNL A   1      46.391  26.884  35.687  1.00  0.00     0.000 A 
ENDBRANCH  67  80
ENDBRANCH  41  42
ENDBRANCH  33  36
ENDBRANCH  31  32
ENDBRANCH  30  31
ENDBRANCH  29  30
ENDBRANCH   1  29
TORSDOF 17
ENDMDL
