MODEL 1
REMARK VINA RESULT:     -11.7      0.000      0.000
REMARK SMILES COc1ccc2c(c1)c(CC(=O)NCCCCCCNC(=O)c1ccc(-c3c4nc(c(-c5ccccc5)c5ccc([nH]5)c(-c5ccccc5)c5nc(c(-c6ccccc6)c6ccc3[nH]6)C=C5)C=C4)cc1)c(C(F)(F)F)n2C(=O)c1ccc(Cl)cc1
REMARK SMILES IDX 16 1 15 2 14 3 13 4 11 5 12 6 10 8 9 9 3 10 4 11 8 12 5 13
REMARK SMILES IDX 7 14 6 15 76 16 71 17 2 18 1 19 77 20 78 21 79 22 80 23
REMARK SMILES IDX 85 24 81 25 84 26 82 27 83 28 72 29 73 30 74 31 75 32 17 33
REMARK SMILES IDX 18 34 19 35 20 36 21 37 22 39 23 40 24 41 70 42 25 43 69 44
REMARK SMILES IDX 26 45 27 46 28 47 63 48 29 49 68 50 62 51 64 52 30 53 67 54
REMARK SMILES IDX 61 55 60 56 31 58 53 59 38 60 52 61 39 62 42 63 51 64 65 65
REMARK SMILES IDX 40 66 41 67 50 69 66 70 43 71 32 72 33 73 37 74 34 75 36 76
REMARK SMILES IDX 35 77 54 78 55 79 59 80 56 81 58 82 57 83 44 84 45 85 49 86
REMARK SMILES IDX 46 87 48 88 47 89
REMARK H PARENT 13 7 20 38 64 57 42 68
REMARK Flexibility Score: inf
ROOT
ATOM      1  C   UNL A   1      36.117  31.257  28.789  1.00  0.00     0.002 C 
ENDROOT
BRANCH   1   2
ATOM      2  C   UNL A   1      36.165  30.134  27.746  1.00  0.00     0.021 C 
BRANCH   2   3
ATOM      3  C   UNL A   1      34.785  29.687  27.261  1.00  0.00     0.116 C 
BRANCH   3   4
ATOM      4  N   UNL A   1      33.902  30.822  27.075  1.00  0.00    -0.356 N 
ATOM      5  C   UNL A   1      32.556  30.831  26.848  1.00  0.00     0.224 C 
ATOM      6  O   UNL A   1      31.996  31.915  26.672  1.00  0.00    -0.275 OA
ATOM      7  H   UNL A   1      34.332  31.706  27.118  1.00  0.00     0.163 HD
BRANCH   5   8
ATOM      8  C   UNL A   1      31.772  29.527  26.874  1.00  0.00     0.138 C 
BRANCH   8   9
ATOM      9  C   UNL A   1      31.695  28.838  25.538  1.00  0.00     0.000 A 
ATOM     10  C   UNL A   1      29.297  30.421  23.020  1.00  0.00     0.119 A 
ATOM     11  C   UNL A   1      29.443  29.448  22.042  1.00  0.00     0.048 A 
ATOM     12  C   UNL A   1      30.026  30.326  24.207  1.00  0.00     0.057 A 
ATOM     13  C   UNL A   1      30.318  28.372  22.228  1.00  0.00     0.031 A 
ATOM     14  C   UNL A   1      30.907  29.243  24.423  1.00  0.00     0.008 A 
ATOM     15  C   UNL A   1      31.081  28.295  23.410  1.00  0.00     0.057 A 
ATOM     16  N   UNL A   1      32.114  27.441  23.815  1.00  0.00    -0.271 N 
ATOM     17  C   UNL A   1      32.303  27.636  25.181  1.00  0.00     0.135 A 
BRANCH  10  18
ATOM     18  O   UNL A   1      28.491  31.521  22.912  1.00  0.00    -0.497 OA
ATOM     19  C   UNL A   1      29.099  32.756  23.273  1.00  0.00     0.278 C 
ENDBRANCH  10  18
BRANCH  16  20
ATOM     20  C   UNL A   1      32.878  26.568  22.994  1.00  0.00     0.262 C 
ATOM     21  O   UNL A   1      33.653  27.060  22.188  1.00  0.00    -0.268 OA
BRANCH  20  22
ATOM     22  C   UNL A   1      32.772  25.100  22.998  1.00  0.00     0.040 A 
ATOM     23  C   UNL A   1      31.518  24.481  23.022  1.00  0.00     0.015 A 
ATOM     24  C   UNL A   1      33.949  24.346  23.014  1.00  0.00     0.015 A 
ATOM     25  C   UNL A   1      31.447  23.091  23.136  1.00  0.00     0.021 A 
ATOM     26  C   UNL A   1      33.871  22.958  23.119  1.00  0.00     0.021 A 
ATOM     27  C   UNL A   1      32.621  22.337  23.196  1.00  0.00     0.041 A 
ATOM     28  Cl  UNL A   1      32.530  20.630  23.388  1.00  0.00    -0.084 Cl
ENDBRANCH  20  22
ENDBRANCH  16  20
BRANCH  17  29
ATOM     29  C   UNL A   1      33.078  26.676  26.020  1.00  0.00     0.432 C 
ATOM     30  F   UNL A   1      34.375  26.597  25.638  1.00  0.00    -0.165 F 
ATOM     31  F   UNL A   1      33.092  27.077  27.320  1.00  0.00    -0.165 F 
ATOM     32  F   UNL A   1      32.547  25.430  26.035  1.00  0.00    -0.165 F 
ENDBRANCH  17  29
ENDBRANCH   8   9
ENDBRANCH   5   8
ENDBRANCH   3   4
ENDBRANCH   2   3
ENDBRANCH   1   2
BRANCH   1  33
ATOM     33  C   UNL A   1      36.725  32.589  28.336  1.00  0.00     0.002 C 
BRANCH  33  34
ATOM     34  C   UNL A   1      36.269  33.822  29.126  1.00  0.00     0.021 C 
BRANCH  34  35
ATOM     35  C   UNL A   1      36.342  33.664  30.646  1.00  0.00     0.116 C 
BRANCH  35  36
ATOM     36  N   UNL A   1      37.547  34.221  31.226  1.00  0.00    -0.352 N 
ATOM     37  C   UNL A   1      38.821  33.769  31.429  1.00  0.00     0.251 C 
ATOM     38  H   UNL A   1      37.419  35.142  31.549  1.00  0.00     0.163 HD
ATOM     39  O   UNL A   1      39.610  34.577  31.928  1.00  0.00    -0.269 OA
BRANCH  37  40
ATOM     40  C   UNL A   1      39.307  32.390  31.133  1.00  0.00     0.039 A 
ATOM     41  C   UNL A   1      38.663  31.206  31.486  1.00  0.00     0.014 A 
ATOM     42  C   UNL A   1      40.540  32.297  30.458  1.00  0.00     0.014 A 
ATOM     43  C   UNL A   1      39.262  29.972  31.242  1.00  0.00     0.010 A 
ATOM     44  C   UNL A   1      41.132  31.064  30.188  1.00  0.00     0.010 A 
ATOM     45  C   UNL A   1      40.508  29.896  30.615  1.00  0.00    -0.014 A 
BRANCH  45  46
ATOM     46  C   UNL A   1      41.070  28.564  30.400  1.00  0.00     0.031 A 
ATOM     47  C   UNL A   1      41.864  27.976  31.520  1.00  0.00     0.074 A 
ATOM     48  C   UNL A   1      40.842  27.812  29.306  1.00  0.00     0.049 A 
ATOM     49  N   UNL A   1      43.089  27.555  31.506  1.00  0.00    -0.248 NA
ATOM     50  C   UNL A   1      41.205  27.866  32.828  1.00  0.00     0.031 C 
ATOM     51  C   UNL A   1      39.856  28.023  28.245  1.00  0.00     0.029 A 
ATOM     52  N   UNL A   1      41.406  26.613  28.979  1.00  0.00    -0.354 N 
ATOM     53  C   UNL A   1      43.332  27.017  32.770  1.00  0.00     0.074 A 
ATOM     54  C   UNL A   1      42.158  27.293  33.564  1.00  0.00     0.031 C 
ATOM     55  C   UNL A   1      39.733  26.885  27.525  1.00  0.00     0.029 A 
ATOM     56  C   UNL A   1      40.734  25.933  27.979  1.00  0.00     0.049 A 
ATOM     57  H   UNL A   1      42.217  26.264  29.414  1.00  0.00     0.167 HD
ATOM     58  C   UNL A   1      44.431  26.271  33.067  1.00  0.00     0.031 A 
ATOM     59  C   UNL A   1      40.940  24.652  27.598  1.00  0.00     0.031 A 
ATOM     60  C   UNL A   1      45.485  26.428  32.107  1.00  0.00     0.049 A 
ATOM     61  C   UNL A   1      42.286  24.238  28.046  1.00  0.00     0.074 A 
ATOM     62  C   UNL A   1      46.281  27.479  31.699  1.00  0.00     0.029 A 
ATOM     63  N   UNL A   1      45.663  25.440  31.172  1.00  0.00    -0.354 N 
ATOM     64  N   UNL A   1      43.397  24.709  27.559  1.00  0.00    -0.248 NA
ATOM     65  C   UNL A   1      42.415  23.510  29.298  1.00  0.00     0.031 C 
ATOM     66  C   UNL A   1      46.516  27.250  30.312  1.00  0.00     0.029 A 
ATOM     67  C   UNL A   1      45.863  26.064  29.967  1.00  0.00     0.049 A 
ATOM     68  H   UNL A   1      45.649  24.469  31.335  1.00  0.00     0.167 HD
ATOM     69  C   UNL A   1      44.286  24.700  28.622  1.00  0.00     0.074 A 
ATOM     70  C   UNL A   1      43.672  23.824  29.614  1.00  0.00     0.031 C 
ATOM     71  C   UNL A   1      45.294  25.618  28.712  1.00  0.00     0.031 A 
BRANCH  58  72
ATOM     72  C   UNL A   1      44.467  25.204  34.128  1.00  0.00    -0.014 A 
ATOM     73  C   UNL A   1      43.782  23.982  33.997  1.00  0.00     0.009 A 
ATOM     74  C   UNL A   1      45.386  25.303  35.189  1.00  0.00     0.009 A 
ATOM     75  C   UNL A   1      43.980  22.922  34.887  1.00  0.00     0.001 A 
ATOM     76  C   UNL A   1      45.617  24.230  36.059  1.00  0.00     0.001 A 
ATOM     77  C   UNL A   1      44.911  23.040  35.910  1.00  0.00     0.000 A 
ENDBRANCH  58  72
BRANCH  59  78
ATOM     78  C   UNL A   1      39.927  23.677  27.150  1.00  0.00    -0.014 A 
ATOM     79  C   UNL A   1      40.311  22.361  26.830  1.00  0.00     0.009 A 
ATOM     80  C   UNL A   1      38.643  24.098  26.771  1.00  0.00     0.009 A 
ATOM     81  C   UNL A   1      39.458  21.507  26.127  1.00  0.00     0.001 A 
ATOM     82  C   UNL A   1      37.791  23.243  26.062  1.00  0.00     0.001 A 
ATOM     83  C   UNL A   1      38.204  21.955  25.728  1.00  0.00     0.000 A 
ENDBRANCH  59  78
BRANCH  71  84
ATOM     84  C   UNL A   1      45.603  26.464  27.497  1.00  0.00    -0.014 A 
ATOM     85  C   UNL A   1      44.726  27.509  27.159  1.00  0.00     0.009 A 
ATOM     86  C   UNL A   1      46.632  26.147  26.593  1.00  0.00     0.009 A 
ATOM     87  C   UNL A   1      44.873  28.211  25.959  1.00  0.00     0.001 A 
ATOM     88  C   UNL A   1      46.797  26.868  25.406  1.00  0.00     0.001 A 
ATOM     89  C   UNL A   1      45.911  27.894  25.085  1.00  0.00     0.000 A 
ENDBRANCH  71  84
ENDBRANCH  45  46
ENDBRANCH  37  40
ENDBRANCH  35  36
ENDBRANCH  34  35
ENDBRANCH  33  34
ENDBRANCH   1  33
TORSDOF 18
ENDMDL
MODEL 2
REMARK VINA RESULT:     -11.4      1.504      2.026
REMARK SMILES COc1ccc2c(c1)c(CC(=O)NCCCCCCNC(=O)c1ccc(-c3c4nc(c(-c5ccccc5)c5ccc([nH]5)c(-c5ccccc5)c5nc(c(-c6ccccc6)c6ccc3[nH]6)C=C5)C=C4)cc1)c(C(F)(F)F)n2C(=O)c1ccc(Cl)cc1
REMARK SMILES IDX 16 1 15 2 14 3 13 4 11 5 12 6 10 8 9 9 3 10 4 11 8 12 5 13
REMARK SMILES IDX 7 14 6 15 76 16 71 17 2 18 1 19 77 20 78 21 79 22 80 23
REMARK SMILES IDX 85 24 81 25 84 26 82 27 83 28 72 29 73 30 74 31 75 32 17 33
REMARK SMILES IDX 18 34 19 35 20 36 21 37 22 39 23 40 24 41 70 42 25 43 69 44
REMARK SMILES IDX 26 45 27 46 28 47 63 48 29 49 68 50 62 51 64 52 30 53 67 54
REMARK SMILES IDX 61 55 60 56 31 58 53 59 38 60 52 61 39 62 42 63 51 64 65 65
REMARK SMILES IDX 40 66 41 67 50 69 66 70 43 71 32 72 33 73 37 74 34 75 36 76
REMARK SMILES IDX 35 77 54 78 55 79 59 80 56 81 58 82 57 83 44 84 45 85 49 86
REMARK SMILES IDX 46 87 48 88 47 89
REMARK H PARENT 13 7 20 38 64 57 42 68
REMARK Flexibility Score: inf
ROOT
ATOM      1  C   UNL A   1      36.489  31.575  28.953  1.00  0.00     0.002 C 
ENDROOT
BRANCH   1   2
ATOM      2  C   UNL A   1      35.879  31.044  27.650  1.00  0.00     0.021 C 
BRANCH   2   3
ATOM      3  C   UNL A   1      34.435  30.565  27.800  1.00  0.00     0.116 C 
BRANCH   3   4
ATOM      4  N   UNL A   1      33.498  31.584  27.367  1.00  0.00    -0.356 N 
ATOM      5  C   UNL A   1      32.204  31.438  26.955  1.00  0.00     0.224 C 
ATOM      6  O   UNL A   1      31.588  32.439  26.583  1.00  0.00    -0.275 OA
ATOM      7  H   UNL A   1      33.841  32.507  27.372  1.00  0.00     0.163 HD
BRANCH   5   8
ATOM      8  C   UNL A   1      31.537  30.072  27.014  1.00  0.00     0.138 C 
BRANCH   8   9
ATOM      9  C   UNL A   1      31.563  29.326  25.706  1.00  0.00     0.000 A 
ATOM     10  C   UNL A   1      29.248  30.702  22.996  1.00  0.00     0.119 A 
ATOM     11  C   UNL A   1      29.487  29.698  22.071  1.00  0.00     0.048 A 
ATOM     12  C   UNL A   1      29.913  30.687  24.224  1.00  0.00     0.057 A 
ATOM     13  C   UNL A   1      30.392  28.668  22.350  1.00  0.00     0.031 A 
ATOM     14  C   UNL A   1      30.822  29.652  24.535  1.00  0.00     0.008 A 
ATOM     15  C   UNL A   1      31.090  28.671  23.574  1.00  0.00     0.057 A 
ATOM     16  N   UNL A   1      32.132  27.878  24.071  1.00  0.00    -0.271 N 
ATOM     17  C   UNL A   1      32.236  28.137  25.436  1.00  0.00     0.135 A 
BRANCH  10  18
ATOM     18  O   UNL A   1      28.407  31.763  22.798  1.00  0.00    -0.497 OA
ATOM     19  C   UNL A   1      28.296  32.206  21.450  1.00  0.00     0.278 C 
ENDBRANCH  10  18
BRANCH  16  20
ATOM     20  C   UNL A   1      32.975  27.005  23.331  1.00  0.00     0.262 C 
ATOM     21  O   UNL A   1      33.882  27.493  22.674  1.00  0.00    -0.268 OA
BRANCH  20  22
ATOM     22  C   UNL A   1      32.809  25.545  23.248  1.00  0.00     0.040 A 
ATOM     23  C   UNL A   1      33.926  24.711  23.131  1.00  0.00     0.015 A 
ATOM     24  C   UNL A   1      31.513  25.020  23.252  1.00  0.00     0.015 A 
ATOM     25  C   UNL A   1      33.735  23.340  22.944  1.00  0.00     0.021 A 
ATOM     26  C   UNL A   1      31.330  23.649  23.074  1.00  0.00     0.021 A 
ATOM     27  C   UNL A   1      32.441  22.817  22.904  1.00  0.00     0.041 A 
ATOM     28  Cl  UNL A   1      32.209  21.136  22.623  1.00  0.00    -0.084 Cl
ENDBRANCH  20  22
ENDBRANCH  16  20
BRANCH  17  29
ATOM     29  C   UNL A   1      33.000  27.245  26.356  1.00  0.00     0.432 C 
ATOM     30  F   UNL A   1      34.331  27.276  26.107  1.00  0.00    -0.165 F 
ATOM     31  F   UNL A   1      32.849  27.645  27.648  1.00  0.00    -0.165 F 
ATOM     32  F   UNL A   1      32.577  25.959  26.327  1.00  0.00    -0.165 F 
ENDBRANCH  17  29
ENDBRANCH   8   9
ENDBRANCH   5   8
ENDBRANCH   3   4
ENDBRANCH   2   3
ENDBRANCH   1   2
BRANCH   1  33
ATOM     33  C   UNL A   1      36.506  33.101  29.086  1.00  0.00     0.002 C 
BRANCH  33  34
ATOM     34  C   UNL A   1      35.365  33.702  29.916  1.00  0.00     0.021 C 
BRANCH  34  35
ATOM     35  C   UNL A   1      34.623  32.695  30.797  1.00  0.00     0.116 C 
BRANCH  35  36
ATOM     36  N   UNL A   1      35.001  32.764  32.194  1.00  0.00    -0.352 N 
ATOM     37  C   UNL A   1      36.012  32.238  32.949  1.00  0.00     0.251 C 
ATOM     38  H   UNL A   1      34.385  33.320  32.724  1.00  0.00     0.163 HD
ATOM     39  O   UNL A   1      36.029  32.571  34.138  1.00  0.00    -0.269 OA
BRANCH  37  40
ATOM     40  C   UNL A   1      37.050  31.284  32.462  1.00  0.00     0.039 A 
ATOM     41  C   UNL A   1      36.870  29.918  32.261  1.00  0.00     0.014 A 
ATOM     42  C   UNL A   1      38.325  31.829  32.212  1.00  0.00     0.014 A 
ATOM     43  C   UNL A   1      37.943  29.106  31.895  1.00  0.00     0.010 A 
ATOM     44  C   UNL A   1      39.396  31.025  31.822  1.00  0.00     0.010 A 
ATOM     45  C   UNL A   1      39.213  29.652  31.698  1.00  0.00    -0.014 A 
BRANCH  45  46
ATOM     46  C   UNL A   1      40.286  28.733  31.321  1.00  0.00     0.031 A 
ATOM     47  C   UNL A   1      41.217  28.298  32.405  1.00  0.00     0.074 A 
ATOM     48  C   UNL A   1      40.427  28.195  30.094  1.00  0.00     0.049 A 
ATOM     49  N   UNL A   1      42.505  28.418  32.458  1.00  0.00    -0.248 NA
ATOM     50  C   UNL A   1      40.622  27.667  33.591  1.00  0.00     0.031 C 
ATOM     51  C   UNL A   1      39.478  28.204  28.981  1.00  0.00     0.029 A 
ATOM     52  N   UNL A   1      41.450  27.419  29.631  1.00  0.00    -0.354 N 
ATOM     53  C   UNL A   1      42.910  27.777  33.629  1.00  0.00     0.074 A 
ATOM     54  C   UNL A   1      41.703  27.389  34.319  1.00  0.00     0.031 C 
ATOM     55  C   UNL A   1      39.864  27.286  28.065  1.00  0.00     0.029 A 
ATOM     56  C   UNL A   1      41.155  26.746  28.459  1.00  0.00     0.049 A 
ATOM     57  H   UNL A   1      42.318  27.344  30.088  1.00  0.00     0.167 HD
ATOM     58  C   UNL A   1      44.210  27.492  33.916  1.00  0.00     0.031 A 
ATOM     59  C   UNL A   1      41.888  25.763  27.887  1.00  0.00     0.031 A 
ATOM     60  C   UNL A   1      45.133  28.253  33.123  1.00  0.00     0.049 A 
ATOM     61  C   UNL A   1      43.269  25.844  28.408  1.00  0.00     0.074 A 
ATOM     62  C   UNL A   1      45.431  29.594  32.997  1.00  0.00     0.029 A 
ATOM     63  N   UNL A   1      45.736  27.634  32.058  1.00  0.00    -0.354 N 
ATOM     64  N   UNL A   1      44.097  26.810  28.139  1.00  0.00    -0.248 NA
ATOM     65  C   UNL A   1      43.649  24.989  29.521  1.00  0.00     0.031 C 
ATOM     66  C   UNL A   1      45.784  29.769  31.628  1.00  0.00     0.029 A 
ATOM     67  C   UNL A   1      45.696  28.518  31.010  1.00  0.00     0.049 A 
ATOM     68  H   UNL A   1      46.122  26.728  32.048  1.00  0.00     0.167 HD
ATOM     69  C   UNL A   1      44.875  26.942  29.279  1.00  0.00     0.074 A 
ATOM     70  C   UNL A   1      44.651  25.711  30.028  1.00  0.00     0.031 C 
ATOM     71  C   UNL A   1      45.405  28.148  29.641  1.00  0.00     0.031 A 
BRANCH  58  72
ATOM     72  C   UNL A   1      44.653  26.337  34.773  1.00  0.00    -0.014 A 
ATOM     73  C   UNL A   1      45.098  26.503  36.098  1.00  0.00     0.009 A 
ATOM     74  C   UNL A   1      44.410  25.018  34.348  1.00  0.00     0.009 A 
ATOM     75  C   UNL A   1      45.316  25.415  36.948  1.00  0.00     0.001 A 
ATOM     76  C   UNL A   1      44.588  23.928  35.210  1.00  0.00     0.001 A 
ATOM     77  C   UNL A   1      45.045  24.127  36.509  1.00  0.00     0.000 A 
ENDBRANCH  58  72
BRANCH  59  78
ATOM     78  C   UNL A   1      41.388  24.578  27.165  1.00  0.00    -0.014 A 
ATOM     79  C   UNL A   1      40.122  24.048  27.475  1.00  0.00     0.009 A 
ATOM     80  C   UNL A   1      42.251  23.802  26.375  1.00  0.00     0.009 A 
ATOM     81  C   UNL A   1      39.742  22.775  27.041  1.00  0.00     0.001 A 
ATOM     82  C   UNL A   1      41.872  22.525  25.946  1.00  0.00     0.001 A 
ATOM     83  C   UNL A   1      40.625  22.007  26.291  1.00  0.00     0.000 A 
ENDBRANCH  59  78
BRANCH  71  84
ATOM     84  C   UNL A   1      45.372  29.276  28.634  1.00  0.00    -0.014 A 
ATOM     85  C   UNL A   1      44.173  29.985  28.450  1.00  0.00     0.009 A 
ATOM     86  C   UNL A   1      46.435  29.538  27.751  1.00  0.00     0.009 A 
ATOM     87  C   UNL A   1      44.041  30.922  27.420  1.00  0.00     0.001 A 
ATOM     88  C   UNL A   1      46.313  30.494  26.738  1.00  0.00     0.001 A 
ATOM     89  C   UNL A   1      45.113  31.179  26.567  1.00  0.00     0.000 A 
ENDBRANCH  71  84
ENDBRANCH  45  46
ENDBRANCH  37  40
ENDBRANCH  35  36
ENDBRANCH  34  35
ENDBRANCH  33  34
ENDBRANCH   1  33
TORSDOF 18
ENDMDL
MODEL 3
REMARK VINA RESULT:     -11.2      2.598      4.022
REMARK SMILES COc1ccc2c(c1)c(CC(=O)NCCCCCCNC(=O)c1ccc(-c3c4nc(c(-c5ccccc5)c5ccc([nH]5)c(-c5ccccc5)c5nc(c(-c6ccccc6)c6ccc3[nH]6)C=C5)C=C4)cc1)c(C(F)(F)F)n2C(=O)c1ccc(Cl)cc1
REMARK SMILES IDX 16 1 15 2 14 3 13 4 11 5 12 6 10 8 9 9 3 10 4 11 8 12 5 13
REMARK SMILES IDX 7 14 6 15 76 16 71 17 2 18 1 19 77 20 78 21 79 22 80 23
REMARK SMILES IDX 85 24 81 25 84 26 82 27 83 28 72 29 73 30 74 31 75 32 17 33
REMARK SMILES IDX 18 34 19 35 20 36 21 37 22 39 23 40 24 41 70 42 25 43 69 44
REMARK SMILES IDX 26 45 27 46 28 47 63 48 29 49 68 50 62 51 64 52 30 53 67 54
REMARK SMILES IDX 61 55 60 56 31 58 53 59 38 60 52 61 39 62 42 63 51 64 65 65
REMARK SMILES IDX 40 66 41 67 50 69 66 70 43 71 32 72 33 73 37 74 34 75 36 76
REMARK SMILES IDX 35 77 54 78 55 79 59 80 56 81 58 82 57 83 44 84 45 85 49 86
REMARK SMILES IDX 46 87 48 88 47 89
REMARK H PARENT 13 7 20 38 64 57 42 68
REMARK Flexibility Score: inf
ROOT
ATOM      1  C   UNL A   1      32.309  29.546  26.795  1.00  0.00     0.002 C 
ENDROOT
BRANCH   1   2
ATOM      2  C   UNL A   1      31.622  29.333  25.441  1.00  0.00     0.021 C 
BRANCH   2   3
ATOM      3  C   UNL A   1      31.783  27.916  24.887  1.00  0.00     0.116 C 
BRANCH   3   4
ATOM      4  N   UNL A   1      30.989  26.966  25.642  1.00  0.00    -0.356 N 
ATOM      5  C   UNL A   1      31.394  25.825  26.275  1.00  0.00     0.224 C 
ATOM      6  O   UNL A   1      30.543  25.126  26.829  1.00  0.00    -0.275 OA
ATOM      7  H   UNL A   1      30.029  27.170  25.707  1.00  0.00     0.163 HD
BRANCH   5   8
ATOM      8  C   UNL A   1      32.872  25.471  26.334  1.00  0.00     0.138 C 
BRANCH   8   9
ATOM      9  C   UNL A   1      33.241  24.262  25.517  1.00  0.00     0.000 A 
ATOM     10  C   UNL A   1      32.790  24.643  21.743  1.00  0.00     0.119 A 
ATOM     11  C   UNL A   1      33.107  23.333  21.421  1.00  0.00     0.048 A 
ATOM     12  C   UNL A   1      32.834  25.062  23.074  1.00  0.00     0.057 A 
ATOM     13  C   UNL A   1      33.477  22.421  22.415  1.00  0.00     0.031 A 
ATOM     14  C   UNL A   1      33.194  24.157  24.098  1.00  0.00     0.008 A 
ATOM     15  C   UNL A   1      33.558  22.851  23.754  1.00  0.00     0.057 A 
ATOM     16  N   UNL A   1      34.020  22.229  24.921  1.00  0.00    -0.271 N 
ATOM     17  C   UNL A   1      33.601  23.006  25.999  1.00  0.00     0.135 A 
BRANCH  10  18
ATOM     18  O   UNL A   1      32.448  25.609  20.836  1.00  0.00    -0.497 OA
ATOM     19  C   UNL A   1      31.522  26.583  21.306  1.00  0.00     0.278 C 
ENDBRANCH  10  18
BRANCH  16  20
ATOM     20  C   UNL A   1      34.814  21.054  25.011  1.00  0.00     0.262 C 
ATOM     21  O   UNL A   1      36.017  21.179  25.189  1.00  0.00    -0.268 OA
BRANCH  20  22
ATOM     22  C   UNL A   1      34.308  19.681  24.854  1.00  0.00     0.040 A 
ATOM     23  C   UNL A   1      32.936  19.420  24.923  1.00  0.00     0.015 A 
ATOM     24  C   UNL A   1      35.231  18.647  24.668  1.00  0.00     0.015 A 
ATOM     25  C   UNL A   1      32.491  18.097  24.879  1.00  0.00     0.021 A 
ATOM     26  C   UNL A   1      34.779  17.329  24.616  1.00  0.00     0.021 A 
ATOM     27  C   UNL A   1      33.414  17.058  24.738  1.00  0.00     0.041 A 
ATOM     28  Cl  UNL A   1      32.866  15.427  24.736  1.00  0.00    -0.084 Cl
ENDBRANCH  20  22
ENDBRANCH  16  20
BRANCH  17  29
ATOM     29  C   UNL A   1      33.617  22.492  27.400  1.00  0.00     0.432 C 
ATOM     30  F   UNL A   1      33.628  21.139  27.447  1.00  0.00    -0.165 F 
ATOM     31  F   UNL A   1      34.742  22.901  28.049  1.00  0.00    -0.165 F 
ATOM     32  F   UNL A   1      32.586  22.950  28.148  1.00  0.00    -0.165 F 
ENDBRANCH  17  29
ENDBRANCH   8   9
ENDBRANCH   5   8
ENDBRANCH   3   4
ENDBRANCH   2   3
ENDBRANCH   1   2
BRANCH   1  33
ATOM     33  C   UNL A   1      32.769  30.982  27.070  1.00  0.00     0.002 C 
BRANCH  33  34
ATOM     34  C   UNL A   1      34.136  31.115  27.753  1.00  0.00     0.021 C 
BRANCH  34  35
ATOM     35  C   UNL A   1      34.576  32.556  28.015  1.00  0.00     0.116 C 
BRANCH  35  36
ATOM     36  N   UNL A   1      34.715  32.869  29.423  1.00  0.00    -0.352 N 
ATOM     37  C   UNL A   1      35.568  32.482  30.420  1.00  0.00     0.251 C 
ATOM     38  H   UNL A   1      34.038  33.512  29.735  1.00  0.00     0.163 HD
ATOM     39  O   UNL A   1      35.396  33.020  31.517  1.00  0.00    -0.269 OA
BRANCH  37  40
ATOM     40  C   UNL A   1      36.641  31.455  30.290  1.00  0.00     0.039 A 
ATOM     41  C   UNL A   1      36.457  30.075  30.337  1.00  0.00     0.014 A 
ATOM     42  C   UNL A   1      37.952  31.944  30.132  1.00  0.00     0.014 A 
ATOM     43  C   UNL A   1      37.550  29.211  30.303  1.00  0.00     0.010 A 
ATOM     44  C   UNL A   1      39.048  31.083  30.071  1.00  0.00     0.010 A 
ATOM     45  C   UNL A   1      38.850  29.711  30.194  1.00  0.00    -0.014 A 
BRANCH  45  46
ATOM     46  C   UNL A   1      39.942  28.740  30.170  1.00  0.00     0.031 A 
ATOM     47  C   UNL A   1      40.654  28.489  31.459  1.00  0.00     0.074 A 
ATOM     48  C   UNL A   1      40.279  28.004  29.092  1.00  0.00     0.049 A 
ATOM     49  N   UNL A   1      41.916  28.612  31.721  1.00  0.00    -0.248 NA
ATOM     50  C   UNL A   1      39.840  28.066  32.606  1.00  0.00     0.031 C 
ATOM     51  C   UNL A   1      39.541  27.831  27.841  1.00  0.00     0.029 A 
ATOM     52  N   UNL A   1      41.341  27.160  28.952  1.00  0.00    -0.354 N 
ATOM     53  C   UNL A   1      42.087  28.175  33.033  1.00  0.00     0.074 A 
ATOM     54  C   UNL A   1      40.767  27.910  33.552  1.00  0.00     0.031 C 
ATOM     55  C   UNL A   1      40.051  26.772  27.172  1.00  0.00     0.029 A 
ATOM     56  C   UNL A   1      41.236  26.302  27.872  1.00  0.00     0.049 A 
ATOM     57  H   UNL A   1      42.113  27.160  29.563  1.00  0.00     0.167 HD
ATOM     58  C   UNL A   1      43.307  27.938  33.591  1.00  0.00     0.031 A 
ATOM     59  C   UNL A   1      42.025  25.236  27.609  1.00  0.00     0.031 A 
ATOM     60  C   UNL A   1      44.379  28.554  32.862  1.00  0.00     0.049 A 
ATOM     61  C   UNL A   1      43.296  25.399  28.347  1.00  0.00     0.074 A 
ATOM     62  C   UNL A   1      44.738  29.855  32.574  1.00  0.00     0.029 A 
ATOM     63  N   UNL A   1      45.140  27.765  32.038  1.00  0.00    -0.354 N 
ATOM     64  N   UNL A   1      44.189  26.305  28.077  1.00  0.00    -0.248 NA
ATOM     65  C   UNL A   1      43.447  24.740  29.635  1.00  0.00     0.031 C 
ATOM     66  C   UNL A   1      45.331  29.799  31.280  1.00  0.00     0.029 A 
ATOM     67  C   UNL A   1      45.313  28.463  30.869  1.00  0.00     0.049 A 
ATOM     68  H   UNL A   1      45.492  26.869  32.244  1.00  0.00     0.167 HD
ATOM     69  C   UNL A   1      44.758  26.623  29.300  1.00  0.00     0.074 A 
ATOM     70  C   UNL A   1      44.366  25.534  30.187  1.00  0.00     0.031 C 
ATOM     71  C   UNL A   1      45.255  27.870  29.549  1.00  0.00     0.031 A 
BRANCH  58  72
ATOM     72  C   UNL A   1      43.555  26.941  34.690  1.00  0.00    -0.014 A 
ATOM     73  C   UNL A   1      43.757  25.571  34.439  1.00  0.00     0.009 A 
ATOM     74  C   UNL A   1      43.831  27.392  35.994  1.00  0.00     0.009 A 
ATOM     75  C   UNL A   1      44.183  24.689  35.437  1.00  0.00     0.001 A 
ATOM     76  C   UNL A   1      44.297  26.519  36.986  1.00  0.00     0.001 A 
ATOM     77  C   UNL A   1      44.469  25.167  36.708  1.00  0.00     0.000 A 
ENDBRANCH  58  72
BRANCH  59  78
ATOM     78  C   UNL A   1      41.623  23.948  27.012  1.00  0.00    -0.014 A 
ATOM     79  C   UNL A   1      40.313  23.467  27.196  1.00  0.00     0.009 A 
ATOM     80  C   UNL A   1      42.584  23.062  26.503  1.00  0.00     0.009 A 
ATOM     81  C   UNL A   1      39.981  22.140  26.914  1.00  0.00     0.001 A 
ATOM     82  C   UNL A   1      42.252  21.731  26.225  1.00  0.00     0.001 A 
ATOM     83  C   UNL A   1      40.956  21.267  26.444  1.00  0.00     0.000 A 
ENDBRANCH  59  78
BRANCH  71  84
ATOM     84  C   UNL A   1      45.436  28.816  28.381  1.00  0.00    -0.014 A 
ATOM     85  C   UNL A   1      46.717  28.963  27.822  1.00  0.00     0.009 A 
ATOM     86  C   UNL A   1      44.420  29.682  27.941  1.00  0.00     0.009 A 
ATOM     87  C   UNL A   1      46.972  29.942  26.856  1.00  0.00     0.001 A 
ATOM     88  C   UNL A   1      44.668  30.642  26.955  1.00  0.00     0.001 A 
ATOM     89  C   UNL A   1      45.946  30.778  26.420  1.00  0.00     0.000 A 
ENDBRANCH  71  84
ENDBRANCH  45  46
ENDBRANCH  37  40
ENDBRANCH  35  36
ENDBRANCH  34  35
ENDBRANCH  33  34
ENDBRANCH   1  33
TORSDOF 18
ENDMDL
