MODEL 1
REMARK VINA RESULT:     -11.5      0.000      0.000
REMARK SMILES COC(=O)c1ccc(C)c2c1[C@H]1C=CC[C@H]1[C@@H](c1ccc(C(=O)NCCCCCCNC(=O)c3ccc(-c4c5nc(c(-c6ccccc6)c6ccc([nH]6)c(-c6ccccc6)c6nc(c(-c7ccccc7)c7ccc4[nH]7)C=C6)C=C5)cc3)cc1)N2
REMARK SMILES IDX 27 1 26 2 25 3 24 4 22 5 23 6 21 8 18 9 19 10 83 11 20 12
REMARK SMILES IDX 82 13 17 14 5 15 6 16 11 17 7 18 10 19 12 20 8 21 84 22
REMARK SMILES IDX 13 23 16 24 9 25 14 27 15 28 3 29 4 30 2 31 1 32 28 33 29 34
REMARK SMILES IDX 30 35 31 36 32 37 33 39 34 40 35 41 81 42 36 43 80 44 37 45
REMARK SMILES IDX 38 46 39 47 74 48 40 49 79 50 73 51 75 52 41 53 78 54 72 55
REMARK SMILES IDX 71 56 42 58 64 59 49 60 63 61 50 62 53 63 62 64 76 65 51 66
REMARK SMILES IDX 52 67 61 69 77 70 54 71 43 72 44 73 48 74 45 75 47 76 46 77
REMARK SMILES IDX 65 78 66 79 70 80 67 81 69 82 68 83 55 84 56 85 60 86 57 87
REMARK SMILES IDX 59 88 58 89
REMARK H PARENT 24 7 84 26 31 38 75 57 53 68
REMARK Flexibility Score: inf
ROOT
ATOM      1  C   UNL A   1      41.342  21.867  26.881  1.00  0.00     0.002 C 
ENDROOT
BRANCH   1   2
ATOM      2  C   UNL A   1      40.502  22.923  27.617  1.00  0.00     0.021 C 
BRANCH   2   3
ATOM      3  C   UNL A   1      39.229  23.300  26.858  1.00  0.00     0.116 C 
BRANCH   3   4
ATOM      4  N   UNL A   1      38.925  22.261  25.906  1.00  0.00    -0.352 N 
ATOM      5  C   UNL A   1      37.755  21.858  25.332  1.00  0.00     0.251 C 
ATOM      6  O   UNL A   1      37.797  20.850  24.625  1.00  0.00    -0.269 OA
ATOM      7  H   UNL A   1      39.711  21.745  25.613  1.00  0.00     0.163 HD
BRANCH   5   8
ATOM      8  C   UNL A   1      36.472  22.598  25.468  1.00  0.00     0.039 A 
ATOM      9  C   UNL A   1      33.943  23.809  25.984  1.00  0.00    -0.025 A 
ATOM     10  C   UNL A   1      34.203  22.466  26.298  1.00  0.00     0.006 A 
ATOM     11  C   UNL A   1      34.966  24.510  25.329  1.00  0.00     0.006 A 
ATOM     12  C   UNL A   1      35.438  21.873  26.053  1.00  0.00     0.014 A 
ATOM     13  C   UNL A   1      36.228  23.928  25.114  1.00  0.00     0.014 A 
BRANCH   9  14
ATOM     14  C   UNL A   1      32.662  24.543  26.419  1.00  0.00     0.114 C 
ATOM     15  C   UNL A   1      32.655  27.008  22.995  1.00  0.00     0.065 A 
ATOM     16  C   UNL A   1      33.461  28.149  23.002  1.00  0.00     0.016 A 
ATOM     17  C   UNL A   1      32.388  26.299  24.187  1.00  0.00    -0.003 A 
ATOM     18  C   UNL A   1      34.007  28.607  24.196  1.00  0.00     0.006 A 
ATOM     19  C   UNL A   1      32.950  26.772  25.406  1.00  0.00     0.042 A 
ATOM     20  C   UNL A   1      31.530  25.046  24.184  1.00  0.00     0.050 C 
ATOM     21  C   UNL A   1      33.766  27.928  25.402  1.00  0.00    -0.028 A 
ATOM     22  N   UNL A   1      32.872  25.978  26.549  1.00  0.00    -0.377 N 
ATOM     23  C   UNL A   1      31.995  23.880  23.343  1.00  0.00    -0.023 C 
ATOM     24  C   UNL A   1      31.385  24.359  25.560  1.00  0.00     0.031 C 
ATOM     25  C   UNL A   1      34.514  28.431  26.613  1.00  0.00     0.046 C 
ATOM     26  H   UNL A   1      32.960  26.386  27.440  1.00  0.00     0.161 HD
ATOM     27  C   UNL A   1      31.688  22.704  23.909  1.00  0.00    -0.030 C 
ATOM     28  C   UNL A   1      31.023  22.904  25.230  1.00  0.00     0.034 C 
BRANCH  15  29
ATOM     29  C   UNL A   1      32.125  26.552  21.690  1.00  0.00     0.338 C 
ATOM     30  O   UNL A   1      30.961  26.610  21.353  1.00  0.00    -0.246 OA
BRANCH  29  31
ATOM     31  O   UNL A   1      33.152  25.990  20.999  1.00  0.00    -0.465 OA
ATOM     32  C   UNL A   1      32.747  25.274  19.833  1.00  0.00     0.282 C 
ENDBRANCH  29  31
ENDBRANCH  15  29
ENDBRANCH   9  14
ENDBRANCH   5   8
ENDBRANCH   3   4
ENDBRANCH   2   3
ENDBRANCH   1   2
BRANCH   1  33
ATOM     33  C   UNL A   1      41.823  20.711  27.767  1.00  0.00     0.002 C 
BRANCH  33  34
ATOM     34  C   UNL A   1      42.332  19.493  26.991  1.00  0.00     0.021 C 
BRANCH  34  35
ATOM     35  C   UNL A   1      42.364  19.709  25.483  1.00  0.00     0.116 C 
BRANCH  35  36
ATOM     36  N   UNL A   1      43.545  19.094  24.905  1.00  0.00    -0.352 N 
ATOM     37  C   UNL A   1      44.664  19.716  24.418  1.00  0.00     0.251 C 
ATOM     38  H   UNL A   1      43.543  18.110  24.857  1.00  0.00     0.163 HD
ATOM     39  O   UNL A   1      45.446  19.127  23.681  1.00  0.00    -0.269 OA
BRANCH  37  40
ATOM     40  C   UNL A   1      44.928  21.112  24.812  1.00  0.00     0.039 A 
ATOM     41  C   UNL A   1      45.421  21.383  26.090  1.00  0.00     0.014 A 
ATOM     42  C   UNL A   1      44.639  22.151  23.920  1.00  0.00     0.014 A 
ATOM     43  C   UNL A   1      45.634  22.706  26.477  1.00  0.00     0.010 A 
ATOM     44  C   UNL A   1      44.892  23.466  24.291  1.00  0.00     0.010 A 
ATOM     45  C   UNL A   1      45.362  23.752  25.580  1.00  0.00    -0.014 A 
BRANCH  45  46
ATOM     46  C   UNL A   1      45.445  25.165  26.005  1.00  0.00     0.031 A 
ATOM     47  C   UNL A   1      46.780  25.855  25.965  1.00  0.00     0.074 A 
ATOM     48  C   UNL A   1      44.353  25.808  26.455  1.00  0.00     0.049 A 
ATOM     49  N   UNL A   1      47.104  27.047  26.394  1.00  0.00    -0.248 NA
ATOM     50  C   UNL A   1      47.900  25.100  25.375  1.00  0.00     0.031 C 
ATOM     51  C   UNL A   1      43.004  25.248  26.522  1.00  0.00     0.029 A 
ATOM     52  N   UNL A   1      44.215  27.081  26.946  1.00  0.00    -0.354 N 
ATOM     53  C   UNL A   1      48.461  27.178  26.137  1.00  0.00     0.074 A 
ATOM     54  C   UNL A   1      48.912  25.938  25.547  1.00  0.00     0.031 C 
ATOM     55  C   UNL A   1      42.168  26.182  27.010  1.00  0.00     0.029 A 
ATOM     56  C   UNL A   1      42.931  27.388  27.322  1.00  0.00     0.049 A 
ATOM     57  H   UNL A   1      44.964  27.714  27.022  1.00  0.00     0.167 HD
ATOM     58  C   UNL A   1      49.259  28.247  26.359  1.00  0.00     0.031 A 
ATOM     59  C   UNL A   1      42.431  28.512  27.868  1.00  0.00     0.031 A 
ATOM     60  C   UNL A   1      48.809  29.486  26.924  1.00  0.00     0.049 A 
ATOM     61  C   UNL A   1      43.354  29.664  28.157  1.00  0.00     0.074 A 
ATOM     62  C   UNL A   1      49.541  30.636  27.162  1.00  0.00     0.029 A 
ATOM     63  N   UNL A   1      47.510  29.740  27.328  1.00  0.00    -0.354 N 
ATOM     64  N   UNL A   1      44.637  29.774  27.913  1.00  0.00    -0.248 NA
ATOM     65  C   UNL A   1      42.760  30.843  28.806  1.00  0.00     0.031 C 
ATOM     66  C   UNL A   1      48.689  31.578  27.744  1.00  0.00     0.029 A 
ATOM     67  C   UNL A   1      47.422  31.025  27.832  1.00  0.00     0.049 A 
ATOM     68  H   UNL A   1      46.762  29.103  27.267  1.00  0.00     0.167 HD
ATOM     69  C   UNL A   1      45.001  31.035  28.363  1.00  0.00     0.074 A 
ATOM     70  C   UNL A   1      43.803  31.660  28.886  1.00  0.00     0.031 C 
ATOM     71  C   UNL A   1      46.221  31.623  28.349  1.00  0.00     0.031 A 
BRANCH  58  72
ATOM     72  C   UNL A   1      50.704  28.133  25.978  1.00  0.00    -0.014 A 
ATOM     73  C   UNL A   1      51.117  28.373  24.659  1.00  0.00     0.009 A 
ATOM     74  C   UNL A   1      51.669  27.870  26.962  1.00  0.00     0.009 A 
ATOM     75  C   UNL A   1      52.473  28.350  24.332  1.00  0.00     0.001 A 
ATOM     76  C   UNL A   1      53.026  27.863  26.634  1.00  0.00     0.001 A 
ATOM     77  C   UNL A   1      53.426  28.104  25.319  1.00  0.00     0.000 A 
ENDBRANCH  58  72
BRANCH  59  78
ATOM     78  C   UNL A   1      40.982  28.610  28.172  1.00  0.00    -0.014 A 
ATOM     79  C   UNL A   1      40.490  28.155  29.405  1.00  0.00     0.009 A 
ATOM     80  C   UNL A   1      40.088  29.156  27.239  1.00  0.00     0.009 A 
ATOM     81  C   UNL A   1      39.125  28.233  29.691  1.00  0.00     0.001 A 
ATOM     82  C   UNL A   1      38.727  29.250  27.538  1.00  0.00     0.001 A 
ATOM     83  C   UNL A   1      38.246  28.783  28.760  1.00  0.00     0.000 A 
ENDBRANCH  59  78
BRANCH  71  84
ATOM     84  C   UNL A   1      46.331  33.011  28.904  1.00  0.00    -0.014 A 
ATOM     85  C   UNL A   1      46.081  34.128  28.093  1.00  0.00     0.009 A 
ATOM     86  C   UNL A   1      46.586  33.200  30.271  1.00  0.00     0.009 A 
ATOM     87  C   UNL A   1      46.095  35.411  28.641  1.00  0.00     0.001 A 
ATOM     88  C   UNL A   1      46.579  34.481  30.819  1.00  0.00     0.001 A 
ATOM     89  C   UNL A   1      46.336  35.586  30.004  1.00  0.00     0.000 A 
ENDBRANCH  71  84
ENDBRANCH  45  46
ENDBRANCH  37  40
ENDBRANCH  35  36
ENDBRANCH  34  35
ENDBRANCH  33  34
ENDBRANCH   1  33
TORSDOF 16
ENDMDL
MODEL 2
REMARK VINA RESULT:     -11.4      6.316     11.569
REMARK SMILES COC(=O)c1ccc(C)c2c1[C@H]1C=CC[C@H]1[C@@H](c1ccc(C(=O)NCCCCCCNC(=O)c3ccc(-c4c5nc(c(-c6ccccc6)c6ccc([nH]6)c(-c6ccccc6)c6nc(c(-c7ccccc7)c7ccc4[nH]7)C=C6)C=C5)cc3)cc1)N2
REMARK SMILES IDX 27 1 26 2 25 3 24 4 22 5 23 6 21 8 18 9 19 10 83 11 20 12
REMARK SMILES IDX 82 13 17 14 5 15 6 16 11 17 7 18 10 19 12 20 8 21 84 22
REMARK SMILES IDX 13 23 16 24 9 25 14 27 15 28 3 29 4 30 2 31 1 32 28 33 29 34
REMARK SMILES IDX 30 35 31 36 32 37 33 39 34 40 35 41 81 42 36 43 80 44 37 45
REMARK SMILES IDX 38 46 39 47 74 48 40 49 79 50 73 51 75 52 41 53 78 54 72 55
REMARK SMILES IDX 71 56 42 58 64 59 49 60 63 61 50 62 53 63 62 64 76 65 51 66
REMARK SMILES IDX 52 67 61 69 77 70 54 71 43 72 44 73 48 74 45 75 47 76 46 77
REMARK SMILES IDX 65 78 66 79 70 80 67 81 69 82 68 83 55 84 56 85 60 86 57 87
REMARK SMILES IDX 59 88 58 89
REMARK H PARENT 24 7 84 26 31 38 75 57 53 68
REMARK Flexibility Score: inf
ROOT
ATOM      1  C   UNL A   1      34.767  32.965  28.925  1.00  0.00     0.002 C 
ENDROOT
BRANCH   1   2
ATOM      2  C   UNL A   1      35.704  32.134  28.034  1.00  0.00     0.021 C 
BRANCH   2   3
ATOM      3  C   UNL A   1      35.071  30.822  27.572  1.00  0.00     0.116 C 
BRANCH   3   4
ATOM      4  N   UNL A   1      33.637  30.974  27.549  1.00  0.00    -0.352 N 
ATOM      5  C   UNL A   1      32.656  30.305  26.879  1.00  0.00     0.251 C 
ATOM      6  O   UNL A   1      31.510  30.746  26.980  1.00  0.00    -0.269 OA
ATOM      7  H   UNL A   1      33.302  31.698  28.127  1.00  0.00     0.163 HD
BRANCH   5   8
ATOM      8  C   UNL A   1      32.890  29.060  26.100  1.00  0.00     0.039 A 
ATOM      9  C   UNL A   1      33.372  26.872  24.337  1.00  0.00    -0.025 A 
ATOM     10  C   UNL A   1      32.806  28.075  23.891  1.00  0.00     0.006 A 
ATOM     11  C   UNL A   1      33.620  26.766  25.713  1.00  0.00     0.006 A 
ATOM     12  C   UNL A   1      32.574  29.148  24.747  1.00  0.00     0.014 A 
ATOM     13  C   UNL A   1      33.423  27.859  26.576  1.00  0.00     0.014 A 
BRANCH   9  14
ATOM     14  C   UNL A   1      33.819  25.748  23.384  1.00  0.00     0.114 C 
ATOM     15  C   UNL A   1      32.723  22.716  26.106  1.00  0.00     0.065 A 
ATOM     16  C   UNL A   1      33.624  22.384  27.121  1.00  0.00     0.016 A 
ATOM     17  C   UNL A   1      33.126  23.504  25.006  1.00  0.00    -0.003 A 
ATOM     18  C   UNL A   1      34.940  22.825  27.054  1.00  0.00     0.006 A 
ATOM     19  C   UNL A   1      34.475  23.954  24.943  1.00  0.00     0.042 A 
ATOM     20  C   UNL A   1      32.148  23.887  23.909  1.00  0.00     0.050 C 
ATOM     21  C   UNL A   1      35.379  23.614  25.978  1.00  0.00    -0.028 A 
ATOM     22  N   UNL A   1      34.838  24.897  23.984  1.00  0.00    -0.377 N 
ATOM     23  C   UNL A   1      30.926  24.683  24.305  1.00  0.00    -0.023 C 
ATOM     24  C   UNL A   1      32.734  24.801  22.810  1.00  0.00     0.031 C 
ATOM     25  C   UNL A   1      36.787  24.149  26.071  1.00  0.00     0.046 C 
ATOM     26  H   UNL A   1      35.780  24.990  23.714  1.00  0.00     0.161 HD
ATOM     27  C   UNL A   1      30.565  25.548  23.347  1.00  0.00    -0.030 C 
ATOM     28  C   UNL A   1      31.513  25.501  22.197  1.00  0.00     0.034 C 
BRANCH  15  29
ATOM     29  C   UNL A   1      31.328  22.241  26.245  1.00  0.00     0.338 C 
ATOM     30  O   UNL A   1      30.802  21.407  25.539  1.00  0.00    -0.246 OA
BRANCH  29  31
ATOM     31  O   UNL A   1      30.741  22.967  27.234  1.00  0.00    -0.465 OA
ATOM     32  C   UNL A   1      29.320  22.846  27.280  1.00  0.00     0.282 C 
ENDBRANCH  29  31
ENDBRANCH  15  29
ENDBRANCH   9  14
ENDBRANCH   5   8
ENDBRANCH   3   4
ENDBRANCH   2   3
ENDBRANCH   1   2
BRANCH   1  33
ATOM     33  C   UNL A   1      34.531  34.399  28.432  1.00  0.00     0.002 C 
BRANCH  33  34
ATOM     34  C   UNL A   1      33.243  35.040  28.955  1.00  0.00     0.021 C 
BRANCH  34  35
ATOM     35  C   UNL A   1      33.488  36.273  29.815  1.00  0.00     0.116 C 
BRANCH  35  36
ATOM     36  N   UNL A   1      32.511  36.350  30.887  1.00  0.00    -0.352 N 
ATOM     37  C   UNL A   1      32.472  35.616  32.043  1.00  0.00     0.251 C 
ATOM     38  H   UNL A   1      31.789  37.010  30.769  1.00  0.00     0.163 HD
ATOM     39  O   UNL A   1      31.449  35.544  32.712  1.00  0.00    -0.269 OA
BRANCH  37  40
ATOM     40  C   UNL A   1      33.696  34.923  32.484  1.00  0.00     0.039 A 
ATOM     41  C   UNL A   1      34.917  35.598  32.451  1.00  0.00     0.014 A 
ATOM     42  C   UNL A   1      33.627  33.585  32.889  1.00  0.00     0.014 A 
ATOM     43  C   UNL A   1      36.081  34.930  32.832  1.00  0.00     0.010 A 
ATOM     44  C   UNL A   1      34.780  32.934  33.309  1.00  0.00     0.010 A 
ATOM     45  C   UNL A   1      36.016  33.593  33.256  1.00  0.00    -0.014 A 
BRANCH  45  46
ATOM     46  C   UNL A   1      37.243  32.817  33.533  1.00  0.00     0.031 A 
ATOM     47  C   UNL A   1      37.977  33.061  34.822  1.00  0.00     0.074 A 
ATOM     48  C   UNL A   1      37.715  31.939  32.630  1.00  0.00     0.049 A 
ATOM     49  N   UNL A   1      39.126  32.580  35.219  1.00  0.00    -0.248 NA
ATOM     50  C   UNL A   1      37.339  33.976  35.786  1.00  0.00     0.031 C 
ATOM     51  C   UNL A   1      37.079  31.606  31.356  1.00  0.00     0.029 A 
ATOM     52  N   UNL A   1      38.847  31.166  32.655  1.00  0.00    -0.354 N 
ATOM     53  C   UNL A   1      39.352  33.141  36.468  1.00  0.00     0.074 A 
ATOM     54  C   UNL A   1      38.243  34.023  36.753  1.00  0.00     0.031 C 
ATOM     55  C   UNL A   1      37.825  30.681  30.726  1.00  0.00     0.029 A 
ATOM     56  C   UNL A   1      39.004  30.387  31.536  1.00  0.00     0.049 A 
ATOM     57  H   UNL A   1      39.487  31.171  33.402  1.00  0.00     0.167 HD
ATOM     58  C   UNL A   1      40.387  32.926  37.311  1.00  0.00     0.031 A 
ATOM     59  C   UNL A   1      39.995  29.540  31.200  1.00  0.00     0.031 A 
ATOM     60  C   UNL A   1      41.477  32.033  37.040  1.00  0.00     0.049 A 
ATOM     61  C   UNL A   1      41.162  29.364  32.131  1.00  0.00     0.074 A 
ATOM     62  C   UNL A   1      42.559  31.730  37.847  1.00  0.00     0.029 A 
ATOM     63  N   UNL A   1      41.617  31.295  35.878  1.00  0.00    -0.354 N 
ATOM     64  N   UNL A   1      41.366  29.904  33.308  1.00  0.00    -0.248 NA
ATOM     65  C   UNL A   1      42.240  28.470  31.684  1.00  0.00     0.031 C 
ATOM     66  C   UNL A   1      43.374  30.830  37.156  1.00  0.00     0.029 A 
ATOM     67  C   UNL A   1      42.779  30.548  35.938  1.00  0.00     0.049 A 
ATOM     68  H   UNL A   1      40.986  31.300  35.123  1.00  0.00     0.167 HD
ATOM     69  C   UNL A   1      42.585  29.405  33.747  1.00  0.00     0.074 A 
ATOM     70  C   UNL A   1      43.071  28.511  32.717  1.00  0.00     0.031 C 
ATOM     71  C   UNL A   1      43.244  29.668  34.900  1.00  0.00     0.031 A 
BRANCH  58  72
ATOM     72  C   UNL A   1      40.388  33.657  38.620  1.00  0.00    -0.014 A 
ATOM     73  C   UNL A   1      40.983  34.922  38.731  1.00  0.00     0.009 A 
ATOM     74  C   UNL A   1      39.712  33.117  39.724  1.00  0.00     0.009 A 
ATOM     75  C   UNL A   1      40.904  35.633  39.929  1.00  0.00     0.001 A 
ATOM     76  C   UNL A   1      39.622  33.838  40.916  1.00  0.00     0.001 A 
ATOM     77  C   UNL A   1      40.217  35.095  41.017  1.00  0.00     0.000 A 
ENDBRANCH  58  72
BRANCH  59  78
ATOM     78  C   UNL A   1      39.927  28.785  29.924  1.00  0.00    -0.014 A 
ATOM     79  C   UNL A   1      39.473  27.457  29.915  1.00  0.00     0.009 A 
ATOM     80  C   UNL A   1      40.312  29.383  28.715  1.00  0.00     0.009 A 
ATOM     81  C   UNL A   1      39.420  26.738  28.720  1.00  0.00     0.001 A 
ATOM     82  C   UNL A   1      40.239  28.665  27.518  1.00  0.00     0.001 A 
ATOM     83  C   UNL A   1      39.799  27.343  27.522  1.00  0.00     0.000 A 
ENDBRANCH  59  78
BRANCH  71  84
ATOM     84  C   UNL A   1      44.558  28.981  35.123  1.00  0.00    -0.014 A 
ATOM     85  C   UNL A   1      45.761  29.605  34.764  1.00  0.00     0.009 A 
ATOM     86  C   UNL A   1      44.597  27.747  35.790  1.00  0.00     0.009 A 
ATOM     87  C   UNL A   1      46.983  28.998  35.060  1.00  0.00     0.001 A 
ATOM     88  C   UNL A   1      45.819  27.153  36.103  1.00  0.00     0.001 A 
ATOM     89  C   UNL A   1      47.011  27.778  35.736  1.00  0.00     0.000 A 
ENDBRANCH  71  84
ENDBRANCH  45  46
ENDBRANCH  37  40
ENDBRANCH  35  36
ENDBRANCH  34  35
ENDBRANCH  33  34
ENDBRANCH   1  33
TORSDOF 16
ENDMDL
MODEL 3
REMARK VINA RESULT:     -11.2      6.229     11.198
REMARK SMILES COC(=O)c1ccc(C)c2c1[C@H]1C=CC[C@H]1[C@@H](c1ccc(C(=O)NCCCCCCNC(=O)c3ccc(-c4c5nc(c(-c6ccccc6)c6ccc([nH]6)c(-c6ccccc6)c6nc(c(-c7ccccc7)c7ccc4[nH]7)C=C6)C=C5)cc3)cc1)N2
REMARK SMILES IDX 27 1 26 2 25 3 24 4 22 5 23 6 21 8 18 9 19 10 83 11 20 12
REMARK SMILES IDX 82 13 17 14 5 15 6 16 11 17 7 18 10 19 12 20 8 21 84 22
REMARK SMILES IDX 13 23 16 24 9 25 14 27 15 28 3 29 4 30 2 31 1 32 28 33 29 34
REMARK SMILES IDX 30 35 31 36 32 37 33 39 34 40 35 41 81 42 36 43 80 44 37 45
REMARK SMILES IDX 38 46 39 47 74 48 40 49 79 50 73 51 75 52 41 53 78 54 72 55
REMARK SMILES IDX 71 56 42 58 64 59 49 60 63 61 50 62 53 63 62 64 76 65 51 66
REMARK SMILES IDX 52 67 61 69 77 70 54 71 43 72 44 73 48 74 45 75 47 76 46 77
REMARK SMILES IDX 65 78 66 79 70 80 67 81 69 82 68 83 55 84 56 85 60 86 57 87
REMARK SMILES IDX 59 88 58 89
REMARK H PARENT 24 7 84 26 31 38 75 57 53 68
REMARK Flexibility Score: inf
ROOT
ATOM      1  C   UNL A   1      34.979  32.931  29.013  1.00  0.00     0.002 C 
ENDROOT
BRANCH   1   2
ATOM      2  C   UNL A   1      35.790  32.085  28.020  1.00  0.00     0.021 C 
BRANCH   2   3
ATOM      3  C   UNL A   1      35.092  30.775  27.652  1.00  0.00     0.116 C 
BRANCH   3   4
ATOM      4  N   UNL A   1      33.672  31.010  27.553  1.00  0.00    -0.352 N 
ATOM      5  C   UNL A   1      32.690  30.395  26.836  1.00  0.00     0.251 C 
ATOM      6  O   UNL A   1      31.567  30.902  26.876  1.00  0.00    -0.269 OA
ATOM      7  H   UNL A   1      33.351  31.756  28.111  1.00  0.00     0.163 HD
BRANCH   5   8
ATOM      8  C   UNL A   1      32.891  29.133  26.075  1.00  0.00     0.039 A 
ATOM      9  C   UNL A   1      33.320  26.910  24.343  1.00  0.00    -0.025 A 
ATOM     10  C   UNL A   1      32.802  28.127  23.876  1.00  0.00     0.006 A 
ATOM     11  C   UNL A   1      33.546  26.812  25.723  1.00  0.00     0.006 A 
ATOM     12  C   UNL A   1      32.596  29.217  24.716  1.00  0.00     0.014 A 
ATOM     13  C   UNL A   1      33.376  27.920  26.571  1.00  0.00     0.014 A 
BRANCH   9  14
ATOM     14  C   UNL A   1      33.740  25.760  23.409  1.00  0.00     0.114 C 
ATOM     15  C   UNL A   1      32.573  22.800  26.179  1.00  0.00     0.065 A 
ATOM     16  C   UNL A   1      33.465  22.464  27.201  1.00  0.00     0.016 A 
ATOM     17  C   UNL A   1      32.995  23.560  25.067  1.00  0.00    -0.003 A 
ATOM     18  C   UNL A   1      34.792  22.872  27.127  1.00  0.00     0.006 A 
ATOM     19  C   UNL A   1      34.354  23.977  24.997  1.00  0.00     0.042 A 
ATOM     20  C   UNL A   1      32.026  23.948  23.963  1.00  0.00     0.050 C 
ATOM     21  C   UNL A   1      35.250  23.632  26.038  1.00  0.00    -0.028 A 
ATOM     22  N   UNL A   1      34.739  24.896  24.023  1.00  0.00    -0.377 N 
ATOM     23  C   UNL A   1      30.823  24.779  24.346  1.00  0.00    -0.023 C 
ATOM     24  C   UNL A   1      32.633  24.830  22.850  1.00  0.00     0.031 C 
ATOM     25  C   UNL A   1      36.669  24.136  26.122  1.00  0.00     0.046 C 
ATOM     26  H   UNL A   1      35.683  24.961  23.751  1.00  0.00     0.161 HD
ATOM     27  C   UNL A   1      30.483  25.637  23.374  1.00  0.00    -0.030 C 
ATOM     28  C   UNL A   1      31.429  25.548  22.225  1.00  0.00     0.034 C 
BRANCH  15  29
ATOM     29  C   UNL A   1      31.166  22.361  26.326  1.00  0.00     0.338 C 
ATOM     30  O   UNL A   1      30.649  21.461  25.698  1.00  0.00    -0.246 OA
BRANCH  29  31
ATOM     31  O   UNL A   1      30.562  23.197  27.212  1.00  0.00    -0.465 OA
ATOM     32  C   UNL A   1      29.171  22.942  27.397  1.00  0.00     0.282 C 
ENDBRANCH  29  31
ENDBRANCH  15  29
ENDBRANCH   9  14
ENDBRANCH   5   8
ENDBRANCH   3   4
ENDBRANCH   2   3
ENDBRANCH   1   2
BRANCH   1  33
ATOM     33  C   UNL A   1      34.603  34.327  28.498  1.00  0.00     0.002 C 
BRANCH  33  34
ATOM     34  C   UNL A   1      33.267  34.855  29.026  1.00  0.00     0.021 C 
BRANCH  34  35
ATOM     35  C   UNL A   1      33.388  36.195  29.741  1.00  0.00     0.116 C 
BRANCH  35  36
ATOM     36  N   UNL A   1      32.563  36.213  30.935  1.00  0.00    -0.352 N 
ATOM     37  C   UNL A   1      32.680  35.426  32.050  1.00  0.00     0.251 C 
ATOM     38  H   UNL A   1      31.829  36.871  30.946  1.00  0.00     0.163 HD
ATOM     39  O   UNL A   1      31.755  35.313  32.846  1.00  0.00    -0.269 OA
BRANCH  37  40
ATOM     40  C   UNL A   1      33.955  34.725  32.293  1.00  0.00     0.039 A 
ATOM     41  C   UNL A   1      33.940  33.366  32.615  1.00  0.00     0.014 A 
ATOM     42  C   UNL A   1      35.158  35.437  32.240  1.00  0.00     0.014 A 
ATOM     43  C   UNL A   1      35.142  32.712  32.883  1.00  0.00     0.010 A 
ATOM     44  C   UNL A   1      36.359  34.775  32.464  1.00  0.00     0.010 A 
ATOM     45  C   UNL A   1      36.355  33.417  32.815  1.00  0.00    -0.014 A 
BRANCH  45  46
ATOM     46  C   UNL A   1      37.629  32.790  33.225  1.00  0.00     0.031 A 
ATOM     47  C   UNL A   1      38.254  31.764  32.322  1.00  0.00     0.074 A 
ATOM     48  C   UNL A   1      38.196  33.104  34.404  1.00  0.00     0.049 A 
ATOM     49  N   UNL A   1      39.302  31.011  32.533  1.00  0.00    -0.248 NA
ATOM     50  C   UNL A   1      37.609  31.550  31.014  1.00  0.00     0.031 C 
ATOM     51  C   UNL A   1      37.692  34.096  35.352  1.00  0.00     0.029 A 
ATOM     52  N   UNL A   1      39.328  32.611  35.001  1.00  0.00    -0.354 N 
ATOM     53  C   UNL A   1      39.432  30.229  31.393  1.00  0.00     0.074 A 
ATOM     54  C   UNL A   1      38.343  30.570  30.507  1.00  0.00     0.031 C 
ATOM     55  C   UNL A   1      38.523  34.151  36.408  1.00  0.00     0.029 A 
ATOM     56  C   UNL A   1      39.592  33.174  36.224  1.00  0.00     0.049 A 
ATOM     57  H   UNL A   1      39.895  31.918  34.592  1.00  0.00     0.167 HD
ATOM     58  C   UNL A   1      40.388  29.317  31.105  1.00  0.00     0.031 A 
ATOM     59  C   UNL A   1      40.582  32.920  37.101  1.00  0.00     0.031 A 
ATOM     60  C   UNL A   1      41.483  28.993  31.973  1.00  0.00     0.049 A 
ATOM     61  C   UNL A   1      41.598  31.859  36.779  1.00  0.00     0.074 A 
ATOM     62  C   UNL A   1      42.516  28.099  31.755  1.00  0.00     0.029 A 
ATOM     63  N   UNL A   1      41.691  29.557  33.220  1.00  0.00    -0.354 N 
ATOM     64  N   UNL A   1      41.708  31.123  35.699  1.00  0.00    -0.248 NA
ATOM     65  C   UNL A   1      42.621  31.587  37.800  1.00  0.00     0.031 C 
ATOM     66  C   UNL A   1      43.334  28.099  32.887  1.00  0.00     0.029 A 
ATOM     67  C   UNL A   1      42.828  29.018  33.792  1.00  0.00     0.049 A 
ATOM     68  H   UNL A   1      41.116  30.239  33.637  1.00  0.00     0.167 HD
ATOM     69  C   UNL A   1      42.817  30.314  35.904  1.00  0.00     0.074 A 
ATOM     70  C   UNL A   1      43.353  30.654  37.206  1.00  0.00     0.031 C 
ATOM     71  C   UNL A   1      43.341  29.369  35.088  1.00  0.00     0.031 A 
BRANCH  58  72
ATOM     72  C   UNL A   1      40.305  28.609  29.786  1.00  0.00    -0.014 A 
ATOM     73  C   UNL A   1      39.580  27.415  29.661  1.00  0.00     0.009 A 
ATOM     74  C   UNL A   1      40.880  29.185  28.644  1.00  0.00     0.009 A 
ATOM     75  C   UNL A   1      39.435  26.808  28.413  1.00  0.00     0.001 A 
ATOM     76  C   UNL A   1      40.721  28.584  27.395  1.00  0.00     0.001 A 
ATOM     77  C   UNL A   1      39.998  27.396  27.281  1.00  0.00     0.000 A 
ENDBRANCH  58  72
BRANCH  59  78
ATOM     78  C   UNL A   1      40.667  33.687  38.368  1.00  0.00    -0.014 A 
ATOM     79  C   UNL A   1      39.978  33.244  39.507  1.00  0.00     0.009 A 
ATOM     80  C   UNL A   1      41.433  34.860  38.447  1.00  0.00     0.009 A 
ATOM     81  C   UNL A   1      40.045  33.969  40.699  1.00  0.00     0.001 A 
ATOM     82  C   UNL A   1      41.512  35.572  39.646  1.00  0.00     0.001 A 
ATOM     83  C   UNL A   1      40.814  35.130  40.768  1.00  0.00     0.000 A 
ENDBRANCH  59  78
BRANCH  71  84
ATOM     84  C   UNL A   1      44.560  28.637  35.564  1.00  0.00    -0.014 A 
ATOM     85  C   UNL A   1      44.447  27.375  36.163  1.00  0.00     0.009 A 
ATOM     86  C   UNL A   1      45.835  29.168  35.317  1.00  0.00     0.009 A 
ATOM     87  C   UNL A   1      45.593  26.661  36.518  1.00  0.00     0.001 A 
ATOM     88  C   UNL A   1      46.978  28.444  35.653  1.00  0.00     0.001 A 
ATOM     89  C   UNL A   1      46.856  27.192  36.255  1.00  0.00     0.000 A 
ENDBRANCH  71  84
ENDBRANCH  45  46
ENDBRANCH  37  40
ENDBRANCH  35  36
ENDBRANCH  34  35
ENDBRANCH  33  34
ENDBRANCH   1  33
TORSDOF 16
ENDMDL
