MODEL 1
REMARK VINA RESULT:     -10.6      0.000      0.000
REMARK SMILES CC[C@@](C)(NC(=O)[C@@H](C)NC(=O)c1ccco1)C(=O)NCCCCCCNC(=O)c1ccc(-c2c3nc(c(-c4ccccc4)c4ccc([nH]4)c(-c4ccccc4)c4nc(c(-c5ccccc5)c5ccc2[nH]5)C=C4)C=C3)cc1
REMARK SMILES IDX 22 1 21 2 20 3 18 4 19 5 3 7 4 8 2 9 1 10 5 11 6 12 7 14
REMARK SMILES IDX 8 15 9 16 10 17 11 18 12 20 13 21 14 22 17 23 15 24 16 25
REMARK SMILES IDX 23 26 24 27 25 28 26 29 27 30 28 31 29 33 30 34 31 35 77 36
REMARK SMILES IDX 32 37 76 38 33 39 34 40 35 41 70 42 36 43 75 44 69 45 71 46
REMARK SMILES IDX 37 47 74 48 68 49 67 50 38 52 60 53 45 54 59 55 46 56 49 57
REMARK SMILES IDX 58 58 72 59 47 60 48 61 57 63 73 64 50 65 39 66 40 67 44 68
REMARK SMILES IDX 41 69 43 70 42 71 61 72 62 73 66 74 63 75 65 76 64 77 51 78
REMARK SMILES IDX 52 79 56 80 53 81 55 82 54 83
REMARK H PARENT 20 6 5 13 10 19 27 32 71 51 49 62
REMARK Flexibility Score: inf
ROOT
ATOM      1  C   UNL A   1      31.873  28.954  23.232  1.00  0.00     0.021 C 
ENDROOT
BRANCH   1   2
ATOM      2  C   UNL A   1      31.194  27.714  22.659  1.00  0.00     0.116 C 
BRANCH   2   3
ATOM      3  N   UNL A   1      29.958  27.374  23.350  1.00  0.00    -0.354 N 
ATOM      4  C   UNL A   1      29.592  26.293  24.094  1.00  0.00     0.245 C 
ATOM      5  O   UNL A   1      28.390  26.191  24.364  1.00  0.00    -0.272 OA
ATOM      6  H   UNL A   1      29.253  28.056  23.264  1.00  0.00     0.163 HD
BRANCH   4   7
ATOM      7  C   UNL A   1      30.597  25.199  24.521  1.00  0.00     0.116 C 
ATOM      8  C   UNL A   1      30.607  24.078  23.449  1.00  0.00     0.045 C 
BRANCH   7   9
ATOM      9  C   UNL A   1      32.064  25.697  24.645  1.00  0.00     0.035 C 
ATOM     10  C   UNL A   1      32.540  26.114  26.034  1.00  0.00     0.007 C 
ENDBRANCH   7   9
BRANCH   7  11
ATOM     11  N   UNL A   1      30.171  24.639  25.826  1.00  0.00    -0.340 N 
ATOM     12  C   UNL A   1      30.501  23.550  26.567  1.00  0.00     0.243 C 
ATOM     13  H   UNL A   1      29.483  25.192  26.263  1.00  0.00     0.164 HD
ATOM     14  O   UNL A   1      29.627  23.227  27.389  1.00  0.00    -0.273 OA
BRANCH  12  15
ATOM     15  C   UNL A   1      31.754  22.625  26.437  1.00  0.00     0.168 C 
ATOM     16  C   UNL A   1      32.560  22.552  27.728  1.00  0.00     0.041 C 
BRANCH  15  17
ATOM     17  N   UNL A   1      31.655  21.280  25.881  1.00  0.00    -0.338 N 
ATOM     18  C   UNL A   1      32.584  20.535  25.182  1.00  0.00     0.287 C 
ATOM     19  H   UNL A   1      30.790  20.833  26.026  1.00  0.00     0.164 HD
ATOM     20  O   UNL A   1      32.247  19.398  24.850  1.00  0.00    -0.266 OA
BRANCH  18  21
ATOM     21  C   UNL A   1      33.875  21.094  24.831  1.00  0.00     0.191 A 
ATOM     22  C   UNL A   1      35.183  20.708  25.068  1.00  0.00     0.056 A 
ATOM     23  O   UNL A   1      33.887  22.213  24.035  1.00  0.00    -0.459 OA
ATOM     24  C   UNL A   1      36.019  21.655  24.423  1.00  0.00     0.043 A 
ATOM     25  C   UNL A   1      35.180  22.554  23.814  1.00  0.00     0.196 A 
ENDBRANCH  18  21
ENDBRANCH  15  17
ENDBRANCH  12  15
ENDBRANCH   7  11
ENDBRANCH   4   7
ENDBRANCH   2   3
ENDBRANCH   1   2
BRANCH   1  26
ATOM     26  C   UNL A   1      31.248  29.469  24.525  1.00  0.00     0.002 C 
BRANCH  26  27
ATOM     27  C   UNL A   1      32.199  30.127  25.516  1.00  0.00     0.002 C 
BRANCH  27  28
ATOM     28  C   UNL A   1      33.465  29.329  25.806  1.00  0.00     0.021 C 
BRANCH  28  29
ATOM     29  C   UNL A   1      33.810  29.189  27.284  1.00  0.00     0.116 C 
BRANCH  29  30
ATOM     30  N   UNL A   1      33.785  30.454  28.002  1.00  0.00    -0.352 N 
ATOM     31  C   UNL A   1      34.780  31.030  28.763  1.00  0.00     0.251 C 
ATOM     32  H   UNL A   1      32.948  30.968  27.936  1.00  0.00     0.163 HD
ATOM     33  O   UNL A   1      34.594  32.047  29.402  1.00  0.00    -0.269 OA
BRANCH  31  34
ATOM     34  C   UNL A   1      36.092  30.353  28.802  1.00  0.00     0.039 A 
ATOM     35  C   UNL A   1      36.930  30.429  27.689  1.00  0.00     0.014 A 
ATOM     36  C   UNL A   1      36.514  29.729  29.978  1.00  0.00     0.014 A 
ATOM     37  C   UNL A   1      38.233  29.937  27.783  1.00  0.00     0.010 A 
ATOM     38  C   UNL A   1      37.836  29.323  30.097  1.00  0.00     0.010 A 
ATOM     39  C   UNL A   1      38.707  29.415  28.998  1.00  0.00    -0.014 A 
BRANCH  39  40
ATOM     40  C   UNL A   1      40.099  28.921  29.138  1.00  0.00     0.031 A 
ATOM     41  C   UNL A   1      41.157  29.841  29.682  1.00  0.00     0.074 A 
ATOM     42  C   UNL A   1      40.425  27.681  28.723  1.00  0.00     0.049 A 
ATOM     43  N   UNL A   1      42.445  29.639  29.805  1.00  0.00    -0.248 NA
ATOM     44  C   UNL A   1      40.715  31.179  30.112  1.00  0.00     0.031 C 
ATOM     45  C   UNL A   1      39.502  26.708  28.132  1.00  0.00     0.029 A 
ATOM     46  N   UNL A   1      41.632  27.028  28.735  1.00  0.00    -0.354 N 
ATOM     47  C   UNL A   1      42.962  30.827  30.305  1.00  0.00     0.074 A 
ATOM     48  C   UNL A   1      41.866  31.765  30.402  1.00  0.00     0.031 C 
ATOM     49  C   UNL A   1      40.173  25.575  27.862  1.00  0.00     0.029 A 
ATOM     50  C   UNL A   1      41.574  25.750  28.231  1.00  0.00     0.049 A 
ATOM     51  H   UNL A   1      42.463  27.437  29.071  1.00  0.00     0.167 HD
ATOM     52  C   UNL A   1      44.231  31.107  30.686  1.00  0.00     0.031 A 
ATOM     53  C   UNL A   1      42.542  24.827  28.087  1.00  0.00     0.031 A 
ATOM     54  C   UNL A   1      45.317  30.170  30.618  1.00  0.00     0.049 A 
ATOM     55  C   UNL A   1      43.940  25.153  28.542  1.00  0.00     0.074 A 
ATOM     56  C   UNL A   1      46.635  30.346  31.000  1.00  0.00     0.029 A 
ATOM     57  N   UNL A   1      45.203  28.871  30.152  1.00  0.00    -0.354 N 
ATOM     58  N   UNL A   1      44.403  26.268  29.054  1.00  0.00    -0.248 NA
ATOM     59  C   UNL A   1      44.941  24.084  28.421  1.00  0.00     0.031 C 
ATOM     60  C   UNL A   1      47.325  29.156  30.745  1.00  0.00     0.029 A 
ATOM     61  C   UNL A   1      46.424  28.229  30.245  1.00  0.00     0.049 A 
ATOM     62  H   UNL A   1      44.376  28.464  29.806  1.00  0.00     0.167 HD
ATOM     63  C   UNL A   1      45.738  26.022  29.350  1.00  0.00     0.074 A 
ATOM     64  C   UNL A   1      46.005  24.650  28.974  1.00  0.00     0.031 C 
ATOM     65  C   UNL A   1      46.660  26.856  29.886  1.00  0.00     0.031 A 
BRANCH  52  66
ATOM     66  C   UNL A   1      44.497  32.482  31.229  1.00  0.00    -0.014 A 
ATOM     67  C   UNL A   1      44.853  33.537  30.373  1.00  0.00     0.009 A 
ATOM     68  C   UNL A   1      44.376  32.732  32.605  1.00  0.00     0.009 A 
ATOM     69  C   UNL A   1      45.119  34.807  30.889  1.00  0.00     0.001 A 
ATOM     70  C   UNL A   1      44.614  34.011  33.113  1.00  0.00     0.001 A 
ATOM     71  C   UNL A   1      44.994  35.044  32.256  1.00  0.00     0.000 A 
ENDBRANCH  52  66
BRANCH  53  72
ATOM     72  C   UNL A   1      42.232  23.490  27.516  1.00  0.00    -0.014 A 
ATOM     73  C   UNL A   1      41.620  22.502  28.304  1.00  0.00     0.009 A 
ATOM     74  C   UNL A   1      42.578  23.181  26.192  1.00  0.00     0.009 A 
ATOM     75  C   UNL A   1      41.399  21.222  27.793  1.00  0.00     0.001 A 
ATOM     76  C   UNL A   1      42.331  21.907  25.673  1.00  0.00     0.001 A 
ATOM     77  C   UNL A   1      41.754  20.925  26.478  1.00  0.00     0.000 A 
ENDBRANCH  53  72
BRANCH  65  78
ATOM     78  C   UNL A   1      48.024  26.288  30.156  1.00  0.00    -0.014 A 
ATOM     79  C   UNL A   1      49.038  26.328  29.187  1.00  0.00     0.009 A 
ATOM     80  C   UNL A   1      48.305  25.740  31.416  1.00  0.00     0.009 A 
ATOM     81  C   UNL A   1      50.298  25.795  29.465  1.00  0.00     0.001 A 
ATOM     82  C   UNL A   1      49.573  25.233  31.701  1.00  0.00     0.001 A 
ATOM     83  C   UNL A   1      50.565  25.252  30.722  1.00  0.00     0.000 A 
ENDBRANCH  65  78
ENDBRANCH  39  40
ENDBRANCH  31  34
ENDBRANCH  29  30
ENDBRANCH  28  29
ENDBRANCH  27  28
ENDBRANCH  26  27
ENDBRANCH   1  26
TORSDOF 18
ENDMDL
MODEL 2
REMARK VINA RESULT:     -10.6      2.062      7.885
REMARK SMILES CC[C@@](C)(NC(=O)[C@@H](C)NC(=O)c1ccco1)C(=O)NCCCCCCNC(=O)c1ccc(-c2c3nc(c(-c4ccccc4)c4ccc([nH]4)c(-c4ccccc4)c4nc(c(-c5ccccc5)c5ccc2[nH]5)C=C4)C=C3)cc1
REMARK SMILES IDX 22 1 21 2 20 3 18 4 19 5 3 7 4 8 2 9 1 10 5 11 6 12 7 14
REMARK SMILES IDX 8 15 9 16 10 17 11 18 12 20 13 21 14 22 17 23 15 24 16 25
REMARK SMILES IDX 23 26 24 27 25 28 26 29 27 30 28 31 29 33 30 34 31 35 77 36
REMARK SMILES IDX 32 37 76 38 33 39 34 40 35 41 70 42 36 43 75 44 69 45 71 46
REMARK SMILES IDX 37 47 74 48 68 49 67 50 38 52 60 53 45 54 59 55 46 56 49 57
REMARK SMILES IDX 58 58 72 59 47 60 48 61 57 63 73 64 50 65 39 66 40 67 44 68
REMARK SMILES IDX 41 69 43 70 42 71 61 72 62 73 66 74 63 75 65 76 64 77 51 78
REMARK SMILES IDX 52 79 56 80 53 81 55 82 54 83
REMARK H PARENT 20 6 5 13 10 19 27 32 71 51 49 62
REMARK Flexibility Score: inf
ROOT
ATOM      1  C   UNL A   1      38.090  23.379  26.170  1.00  0.00     0.021 C 
ENDROOT
BRANCH   1   2
ATOM      2  C   UNL A   1      36.703  23.390  25.535  1.00  0.00     0.116 C 
BRANCH   2   3
ATOM      3  N   UNL A   1      35.642  23.087  26.485  1.00  0.00    -0.354 N 
ATOM      4  C   UNL A   1      34.482  22.382  26.369  1.00  0.00     0.245 C 
ATOM      5  O   UNL A   1      33.675  22.491  27.299  1.00  0.00    -0.272 OA
ATOM      6  H   UNL A   1      35.792  23.463  27.383  1.00  0.00     0.163 HD
BRANCH   4   7
ATOM      7  C   UNL A   1      34.139  21.546  25.115  1.00  0.00     0.116 C 
ATOM      8  C   UNL A   1      35.084  20.318  25.055  1.00  0.00     0.045 C 
BRANCH   7   9
ATOM      9  C   UNL A   1      32.690  20.983  25.104  1.00  0.00     0.035 C 
ATOM     10  C   UNL A   1      32.500  19.569  24.561  1.00  0.00     0.007 C 
ENDBRANCH   7   9
BRANCH   7  11
ATOM     11  N   UNL A   1      34.334  22.386  23.909  1.00  0.00    -0.340 N 
ATOM     12  C   UNL A   1      33.586  23.295  23.231  1.00  0.00     0.243 C 
ATOM     13  H   UNL A   1      35.220  22.254  23.502  1.00  0.00     0.164 HD
ATOM     14  O   UNL A   1      33.951  23.456  22.054  1.00  0.00    -0.273 OA
BRANCH  12  15
ATOM     15  C   UNL A   1      32.304  24.052  23.704  1.00  0.00     0.168 C 
ATOM     16  C   UNL A   1      31.022  23.362  23.255  1.00  0.00     0.041 C 
BRANCH  15  17
ATOM     17  N   UNL A   1      32.135  24.477  25.090  1.00  0.00    -0.338 N 
ATOM     18  C   UNL A   1      31.430  25.541  25.615  1.00  0.00     0.287 C 
ATOM     19  H   UNL A   1      32.598  23.918  25.755  1.00  0.00     0.164 HD
ATOM     20  O   UNL A   1      31.428  25.654  26.841  1.00  0.00    -0.266 OA
BRANCH  18  21
ATOM     21  C   UNL A   1      30.761  26.491  24.749  1.00  0.00     0.191 A 
ATOM     22  C   UNL A   1      29.470  26.602  24.264  1.00  0.00     0.056 A 
ATOM     23  O   UNL A   1      31.480  27.584  24.330  1.00  0.00    -0.459 OA
ATOM     24  C   UNL A   1      29.417  27.788  23.488  1.00  0.00     0.043 A 
ATOM     25  C   UNL A   1      30.670  28.345  23.555  1.00  0.00     0.196 A 
ENDBRANCH  18  21
ENDBRANCH  15  17
ENDBRANCH  12  15
ENDBRANCH   7  11
ENDBRANCH   4   7
ENDBRANCH   2   3
ENDBRANCH   1   2
BRANCH   1  26
ATOM     26  C   UNL A   1      38.822  22.046  26.052  1.00  0.00     0.002 C 
BRANCH  26  27
ATOM     27  C   UNL A   1      38.255  21.054  25.044  1.00  0.00     0.002 C 
BRANCH  27  28
ATOM     28  C   UNL A   1      38.867  19.659  25.115  1.00  0.00     0.021 C 
BRANCH  28  29
ATOM     29  C   UNL A   1      39.810  19.432  26.291  1.00  0.00     0.116 C 
BRANCH  29  30
ATOM     30  N   UNL A   1      41.132  18.976  25.887  1.00  0.00    -0.352 N 
ATOM     31  C   UNL A   1      42.318  19.678  25.880  1.00  0.00     0.251 C 
ATOM     32  H   UNL A   1      41.188  18.042  25.581  1.00  0.00     0.163 HD
ATOM     33  O   UNL A   1      43.339  19.211  25.416  1.00  0.00    -0.269 OA
BRANCH  31  34
ATOM     34  C   UNL A   1      42.308  21.047  26.435  1.00  0.00     0.039 A 
ATOM     35  C   UNL A   1      42.177  21.221  27.813  1.00  0.00     0.014 A 
ATOM     36  C   UNL A   1      42.523  22.138  25.590  1.00  0.00     0.014 A 
ATOM     37  C   UNL A   1      42.337  22.496  28.356  1.00  0.00     0.010 A 
ATOM     38  C   UNL A   1      42.770  23.388  26.141  1.00  0.00     0.010 A 
ATOM     39  C   UNL A   1      42.671  23.582  27.529  1.00  0.00    -0.014 A 
BRANCH  39  40
ATOM     40  C   UNL A   1      42.885  24.941  28.084  1.00  0.00     0.031 A 
ATOM     41  C   UNL A   1      44.263  25.348  28.527  1.00  0.00     0.074 A 
ATOM     42  C   UNL A   1      41.843  25.780  28.248  1.00  0.00     0.049 A 
ATOM     43  N   UNL A   1      44.650  26.452  29.116  1.00  0.00    -0.248 NA
ATOM     44  C   UNL A   1      45.344  24.372  28.312  1.00  0.00     0.031 C 
ATOM     45  C   UNL A   1      40.449  25.487  27.906  1.00  0.00     0.029 A 
ATOM     46  N   UNL A   1      41.799  27.055  28.753  1.00  0.00    -0.354 N 
ATOM     47  C   UNL A   1      46.008  26.290  29.356  1.00  0.00     0.074 A 
ATOM     48  C   UNL A   1      46.366  24.962  28.911  1.00  0.00     0.031 C 
ATOM     49  C   UNL A   1      39.692  26.562  28.186  1.00  0.00     0.029 A 
ATOM     50  C   UNL A   1      40.539  27.606  28.754  1.00  0.00     0.049 A 
ATOM     51  H   UNL A   1      42.595  27.532  29.083  1.00  0.00     0.167 HD
ATOM     52  C   UNL A   1      46.892  27.178  29.869  1.00  0.00     0.031 A 
ATOM     53  C   UNL A   1      40.119  28.817  29.166  1.00  0.00     0.031 A 
ATOM     54  C   UNL A   1      46.546  28.508  30.286  1.00  0.00     0.049 A 
ATOM     55  C   UNL A   1      41.126  29.796  29.708  1.00  0.00     0.074 A 
ATOM     56  C   UNL A   1      47.370  29.496  30.797  1.00  0.00     0.029 A 
ATOM     57  N   UNL A   1      45.270  29.043  30.221  1.00  0.00    -0.354 N 
ATOM     58  N   UNL A   1      42.415  29.642  29.888  1.00  0.00    -0.248 NA
ATOM     59  C   UNL A   1      40.620  31.125  30.081  1.00  0.00     0.031 C 
ATOM     60  C   UNL A   1      46.586  30.624  31.061  1.00  0.00     0.029 A 
ATOM     61  C   UNL A   1      45.284  30.350  30.672  1.00  0.00     0.049 A 
ATOM     62  H   UNL A   1      44.471  28.565  29.900  1.00  0.00     0.167 HD
ATOM     63  C   UNL A   1      42.880  30.863  30.358  1.00  0.00     0.074 A 
ATOM     64  C   UNL A   1      41.738  31.751  30.423  1.00  0.00     0.031 C 
ATOM     65  C   UNL A   1      44.139  31.220  30.705  1.00  0.00     0.031 A 
BRANCH  52  66
ATOM     66  C   UNL A   1      48.323  26.735  29.983  1.00  0.00    -0.014 A 
ATOM     67  C   UNL A   1      48.759  25.991  31.091  1.00  0.00     0.009 A 
ATOM     68  C   UNL A   1      49.241  27.048  28.969  1.00  0.00     0.009 A 
ATOM     69  C   UNL A   1      50.095  25.602  31.200  1.00  0.00     0.001 A 
ATOM     70  C   UNL A   1      50.570  26.631  29.067  1.00  0.00     0.001 A 
ATOM     71  C   UNL A   1      50.997  25.917  30.186  1.00  0.00     0.000 A 
ENDBRANCH  52  66
BRANCH  53  72
ATOM     72  C   UNL A   1      38.686  29.195  29.059  1.00  0.00    -0.014 A 
ATOM     73  C   UNL A   1      38.184  29.759  27.874  1.00  0.00     0.009 A 
ATOM     74  C   UNL A   1      37.820  29.031  30.150  1.00  0.00     0.009 A 
ATOM     75  C   UNL A   1      36.857  30.187  27.799  1.00  0.00     0.001 A 
ATOM     76  C   UNL A   1      36.485  29.434  30.062  1.00  0.00     0.001 A 
ATOM     77  C   UNL A   1      36.008  30.023  28.892  1.00  0.00     0.000 A 
ENDBRANCH  53  72
BRANCH  65  78
ATOM     78  C   UNL A   1      44.358  32.646  31.124  1.00  0.00    -0.014 A 
ATOM     79  C   UNL A   1      44.272  33.035  32.469  1.00  0.00     0.009 A 
ATOM     80  C   UNL A   1      44.693  33.604  30.156  1.00  0.00     0.009 A 
ATOM     81  C   UNL A   1      44.482  34.367  32.831  1.00  0.00     0.001 A 
ATOM     82  C   UNL A   1      44.930  34.929  30.524  1.00  0.00     0.001 A 
ATOM     83  C   UNL A   1      44.815  35.311  31.859  1.00  0.00     0.000 A 
ENDBRANCH  65  78
ENDBRANCH  39  40
ENDBRANCH  31  34
ENDBRANCH  29  30
ENDBRANCH  28  29
ENDBRANCH  27  28
ENDBRANCH  26  27
ENDBRANCH   1  26
TORSDOF 18
ENDMDL
MODEL 3
REMARK VINA RESULT:     -10.6      2.655      6.865
REMARK SMILES CC[C@@](C)(NC(=O)[C@@H](C)NC(=O)c1ccco1)C(=O)NCCCCCCNC(=O)c1ccc(-c2c3nc(c(-c4ccccc4)c4ccc([nH]4)c(-c4ccccc4)c4nc(c(-c5ccccc5)c5ccc2[nH]5)C=C4)C=C3)cc1
REMARK SMILES IDX 22 1 21 2 20 3 18 4 19 5 3 7 4 8 2 9 1 10 5 11 6 12 7 14
REMARK SMILES IDX 8 15 9 16 10 17 11 18 12 20 13 21 14 22 17 23 15 24 16 25
REMARK SMILES IDX 23 26 24 27 25 28 26 29 27 30 28 31 29 33 30 34 31 35 77 36
REMARK SMILES IDX 32 37 76 38 33 39 34 40 35 41 70 42 36 43 75 44 69 45 71 46
REMARK SMILES IDX 37 47 74 48 68 49 67 50 38 52 60 53 45 54 59 55 46 56 49 57
REMARK SMILES IDX 58 58 72 59 47 60 48 61 57 63 73 64 50 65 39 66 40 67 44 68
REMARK SMILES IDX 41 69 43 70 42 71 61 72 62 73 66 74 63 75 65 76 64 77 51 78
REMARK SMILES IDX 52 79 56 80 53 81 55 82 54 83
REMARK H PARENT 20 6 5 13 10 19 27 32 71 51 49 62
REMARK Flexibility Score: inf
ROOT
ATOM      1  C   UNL A   1      31.919  28.891  23.292  1.00  0.00     0.021 C 
ENDROOT
BRANCH   1   2
ATOM      2  C   UNL A   1      33.109  27.998  22.954  1.00  0.00     0.116 C 
BRANCH   2   3
ATOM      3  N   UNL A   1      32.863  27.138  21.805  1.00  0.00    -0.354 N 
ATOM      4  C   UNL A   1      32.758  25.785  21.680  1.00  0.00     0.245 C 
ATOM      5  O   UNL A   1      32.769  25.336  20.528  1.00  0.00    -0.272 OA
ATOM      6  H   UNL A   1      32.752  27.627  20.958  1.00  0.00     0.163 HD
BRANCH   4   7
ATOM      7  C   UNL A   1      32.704  24.839  22.900  1.00  0.00     0.116 C 
ATOM      8  C   UNL A   1      34.135  24.683  23.480  1.00  0.00     0.045 C 
BRANCH   7   9
ATOM      9  C   UNL A   1      31.815  25.355  24.066  1.00  0.00     0.035 C 
ATOM     10  C   UNL A   1      32.427  25.339  25.465  1.00  0.00     0.007 C 
ENDBRANCH   7   9
BRANCH   7  11
ATOM     11  N   UNL A   1      32.196  23.517  22.461  1.00  0.00    -0.340 N 
ATOM     12  C   UNL A   1      32.307  22.240  22.908  1.00  0.00     0.243 C 
ATOM     13  H   UNL A   1      31.643  23.581  21.649  1.00  0.00     0.164 HD
ATOM     14  O   UNL A   1      32.081  21.388  22.033  1.00  0.00    -0.273 OA
BRANCH  12  15
ATOM     15  C   UNL A   1      32.775  21.734  24.311  1.00  0.00     0.168 C 
ATOM     16  C   UNL A   1      31.639  21.704  25.327  1.00  0.00     0.041 C 
BRANCH  15  17
ATOM     17  N   UNL A   1      33.556  20.511  24.460  1.00  0.00    -0.338 N 
ATOM     18  C   UNL A   1      34.888  20.339  24.777  1.00  0.00     0.287 C 
ATOM     19  H   UNL A   1      33.055  19.677  24.309  1.00  0.00     0.164 HD
ATOM     20  O   UNL A   1      35.292  19.179  24.869  1.00  0.00    -0.266 OA
BRANCH  18  21
ATOM     21  C   UNL A   1      35.765  21.480  24.952  1.00  0.00     0.191 A 
ATOM     22  C   UNL A   1      36.785  22.030  24.195  1.00  0.00     0.056 A 
ATOM     23  O   UNL A   1      35.559  22.276  26.051  1.00  0.00    -0.459 OA
ATOM     24  C   UNL A   1      37.240  23.183  24.885  1.00  0.00     0.043 A 
ATOM     25  C   UNL A   1      36.464  23.284  26.013  1.00  0.00     0.196 A 
ENDBRANCH  18  21
ENDBRANCH  15  17
ENDBRANCH  12  15
ENDBRANCH   7  11
ENDBRANCH   4   7
ENDBRANCH   2   3
ENDBRANCH   1   2
BRANCH   1  26
ATOM     26  C   UNL A   1      31.544  28.900  24.772  1.00  0.00     0.002 C 
BRANCH  26  27
ATOM     27  C   UNL A   1      31.408  30.270  25.423  1.00  0.00     0.002 C 
BRANCH  27  28
ATOM     28  C   UNL A   1      31.906  30.341  26.862  1.00  0.00     0.021 C 
BRANCH  28  29
ATOM     29  C   UNL A   1      33.027  31.345  27.104  1.00  0.00     0.116 C 
BRANCH  29  30
ATOM     30  N   UNL A   1      32.544  32.686  27.397  1.00  0.00    -0.352 N 
ATOM     31  C   UNL A   1      33.119  33.651  28.195  1.00  0.00     0.251 C 
ATOM     32  H   UNL A   1      31.695  32.939  26.967  1.00  0.00     0.163 HD
ATOM     33  O   UNL A   1      32.556  34.700  28.444  1.00  0.00    -0.269 OA
BRANCH  31  34
ATOM     34  C   UNL A   1      34.447  33.362  28.772  1.00  0.00     0.039 A 
ATOM     35  C   UNL A   1      34.529  32.648  29.967  1.00  0.00     0.014 A 
ATOM     36  C   UNL A   1      35.599  33.724  28.070  1.00  0.00     0.014 A 
ATOM     37  C   UNL A   1      35.779  32.229  30.426  1.00  0.00     0.010 A 
ATOM     38  C   UNL A   1      36.830  33.229  28.481  1.00  0.00     0.010 A 
ATOM     39  C   UNL A   1      36.934  32.483  29.667  1.00  0.00    -0.014 A 
BRANCH  39  40
ATOM     40  C   UNL A   1      38.270  32.016  30.110  1.00  0.00     0.031 A 
ATOM     41  C   UNL A   1      38.810  30.717  29.578  1.00  0.00     0.074 A 
ATOM     42  C   UNL A   1      38.965  32.716  31.028  1.00  0.00     0.049 A 
ATOM     43  N   UNL A   1      39.912  30.086  29.899  1.00  0.00    -0.248 NA
ATOM     44  C   UNL A   1      37.986  30.015  28.579  1.00  0.00     0.031 C 
ATOM     45  C   UNL A   1      38.530  33.964  31.659  1.00  0.00     0.029 A 
ATOM     46  N   UNL A   1      40.191  32.469  31.593  1.00  0.00    -0.354 N 
ATOM     47  C   UNL A   1      39.899  28.912  29.157  1.00  0.00     0.074 A 
ATOM     48  C   UNL A   1      38.655  28.884  28.422  1.00  0.00     0.031 C 
ATOM     49  C   UNL A   1      39.487  34.386  32.504  1.00  0.00     0.029 A 
ATOM     50  C   UNL A   1      40.586  33.426  32.497  1.00  0.00     0.049 A 
ATOM     51  H   UNL A   1      40.738  31.680  31.372  1.00  0.00     0.167 HD
ATOM     52  C   UNL A   1      40.852  27.955  29.066  1.00  0.00     0.031 A 
ATOM     53  C   UNL A   1      41.708  33.517  33.235  1.00  0.00     0.031 A 
ATOM     54  C   UNL A   1      42.101  27.992  29.773  1.00  0.00     0.049 A 
ATOM     55  C   UNL A   1      42.764  32.453  33.096  1.00  0.00     0.074 A 
ATOM     56  C   UNL A   1      43.146  27.085  29.732  1.00  0.00     0.029 A 
ATOM     57  N   UNL A   1      42.482  29.006  30.637  1.00  0.00    -0.354 N 
ATOM     58  N   UNL A   1      42.755  31.370  32.356  1.00  0.00    -0.248 NA
ATOM     59  C   UNL A   1      43.996  32.639  33.876  1.00  0.00     0.031 C 
ATOM     60  C   UNL A   1      44.152  27.541  30.590  1.00  0.00     0.029 A 
ATOM     61  C   UNL A   1      43.749  28.753  31.129  1.00  0.00     0.049 A 
ATOM     62  H   UNL A   1      41.933  29.790  30.867  1.00  0.00     0.167 HD
ATOM     63  C   UNL A   1      43.990  30.767  32.552  1.00  0.00     0.074 A 
ATOM     64  C   UNL A   1      44.728  31.611  33.469  1.00  0.00     0.031 C 
ATOM     65  C   UNL A   1      44.472  29.618  32.022  1.00  0.00     0.031 A 
BRANCH  52  66
ATOM     66  C   UNL A   1      40.577  26.799  28.147  1.00  0.00    -0.014 A 
ATOM     67  C   UNL A   1      39.841  25.687  28.590  1.00  0.00     0.009 A 
ATOM     68  C   UNL A   1      41.043  26.823  26.823  1.00  0.00     0.009 A 
ATOM     69  C   UNL A   1      39.609  24.608  27.736  1.00  0.00     0.001 A 
ATOM     70  C   UNL A   1      40.782  25.754  25.964  1.00  0.00     0.001 A 
ATOM     71  C   UNL A   1      40.074  24.644  26.423  1.00  0.00     0.000 A 
ENDBRANCH  52  66
BRANCH  53  72
ATOM     72  C   UNL A   1      41.918  34.668  34.152  1.00  0.00    -0.014 A 
ATOM     73  C   UNL A   1      42.364  35.903  33.655  1.00  0.00     0.009 A 
ATOM     74  C   UNL A   1      41.710  34.529  35.532  1.00  0.00     0.009 A 
ATOM     75  C   UNL A   1      42.637  36.961  34.525  1.00  0.00     0.001 A 
ATOM     76  C   UNL A   1      41.956  35.598  36.397  1.00  0.00     0.001 A 
ATOM     77  C   UNL A   1      42.432  36.808  35.895  1.00  0.00     0.000 A 
ENDBRANCH  53  72
BRANCH  65  78
ATOM     78  C   UNL A   1      45.884  29.241  32.370  1.00  0.00    -0.014 A 
ATOM     79  C   UNL A   1      46.173  28.429  33.476  1.00  0.00     0.009 A 
ATOM     80  C   UNL A   1      46.935  29.678  31.550  1.00  0.00     0.009 A 
ATOM     81  C   UNL A   1      47.495  28.092  33.775  1.00  0.00     0.001 A 
ATOM     82  C   UNL A   1      48.253  29.317  31.835  1.00  0.00     0.001 A 
ATOM     83  C   UNL A   1      48.532  28.533  32.952  1.00  0.00     0.000 A 
ENDBRANCH  65  78
ENDBRANCH  39  40
ENDBRANCH  31  34
ENDBRANCH  29  30
ENDBRANCH  28  29
ENDBRANCH  27  28
ENDBRANCH  26  27
ENDBRANCH   1  26
TORSDOF 18
ENDMDL
