MODEL 1
REMARK VINA RESULT:     -13.4      0.000      0.000
REMARK SMILES Cc1ccc([C@@]23C[C@@H]4C[C@@H](C[C@@](C(=O)N5CCC(C(=O)NCCCCCCNC(=O)c6ccc(-c7c8nc(c(-c9ccccc9)c9ccc([nH]9)c(-c9ccccc9)c9nc(c(-c%10ccccc%10)c%10ccc7[nH]%10)C=C9)C=C8)cc6)CC5)(C4)C2)C3)cc1
REMARK SMILES IDX 24 1 23 2 22 3 21 4 19 5 20 6 18 8 13 9 14 10 15 11 16 12
REMARK SMILES IDX 80 13 17 14 79 15 12 16 6 17 7 18 82 19 83 20 8 21 10 22
REMARK SMILES IDX 9 23 81 24 11 25 5 26 1 27 2 28 3 29 85 30 4 31 84 32 25 33
REMARK SMILES IDX 26 34 27 35 28 36 29 37 30 39 31 40 32 41 78 42 33 43 77 44
REMARK SMILES IDX 34 45 35 46 36 47 71 48 37 49 76 50 70 51 72 52 38 53 75 54
REMARK SMILES IDX 69 55 68 56 39 58 61 59 46 60 60 61 47 62 50 63 59 64 73 65
REMARK SMILES IDX 48 66 49 67 58 69 74 70 51 71 40 72 41 73 45 74 42 75 44 76
REMARK SMILES IDX 43 77 62 78 63 79 67 80 64 81 66 82 65 83 52 84 53 85 57 86
REMARK SMILES IDX 54 87 56 88 55 89
REMARK H PARENT 21 7 28 38 72 57 50 68
REMARK Flexibility Score: inf
ROOT
ATOM      1  C   UNL A   1      35.487  22.210  25.675  1.00  0.00     0.002 C 
ENDROOT
BRANCH   1   2
ATOM      2  C   UNL A   1      34.991  21.888  27.090  1.00  0.00     0.021 C 
BRANCH   2   3
ATOM      3  C   UNL A   1      33.486  21.666  27.221  1.00  0.00     0.116 C 
BRANCH   3   4
ATOM      4  N   UNL A   1      33.054  20.417  26.618  1.00  0.00    -0.356 N 
ATOM      5  C   UNL A   1      32.367  20.176  25.467  1.00  0.00     0.223 C 
ATOM      6  O   UNL A   1      32.193  19.003  25.131  1.00  0.00    -0.275 OA
ATOM      7  H   UNL A   1      33.299  19.609  27.127  1.00  0.00     0.163 HD
BRANCH   5   8
ATOM      8  C   UNL A   1      31.810  21.309  24.619  1.00  0.00     0.082 C 
ATOM      9  C   UNL A   1      33.281  24.978  24.031  1.00  0.00     0.228 C 
ATOM     10  O   UNL A   1      34.395  24.826  23.521  1.00  0.00    -0.274 OA
ATOM     11  N   UNL A   1      32.285  24.018  23.853  1.00  0.00    -0.342 N 
ATOM     12  C   UNL A   1      32.465  23.004  22.823  1.00  0.00     0.120 C 
ATOM     13  C   UNL A   1      31.125  23.749  24.701  1.00  0.00     0.120 C 
ATOM     14  C   UNL A   1      32.753  21.649  23.449  1.00  0.00     0.035 C 
ATOM     15  C   UNL A   1      31.370  22.485  25.507  1.00  0.00     0.035 C 
BRANCH   9  16
ATOM     16  C   UNL A   1      32.974  26.269  24.824  1.00  0.00     0.051 C 
ATOM     17  C   UNL A   1      31.705  28.504  24.631  1.00  0.00    -0.003 C 
ATOM     18  C   UNL A   1      31.005  28.106  25.966  1.00  0.00     0.015 C 
ATOM     19  C   UNL A   1      32.124  27.193  23.932  1.00  0.00     0.028 C 
ATOM     20  C   UNL A   1      33.010  29.272  24.960  1.00  0.00     0.015 C 
ATOM     21  C   UNL A   1      31.944  27.297  26.882  1.00  0.00    -0.009 C 
ATOM     22  C   UNL A   1      33.938  28.408  25.839  1.00  0.00    -0.009 C 
ATOM     23  C   UNL A   1      33.218  28.105  27.161  1.00  0.00     0.007 C 
ATOM     24  C   UNL A   1      32.330  25.981  26.194  1.00  0.00     0.020 C 
ATOM     25  C   UNL A   1      34.275  27.079  25.123  1.00  0.00     0.020 C 
BRANCH  17  26
ATOM     26  C   UNL A   1      30.766  29.338  23.738  1.00  0.00    -0.042 A 
ATOM     27  C   UNL A   1      27.944  31.540  21.277  1.00  0.00     0.044 C 
ATOM     28  C   UNL A   1      28.931  30.807  22.133  1.00  0.00    -0.051 A 
ATOM     29  C   UNL A   1      29.709  29.797  21.573  1.00  0.00     0.004 A 
ATOM     30  C   UNL A   1      29.090  31.101  23.490  1.00  0.00     0.004 A 
ATOM     31  C   UNL A   1      30.615  29.083  22.360  1.00  0.00     0.004 A 
ATOM     32  C   UNL A   1      29.998  30.381  24.279  1.00  0.00     0.004 A 
ENDBRANCH  17  26
ENDBRANCH   9  16
ENDBRANCH   5   8
ENDBRANCH   3   4
ENDBRANCH   2   3
ENDBRANCH   1   2
BRANCH   1  33
ATOM     33  C   UNL A   1      36.276  21.104  24.956  1.00  0.00     0.002 C 
BRANCH  33  34
ATOM     34  C   UNL A   1      37.800  21.187  25.048  1.00  0.00     0.021 C 
BRANCH  34  35
ATOM     35  C   UNL A   1      38.325  22.405  25.792  1.00  0.00     0.116 C 
BRANCH  35  36
ATOM     36  N   UNL A   1      39.747  22.359  26.103  1.00  0.00    -0.352 N 
ATOM     37  C   UNL A   1      40.585  23.367  26.560  1.00  0.00     0.251 C 
ATOM     38  H   UNL A   1      40.177  21.483  25.969  1.00  0.00     0.163 HD
ATOM     39  O   UNL A   1      41.768  23.154  26.721  1.00  0.00    -0.269 OA
BRANCH  37  40
ATOM     40  C   UNL A   1      39.995  24.665  26.991  1.00  0.00     0.039 A 
ATOM     41  C   UNL A   1      40.406  25.817  26.310  1.00  0.00     0.014 A 
ATOM     42  C   UNL A   1      39.243  24.776  28.156  1.00  0.00     0.014 A 
ATOM     43  C   UNL A   1      40.299  27.055  26.937  1.00  0.00     0.010 A 
ATOM     44  C   UNL A   1      39.233  25.981  28.829  1.00  0.00     0.010 A 
ATOM     45  C   UNL A   1      39.832  27.103  28.250  1.00  0.00    -0.014 A 
BRANCH  45  46
ATOM     46  C   UNL A   1      40.075  28.235  29.135  1.00  0.00     0.031 A 
ATOM     47  C   UNL A   1      39.047  29.274  29.334  1.00  0.00     0.074 A 
ATOM     48  C   UNL A   1      41.239  28.310  29.822  1.00  0.00     0.049 A 
ATOM     49  N   UNL A   1      39.312  30.506  29.616  1.00  0.00    -0.248 NA
ATOM     50  C   UNL A   1      37.622  29.006  29.189  1.00  0.00     0.031 C 
ATOM     51  C   UNL A   1      41.562  29.227  30.912  1.00  0.00     0.029 A 
ATOM     52  N   UNL A   1      42.462  27.709  29.518  1.00  0.00    -0.354 N 
ATOM     53  C   UNL A   1      38.129  31.094  30.001  1.00  0.00     0.074 A 
ATOM     54  C   UNL A   1      37.097  30.156  29.621  1.00  0.00     0.031 C 
ATOM     55  C   UNL A   1      42.896  29.367  30.972  1.00  0.00     0.029 A 
ATOM     56  C   UNL A   1      43.451  28.654  29.832  1.00  0.00     0.049 A 
ATOM     57  H   UNL A   1      42.603  26.805  29.156  1.00  0.00     0.167 HD
ATOM     58  C   UNL A   1      38.147  32.230  30.753  1.00  0.00     0.031 A 
ATOM     59  C   UNL A   1      44.322  29.177  28.921  1.00  0.00     0.031 A 
ATOM     60  C   UNL A   1      39.506  32.700  31.011  1.00  0.00     0.049 A 
ATOM     61  C   UNL A   1      44.285  30.689  28.860  1.00  0.00     0.074 A 
ATOM     62  C   UNL A   1      40.339  32.596  32.114  1.00  0.00     0.029 A 
ATOM     63  N   UNL A   1      40.298  33.132  29.957  1.00  0.00    -0.354 N 
ATOM     64  N   UNL A   1      43.303  31.409  29.327  1.00  0.00    -0.248 NA
ATOM     65  C   UNL A   1      45.306  31.503  28.206  1.00  0.00     0.031 C 
ATOM     66  C   UNL A   1      41.653  32.932  31.706  1.00  0.00     0.029 A 
ATOM     67  C   UNL A   1      41.612  33.254  30.361  1.00  0.00     0.049 A 
ATOM     68  H   UNL A   1      39.968  33.325  29.049  1.00  0.00     0.167 HD
ATOM     69  C   UNL A   1      43.531  32.733  29.056  1.00  0.00     0.074 A 
ATOM     70  C   UNL A   1      44.802  32.743  28.356  1.00  0.00     0.031 C 
ATOM     71  C   UNL A   1      42.635  33.696  29.423  1.00  0.00     0.031 A 
BRANCH  58  72
ATOM     72  C   UNL A   1      36.944  32.724  31.521  1.00  0.00    -0.014 A 
ATOM     73  C   UNL A   1      36.042  33.612  30.906  1.00  0.00     0.009 A 
ATOM     74  C   UNL A   1      36.670  32.395  32.858  1.00  0.00     0.009 A 
ATOM     75  C   UNL A   1      34.999  34.223  31.613  1.00  0.00     0.001 A 
ATOM     76  C   UNL A   1      35.653  33.030  33.585  1.00  0.00     0.001 A 
ATOM     77  C   UNL A   1      34.826  33.957  32.965  1.00  0.00     0.000 A 
ENDBRANCH  58  72
BRANCH  59  78
ATOM     78  C   UNL A   1      44.576  28.311  27.738  1.00  0.00    -0.014 A 
ATOM     79  C   UNL A   1      45.292  27.113  27.920  1.00  0.00     0.009 A 
ATOM     80  C   UNL A   1      43.833  28.478  26.560  1.00  0.00     0.009 A 
ATOM     81  C   UNL A   1      45.181  26.068  26.998  1.00  0.00     0.001 A 
ATOM     82  C   UNL A   1      43.734  27.432  25.635  1.00  0.00     0.001 A 
ATOM     83  C   UNL A   1      44.380  26.218  25.870  1.00  0.00     0.000 A 
ENDBRANCH  59  78
BRANCH  71  84
ATOM     84  C   UNL A   1      42.637  35.149  29.012  1.00  0.00    -0.014 A 
ATOM     85  C   UNL A   1      43.209  36.190  29.753  1.00  0.00     0.009 A 
ATOM     86  C   UNL A   1      42.145  35.490  27.728  1.00  0.00     0.009 A 
ATOM     87  C   UNL A   1      43.255  37.501  29.256  1.00  0.00     0.001 A 
ATOM     88  C   UNL A   1      42.230  36.785  27.210  1.00  0.00     0.001 A 
ATOM     89  C   UNL A   1      42.778  37.796  27.982  1.00  0.00     0.000 A 
ENDBRANCH  71  84
ENDBRANCH  45  46
ENDBRANCH  37  40
ENDBRANCH  35  36
ENDBRANCH  34  35
ENDBRANCH  33  34
ENDBRANCH   1  33
TORSDOF 15
ENDMDL
MODEL 2
REMARK VINA RESULT:     -12.7      3.646      9.694
REMARK SMILES Cc1ccc([C@@]23C[C@@H]4C[C@@H](C[C@@](C(=O)N5CCC(C(=O)NCCCCCCNC(=O)c6ccc(-c7c8nc(c(-c9ccccc9)c9ccc([nH]9)c(-c9ccccc9)c9nc(c(-c%10ccccc%10)c%10ccc7[nH]%10)C=C9)C=C8)cc6)CC5)(C4)C2)C3)cc1
REMARK SMILES IDX 24 1 23 2 22 3 21 4 19 5 20 6 18 8 13 9 14 10 15 11 16 12
REMARK SMILES IDX 80 13 17 14 79 15 12 16 6 17 7 18 82 19 83 20 8 21 10 22
REMARK SMILES IDX 9 23 81 24 11 25 5 26 1 27 2 28 3 29 85 30 4 31 84 32 25 33
REMARK SMILES IDX 26 34 27 35 28 36 29 37 30 39 31 40 32 41 78 42 33 43 77 44
REMARK SMILES IDX 34 45 35 46 36 47 71 48 37 49 76 50 70 51 72 52 38 53 75 54
REMARK SMILES IDX 69 55 68 56 39 58 61 59 46 60 60 61 47 62 50 63 59 64 73 65
REMARK SMILES IDX 48 66 49 67 58 69 74 70 51 71 40 72 41 73 45 74 42 75 44 76
REMARK SMILES IDX 43 77 62 78 63 79 67 80 64 81 66 82 65 83 52 84 53 85 57 86
REMARK SMILES IDX 54 87 56 88 55 89
REMARK H PARENT 21 7 28 38 72 57 50 68
REMARK Flexibility Score: inf
ROOT
ATOM      1  C   UNL A   1      33.484  36.236  28.781  1.00  0.00     0.002 C 
ENDROOT
BRANCH   1   2
ATOM      2  C   UNL A   1      34.293  35.052  28.237  1.00  0.00     0.021 C 
BRANCH   2   3
ATOM      3  C   UNL A   1      33.682  33.674  28.482  1.00  0.00     0.116 C 
BRANCH   3   4
ATOM      4  N   UNL A   1      32.609  33.369  27.551  1.00  0.00    -0.356 N 
ATOM      5  C   UNL A   1      32.132  32.174  27.105  1.00  0.00     0.223 C 
ATOM      6  O   UNL A   1      31.144  32.183  26.368  1.00  0.00    -0.275 OA
ATOM      7  H   UNL A   1      32.150  34.158  27.181  1.00  0.00     0.163 HD
BRANCH   5   8
ATOM      8  C   UNL A   1      32.797  30.859  27.482  1.00  0.00     0.082 C 
ATOM      9  C   UNL A   1      33.815  27.785  25.140  1.00  0.00     0.228 C 
ATOM     10  O   UNL A   1      34.621  28.230  24.316  1.00  0.00    -0.274 OA
ATOM     11  N   UNL A   1      33.692  28.374  26.398  1.00  0.00    -0.342 N 
ATOM     12  C   UNL A   1      34.721  29.306  26.839  1.00  0.00     0.120 C 
ATOM     13  C   UNL A   1      32.546  28.341  27.305  1.00  0.00     0.120 C 
ATOM     14  C   UNL A   1      34.190  30.730  26.837  1.00  0.00     0.035 C 
ATOM     15  C   UNL A   1      31.831  29.681  27.263  1.00  0.00     0.035 C 
BRANCH   9  16
ATOM     16  C   UNL A   1      32.980  26.531  24.791  1.00  0.00     0.051 C 
ATOM     17  C   UNL A   1      33.205  23.988  24.441  1.00  0.00    -0.003 C 
ATOM     18  C   UNL A   1      32.070  23.844  25.500  1.00  0.00     0.015 C 
ATOM     19  C   UNL A   1      33.929  25.320  24.733  1.00  0.00     0.028 C 
ATOM     20  C   UNL A   1      32.564  24.126  23.036  1.00  0.00     0.015 C 
ATOM     21  C   UNL A   1      31.070  25.014  25.426  1.00  0.00    -0.009 C 
ATOM     22  C   UNL A   1      31.608  25.336  22.996  1.00  0.00    -0.009 C 
ATOM     23  C   UNL A   1      30.480  25.103  24.012  1.00  0.00     0.007 C 
ATOM     24  C   UNL A   1      31.790  26.330  25.748  1.00  0.00     0.020 C 
ATOM     25  C   UNL A   1      32.366  26.634  23.359  1.00  0.00     0.020 C 
BRANCH  17  26
ATOM     26  C   UNL A   1      34.180  22.796  24.504  1.00  0.00    -0.042 A 
ATOM     27  C   UNL A   1      36.956  19.480  24.916  1.00  0.00     0.044 C 
ATOM     28  C   UNL A   1      35.982  20.608  24.753  1.00  0.00    -0.051 A 
ATOM     29  C   UNL A   1      36.448  21.870  24.394  1.00  0.00     0.004 A 
ATOM     30  C   UNL A   1      34.612  20.433  24.962  1.00  0.00     0.004 A 
ATOM     31  C   UNL A   1      35.561  22.940  24.264  1.00  0.00     0.004 A 
ATOM     32  C   UNL A   1      33.724  21.511  24.834  1.00  0.00     0.004 A 
ENDBRANCH  17  26
ENDBRANCH   9  16
ENDBRANCH   5   8
ENDBRANCH   3   4
ENDBRANCH   2   3
ENDBRANCH   1   2
BRANCH   1  33
ATOM     33  C   UNL A   1      32.897  36.077  30.192  1.00  0.00     0.002 C 
BRANCH  33  34
ATOM     34  C   UNL A   1      33.285  37.147  31.214  1.00  0.00     0.021 C 
BRANCH  34  35
ATOM     35  C   UNL A   1      33.668  36.605  32.584  1.00  0.00     0.116 C 
BRANCH  35  36
ATOM     36  N   UNL A   1      33.185  35.259  32.858  1.00  0.00    -0.352 N 
ATOM     37  C   UNL A   1      33.878  34.055  32.865  1.00  0.00     0.251 C 
ATOM     38  H   UNL A   1      32.225  35.192  33.069  1.00  0.00     0.163 HD
ATOM     39  O   UNL A   1      33.294  33.014  33.072  1.00  0.00    -0.269 OA
BRANCH  37  40
ATOM     40  C   UNL A   1      35.364  34.071  32.765  1.00  0.00     0.039 A 
ATOM     41  C   UNL A   1      35.922  34.285  31.499  1.00  0.00     0.014 A 
ATOM     42  C   UNL A   1      36.173  33.672  33.825  1.00  0.00     0.014 A 
ATOM     43  C   UNL A   1      37.215  33.839  31.239  1.00  0.00     0.010 A 
ATOM     44  C   UNL A   1      37.412  33.130  33.547  1.00  0.00     0.010 A 
ATOM     45  C   UNL A   1      37.897  33.144  32.237  1.00  0.00    -0.014 A 
BRANCH  45  46
ATOM     46  C   UNL A   1      39.037  32.278  31.960  1.00  0.00     0.031 A 
ATOM     47  C   UNL A   1      38.867  31.024  31.204  1.00  0.00     0.074 A 
ATOM     48  C   UNL A   1      40.275  32.654  32.358  1.00  0.00     0.049 A 
ATOM     49  N   UNL A   1      39.614  29.981  31.360  1.00  0.00    -0.248 NA
ATOM     50  C   UNL A   1      37.802  30.834  30.227  1.00  0.00     0.031 C 
ATOM     51  C   UNL A   1      41.546  32.045  31.975  1.00  0.00     0.029 A 
ATOM     52  N   UNL A   1      40.622  33.537  33.382  1.00  0.00    -0.354 N 
ATOM     53  C   UNL A   1      39.346  29.134  30.309  1.00  0.00     0.074 A 
ATOM     54  C   UNL A   1      38.146  29.658  29.695  1.00  0.00     0.031 C 
ATOM     55  C   UNL A   1      42.454  32.317  32.927  1.00  0.00     0.029 A 
ATOM     56  C   UNL A   1      41.749  32.985  34.010  1.00  0.00     0.049 A 
ATOM     57  H   UNL A   1      40.169  34.378  33.617  1.00  0.00     0.167 HD
ATOM     58  C   UNL A   1      40.251  28.179  29.957  1.00  0.00     0.031 A 
ATOM     59  C   UNL A   1      41.784  32.613  35.323  1.00  0.00     0.031 A 
ATOM     60  C   UNL A   1      41.419  28.175  30.834  1.00  0.00     0.049 A 
ATOM     61  C   UNL A   1      42.182  31.166  35.523  1.00  0.00     0.074 A 
ATOM     62  C   UNL A   1      42.701  28.683  30.690  1.00  0.00     0.029 A 
ATOM     63  N   UNL A   1      41.274  27.845  32.174  1.00  0.00    -0.354 N 
ATOM     64  N   UNL A   1      42.137  30.266  34.581  1.00  0.00    -0.248 NA
ATOM     65  C   UNL A   1      42.585  30.602  36.809  1.00  0.00     0.031 C 
ATOM     66  C   UNL A   1      43.316  28.694  31.965  1.00  0.00     0.029 A 
ATOM     67  C   UNL A   1      42.413  28.178  32.878  1.00  0.00     0.049 A 
ATOM     68  H   UNL A   1      40.471  27.431  32.566  1.00  0.00     0.167 HD
ATOM     69  C   UNL A   1      42.488  29.043  35.092  1.00  0.00     0.074 A 
ATOM     70  C   UNL A   1      42.765  29.306  36.492  1.00  0.00     0.031 C 
ATOM     71  C   UNL A   1      42.497  27.925  34.310  1.00  0.00     0.031 A 
BRANCH  58  72
ATOM     72  C   UNL A   1      40.220  27.471  28.623  1.00  0.00    -0.014 A 
ATOM     73  C   UNL A   1      39.525  26.254  28.496  1.00  0.00     0.009 A 
ATOM     74  C   UNL A   1      40.890  27.921  27.474  1.00  0.00     0.009 A 
ATOM     75  C   UNL A   1      39.588  25.477  27.333  1.00  0.00     0.001 A 
ATOM     76  C   UNL A   1      40.992  27.132  26.319  1.00  0.00     0.001 A 
ATOM     77  C   UNL A   1      40.352  25.901  26.255  1.00  0.00     0.000 A 
ENDBRANCH  58  72
BRANCH  59  78
ATOM     78  C   UNL A   1      40.816  33.330  36.197  1.00  0.00    -0.014 A 
ATOM     79  C   UNL A   1      39.674  32.639  36.646  1.00  0.00     0.009 A 
ATOM     80  C   UNL A   1      41.187  34.513  36.851  1.00  0.00     0.009 A 
ATOM     81  C   UNL A   1      38.985  33.065  37.786  1.00  0.00     0.001 A 
ATOM     82  C   UNL A   1      40.487  34.941  37.985  1.00  0.00     0.001 A 
ATOM     83  C   UNL A   1      39.409  34.200  38.470  1.00  0.00     0.000 A 
ENDBRANCH  59  78
BRANCH  71  84
ATOM     84  C   UNL A   1      42.647  26.493  34.767  1.00  0.00    -0.014 A 
ATOM     85  C   UNL A   1      41.639  25.738  35.378  1.00  0.00     0.009 A 
ATOM     86  C   UNL A   1      43.843  25.802  34.449  1.00  0.00     0.009 A 
ATOM     87  C   UNL A   1      41.827  24.382  35.686  1.00  0.00     0.001 A 
ATOM     88  C   UNL A   1      44.017  24.442  34.712  1.00  0.00     0.001 A 
ATOM     89  C   UNL A   1      43.009  23.731  35.342  1.00  0.00     0.000 A 
ENDBRANCH  71  84
ENDBRANCH  45  46
ENDBRANCH  37  40
ENDBRANCH  35  36
ENDBRANCH  34  35
ENDBRANCH  33  34
ENDBRANCH   1  33
TORSDOF 15
ENDMDL
MODEL 3
REMARK VINA RESULT:     -12.5      1.085      2.325
REMARK SMILES Cc1ccc([C@@]23C[C@@H]4C[C@@H](C[C@@](C(=O)N5CCC(C(=O)NCCCCCCNC(=O)c6ccc(-c7c8nc(c(-c9ccccc9)c9ccc([nH]9)c(-c9ccccc9)c9nc(c(-c%10ccccc%10)c%10ccc7[nH]%10)C=C9)C=C8)cc6)CC5)(C4)C2)C3)cc1
REMARK SMILES IDX 24 1 23 2 22 3 21 4 19 5 20 6 18 8 13 9 14 10 15 11 16 12
REMARK SMILES IDX 80 13 17 14 79 15 12 16 6 17 7 18 82 19 83 20 8 21 10 22
REMARK SMILES IDX 9 23 81 24 11 25 5 26 1 27 2 28 3 29 85 30 4 31 84 32 25 33
REMARK SMILES IDX 26 34 27 35 28 36 29 37 30 39 31 40 32 41 78 42 33 43 77 44
REMARK SMILES IDX 34 45 35 46 36 47 71 48 37 49 76 50 70 51 72 52 38 53 75 54
REMARK SMILES IDX 69 55 68 56 39 58 61 59 46 60 60 61 47 62 50 63 59 64 73 65
REMARK SMILES IDX 48 66 49 67 58 69 74 70 51 71 40 72 41 73 45 74 42 75 44 76
REMARK SMILES IDX 43 77 62 78 63 79 67 80 64 81 66 82 65 83 52 84 53 85 57 86
REMARK SMILES IDX 54 87 56 88 55 89
REMARK H PARENT 21 7 28 38 72 57 50 68
REMARK Flexibility Score: inf
ROOT
ATOM      1  C   UNL A   1      34.846  23.819  26.254  1.00  0.00     0.002 C 
ENDROOT
BRANCH   1   2
ATOM      2  C   UNL A   1      34.269  22.928  27.360  1.00  0.00     0.021 C 
BRANCH   2   3
ATOM      3  C   UNL A   1      32.931  22.267  27.037  1.00  0.00     0.116 C 
BRANCH   3   4
ATOM      4  N   UNL A   1      33.074  20.864  26.687  1.00  0.00    -0.356 N 
ATOM      5  C   UNL A   1      32.937  20.227  25.491  1.00  0.00     0.223 C 
ATOM      6  O   UNL A   1      33.195  19.023  25.443  1.00  0.00    -0.275 OA
ATOM      7  H   UNL A   1      33.309  20.275  27.441  1.00  0.00     0.163 HD
BRANCH   5   8
ATOM      8  C   UNL A   1      32.464  20.961  24.246  1.00  0.00     0.082 C 
ATOM      9  C   UNL A   1      32.883  24.817  23.281  1.00  0.00     0.228 C 
ATOM     10  O   UNL A   1      34.098  25.032  23.235  1.00  0.00    -0.274 OA
ATOM     11  N   UNL A   1      32.381  23.541  23.025  1.00  0.00    -0.342 N 
ATOM     12  C   UNL A   1      33.257  22.553  22.411  1.00  0.00     0.120 C 
ATOM     13  C   UNL A   1      31.114  22.962  23.467  1.00  0.00     0.120 C 
ATOM     14  C   UNL A   1      33.653  21.488  23.420  1.00  0.00     0.035 C 
ATOM     15  C   UNL A   1      31.373  21.986  24.602  1.00  0.00     0.035 C 
BRANCH   9  16
ATOM     16  C   UNL A   1      31.911  25.984  23.566  1.00  0.00     0.051 C 
ATOM     17  C   UNL A   1      31.742  28.197  24.877  1.00  0.00    -0.003 C 
ATOM     18  C   UNL A   1      31.353  28.855  23.518  1.00  0.00     0.015 C 
ATOM     19  C   UNL A   1      32.595  26.953  24.548  1.00  0.00     0.028 C 
ATOM     20  C   UNL A   1      30.455  27.686  25.572  1.00  0.00     0.015 C 
ATOM     21  C   UNL A   1      30.551  27.888  22.626  1.00  0.00    -0.009 C 
ATOM     22  C   UNL A   1      29.711  26.686  24.662  1.00  0.00    -0.009 C 
ATOM     23  C   UNL A   1      29.298  27.411  23.373  1.00  0.00     0.007 C 
ATOM     24  C   UNL A   1      31.417  26.669  22.278  1.00  0.00     0.020 C 
ATOM     25  C   UNL A   1      30.629  25.492  24.309  1.00  0.00     0.020 C 
BRANCH  17  26
ATOM     26  C   UNL A   1      32.515  29.184  25.772  1.00  0.00    -0.042 A 
ATOM     27  C   UNL A   1      34.597  31.862  28.487  1.00  0.00     0.044 C 
ATOM     28  C   UNL A   1      33.904  30.939  27.532  1.00  0.00    -0.051 A 
ATOM     29  C   UNL A   1      32.665  31.298  27.007  1.00  0.00     0.004 A 
ATOM     30  C   UNL A   1      34.461  29.714  27.156  1.00  0.00     0.004 A 
ATOM     31  C   UNL A   1      31.989  30.440  26.137  1.00  0.00     0.004 A 
ATOM     32  C   UNL A   1      33.779  28.852  26.285  1.00  0.00     0.004 A 
ENDBRANCH  17  26
ENDBRANCH   9  16
ENDBRANCH   5   8
ENDBRANCH   3   4
ENDBRANCH   2   3
ENDBRANCH   1   2
BRANCH   1  33
ATOM     33  C   UNL A   1      35.955  23.205  25.385  1.00  0.00     0.002 C 
BRANCH  33  34
ATOM     34  C   UNL A   1      37.212  22.734  26.120  1.00  0.00     0.021 C 
BRANCH  34  35
ATOM     35  C   UNL A   1      38.512  22.976  25.369  1.00  0.00     0.116 C 
BRANCH  35  36
ATOM     36  N   UNL A   1      39.716  22.679  26.132  1.00  0.00    -0.352 N 
ATOM     37  C   UNL A   1      40.459  23.502  26.968  1.00  0.00     0.251 C 
ATOM     38  H   UNL A   1      40.054  21.758  26.042  1.00  0.00     0.163 HD
ATOM     39  O   UNL A   1      41.472  23.091  27.490  1.00  0.00    -0.269 OA
BRANCH  37  40
ATOM     40  C   UNL A   1      39.921  24.842  27.334  1.00  0.00     0.039 A 
ATOM     41  C   UNL A   1      40.389  25.945  26.609  1.00  0.00     0.014 A 
ATOM     42  C   UNL A   1      39.161  25.037  28.484  1.00  0.00     0.014 A 
ATOM     43  C   UNL A   1      40.330  27.213  27.181  1.00  0.00     0.010 A 
ATOM     44  C   UNL A   1      39.197  26.270  29.103  1.00  0.00     0.010 A 
ATOM     45  C   UNL A   1      39.851  27.338  28.484  1.00  0.00    -0.014 A 
BRANCH  45  46
ATOM     46  C   UNL A   1      40.133  28.497  29.322  1.00  0.00     0.031 A 
ATOM     47  C   UNL A   1      39.113  29.539  29.540  1.00  0.00     0.074 A 
ATOM     48  C   UNL A   1      41.329  28.594  29.949  1.00  0.00     0.049 A 
ATOM     49  N   UNL A   1      39.387  30.780  29.772  1.00  0.00    -0.248 NA
ATOM     50  C   UNL A   1      37.683  29.264  29.473  1.00  0.00     0.031 C 
ATOM     51  C   UNL A   1      41.701  29.544  30.994  1.00  0.00     0.029 A 
ATOM     52  N   UNL A   1      42.537  27.987  29.603  1.00  0.00    -0.354 N 
ATOM     53  C   UNL A   1      38.223  31.377  30.197  1.00  0.00     0.074 A 
ATOM     54  C   UNL A   1      37.176  30.426  29.895  1.00  0.00     0.031 C 
ATOM     55  C   UNL A   1      43.036  29.687  30.984  1.00  0.00     0.029 A 
ATOM     56  C   UNL A   1      43.537  28.942  29.841  1.00  0.00     0.049 A 
ATOM     57  H   UNL A   1      42.664  27.072  29.262  1.00  0.00     0.167 HD
ATOM     58  C   UNL A   1      38.274  32.535  30.913  1.00  0.00     0.031 A 
ATOM     59  C   UNL A   1      44.362  29.439  28.873  1.00  0.00     0.031 A 
ATOM     60  C   UNL A   1      39.642  33.015  31.091  1.00  0.00     0.049 A 
ATOM     61  C   UNL A   1      44.317  30.948  28.769  1.00  0.00     0.074 A 
ATOM     62  C   UNL A   1      40.529  32.945  32.154  1.00  0.00     0.029 A 
ATOM     63  N   UNL A   1      40.380  33.416  29.987  1.00  0.00    -0.354 N 
ATOM     64  N   UNL A   1      43.357  31.680  29.262  1.00  0.00    -0.248 NA
ATOM     65  C   UNL A   1      45.302  31.745  28.042  1.00  0.00     0.031 C 
ATOM     66  C   UNL A   1      41.820  33.271  31.672  1.00  0.00     0.029 A 
ATOM     67  C   UNL A   1      41.712  33.553  30.322  1.00  0.00     0.049 A 
ATOM     68  H   UNL A   1      40.006  33.581  29.090  1.00  0.00     0.167 HD
ATOM     69  C   UNL A   1      43.567  32.996  28.941  1.00  0.00     0.074 A 
ATOM     70  C   UNL A   1      44.803  32.987  28.180  1.00  0.00     0.031 C 
ATOM     71  C   UNL A   1      42.687  33.968  29.322  1.00  0.00     0.031 A 
BRANCH  58  72
ATOM     72  C   UNL A   1      37.108  33.050  31.723  1.00  0.00    -0.014 A 
ATOM     73  C   UNL A   1      37.007  32.717  33.088  1.00  0.00     0.009 A 
ATOM     74  C   UNL A   1      36.058  33.819  31.197  1.00  0.00     0.009 A 
ATOM     75  C   UNL A   1      35.876  33.033  33.850  1.00  0.00     0.001 A 
ATOM     76  C   UNL A   1      34.905  34.106  31.942  1.00  0.00     0.001 A 
ATOM     77  C   UNL A   1      34.808  33.699  33.266  1.00  0.00     0.000 A 
ENDBRANCH  58  72
BRANCH  59  78
ATOM     78  C   UNL A   1      44.560  28.538  27.705  1.00  0.00    -0.014 A 
ATOM     79  C   UNL A   1      45.318  27.365  27.879  1.00  0.00     0.009 A 
ATOM     80  C   UNL A   1      43.738  28.646  26.574  1.00  0.00     0.009 A 
ATOM     81  C   UNL A   1      45.174  26.285  27.002  1.00  0.00     0.001 A 
ATOM     82  C   UNL A   1      43.606  27.567  25.693  1.00  0.00     0.001 A 
ATOM     83  C   UNL A   1      44.297  26.378  25.925  1.00  0.00     0.000 A 
ENDBRANCH  59  78
BRANCH  71  84
ATOM     84  C   UNL A   1      42.665  35.408  28.868  1.00  0.00    -0.014 A 
ATOM     85  C   UNL A   1      43.286  36.468  29.539  1.00  0.00     0.009 A 
ATOM     86  C   UNL A   1      42.089  35.713  27.610  1.00  0.00     0.009 A 
ATOM     87  C   UNL A   1      43.301  37.764  29.000  1.00  0.00     0.001 A 
ATOM     88  C   UNL A   1      42.141  36.991  27.050  1.00  0.00     0.001 A 
ATOM     89  C   UNL A   1      42.742  38.023  27.752  1.00  0.00     0.000 A 
ENDBRANCH  71  84
ENDBRANCH  45  46
ENDBRANCH  37  40
ENDBRANCH  35  36
ENDBRANCH  34  35
ENDBRANCH  33  34
ENDBRANCH   1  33
TORSDOF 15
ENDMDL
