MODEL 1
REMARK VINA RESULT:     -11.3      0.000      0.000
REMARK SMILES [NH3+][C@H]1C=C[C@H](C(=O)N2CCCc3c(C(=O)NCCCCCCNC(=O)c4ccc(-c5c6nc(c(-c7ccccc7)c7ccc([nH]7)c(-c7ccccc7)c7nc(c(-c8ccccc8)c8ccc5[nH]8)C=C7)C=C6)cc4)cccc32)C1
REMARK SMILES IDX 19 1 18 2 17 3 16 4 14 5 15 6 13 8 8 9 9 10 77 11 10 12
REMARK SMILES IDX 12 13 76 14 11 15 75 16 74 17 6 18 7 19 5 20 2 21 3 22 78 23
REMARK SMILES IDX 4 24 1 25 20 29 21 30 22 31 23 32 24 33 25 35 26 36 27 37
REMARK SMILES IDX 73 38 28 39 72 40 29 41 30 42 31 43 66 44 32 45 71 46 65 47
REMARK SMILES IDX 67 48 33 49 70 50 64 51 63 52 34 54 56 55 41 56 55 57 42 58
REMARK SMILES IDX 45 59 54 60 68 61 43 62 44 63 53 65 69 66 46 67 35 68 36 69
REMARK SMILES IDX 40 70 37 71 39 72 38 73 57 74 58 75 62 76 59 77 61 78 60 79
REMARK SMILES IDX 47 80 48 81 52 82 49 83 51 84 50 85
REMARK H PARENT 16 7 1 26 1 27 1 28 23 34 67 53 45 64
REMARK Flexibility Score: inf
ROOT
ATOM      1  C   UNL A   1      33.228  25.371  26.142  1.00  0.00     0.002 C 
ENDROOT
BRANCH   1   2
ATOM      2  C   UNL A   1      33.870  24.014  25.853  1.00  0.00     0.021 C 
BRANCH   2   3
ATOM      3  C   UNL A   1      34.994  24.058  24.807  1.00  0.00     0.116 C 
BRANCH   3   4
ATOM      4  N   UNL A   1      34.486  23.667  23.507  1.00  0.00    -0.352 N 
ATOM      5  C   UNL A   1      33.469  23.983  22.655  1.00  0.00     0.251 C 
ATOM      6  O   UNL A   1      33.499  23.312  21.613  1.00  0.00    -0.269 OA
ATOM      7  H   UNL A   1      35.048  22.957  23.121  1.00  0.00     0.163 HD
BRANCH   5   8
ATOM      8  C   UNL A   1      32.376  25.015  22.776  1.00  0.00     0.045 A 
ATOM      9  N   UNL A   1      31.236  28.632  22.743  1.00  0.00    -0.312 N 
ATOM     10  C   UNL A   1      32.304  29.201  21.939  1.00  0.00     0.126 C 
ATOM     11  C   UNL A   1      31.261  27.207  22.956  1.00  0.00     0.048 A 
ATOM     12  C   UNL A   1      33.639  28.653  22.390  1.00  0.00     0.027 C 
ATOM     13  C   UNL A   1      32.412  26.426  22.625  1.00  0.00    -0.011 A 
ATOM     14  C   UNL A   1      30.116  26.580  23.465  1.00  0.00     0.027 A 
ATOM     15  C   UNL A   1      33.646  27.150  22.178  1.00  0.00     0.040 C 
ATOM     16  C   UNL A   1      30.067  25.205  23.610  1.00  0.00     0.003 A 
ATOM     17  C   UNL A   1      31.174  24.442  23.259  1.00  0.00     0.014 A 
BRANCH   9  18
ATOM     18  C   UNL A   1      30.371  29.450  23.471  1.00  0.00     0.234 C 
ATOM     19  O   UNL A   1      30.637  29.828  24.618  1.00  0.00    -0.274 OA
BRANCH  18  20
ATOM     20  C   UNL A   1      28.993  29.796  22.875  1.00  0.00     0.108 C 
ATOM     21  C   UNL A   1      28.639  32.014  21.906  1.00  0.00     0.205 C 
ATOM     22  C   UNL A   1      27.835  31.821  23.149  1.00  0.00     0.033 C 
ATOM     23  C   UNL A   1      29.086  30.587  21.563  1.00  0.00     0.087 C 
ATOM     24  C   UNL A   1      28.046  30.615  23.694  1.00  0.00    -0.012 C 
BRANCH  21  25
ATOM     25  N   UNL A   1      27.874  32.612  20.832  1.00  0.00    -0.352 N 
ATOM     26  H   UNL A   1      28.471  33.248  20.304  1.00  0.00     0.345 HD
ATOM     27  H   UNL A   1      27.087  33.129  21.222  1.00  0.00     0.345 HD
ATOM     28  H   UNL A   1      27.527  31.880  20.213  1.00  0.00     0.345 HD
ENDBRANCH  21  25
ENDBRANCH  18  20
ENDBRANCH   9  18
ENDBRANCH   5   8
ENDBRANCH   3   4
ENDBRANCH   2   3
ENDBRANCH   1   2
BRANCH   1  29
ATOM     29  C   UNL A   1      34.135  26.566  25.842  1.00  0.00     0.002 C 
BRANCH  29  30
ATOM     30  C   UNL A   1      33.486  27.944  26.023  1.00  0.00     0.021 C 
BRANCH  30  31
ATOM     31  C   UNL A   1      33.398  28.436  27.467  1.00  0.00     0.116 C 
BRANCH  31  32
ATOM     32  N   UNL A   1      33.429  29.887  27.549  1.00  0.00    -0.352 N 
ATOM     33  C   UNL A   1      34.393  30.722  28.052  1.00  0.00     0.251 C 
ATOM     34  H   UNL A   1      32.633  30.341  27.188  1.00  0.00     0.163 HD
ATOM     35  O   UNL A   1      34.136  31.903  28.261  1.00  0.00    -0.269 OA
BRANCH  33  36
ATOM     36  C   UNL A   1      35.746  30.204  28.347  1.00  0.00     0.039 A 
ATOM     37  C   UNL A   1      36.698  30.180  27.323  1.00  0.00     0.014 A 
ATOM     38  C   UNL A   1      36.060  29.699  29.612  1.00  0.00     0.014 A 
ATOM     39  C   UNL A   1      37.981  29.696  27.582  1.00  0.00     0.010 A 
ATOM     40  C   UNL A   1      37.359  29.279  29.887  1.00  0.00     0.010 A 
ATOM     41  C   UNL A   1      38.329  29.265  28.873  1.00  0.00    -0.014 A 
BRANCH  41  42
ATOM     42  C   UNL A   1      39.703  28.799  29.180  1.00  0.00     0.031 A 
ATOM     43  C   UNL A   1      40.688  29.722  29.842  1.00  0.00     0.074 A 
ATOM     44  C   UNL A   1      40.087  27.568  28.794  1.00  0.00     0.049 A 
ATOM     45  N   UNL A   1      41.945  29.511  30.139  1.00  0.00    -0.248 NA
ATOM     46  C   UNL A   1      40.204  31.067  30.192  1.00  0.00     0.031 C 
ATOM     47  C   UNL A   1      39.242  26.597  28.096  1.00  0.00     0.029 A 
ATOM     48  N   UNL A   1      41.293  26.927  28.923  1.00  0.00    -0.354 N 
ATOM     49  C   UNL A   1      42.408  30.702  30.686  1.00  0.00     0.074 A 
ATOM     50  C   UNL A   1      41.311  31.643  30.641  1.00  0.00     0.031 C 
ATOM     51  C   UNL A   1      39.949  25.478  27.875  1.00  0.00     0.029 A 
ATOM     52  C   UNL A   1      41.304  25.664  28.385  1.00  0.00     0.049 A 
ATOM     53  H   UNL A   1      42.076  27.333  29.362  1.00  0.00     0.167 HD
ATOM     54  C   UNL A   1      43.633  30.982  31.193  1.00  0.00     0.031 A 
ATOM     55  C   UNL A   1      42.295  24.757  28.304  1.00  0.00     0.031 A 
ATOM     56  C   UNL A   1      44.719  30.040  31.253  1.00  0.00     0.049 A 
ATOM     57  C   UNL A   1      43.639  25.083  28.890  1.00  0.00     0.074 A 
ATOM     58  C   UNL A   1      45.970  30.201  31.819  1.00  0.00     0.029 A 
ATOM     59  N   UNL A   1      44.681  28.760  30.720  1.00  0.00    -0.354 N 
ATOM     60  N   UNL A   1      44.037  26.184  29.479  1.00  0.00    -0.248 NA
ATOM     61  C   UNL A   1      44.667  24.036  28.810  1.00  0.00     0.031 C 
ATOM     62  C   UNL A   1      46.710  29.036  31.585  1.00  0.00     0.029 A 
ATOM     63  C   UNL A   1      45.898  28.130  30.919  1.00  0.00     0.049 A 
ATOM     64  H   UNL A   1      43.905  28.358  30.269  1.00  0.00     0.167 HD
ATOM     65  C   UNL A   1      45.352  25.956  29.860  1.00  0.00     0.074 A 
ATOM     66  C   UNL A   1      45.680  24.606  29.449  1.00  0.00     0.031 C 
ATOM     67  C   UNL A   1      46.212  26.790  30.494  1.00  0.00     0.031 A 
BRANCH  54  68
ATOM     68  C   UNL A   1      43.865  32.375  31.712  1.00  0.00    -0.014 A 
ATOM     69  C   UNL A   1      44.387  33.384  30.887  1.00  0.00     0.009 A 
ATOM     70  C   UNL A   1      43.532  32.687  33.039  1.00  0.00     0.009 A 
ATOM     71  C   UNL A   1      44.612  34.666  31.394  1.00  0.00     0.001 A 
ATOM     72  C   UNL A   1      43.731  33.976  33.535  1.00  0.00     0.001 A 
ATOM     73  C   UNL A   1      44.281  34.962  32.715  1.00  0.00     0.000 A 
ENDBRANCH  54  68
BRANCH  55  74
ATOM     74  C   UNL A   1      42.042  23.445  27.654  1.00  0.00    -0.014 A 
ATOM     75  C   UNL A   1      41.444  22.399  28.371  1.00  0.00     0.009 A 
ATOM     76  C   UNL A   1      42.379  23.242  26.307  1.00  0.00     0.009 A 
ATOM     77  C   UNL A   1      41.206  21.167  27.758  1.00  0.00     0.001 A 
ATOM     78  C   UNL A   1      42.117  22.017  25.689  1.00  0.00     0.001 A 
ATOM     79  C   UNL A   1      41.536  20.979  26.416  1.00  0.00     0.000 A 
ENDBRANCH  55  74
BRANCH  67  80
ATOM     80  C   UNL A   1      47.583  26.258  30.798  1.00  0.00    -0.014 A 
ATOM     81  C   UNL A   1      47.898  25.737  32.062  1.00  0.00     0.009 A 
ATOM     82  C   UNL A   1      48.560  26.242  29.791  1.00  0.00     0.009 A 
ATOM     83  C   UNL A   1      49.176  25.239  32.321  1.00  0.00     0.001 A 
ATOM     84  C   UNL A   1      49.829  25.719  30.044  1.00  0.00     0.001 A 
ATOM     85  C   UNL A   1      50.139  25.226  31.311  1.00  0.00     0.000 A 
ENDBRANCH  67  80
ENDBRANCH  41  42
ENDBRANCH  33  36
ENDBRANCH  31  32
ENDBRANCH  30  31
ENDBRANCH  29  30
ENDBRANCH   1  29
TORSDOF 16
ENDMDL
MODEL 2
REMARK VINA RESULT:     -11.2      1.498      4.375
REMARK SMILES [NH3+][C@H]1C=C[C@H](C(=O)N2CCCc3c(C(=O)NCCCCCCNC(=O)c4ccc(-c5c6nc(c(-c7ccccc7)c7ccc([nH]7)c(-c7ccccc7)c7nc(c(-c8ccccc8)c8ccc5[nH]8)C=C7)C=C6)cc4)cccc32)C1
REMARK SMILES IDX 19 1 18 2 17 3 16 4 14 5 15 6 13 8 8 9 9 10 77 11 10 12
REMARK SMILES IDX 12 13 76 14 11 15 75 16 74 17 6 18 7 19 5 20 2 21 3 22 78 23
REMARK SMILES IDX 4 24 1 25 20 29 21 30 22 31 23 32 24 33 25 35 26 36 27 37
REMARK SMILES IDX 73 38 28 39 72 40 29 41 30 42 31 43 66 44 32 45 71 46 65 47
REMARK SMILES IDX 67 48 33 49 70 50 64 51 63 52 34 54 56 55 41 56 55 57 42 58
REMARK SMILES IDX 45 59 54 60 68 61 43 62 44 63 53 65 69 66 46 67 35 68 36 69
REMARK SMILES IDX 40 70 37 71 39 72 38 73 57 74 58 75 62 76 59 77 61 78 60 79
REMARK SMILES IDX 47 80 48 81 52 82 49 83 51 84 50 85
REMARK H PARENT 16 7 1 26 1 27 1 28 23 34 67 53 45 64
REMARK Flexibility Score: inf
ROOT
ATOM      1  C   UNL A   1      33.892  28.274  23.946  1.00  0.00     0.002 C 
ENDROOT
BRANCH   1   2
ATOM      2  C   UNL A   1      32.793  29.269  23.571  1.00  0.00     0.021 C 
BRANCH   2   3
ATOM      3  C   UNL A   1      31.620  29.317  24.563  1.00  0.00     0.116 C 
BRANCH   3   4
ATOM      4  N   UNL A   1      30.462  28.648  24.006  1.00  0.00    -0.352 N 
ATOM      5  C   UNL A   1      30.129  27.452  23.443  1.00  0.00     0.251 C 
ATOM      6  O   UNL A   1      28.931  27.394  23.126  1.00  0.00    -0.269 OA
ATOM      7  H   UNL A   1      29.675  29.238  24.045  1.00  0.00     0.163 HD
BRANCH   5   8
ATOM      8  C   UNL A   1      30.964  26.221  23.193  1.00  0.00     0.045 A 
ATOM      9  N   UNL A   1      32.636  23.057  24.449  1.00  0.00    -0.312 N 
ATOM     10  C   UNL A   1      31.803  22.804  25.613  1.00  0.00     0.126 C 
ATOM     11  C   UNL A   1      32.288  24.185  23.624  1.00  0.00     0.048 A 
ATOM     12  C   UNL A   1      31.568  24.092  26.369  1.00  0.00     0.027 C 
ATOM     13  C   UNL A   1      31.342  25.164  24.062  1.00  0.00    -0.011 A 
ATOM     14  C   UNL A   1      32.866  24.295  22.352  1.00  0.00     0.027 A 
ATOM     15  C   UNL A   1      30.825  25.060  25.465  1.00  0.00     0.040 C 
ATOM     16  C   UNL A   1      32.501  25.317  21.494  1.00  0.00     0.003 A 
ATOM     17  C   UNL A   1      31.558  26.251  21.907  1.00  0.00     0.014 A 
BRANCH   9  18
ATOM     18  C   UNL A   1      33.850  22.390  24.277  1.00  0.00     0.234 C 
ATOM     19  O   UNL A   1      33.921  21.156  24.250  1.00  0.00    -0.274 OA
BRANCH  18  20
ATOM     20  C   UNL A   1      35.153  23.211  24.240  1.00  0.00     0.108 C 
ATOM     21  C   UNL A   1      37.086  22.432  25.523  1.00  0.00     0.205 C 
ATOM     22  C   UNL A   1      36.531  23.703  26.078  1.00  0.00     0.033 C 
ATOM     23  C   UNL A   1      36.412  22.337  24.148  1.00  0.00     0.087 C 
ATOM     24  C   UNL A   1      35.459  24.118  25.390  1.00  0.00    -0.012 C 
BRANCH  21  25
ATOM     25  N   UNL A   1      38.529  22.450  25.417  1.00  0.00    -0.352 N 
ATOM     26  H   UNL A   1      38.926  22.876  26.253  1.00  0.00     0.345 HD
ATOM     27  H   UNL A   1      38.802  22.991  24.597  1.00  0.00     0.345 HD
ATOM     28  H   UNL A   1      38.875  21.495  25.325  1.00  0.00     0.345 HD
ENDBRANCH  21  25
ENDBRANCH  18  20
ENDBRANCH   9  18
ENDBRANCH   5   8
ENDBRANCH   3   4
ENDBRANCH   2   3
ENDBRANCH   1   2
BRANCH   1  29
ATOM     29  C   UNL A   1      33.613  27.494  25.233  1.00  0.00     0.002 C 
BRANCH  29  30
ATOM     30  C   UNL A   1      34.347  28.005  26.479  1.00  0.00     0.021 C 
BRANCH  30  31
ATOM     31  C   UNL A   1      33.447  28.576  27.574  1.00  0.00     0.116 C 
BRANCH  31  32
ATOM     32  N   UNL A   1      33.508  30.028  27.624  1.00  0.00    -0.352 N 
ATOM     33  C   UNL A   1      34.496  30.853  28.097  1.00  0.00     0.251 C 
ATOM     34  H   UNL A   1      32.717  30.491  27.264  1.00  0.00     0.163 HD
ATOM     35  O   UNL A   1      34.266  32.044  28.284  1.00  0.00    -0.269 OA
BRANCH  33  36
ATOM     36  C   UNL A   1      35.842  30.314  28.384  1.00  0.00     0.039 A 
ATOM     37  C   UNL A   1      36.806  30.331  27.373  1.00  0.00     0.014 A 
ATOM     38  C   UNL A   1      36.137  29.750  29.629  1.00  0.00     0.014 A 
ATOM     39  C   UNL A   1      38.083  29.827  27.626  1.00  0.00     0.010 A 
ATOM     40  C   UNL A   1      37.429  29.309  29.901  1.00  0.00     0.010 A 
ATOM     41  C   UNL A   1      38.412  29.336  28.900  1.00  0.00    -0.014 A 
BRANCH  41  42
ATOM     42  C   UNL A   1      39.780  28.848  29.203  1.00  0.00     0.031 A 
ATOM     43  C   UNL A   1      40.780  29.753  29.865  1.00  0.00     0.074 A 
ATOM     44  C   UNL A   1      40.143  27.611  28.812  1.00  0.00     0.049 A 
ATOM     45  N   UNL A   1      42.035  29.521  30.159  1.00  0.00    -0.248 NA
ATOM     46  C   UNL A   1      40.318  31.104  30.219  1.00  0.00     0.031 C 
ATOM     47  C   UNL A   1      39.282  26.656  28.113  1.00  0.00     0.029 A 
ATOM     48  N   UNL A   1      41.340  26.951  28.937  1.00  0.00    -0.354 N 
ATOM     49  C   UNL A   1      42.517  30.703  30.707  1.00  0.00     0.074 A 
ATOM     50  C   UNL A   1      41.434  31.661  30.667  1.00  0.00     0.031 C 
ATOM     51  C   UNL A   1      39.971  25.526  27.888  1.00  0.00     0.029 A 
ATOM     52  C   UNL A   1      41.329  25.690  28.395  1.00  0.00     0.049 A 
ATOM     53  H   UNL A   1      42.129  27.344  29.375  1.00  0.00     0.167 HD
ATOM     54  C   UNL A   1      43.747  30.964  31.213  1.00  0.00     0.031 A 
ATOM     55  C   UNL A   1      42.306  24.768  28.310  1.00  0.00     0.031 A 
ATOM     56  C   UNL A   1      44.819  30.004  31.267  1.00  0.00     0.049 A 
ATOM     57  C   UNL A   1      43.657  25.072  28.893  1.00  0.00     0.074 A 
ATOM     58  C   UNL A   1      46.074  30.144  31.832  1.00  0.00     0.029 A 
ATOM     59  N   UNL A   1      44.760  28.727  30.731  1.00  0.00    -0.354 N 
ATOM     60  N   UNL A   1      44.073  26.165  29.485  1.00  0.00    -0.248 NA
ATOM     61  C   UNL A   1      44.668  24.008  28.808  1.00  0.00     0.031 C 
ATOM     62  C   UNL A   1      46.794  28.969  31.592  1.00  0.00     0.029 A 
ATOM     63  C   UNL A   1      45.968  28.078  30.926  1.00  0.00     0.049 A 
ATOM     64  H   UNL A   1      43.976  28.338  30.281  1.00  0.00     0.167 HD
ATOM     65  C   UNL A   1      45.385  25.915  29.862  1.00  0.00     0.074 A 
ATOM     66  C   UNL A   1      45.691  24.561  29.447  1.00  0.00     0.031 C 
ATOM     67  C   UNL A   1      46.259  26.734  30.497  1.00  0.00     0.031 A 
BRANCH  54  68
ATOM     68  C   UNL A   1      44.002  32.351  31.735  1.00  0.00    -0.014 A 
ATOM     69  C   UNL A   1      43.808  32.669  33.088  1.00  0.00     0.009 A 
ATOM     70  C   UNL A   1      44.465  33.348  30.863  1.00  0.00     0.009 A 
ATOM     71  C   UNL A   1      44.032  33.968  33.549  1.00  0.00     0.001 A 
ATOM     72  C   UNL A   1      44.716  34.639  31.332  1.00  0.00     0.001 A 
ATOM     73  C   UNL A   1      44.489  34.950  32.672  1.00  0.00     0.000 A 
ENDBRANCH  54  68
BRANCH  55  74
ATOM     74  C   UNL A   1      42.031  23.462  27.657  1.00  0.00    -0.014 A 
ATOM     75  C   UNL A   1      42.403  23.240  26.323  1.00  0.00     0.009 A 
ATOM     76  C   UNL A   1      41.414  22.424  28.374  1.00  0.00     0.009 A 
ATOM     77  C   UNL A   1      42.144  22.011  25.712  1.00  0.00     0.001 A 
ATOM     78  C   UNL A   1      41.180  21.188  27.768  1.00  0.00     0.001 A 
ATOM     79  C   UNL A   1      41.540  20.984  26.436  1.00  0.00     0.000 A 
ENDBRANCH  55  74
BRANCH  67  80
ATOM     80  C   UNL A   1      47.622  26.180  30.796  1.00  0.00    -0.014 A 
ATOM     81  C   UNL A   1      48.639  26.188  29.828  1.00  0.00     0.009 A 
ATOM     82  C   UNL A   1      47.904  25.679  32.076  1.00  0.00     0.009 A 
ATOM     83  C   UNL A   1      49.902  25.677  30.129  1.00  0.00     0.001 A 
ATOM     84  C   UNL A   1      49.176  25.193  32.382  1.00  0.00     0.001 A 
ATOM     85  C   UNL A   1      50.171  25.184  31.406  1.00  0.00     0.000 A 
ENDBRANCH  67  80
ENDBRANCH  41  42
ENDBRANCH  33  36
ENDBRANCH  31  32
ENDBRANCH  30  31
ENDBRANCH  29  30
ENDBRANCH   1  29
TORSDOF 16
ENDMDL
MODEL 3
REMARK VINA RESULT:     -11.0      2.596      7.255
REMARK SMILES [NH3+][C@H]1C=C[C@H](C(=O)N2CCCc3c(C(=O)NCCCCCCNC(=O)c4ccc(-c5c6nc(c(-c7ccccc7)c7ccc([nH]7)c(-c7ccccc7)c7nc(c(-c8ccccc8)c8ccc5[nH]8)C=C7)C=C6)cc4)cccc32)C1
REMARK SMILES IDX 19 1 18 2 17 3 16 4 14 5 15 6 13 8 8 9 9 10 77 11 10 12
REMARK SMILES IDX 12 13 76 14 11 15 75 16 74 17 6 18 7 19 5 20 2 21 3 22 78 23
REMARK SMILES IDX 4 24 1 25 20 29 21 30 22 31 23 32 24 33 25 35 26 36 27 37
REMARK SMILES IDX 73 38 28 39 72 40 29 41 30 42 31 43 66 44 32 45 71 46 65 47
REMARK SMILES IDX 67 48 33 49 70 50 64 51 63 52 34 54 56 55 41 56 55 57 42 58
REMARK SMILES IDX 45 59 54 60 68 61 43 62 44 63 53 65 69 66 46 67 35 68 36 69
REMARK SMILES IDX 40 70 37 71 39 72 38 73 57 74 58 75 62 76 59 77 61 78 60 79
REMARK SMILES IDX 47 80 48 81 52 82 49 83 51 84 50 85
REMARK H PARENT 16 7 1 26 1 27 1 28 23 34 67 53 45 64
REMARK Flexibility Score: inf
ROOT
ATOM      1  C   UNL A   1      34.123  22.542  27.163  1.00  0.00     0.002 C 
ENDROOT
BRANCH   1   2
ATOM      2  C   UNL A   1      33.853  21.110  26.699  1.00  0.00     0.021 C 
BRANCH   2   3
ATOM      3  C   UNL A   1      34.563  20.726  25.392  1.00  0.00     0.116 C 
BRANCH   3   4
ATOM      4  N   UNL A   1      33.603  20.622  24.311  1.00  0.00    -0.352 N 
ATOM      5  C   UNL A   1      32.535  21.303  23.806  1.00  0.00     0.251 C 
ATOM      6  O   UNL A   1      32.047  20.749  22.809  1.00  0.00    -0.269 OA
ATOM      7  H   UNL A   1      33.775  19.813  23.778  1.00  0.00     0.163 HD
BRANCH   5   8
ATOM      8  C   UNL A   1      31.906  22.602  24.244  1.00  0.00     0.045 A 
ATOM      9  N   UNL A   1      31.727  26.389  24.119  1.00  0.00    -0.312 N 
ATOM     10  C   UNL A   1      32.344  26.605  22.821  1.00  0.00     0.126 C 
ATOM     11  C   UNL A   1      31.543  25.024  24.541  1.00  0.00     0.048 A 
ATOM     12  C   UNL A   1      33.567  25.728  22.678  1.00  0.00     0.027 C 
ATOM     13  C   UNL A   1      32.170  23.941  23.849  1.00  0.00    -0.011 A 
ATOM     14  C   UNL A   1      30.701  24.761  25.630  1.00  0.00     0.027 A 
ATOM     15  C   UNL A   1      33.138  24.274  22.755  1.00  0.00     0.040 C 
ATOM     16  C   UNL A   1      30.432  23.461  26.020  1.00  0.00     0.003 A 
ATOM     17  C   UNL A   1      31.015  22.407  25.328  1.00  0.00     0.014 A 
BRANCH   9  18
ATOM     18  C   UNL A   1      31.547  27.446  25.012  1.00  0.00     0.234 C 
ATOM     19  O   UNL A   1      30.770  28.378  24.776  1.00  0.00    -0.274 OA
BRANCH  18  20
ATOM     20  C   UNL A   1      32.429  27.515  26.274  1.00  0.00     0.108 C 
ATOM     21  C   UNL A   1      33.488  29.639  26.869  1.00  0.00     0.205 C 
ATOM     22  C   UNL A   1      34.496  28.616  26.459  1.00  0.00     0.033 C 
ATOM     23  C   UNL A   1      32.220  28.802  27.084  1.00  0.00     0.087 C 
ATOM     24  C   UNL A   1      33.916  27.460  26.110  1.00  0.00    -0.012 C 
BRANCH  21  25
ATOM     25  N   UNL A   1      33.872  30.354  28.068  1.00  0.00    -0.352 N 
ATOM     26  H   UNL A   1      34.459  29.754  28.647  1.00  0.00     0.345 HD
ATOM     27  H   UNL A   1      33.036  30.617  28.589  1.00  0.00     0.345 HD
ATOM     28  H   UNL A   1      34.392  31.193  27.811  1.00  0.00     0.345 HD
ENDBRANCH  21  25
ENDBRANCH  18  20
ENDBRANCH   9  18
ENDBRANCH   5   8
ENDBRANCH   3   4
ENDBRANCH   2   3
ENDBRANCH   1   2
BRANCH   1  29
ATOM     29  C   UNL A   1      35.553  23.021  26.906  1.00  0.00     0.002 C 
BRANCH  29  30
ATOM     30  C   UNL A   1      35.717  23.991  25.730  1.00  0.00     0.021 C 
BRANCH  30  31
ATOM     31  C   UNL A   1      36.941  23.742  24.848  1.00  0.00     0.116 C 
BRANCH  31  32
ATOM     32  N   UNL A   1      37.802  22.707  25.394  1.00  0.00    -0.352 N 
ATOM     33  C   UNL A   1      38.951  22.815  26.136  1.00  0.00     0.251 C 
ATOM     34  H   UNL A   1      37.517  21.784  25.202  1.00  0.00     0.163 HD
ATOM     35  O   UNL A   1      39.674  21.837  26.296  1.00  0.00    -0.269 OA
BRANCH  33  36
ATOM     36  C   UNL A   1      39.324  24.109  26.745  1.00  0.00     0.039 A 
ATOM     37  C   UNL A   1      38.896  24.392  28.046  1.00  0.00     0.014 A 
ATOM     38  C   UNL A   1      40.049  25.059  26.021  1.00  0.00     0.014 A 
ATOM     39  C   UNL A   1      39.240  25.608  28.639  1.00  0.00     0.010 A 
ATOM     40  C   UNL A   1      40.447  26.243  26.636  1.00  0.00     0.010 A 
ATOM     41  C   UNL A   1      40.040  26.532  27.947  1.00  0.00    -0.014 A 
BRANCH  41  42
ATOM     42  C   UNL A   1      40.461  27.806  28.581  1.00  0.00     0.031 A 
ATOM     43  C   UNL A   1      41.850  27.955  29.136  1.00  0.00     0.074 A 
ATOM     44  C   UNL A   1      39.567  28.802  28.723  1.00  0.00     0.049 A 
ATOM     45  N   UNL A   1      42.379  28.969  29.772  1.00  0.00    -0.248 NA
ATOM     46  C   UNL A   1      42.753  26.803  28.982  1.00  0.00     0.031 C 
ATOM     47  C   UNL A   1      38.174  28.760  28.275  1.00  0.00     0.029 A 
ATOM     48  N   UNL A   1      39.695  30.041  29.298  1.00  0.00    -0.354 N 
ATOM     49  C   UNL A   1      43.666  28.569  30.114  1.00  0.00     0.074 A 
ATOM     50  C   UNL A   1      43.822  27.207  29.654  1.00  0.00     0.031 C 
ATOM     51  C   UNL A   1      37.581  29.927  28.574  1.00  0.00     0.029 A 
ATOM     52  C   UNL A   1      38.541  30.784  29.264  1.00  0.00     0.049 A 
ATOM     53  H   UNL A   1      40.534  30.367  29.696  1.00  0.00     0.167 HD
ATOM     54  C   UNL A   1      44.635  29.278  30.743  1.00  0.00     0.031 A 
ATOM     55  C   UNL A   1      38.280  32.015  29.740  1.00  0.00     0.031 A 
ATOM     56  C   UNL A   1      44.484  30.639  31.185  1.00  0.00     0.049 A 
ATOM     57  C   UNL A   1      39.375  32.789  30.417  1.00  0.00     0.074 A 
ATOM     58  C   UNL A   1      45.430  31.469  31.758  1.00  0.00     0.029 A 
ATOM     59  N   UNL A   1      43.306  31.366  31.108  1.00  0.00    -0.354 N 
ATOM     60  N   UNL A   1      40.612  32.428  30.658  1.00  0.00    -0.248 NA
ATOM     61  C   UNL A   1      39.041  34.145  30.875  1.00  0.00     0.031 C 
ATOM     62  C   UNL A   1      44.811  32.683  32.075  1.00  0.00     0.029 A 
ATOM     63  C   UNL A   1      43.493  32.626  31.650  1.00  0.00     0.049 A 
ATOM     64  H   UNL A   1      42.462  31.036  30.724  1.00  0.00     0.167 HD
ATOM     65  C   UNL A   1      41.210  33.518  31.276  1.00  0.00     0.074 A 
ATOM     66  C   UNL A   1      40.205  34.558  31.358  1.00  0.00     0.031 C 
ATOM     67  C   UNL A   1      42.479  33.646  31.734  1.00  0.00     0.031 A 
BRANCH  54  68
ATOM     68  C   UNL A   1      45.943  28.582  31.000  1.00  0.00    -0.014 A 
ATOM     69  C   UNL A   1      46.165  27.857  32.182  1.00  0.00     0.009 A 
ATOM     70  C   UNL A   1      46.960  28.634  30.035  1.00  0.00     0.009 A 
ATOM     71  C   UNL A   1      47.394  27.234  32.410  1.00  0.00     0.001 A 
ATOM     72  C   UNL A   1      48.177  27.986  30.252  1.00  0.00     0.001 A 
ATOM     73  C   UNL A   1      48.397  27.296  31.444  1.00  0.00     0.000 A 
ENDBRANCH  54  68
BRANCH  55  74
ATOM     74  C   UNL A   1      36.922  32.596  29.575  1.00  0.00    -0.014 A 
ATOM     75  C   UNL A   1      36.576  33.276  28.398  1.00  0.00     0.009 A 
ATOM     76  C   UNL A   1      35.960  32.455  30.588  1.00  0.00     0.009 A 
ATOM     77  C   UNL A   1      35.299  33.820  28.245  1.00  0.00     0.001 A 
ATOM     78  C   UNL A   1      34.676  32.978  30.422  1.00  0.00     0.001 A 
ATOM     79  C   UNL A   1      34.348  33.665  29.253  1.00  0.00     0.000 A 
ENDBRANCH  55  74
BRANCH  67  80
ATOM     80  C   UNL A   1      42.855  34.964  32.348  1.00  0.00    -0.014 A 
ATOM     81  C   UNL A   1      43.454  35.978  31.585  1.00  0.00     0.009 A 
ATOM     82  C   UNL A   1      42.570  35.207  33.700  1.00  0.00     0.009 A 
ATOM     83  C   UNL A   1      43.788  37.199  32.172  1.00  0.00     0.001 A 
ATOM     84  C   UNL A   1      42.880  36.438  34.279  1.00  0.00     0.001 A 
ATOM     85  C   UNL A   1      43.496  37.430  33.517  1.00  0.00     0.000 A 
ENDBRANCH  67  80
ENDBRANCH  41  42
ENDBRANCH  33  36
ENDBRANCH  31  32
ENDBRANCH  30  31
ENDBRANCH  29  30
ENDBRANCH   1  29
TORSDOF 16
ENDMDL
