MODEL 1
REMARK VINA RESULT:      -9.4      0.000      0.000
REMARK SMILES Cc1nc(N2CCN(c3ccccc3)CC2)nc(OCC(=O)NCCCCCCNC(=O)c2ccc(-c3c4nc(c(-c5ccccc5)c5ccc([nH]5)c(-c5ccccc5)c5nc(c(-c6ccccc6)c6ccc3[nH]6)C=C5)C=C4)cc2)c1C
REMARK SMILES IDX 25 1 24 2 23 3 21 4 22 5 20 7 19 8 18 9 1 10 2 11 3 12 81 13
REMARK SMILES IDX 4 14 82 15 17 16 5 17 6 18 16 19 7 20 15 21 8 22 9 23 10 24
REMARK SMILES IDX 14 25 11 26 13 27 12 28 26 29 27 30 28 31 29 32 30 33 31 34
REMARK SMILES IDX 32 36 33 37 34 38 80 39 35 40 79 41 36 42 37 43 38 44 73 45
REMARK SMILES IDX 39 46 78 47 72 48 74 49 40 50 77 51 71 52 70 53 41 55 63 56
REMARK SMILES IDX 48 57 62 58 49 59 52 60 61 61 75 62 50 63 51 64 60 66 76 67
REMARK SMILES IDX 53 68 42 69 43 70 47 71 44 72 46 73 45 74 64 75 65 76 69 77
REMARK SMILES IDX 66 78 68 79 67 80 54 81 55 82 59 83 56 84 58 85 57 86
REMARK H PARENT 23 6 30 35 74 54 52 65
REMARK Flexibility Score: inf
ROOT
ATOM      1  C   UNL A   1      45.828  21.774  25.236  1.00  0.00     0.021 C 
ENDROOT
BRANCH   1   2
ATOM      2  C   UNL A   1      45.957  23.015  24.355  1.00  0.00     0.116 C 
BRANCH   2   3
ATOM      3  N   UNL A   1      44.882  23.960  24.574  1.00  0.00    -0.353 N 
ATOM      4  C   UNL A   1      44.945  25.212  25.106  1.00  0.00     0.258 C 
ATOM      5  O   UNL A   1      43.934  25.917  25.060  1.00  0.00    -0.271 OA
ATOM      6  H   UNL A   1      43.987  23.657  24.301  1.00  0.00     0.163 HD
BRANCH   4   7
ATOM      7  C   UNL A   1      46.261  25.743  25.681  1.00  0.00     0.331 C 
BRANCH   7   8
ATOM      8  O   UNL A   1      46.964  26.765  25.028  1.00  0.00    -0.467 OA
BRANCH   8   9
ATOM      9  C   UNL A   1      47.706  27.725  25.624  1.00  0.00     0.221 A 
ATOM     10  C   UNL A   1      50.935  29.224  26.831  1.00  0.00     0.067 C 
ATOM     11  C   UNL A   1      49.499  28.984  26.452  1.00  0.00     0.050 A 
ATOM     12  N   UNL A   1      48.681  30.032  26.682  1.00  0.00    -0.218 NA
ATOM     13  C   UNL A   1      49.060  27.768  25.914  1.00  0.00     0.033 A 
ATOM     14  C   UNL A   1      47.384  29.869  26.439  1.00  0.00     0.229 A 
ATOM     15  C   UNL A   1      50.056  26.687  25.653  1.00  0.00     0.052 C 
ATOM     16  N   UNL A   1      46.879  28.742  25.938  1.00  0.00    -0.177 NA
BRANCH  14  17
ATOM     17  N   UNL A   1      46.519  30.916  26.614  1.00  0.00    -0.337 N 
ATOM     18  C   UNL A   1      47.032  32.166  27.165  1.00  0.00     0.141 C 
ATOM     19  C   UNL A   1      45.133  30.589  26.954  1.00  0.00     0.141 C 
ATOM     20  C   UNL A   1      46.128  33.325  26.686  1.00  0.00     0.138 C 
ATOM     21  C   UNL A   1      44.189  31.759  26.584  1.00  0.00     0.138 C 
ATOM     22  N   UNL A   1      44.732  33.049  27.056  1.00  0.00    -0.368 N 
BRANCH  22  23
ATOM     23  C   UNL A   1      43.875  34.085  27.362  1.00  0.00     0.037 A 
ATOM     24  C   UNL A   1      43.326  34.258  28.638  1.00  0.00     0.026 A 
ATOM     25  C   UNL A   1      43.475  34.972  26.354  1.00  0.00     0.026 A 
ATOM     26  C   UNL A   1      42.390  35.265  28.894  1.00  0.00     0.002 A 
ATOM     27  C   UNL A   1      42.527  35.969  26.596  1.00  0.00     0.002 A 
ATOM     28  C   UNL A   1      41.980  36.112  27.868  1.00  0.00     0.000 A 
ENDBRANCH  22  23
ENDBRANCH  14  17
ENDBRANCH   8   9
ENDBRANCH   7   8
ENDBRANCH   4   7
ENDBRANCH   2   3
ENDBRANCH   1   2
BRANCH   1  29
ATOM     29  C   UNL A   1      45.870  20.434  24.488  1.00  0.00     0.002 C 
BRANCH  29  30
ATOM     30  C   UNL A   1      44.536  19.692  24.359  1.00  0.00     0.002 C 
BRANCH  30  31
ATOM     31  C   UNL A   1      44.347  18.503  25.300  1.00  0.00     0.021 C 
BRANCH  31  32
ATOM     32  C   UNL A   1      43.334  18.723  26.417  1.00  0.00     0.116 C 
BRANCH  32  33
ATOM     33  N   UNL A   1      41.963  18.668  25.939  1.00  0.00    -0.352 N 
ATOM     34  C   UNL A   1      40.957  19.596  26.072  1.00  0.00     0.251 C 
ATOM     35  H   UNL A   1      41.719  17.850  25.449  1.00  0.00     0.163 HD
ATOM     36  O   UNL A   1      39.808  19.315  25.758  1.00  0.00    -0.269 OA
BRANCH  34  37
ATOM     37  C   UNL A   1      41.263  20.934  26.624  1.00  0.00     0.039 A 
ATOM     38  C   UNL A   1      41.106  21.152  27.994  1.00  0.00     0.014 A 
ATOM     39  C   UNL A   1      41.704  21.967  25.792  1.00  0.00     0.014 A 
ATOM     40  C   UNL A   1      41.449  22.390  28.541  1.00  0.00     0.010 A 
ATOM     41  C   UNL A   1      42.116  23.175  26.348  1.00  0.00     0.010 A 
ATOM     42  C   UNL A   1      41.987  23.400  27.725  1.00  0.00    -0.014 A 
BRANCH  42  43
ATOM     43  C   UNL A   1      42.403  24.705  28.297  1.00  0.00     0.031 A 
ATOM     44  C   UNL A   1      41.407  25.823  28.424  1.00  0.00     0.074 A 
ATOM     45  C   UNL A   1      43.685  24.895  28.667  1.00  0.00     0.049 A 
ATOM     46  N   UNL A   1      41.588  27.043  28.863  1.00  0.00    -0.248 NA
ATOM     47  C   UNL A   1      40.030  25.542  27.983  1.00  0.00     0.031 C 
ATOM     48  C   UNL A   1      44.750  23.896  28.578  1.00  0.00     0.029 A 
ATOM     49  N   UNL A   1      44.307  25.998  29.197  1.00  0.00    -0.354 N 
ATOM     50  C   UNL A   1      40.355  27.670  28.749  1.00  0.00     0.074 A 
ATOM     51  C   UNL A   1      39.447  26.720  28.146  1.00  0.00     0.031 C 
ATOM     52  C   UNL A   1      45.884  24.418  29.073  1.00  0.00     0.029 A 
ATOM     53  C   UNL A   1      45.639  25.801  29.472  1.00  0.00     0.049 A 
ATOM     54  H   UNL A   1      43.843  26.851  29.365  1.00  0.00     0.167 HD
ATOM     55  C   UNL A   1      40.000  28.917  29.137  1.00  0.00     0.031 A 
ATOM     56  C   UNL A   1      46.560  26.638  29.986  1.00  0.00     0.031 A 
ATOM     57  C   UNL A   1      40.901  29.862  29.739  1.00  0.00     0.049 A 
ATOM     58  C   UNL A   1      46.153  28.037  30.360  1.00  0.00     0.074 A 
ATOM     59  C   UNL A   1      40.628  31.140  30.195  1.00  0.00     0.029 A 
ATOM     60  N   UNL A   1      42.248  29.634  29.970  1.00  0.00    -0.354 N 
ATOM     61  N   UNL A   1      44.971  28.600  30.289  1.00  0.00    -0.248 NA
ATOM     62  C   UNL A   1      47.207  28.914  30.889  1.00  0.00     0.031 C 
ATOM     63  C   UNL A   1      41.823  31.706  30.649  1.00  0.00     0.029 A 
ATOM     64  C   UNL A   1      42.826  30.757  30.536  1.00  0.00     0.049 A 
ATOM     65  H   UNL A   1      42.724  28.797  29.762  1.00  0.00     0.167 HD
ATOM     66  C   UNL A   1      45.133  29.887  30.787  1.00  0.00     0.074 A 
ATOM     67  C   UNL A   1      46.523  30.014  31.174  1.00  0.00     0.031 C 
ATOM     68  C   UNL A   1      44.212  30.872  30.913  1.00  0.00     0.031 A 
BRANCH  55  69
ATOM     69  C   UNL A   1      38.570  29.333  28.926  1.00  0.00    -0.014 A 
ATOM     70  C   UNL A   1      38.128  29.788  27.673  1.00  0.00     0.009 A 
ATOM     71  C   UNL A   1      37.641  29.211  29.971  1.00  0.00     0.009 A 
ATOM     72  C   UNL A   1      36.790  30.138  27.479  1.00  0.00     0.001 A 
ATOM     73  C   UNL A   1      36.298  29.533  29.765  1.00  0.00     0.001 A 
ATOM     74  C   UNL A   1      35.876  30.003  28.523  1.00  0.00     0.000 A 
ENDBRANCH  55  69
BRANCH  56  75
ATOM     75  C   UNL A   1      47.952  26.165  30.203  1.00  0.00    -0.014 A 
ATOM     76  C   UNL A   1      48.359  25.712  31.467  1.00  0.00     0.009 A 
ATOM     77  C   UNL A   1      48.878  26.149  29.147  1.00  0.00     0.009 A 
ATOM     78  C   UNL A   1      49.668  25.268  31.674  1.00  0.00     0.001 A 
ATOM     79  C   UNL A   1      50.178  25.676  29.350  1.00  0.00     0.001 A 
ATOM     80  C   UNL A   1      50.573  25.243  30.614  1.00  0.00     0.000 A 
ENDBRANCH  56  75
BRANCH  68  81
ATOM     81  C   UNL A   1      44.664  32.176  31.508  1.00  0.00    -0.014 A 
ATOM     82  C   UNL A   1      44.396  32.495  32.848  1.00  0.00     0.009 A 
ATOM     83  C   UNL A   1      45.434  33.063  30.738  1.00  0.00     0.009 A 
ATOM     84  C   UNL A   1      44.871  33.687  33.399  1.00  0.00     0.001 A 
ATOM     85  C   UNL A   1      45.935  34.238  31.300  1.00  0.00     0.001 A 
ATOM     86  C   UNL A   1      45.647  34.552  32.627  1.00  0.00     0.000 A 
ENDBRANCH  68  81
ENDBRANCH  42  43
ENDBRANCH  34  37
ENDBRANCH  32  33
ENDBRANCH  31  32
ENDBRANCH  30  31
ENDBRANCH  29  30
ENDBRANCH   1  29
TORSDOF 17
ENDMDL
MODEL 2
REMARK VINA RESULT:      -9.2      5.318     11.651
REMARK SMILES Cc1nc(N2CCN(c3ccccc3)CC2)nc(OCC(=O)NCCCCCCNC(=O)c2ccc(-c3c4nc(c(-c5ccccc5)c5ccc([nH]5)c(-c5ccccc5)c5nc(c(-c6ccccc6)c6ccc3[nH]6)C=C5)C=C4)cc2)c1C
REMARK SMILES IDX 25 1 24 2 23 3 21 4 22 5 20 7 19 8 18 9 1 10 2 11 3 12 81 13
REMARK SMILES IDX 4 14 82 15 17 16 5 17 6 18 16 19 7 20 15 21 8 22 9 23 10 24
REMARK SMILES IDX 14 25 11 26 13 27 12 28 26 29 27 30 28 31 29 32 30 33 31 34
REMARK SMILES IDX 32 36 33 37 34 38 80 39 35 40 79 41 36 42 37 43 38 44 73 45
REMARK SMILES IDX 39 46 78 47 72 48 74 49 40 50 77 51 71 52 70 53 41 55 63 56
REMARK SMILES IDX 48 57 62 58 49 59 52 60 61 61 75 62 50 63 51 64 60 66 76 67
REMARK SMILES IDX 53 68 42 69 43 70 47 71 44 72 46 73 45 74 64 75 65 76 69 77
REMARK SMILES IDX 66 78 68 79 67 80 54 81 55 82 59 83 56 84 58 85 57 86
REMARK H PARENT 23 6 30 35 74 54 52 65
REMARK Flexibility Score: inf
ROOT
ATOM      1  C   UNL A   1      35.166  35.199  32.888  1.00  0.00     0.021 C 
ENDROOT
BRANCH   1   2
ATOM      2  C   UNL A   1      34.898  33.855  33.562  1.00  0.00     0.116 C 
BRANCH   2   3
ATOM      3  N   UNL A   1      35.307  33.843  34.950  1.00  0.00    -0.353 N 
ATOM      4  C   UNL A   1      36.468  33.382  35.492  1.00  0.00     0.258 C 
ATOM      5  O   UNL A   1      36.687  33.608  36.684  1.00  0.00    -0.271 OA
ATOM      6  H   UNL A   1      34.658  34.218  35.589  1.00  0.00     0.163 HD
BRANCH   4   7
ATOM      7  C   UNL A   1      37.498  32.664  34.616  1.00  0.00     0.331 C 
BRANCH   7   8
ATOM      8  O   UNL A   1      38.413  31.764  35.182  1.00  0.00    -0.467 OA
BRANCH   8   9
ATOM      9  C   UNL A   1      38.833  30.606  34.628  1.00  0.00     0.221 A 
ATOM     10  C   UNL A   1      38.707  27.856  32.068  1.00  0.00     0.067 C 
ATOM     11  C   UNL A   1      39.094  28.766  33.201  1.00  0.00     0.050 A 
ATOM     12  N   UNL A   1      40.230  28.411  33.836  1.00  0.00    -0.218 NA
ATOM     13  C   UNL A   1      38.326  29.880  33.561  1.00  0.00     0.033 A 
ATOM     14  C   UNL A   1      40.597  29.128  34.895  1.00  0.00     0.229 A 
ATOM     15  C   UNL A   1      37.110  30.214  32.761  1.00  0.00     0.052 C 
ATOM     16  N   UNL A   1      39.919  30.196  35.313  1.00  0.00    -0.177 NA
BRANCH  14  17
ATOM     17  N   UNL A   1      41.764  28.836  35.546  1.00  0.00    -0.337 N 
ATOM     18  C   UNL A   1      41.930  27.509  36.131  1.00  0.00     0.141 C 
ATOM     19  C   UNL A   1      42.428  29.933  36.254  1.00  0.00     0.141 C 
ATOM     20  C   UNL A   1      43.440  27.190  36.213  1.00  0.00     0.138 C 
ATOM     21  C   UNL A   1      43.933  29.624  36.453  1.00  0.00     0.138 C 
ATOM     22  N   UNL A   1      44.130  28.251  36.961  1.00  0.00    -0.368 N 
BRANCH  22  23
ATOM     23  C   UNL A   1      45.237  27.956  37.729  1.00  0.00     0.037 A 
ATOM     24  C   UNL A   1      45.312  26.813  38.535  1.00  0.00     0.026 A 
ATOM     25  C   UNL A   1      46.311  28.853  37.768  1.00  0.00     0.026 A 
ATOM     26  C   UNL A   1      46.411  26.588  39.371  1.00  0.00     0.002 A 
ATOM     27  C   UNL A   1      47.403  28.645  38.613  1.00  0.00     0.002 A 
ATOM     28  C   UNL A   1      47.451  27.512  39.420  1.00  0.00     0.000 A 
ENDBRANCH  22  23
ENDBRANCH  14  17
ENDBRANCH   8   9
ENDBRANCH   7   8
ENDBRANCH   4   7
ENDBRANCH   2   3
ENDBRANCH   1   2
BRANCH   1  29
ATOM     29  C   UNL A   1      34.234  36.343  33.314  1.00  0.00     0.002 C 
BRANCH  29  30
ATOM     30  C   UNL A   1      33.798  37.305  32.205  1.00  0.00     0.002 C 
BRANCH  30  31
ATOM     31  C   UNL A   1      32.855  36.719  31.155  1.00  0.00     0.021 C 
BRANCH  31  32
ATOM     32  C   UNL A   1      33.477  36.512  29.779  1.00  0.00     0.116 C 
BRANCH  32  33
ATOM     33  N   UNL A   1      32.667  35.655  28.928  1.00  0.00    -0.352 N 
ATOM     34  C   UNL A   1      32.988  34.451  28.348  1.00  0.00     0.251 C 
ATOM     35  H   UNL A   1      31.758  35.985  28.741  1.00  0.00     0.163 HD
ATOM     36  O   UNL A   1      32.245  33.945  27.517  1.00  0.00    -0.269 OA
BRANCH  34  37
ATOM     37  C   UNL A   1      34.253  33.776  28.713  1.00  0.00     0.039 A 
ATOM     38  C   UNL A   1      35.386  33.994  27.927  1.00  0.00     0.014 A 
ATOM     39  C   UNL A   1      34.319  32.933  29.826  1.00  0.00     0.014 A 
ATOM     40  C   UNL A   1      36.603  33.415  28.293  1.00  0.00     0.010 A 
ATOM     41  C   UNL A   1      35.547  32.418  30.232  1.00  0.00     0.010 A 
ATOM     42  C   UNL A   1      36.698  32.648  29.466  1.00  0.00    -0.014 A 
BRANCH  42  43
ATOM     43  C   UNL A   1      37.993  32.065  29.897  1.00  0.00     0.031 A 
ATOM     44  C   UNL A   1      38.871  32.811  30.862  1.00  0.00     0.074 A 
ATOM     45  C   UNL A   1      38.396  30.883  29.391  1.00  0.00     0.049 A 
ATOM     46  N   UNL A   1      40.050  32.483  31.328  1.00  0.00    -0.248 NA
ATOM     47  C   UNL A   1      38.368  34.104  31.357  1.00  0.00     0.031 C 
ATOM     48  C   UNL A   1      37.644  30.070  28.434  1.00  0.00     0.029 A 
ATOM     49  N   UNL A   1      39.539  30.158  29.617  1.00  0.00    -0.354 N 
ATOM     50  C   UNL A   1      40.426  33.526  32.164  1.00  0.00     0.074 A 
ATOM     51  C   UNL A   1      39.382  34.523  32.099  1.00  0.00     0.031 C 
ATOM     52  C   UNL A   1      38.327  28.941  28.185  1.00  0.00     0.029 A 
ATOM     53  C   UNL A   1      39.585  28.970  28.928  1.00  0.00     0.049 A 
ATOM     54  H   UNL A   1      40.260  30.460  30.217  1.00  0.00     0.167 HD
ATOM     55  C   UNL A   1      41.530  33.632  32.940  1.00  0.00     0.031 A 
ATOM     56  C   UNL A   1      40.531  28.012  28.894  1.00  0.00     0.031 A 
ATOM     57  C   UNL A   1      42.568  32.639  33.008  1.00  0.00     0.049 A 
ATOM     58  C   UNL A   1      41.773  28.179  29.725  1.00  0.00     0.074 A 
ATOM     59  C   UNL A   1      43.711  32.642  33.788  1.00  0.00     0.029 A 
ATOM     60  N   UNL A   1      42.590  31.467  32.269  1.00  0.00    -0.354 N 
ATOM     61  N   UNL A   1      42.093  29.149  30.546  1.00  0.00    -0.248 NA
ATOM     62  C   UNL A   1      42.783  27.115  29.626  1.00  0.00     0.031 C 
ATOM     63  C   UNL A   1      44.453  31.499  33.478  1.00  0.00     0.029 A 
ATOM     64  C   UNL A   1      43.741  30.753  32.554  1.00  0.00     0.049 A 
ATOM     65  H   UNL A   1      41.891  31.184  31.635  1.00  0.00     0.167 HD
ATOM     66  C   UNL A   1      43.327  28.802  31.081  1.00  0.00     0.074 A 
ATOM     67  C   UNL A   1      43.689  27.523  30.505  1.00  0.00     0.031 C 
ATOM     68  C   UNL A   1      44.090  29.483  31.970  1.00  0.00     0.031 A 
BRANCH  55  69
ATOM     69  C   UNL A   1      41.672  34.868  33.785  1.00  0.00    -0.014 A 
ATOM     70  C   UNL A   1      41.011  34.980  35.019  1.00  0.00     0.009 A 
ATOM     71  C   UNL A   1      42.524  35.905  33.375  1.00  0.00     0.009 A 
ATOM     72  C   UNL A   1      41.178  36.117  35.811  1.00  0.00     0.001 A 
ATOM     73  C   UNL A   1      42.712  37.028  34.183  1.00  0.00     0.001 A 
ATOM     74  C   UNL A   1      42.034  37.136  35.396  1.00  0.00     0.000 A 
ENDBRANCH  55  69
BRANCH  56  75
ATOM     75  C   UNL A   1      40.325  26.796  28.065  1.00  0.00    -0.014 A 
ATOM     76  C   UNL A   1      39.587  25.712  28.565  1.00  0.00     0.009 A 
ATOM     77  C   UNL A   1      40.851  26.715  26.765  1.00  0.00     0.009 A 
ATOM     78  C   UNL A   1      39.394  24.567  27.788  1.00  0.00     0.001 A 
ATOM     79  C   UNL A   1      40.630  25.581  25.979  1.00  0.00     0.001 A 
ATOM     80  C   UNL A   1      39.908  24.506  26.494  1.00  0.00     0.000 A 
ENDBRANCH  56  75
BRANCH  68  81
ATOM     81  C   UNL A   1      45.389  28.857  32.396  1.00  0.00    -0.014 A 
ATOM     82  C   UNL A   1      45.448  27.972  33.483  1.00  0.00     0.009 A 
ATOM     83  C   UNL A   1      46.555  29.097  31.650  1.00  0.00     0.009 A 
ATOM     84  C   UNL A   1      46.654  27.358  33.830  1.00  0.00     0.001 A 
ATOM     85  C   UNL A   1      47.750  28.457  31.979  1.00  0.00     0.001 A 
ATOM     86  C   UNL A   1      47.801  27.595  33.072  1.00  0.00     0.000 A 
ENDBRANCH  68  81
ENDBRANCH  42  43
ENDBRANCH  34  37
ENDBRANCH  32  33
ENDBRANCH  31  32
ENDBRANCH  30  31
ENDBRANCH  29  30
ENDBRANCH   1  29
TORSDOF 17
ENDMDL
MODEL 3
REMARK VINA RESULT:      -9.0      5.189     10.739
REMARK SMILES Cc1nc(N2CCN(c3ccccc3)CC2)nc(OCC(=O)NCCCCCCNC(=O)c2ccc(-c3c4nc(c(-c5ccccc5)c5ccc([nH]5)c(-c5ccccc5)c5nc(c(-c6ccccc6)c6ccc3[nH]6)C=C5)C=C4)cc2)c1C
REMARK SMILES IDX 25 1 24 2 23 3 21 4 22 5 20 7 19 8 18 9 1 10 2 11 3 12 81 13
REMARK SMILES IDX 4 14 82 15 17 16 5 17 6 18 16 19 7 20 15 21 8 22 9 23 10 24
REMARK SMILES IDX 14 25 11 26 13 27 12 28 26 29 27 30 28 31 29 32 30 33 31 34
REMARK SMILES IDX 32 36 33 37 34 38 80 39 35 40 79 41 36 42 37 43 38 44 73 45
REMARK SMILES IDX 39 46 78 47 72 48 74 49 40 50 77 51 71 52 70 53 41 55 63 56
REMARK SMILES IDX 48 57 62 58 49 59 52 60 61 61 75 62 50 63 51 64 60 66 76 67
REMARK SMILES IDX 53 68 42 69 43 70 47 71 44 72 46 73 45 74 64 75 65 76 69 77
REMARK SMILES IDX 66 78 68 79 67 80 54 81 55 82 59 83 56 84 58 85 57 86
REMARK H PARENT 23 6 30 35 74 54 52 65
REMARK Flexibility Score: inf
ROOT
ATOM      1  C   UNL A   1      39.447  23.335  26.846  1.00  0.00     0.021 C 
ENDROOT
BRANCH   1   2
ATOM      2  C   UNL A   1      38.055  23.763  26.387  1.00  0.00     0.116 C 
BRANCH   2   3
ATOM      3  N   UNL A   1      37.822  23.471  24.988  1.00  0.00    -0.353 N 
ATOM      4  C   UNL A   1      36.642  23.448  24.309  1.00  0.00     0.258 C 
ATOM      5  O   UNL A   1      36.676  23.330  23.082  1.00  0.00    -0.271 OA
ATOM      6  H   UNL A   1      38.623  23.263  24.457  1.00  0.00     0.163 HD
BRANCH   4   7
ATOM      7  C   UNL A   1      35.316  23.632  25.054  1.00  0.00     0.331 C 
BRANCH   7   8
ATOM      8  O   UNL A   1      34.189  24.137  24.391  1.00  0.00    -0.467 OA
BRANCH   8   9
ATOM      9  C   UNL A   1      32.925  24.143  24.867  1.00  0.00     0.221 A 
ATOM     10  C   UNL A   1      30.121  22.828  26.998  1.00  0.00     0.067 C 
ATOM     11  C   UNL A   1      30.982  23.651  26.080  1.00  0.00     0.050 A 
ATOM     12  N   UNL A   1      30.394  24.781  25.633  1.00  0.00    -0.218 NA
ATOM     13  C   UNL A   1      32.278  23.264  25.721  1.00  0.00     0.033 A 
ATOM     14  C   UNL A   1      31.068  25.525  24.760  1.00  0.00     0.229 A 
ATOM     15  C   UNL A   1      32.853  22.017  26.310  1.00  0.00     0.052 C 
ATOM     16  N   UNL A   1      32.302  25.223  24.356  1.00  0.00    -0.177 NA
BRANCH  14  17
ATOM     17  N   UNL A   1      30.535  26.703  24.311  1.00  0.00    -0.337 N 
ATOM     18  C   UNL A   1      29.429  26.657  23.361  1.00  0.00     0.141 C 
ATOM     19  C   UNL A   1      31.446  27.841  24.176  1.00  0.00     0.141 C 
ATOM     20  C   UNL A   1      28.605  27.957  23.497  1.00  0.00     0.138 C 
ATOM     21  C   UNL A   1      30.662  29.176  24.208  1.00  0.00     0.138 C 
ATOM     22  N   UNL A   1      29.484  29.121  23.318  1.00  0.00    -0.368 N 
BRANCH  22  23
ATOM     23  C   UNL A   1      28.999  30.279  22.748  1.00  0.00     0.037 A 
ATOM     24  C   UNL A   1      28.534  30.334  21.429  1.00  0.00     0.026 A 
ATOM     25  C   UNL A   1      29.025  31.473  23.480  1.00  0.00     0.026 A 
ATOM     26  C   UNL A   1      28.132  31.543  20.852  1.00  0.00     0.002 A 
ATOM     27  C   UNL A   1      28.643  32.688  22.906  1.00  0.00     0.002 A 
ATOM     28  C   UNL A   1      28.200  32.723  21.587  1.00  0.00     0.000 A 
ENDBRANCH  22  23
ENDBRANCH  14  17
ENDBRANCH   8   9
ENDBRANCH   7   8
ENDBRANCH   4   7
ENDBRANCH   2   3
ENDBRANCH   1   2
BRANCH   1  29
ATOM     29  C   UNL A   1      40.070  22.176  26.055  1.00  0.00     0.002 C 
BRANCH  29  30
ATOM     30  C   UNL A   1      40.988  21.237  26.844  1.00  0.00     0.002 C 
BRANCH  30  31
ATOM     31  C   UNL A   1      41.268  19.884  26.191  1.00  0.00     0.021 C 
BRANCH  31  32
ATOM     32  C   UNL A   1      42.625  19.279  26.527  1.00  0.00     0.116 C 
BRANCH  32  33
ATOM     33  N   UNL A   1      43.389  18.937  25.338  1.00  0.00    -0.352 N 
ATOM     34  C   UNL A   1      44.162  19.745  24.538  1.00  0.00     0.251 C 
ATOM     35  H   UNL A   1      43.347  17.992  25.067  1.00  0.00     0.163 HD
ATOM     36  O   UNL A   1      44.600  19.328  23.474  1.00  0.00    -0.269 OA
BRANCH  34  37
ATOM     37  C   UNL A   1      44.446  21.135  24.957  1.00  0.00     0.039 A 
ATOM     38  C   UNL A   1      43.908  22.187  24.214  1.00  0.00     0.014 A 
ATOM     39  C   UNL A   1      45.237  21.398  26.079  1.00  0.00     0.014 A 
ATOM     40  C   UNL A   1      44.113  23.504  24.630  1.00  0.00     0.010 A 
ATOM     41  C   UNL A   1      45.378  22.705  26.535  1.00  0.00     0.010 A 
ATOM     42  C   UNL A   1      44.823  23.770  25.813  1.00  0.00    -0.014 A 
BRANCH  42  43
ATOM     43  C   UNL A   1      45.010  25.161  26.297  1.00  0.00     0.031 A 
ATOM     44  C   UNL A   1      46.366  25.806  26.230  1.00  0.00     0.074 A 
ATOM     45  C   UNL A   1      43.969  25.829  26.833  1.00  0.00     0.049 A 
ATOM     46  N   UNL A   1      46.734  26.995  26.635  1.00  0.00    -0.248 NA
ATOM     47  C   UNL A   1      47.456  25.005  25.647  1.00  0.00     0.031 C 
ATOM     48  C   UNL A   1      42.609  25.307  26.971  1.00  0.00     0.029 A 
ATOM     49  N   UNL A   1      43.894  27.095  27.356  1.00  0.00    -0.354 N 
ATOM     50  C   UNL A   1      48.092  27.082  26.358  1.00  0.00     0.074 A 
ATOM     51  C   UNL A   1      48.497  25.808  25.806  1.00  0.00     0.031 C 
ATOM     52  C   UNL A   1      41.826  26.259  27.505  1.00  0.00     0.029 A 
ATOM     53  C   UNL A   1      42.637  27.440  27.789  1.00  0.00     0.049 A 
ATOM     54  H   UNL A   1      44.669  27.701  27.415  1.00  0.00     0.167 HD
ATOM     55  C   UNL A   1      48.924  28.137  26.523  1.00  0.00     0.031 A 
ATOM     56  C   UNL A   1      42.186  28.577  28.353  1.00  0.00     0.031 A 
ATOM     57  C   UNL A   1      48.522  29.404  27.069  1.00  0.00     0.049 A 
ATOM     58  C   UNL A   1      43.142  29.716  28.575  1.00  0.00     0.074 A 
ATOM     59  C   UNL A   1      49.285  30.545  27.248  1.00  0.00     0.029 A 
ATOM     60  N   UNL A   1      47.247  29.700  27.526  1.00  0.00    -0.354 N 
ATOM     61  N   UNL A   1      44.413  29.799  28.265  1.00  0.00    -0.248 NA
ATOM     62  C   UNL A   1      42.600  30.920  29.220  1.00  0.00     0.031 C 
ATOM     63  C   UNL A   1      48.487  31.512  27.865  1.00  0.00     0.029 A 
ATOM     64  C   UNL A   1      47.210  30.995  28.012  1.00  0.00     0.049 A 
ATOM     65  H   UNL A   1      46.482  29.080  27.508  1.00  0.00     0.167 HD
ATOM     66  C   UNL A   1      44.817  31.070  28.653  1.00  0.00     0.074 A 
ATOM     67  C   UNL A   1      43.651  31.729  29.204  1.00  0.00     0.031 C 
ATOM     68  C   UNL A   1      46.043  31.638  28.560  1.00  0.00     0.031 A 
BRANCH  55  69
ATOM     69  C   UNL A   1      50.358  27.966  26.102  1.00  0.00    -0.014 A 
ATOM     70  C   UNL A   1      50.775  28.300  24.803  1.00  0.00     0.009 A 
ATOM     71  C   UNL A   1      51.315  27.527  27.030  1.00  0.00     0.009 A 
ATOM     72  C   UNL A   1      52.114  28.171  24.435  1.00  0.00     0.001 A 
ATOM     73  C   UNL A   1      52.659  27.427  26.667  1.00  0.00     0.001 A 
ATOM     74  C   UNL A   1      53.056  27.742  25.369  1.00  0.00     0.000 A 
ENDBRANCH  55  69
BRANCH  56  75
ATOM     75  C   UNL A   1      40.751  28.702  28.722  1.00  0.00    -0.014 A 
ATOM     76  C   UNL A   1      39.823  29.208  27.800  1.00  0.00     0.009 A 
ATOM     77  C   UNL A   1      40.298  28.305  29.991  1.00  0.00     0.009 A 
ATOM     78  C   UNL A   1      38.475  29.329  28.144  1.00  0.00     0.001 A 
ATOM     79  C   UNL A   1      38.944  28.399  30.322  1.00  0.00     0.001 A 
ATOM     80  C   UNL A   1      38.035  28.917  29.402  1.00  0.00     0.000 A 
ENDBRANCH  56  75
BRANCH  68  81
ATOM     81  C   UNL A   1      46.194  33.052  29.048  1.00  0.00    -0.014 A 
ATOM     82  C   UNL A   1      45.985  34.142  28.190  1.00  0.00     0.009 A 
ATOM     83  C   UNL A   1      46.474  33.296  30.402  1.00  0.00     0.009 A 
ATOM     84  C   UNL A   1      46.076  35.449  28.674  1.00  0.00     0.001 A 
ATOM     85  C   UNL A   1      46.532  34.601  30.890  1.00  0.00     0.001 A 
ATOM     86  C   UNL A   1      46.341  35.677  30.025  1.00  0.00     0.000 A 
ENDBRANCH  68  81
ENDBRANCH  42  43
ENDBRANCH  34  37
ENDBRANCH  32  33
ENDBRANCH  31  32
ENDBRANCH  30  31
ENDBRANCH  29  30
ENDBRANCH   1  29
TORSDOF 17
ENDMDL
