MODEL 1
REMARK VINA RESULT:     -11.4      0.000      0.000
REMARK SMILES CC[C@@H](C)[C@H](C(=O)NCCCCCCNC(=O)c1ccc(-c2c3nc(c(-c4ccccc4)c4ccc([nH]4)c(-c4ccccc4)c4nc(c(-c5ccccc5)c5ccc2[nH]5)C=C4)C=C3)cc1)N1C(=O)/C(=C/c2ccc3c(c2)OCO3)SC1=S
REMARK SMILES IDX 11 1 10 2 9 3 8 4 6 5 7 6 5 8 3 9 4 10 2 11 1 12 66 13 67 14
REMARK SMILES IDX 81 15 68 16 69 17 80 18 82 19 70 20 71 21 72 22 76 23 73 24
REMARK SMILES IDX 75 25 74 26 77 27 79 28 78 29 12 30 13 31 14 32 15 33 16 34
REMARK SMILES IDX 17 36 18 37 19 38 65 39 20 40 64 41 21 42 22 43 23 44 58 45
REMARK SMILES IDX 24 46 63 47 57 48 59 49 25 50 62 51 56 52 55 53 26 55 48 56
REMARK SMILES IDX 33 57 47 58 34 59 37 60 46 61 60 62 35 63 36 64 45 66 61 67
REMARK SMILES IDX 38 68 27 69 28 70 32 71 29 72 31 73 30 74 49 75 50 76 54 77
REMARK SMILES IDX 51 78 53 79 52 80 39 81 40 82 44 83 41 84 43 85 42 86
REMARK H PARENT 8 7 15 35 59 54 37 65
REMARK Flexibility Score: inf
ROOT
ATOM      1  C   UNL A   1      32.725  29.722  25.950  1.00  0.00     0.002 C 
ENDROOT
BRANCH   1   2
ATOM      2  C   UNL A   1      32.599  28.216  26.161  1.00  0.00     0.021 C 
BRANCH   2   3
ATOM      3  C   UNL A   1      33.724  27.405  25.526  1.00  0.00     0.116 C 
BRANCH   3   4
ATOM      4  N   UNL A   1      33.957  26.160  26.224  1.00  0.00    -0.354 N 
ATOM      5  C   UNL A   1      33.833  24.860  25.852  1.00  0.00     0.243 C 
ATOM      6  O   UNL A   1      34.269  24.029  26.663  1.00  0.00    -0.273 OA
ATOM      7  H   UNL A   1      34.268  26.278  27.150  1.00  0.00     0.163 HD
BRANCH   5   8
ATOM      8  C   UNL A   1      33.282  24.346  24.487  1.00  0.00     0.184 C 
BRANCH   8   9
ATOM      9  C   UNL A   1      33.239  22.849  24.057  1.00  0.00     0.018 C 
ATOM     10  C   UNL A   1      34.600  22.134  24.110  1.00  0.00     0.010 C 
BRANCH   9  11
ATOM     11  C   UNL A   1      32.329  22.654  22.814  1.00  0.00     0.002 C 
ATOM     12  C   UNL A   1      31.988  21.224  22.434  1.00  0.00     0.004 C 
ENDBRANCH   9  11
ENDBRANCH   8   9
BRANCH   8  13
ATOM     13  N   UNL A   1      32.055  25.098  24.131  1.00  0.00    -0.280 N 
ATOM     14  C   UNL A   1      32.093  26.023  23.100  1.00  0.00     0.266 C 
ATOM     15  C   UNL A   1      30.881  25.049  24.860  1.00  0.00     0.149 C 
ATOM     16  O   UNL A   1      33.070  26.319  22.417  1.00  0.00    -0.268 OA
ATOM     17  C   UNL A   1      30.797  26.733  22.984  1.00  0.00     0.081 C 
ATOM     18  S   UNL A   1      29.740  26.228  24.241  1.00  0.00    -0.054 SA
ATOM     19  S   UNL A   1      30.501  24.096  26.179  1.00  0.00    -0.052 S 
ATOM     20  C   UNL A   1      30.598  27.716  22.091  1.00  0.00     0.029 C 
BRANCH  20  21
ATOM     21  C   UNL A   1      29.515  28.686  22.271  1.00  0.00    -0.020 A 
ATOM     22  C   UNL A   1      28.342  28.401  22.997  1.00  0.00     0.012 A 
ATOM     23  C   UNL A   1      29.796  29.996  21.855  1.00  0.00     0.058 A 
ATOM     24  C   UNL A   1      27.476  29.438  23.367  1.00  0.00     0.051 A 
ATOM     25  C   UNL A   1      28.956  30.993  22.280  1.00  0.00     0.166 A 
ATOM     26  C   UNL A   1      27.835  30.727  23.028  1.00  0.00     0.165 A 
ATOM     27  O   UNL A   1      29.166  32.325  22.103  1.00  0.00    -0.454 OA
ATOM     28  O   UNL A   1      27.204  31.869  23.417  1.00  0.00    -0.454 OA
ATOM     29  C   UNL A   1      28.184  32.852  23.017  1.00  0.00     0.468 C 
ENDBRANCH  20  21
ENDBRANCH   8  13
ENDBRANCH   5   8
ENDBRANCH   3   4
ENDBRANCH   2   3
ENDBRANCH   1   2
BRANCH   1  30
ATOM     30  C   UNL A   1      31.403  30.458  25.701  1.00  0.00     0.002 C 
BRANCH  30  31
ATOM     31  C   UNL A   1      31.269  31.832  26.368  1.00  0.00     0.021 C 
BRANCH  31  32
ATOM     32  C   UNL A   1      32.538  32.358  27.034  1.00  0.00     0.116 C 
BRANCH  32  33
ATOM     33  N   UNL A   1      32.370  33.710  27.535  1.00  0.00    -0.352 N 
ATOM     34  C   UNL A   1      33.078  34.400  28.483  1.00  0.00     0.251 C 
ATOM     35  H   UNL A   1      31.629  34.212  27.128  1.00  0.00     0.163 HD
ATOM     36  O   UNL A   1      32.637  35.458  28.918  1.00  0.00    -0.269 OA
BRANCH  34  37
ATOM     37  C   UNL A   1      34.363  33.878  28.991  1.00  0.00     0.039 A 
ATOM     38  C   UNL A   1      34.346  33.065  30.126  1.00  0.00     0.014 A 
ATOM     39  C   UNL A   1      35.581  34.224  28.395  1.00  0.00     0.014 A 
ATOM     40  C   UNL A   1      35.543  32.568  30.640  1.00  0.00     0.010 A 
ATOM     41  C   UNL A   1      36.769  33.667  28.865  1.00  0.00     0.010 A 
ATOM     42  C   UNL A   1      36.762  32.842  29.999  1.00  0.00    -0.014 A 
BRANCH  42  43
ATOM     43  C   UNL A   1      38.023  32.249  30.509  1.00  0.00     0.031 A 
ATOM     44  C   UNL A   1      38.722  32.830  31.705  1.00  0.00     0.074 A 
ATOM     45  C   UNL A   1      38.547  31.183  29.871  1.00  0.00     0.049 A 
ATOM     46  N   UNL A   1      39.799  32.402  32.317  1.00  0.00    -0.248 NA
ATOM     47  C   UNL A   1      38.158  34.062  32.278  1.00  0.00     0.031 C 
ATOM     48  C   UNL A   1      37.991  30.563  28.665  1.00  0.00     0.029 A 
ATOM     49  N   UNL A   1      39.656  30.428  30.154  1.00  0.00    -0.354 N 
ATOM     50  C   UNL A   1      40.041  33.312  33.338  1.00  0.00     0.074 A 
ATOM     51  C   UNL A   1      39.034  34.345  33.230  1.00  0.00     0.031 C 
ATOM     52  C   UNL A   1      38.736  29.496  28.340  1.00  0.00     0.029 A 
ATOM     53  C   UNL A   1      39.838  29.377  29.288  1.00  0.00     0.049 A 
ATOM     54  H   UNL A   1      40.263  30.620  30.905  1.00  0.00     0.167 HD
ATOM     55  C   UNL A   1      41.004  33.281  34.292  1.00  0.00     0.031 A 
ATOM     56  C   UNL A   1      40.782  28.419  29.264  1.00  0.00     0.031 A 
ATOM     57  C   UNL A   1      42.005  32.252  34.395  1.00  0.00     0.049 A 
ATOM     58  C   UNL A   1      41.836  28.405  30.334  1.00  0.00     0.074 A 
ATOM     59  C   UNL A   1      42.985  32.096  35.361  1.00  0.00     0.029 A 
ATOM     60  N   UNL A   1      42.162  31.209  33.495  1.00  0.00    -0.354 N 
ATOM     61  N   UNL A   1      41.998  29.223  31.346  1.00  0.00    -0.248 NA
ATOM     62  C   UNL A   1      42.829  27.325  30.265  1.00  0.00     0.031 C 
ATOM     63  C   UNL A   1      43.772  30.994  35.011  1.00  0.00     0.029 A 
ATOM     64  C   UNL A   1      43.243  30.425  33.864  1.00  0.00     0.049 A 
ATOM     65  H   UNL A   1      41.590  31.049  32.711  1.00  0.00     0.167 HD
ATOM     66  C   UNL A   1      43.097  28.746  32.046  1.00  0.00     0.074 A 
ATOM     67  C   UNL A   1      43.544  27.551  31.358  1.00  0.00     0.031 C 
ATOM     68  C   UNL A   1      43.689  29.252  33.156  1.00  0.00     0.031 A 
BRANCH  55  69
ATOM     69  C   UNL A   1      41.025  34.406  35.292  1.00  0.00    -0.014 A 
ATOM     70  C   UNL A   1      40.326  34.317  36.508  1.00  0.00     0.009 A 
ATOM     71  C   UNL A   1      41.785  35.557  35.032  1.00  0.00     0.009 A 
ATOM     72  C   UNL A   1      40.355  35.373  37.422  1.00  0.00     0.001 A 
ATOM     73  C   UNL A   1      41.837  36.598  35.961  1.00  0.00     0.001 A 
ATOM     74  C   UNL A   1      41.114  36.510  37.150  1.00  0.00     0.000 A 
ENDBRANCH  55  69
BRANCH  56  75
ATOM     75  C   UNL A   1      40.759  27.382  28.200  1.00  0.00    -0.014 A 
ATOM     76  C   UNL A   1      41.461  27.571  27.000  1.00  0.00     0.009 A 
ATOM     77  C   UNL A   1      40.036  26.192  28.382  1.00  0.00     0.009 A 
ATOM     78  C   UNL A   1      41.417  26.603  25.994  1.00  0.00     0.001 A 
ATOM     79  C   UNL A   1      40.020  25.213  27.388  1.00  0.00     0.001 A 
ATOM     80  C   UNL A   1      40.702  25.422  26.191  1.00  0.00     0.000 A 
ENDBRANCH  56  75
BRANCH  68  81
ATOM     81  C   UNL A   1      44.874  28.501  33.697  1.00  0.00    -0.014 A 
ATOM     82  C   UNL A   1      46.187  28.869  33.357  1.00  0.00     0.009 A 
ATOM     83  C   UNL A   1      44.676  27.417  34.567  1.00  0.00     0.009 A 
ATOM     84  C   UNL A   1      47.273  28.136  33.838  1.00  0.00     0.001 A 
ATOM     85  C   UNL A   1      45.766  26.707  35.074  1.00  0.00     0.001 A 
ATOM     86  C   UNL A   1      47.062  27.058  34.698  1.00  0.00     0.000 A 
ENDBRANCH  68  81
ENDBRANCH  42  43
ENDBRANCH  34  37
ENDBRANCH  32  33
ENDBRANCH  31  32
ENDBRANCH  30  31
ENDBRANCH   1  30
TORSDOF 17
ENDMDL
MODEL 2
REMARK VINA RESULT:     -11.1      2.026      5.164
REMARK SMILES CC[C@@H](C)[C@H](C(=O)NCCCCCCNC(=O)c1ccc(-c2c3nc(c(-c4ccccc4)c4ccc([nH]4)c(-c4ccccc4)c4nc(c(-c5ccccc5)c5ccc2[nH]5)C=C4)C=C3)cc1)N1C(=O)/C(=C/c2ccc3c(c2)OCO3)SC1=S
REMARK SMILES IDX 11 1 10 2 9 3 8 4 6 5 7 6 5 8 3 9 4 10 2 11 1 12 66 13 67 14
REMARK SMILES IDX 81 15 68 16 69 17 80 18 82 19 70 20 71 21 72 22 76 23 73 24
REMARK SMILES IDX 75 25 74 26 77 27 79 28 78 29 12 30 13 31 14 32 15 33 16 34
REMARK SMILES IDX 17 36 18 37 19 38 65 39 20 40 64 41 21 42 22 43 23 44 58 45
REMARK SMILES IDX 24 46 63 47 57 48 59 49 25 50 62 51 56 52 55 53 26 55 48 56
REMARK SMILES IDX 33 57 47 58 34 59 37 60 46 61 60 62 35 63 36 64 45 66 61 67
REMARK SMILES IDX 38 68 27 69 28 70 32 71 29 72 31 73 30 74 49 75 50 76 54 77
REMARK SMILES IDX 51 78 53 79 52 80 39 81 40 82 44 83 41 84 43 85 42 86
REMARK H PARENT 8 7 15 35 59 54 37 65
REMARK Flexibility Score: inf
ROOT
ATOM      1  C   UNL A   1      32.546  30.158  26.279  1.00  0.00     0.002 C 
ENDROOT
BRANCH   1   2
ATOM      2  C   UNL A   1      32.296  29.074  27.324  1.00  0.00     0.021 C 
BRANCH   2   3
ATOM      3  C   UNL A   1      32.386  27.653  26.778  1.00  0.00     0.116 C 
BRANCH   3   4
ATOM      4  N   UNL A   1      31.080  27.076  26.545  1.00  0.00    -0.354 N 
ATOM      5  C   UNL A   1      30.632  26.140  25.670  1.00  0.00     0.243 C 
ATOM      6  O   UNL A   1      29.463  25.762  25.845  1.00  0.00    -0.273 OA
ATOM      7  H   UNL A   1      30.380  27.429  27.139  1.00  0.00     0.163 HD
BRANCH   5   8
ATOM      8  C   UNL A   1      31.471  25.458  24.546  1.00  0.00     0.184 C 
BRANCH   8   9
ATOM      9  C   UNL A   1      31.889  26.146  23.211  1.00  0.00     0.018 C 
ATOM     10  C   UNL A   1      31.175  27.480  22.935  1.00  0.00     0.010 C 
BRANCH   9  11
ATOM     11  C   UNL A   1      32.019  25.104  22.067  1.00  0.00     0.002 C 
ATOM     12  C   UNL A   1      32.192  25.652  20.661  1.00  0.00     0.004 C 
ENDBRANCH   9  11
ENDBRANCH   8   9
BRANCH   8  13
ATOM     13  N   UNL A   1      32.551  24.645  25.155  1.00  0.00    -0.280 N 
ATOM     14  C   UNL A   1      33.865  25.072  25.063  1.00  0.00     0.266 C 
ATOM     15  C   UNL A   1      32.356  23.390  25.701  1.00  0.00     0.149 C 
ATOM     16  O   UNL A   1      34.268  26.088  24.500  1.00  0.00    -0.268 OA
ATOM     17  C   UNL A   1      34.786  24.065  25.640  1.00  0.00     0.081 C 
ATOM     18  S   UNL A   1      33.901  22.675  26.127  1.00  0.00    -0.054 SA
ATOM     19  S   UNL A   1      30.930  22.550  25.927  1.00  0.00    -0.052 S 
ATOM     20  C   UNL A   1      36.120  24.223  25.625  1.00  0.00     0.029 C 
BRANCH  20  21
ATOM     21  C   UNL A   1      37.013  23.073  25.778  1.00  0.00    -0.020 A 
ATOM     22  C   UNL A   1      36.868  21.883  25.038  1.00  0.00     0.012 A 
ATOM     23  C   UNL A   1      38.158  23.290  26.560  1.00  0.00     0.058 A 
ATOM     24  C   UNL A   1      37.898  20.933  25.024  1.00  0.00     0.051 A 
ATOM     25  C   UNL A   1      39.169  22.367  26.481  1.00  0.00     0.166 A 
ATOM     26  C   UNL A   1      39.051  21.227  25.724  1.00  0.00     0.165 A 
ATOM     27  O   UNL A   1      40.400  22.501  27.043  1.00  0.00    -0.454 OA
ATOM     28  O   UNL A   1      40.205  20.505  25.716  1.00  0.00    -0.454 OA
ATOM     29  C   UNL A   1      41.098  21.440  26.361  1.00  0.00     0.468 C 
ENDBRANCH  20  21
ENDBRANCH   8  13
ENDBRANCH   5   8
ENDBRANCH   3   4
ENDBRANCH   2   3
ENDBRANCH   1   2
BRANCH   1  30
ATOM     30  C   UNL A   1      31.317  30.992  25.899  1.00  0.00     0.002 C 
BRANCH  30  31
ATOM     31  C   UNL A   1      31.198  32.356  26.588  1.00  0.00     0.021 C 
BRANCH  31  32
ATOM     32  C   UNL A   1      32.495  32.900  27.180  1.00  0.00     0.116 C 
BRANCH  32  33
ATOM     33  N   UNL A   1      32.348  34.265  27.654  1.00  0.00    -0.352 N 
ATOM     34  C   UNL A   1      33.014  34.939  28.642  1.00  0.00     0.251 C 
ATOM     35  H   UNL A   1      31.658  34.791  27.190  1.00  0.00     0.163 HD
ATOM     36  O   UNL A   1      32.587  36.019  29.035  1.00  0.00    -0.269 OA
BRANCH  34  37
ATOM     37  C   UNL A   1      34.239  34.372  29.245  1.00  0.00     0.039 A 
ATOM     38  C   UNL A   1      34.112  33.602  30.403  1.00  0.00     0.014 A 
ATOM     39  C   UNL A   1      35.507  34.639  28.716  1.00  0.00     0.014 A 
ATOM     40  C   UNL A   1      35.250  33.065  31.005  1.00  0.00     0.010 A 
ATOM     41  C   UNL A   1      36.634  34.042  29.276  1.00  0.00     0.010 A 
ATOM     42  C   UNL A   1      36.517  33.258  30.432  1.00  0.00    -0.014 A 
BRANCH  42  43
ATOM     43  C   UNL A   1      37.714  32.621  31.037  1.00  0.00     0.031 A 
ATOM     44  C   UNL A   1      38.246  33.084  32.364  1.00  0.00     0.074 A 
ATOM     45  C   UNL A   1      38.332  31.627  30.370  1.00  0.00     0.049 A 
ATOM     46  N   UNL A   1      39.244  32.602  33.063  1.00  0.00    -0.248 NA
ATOM     47  C   UNL A   1      37.594  34.250  32.978  1.00  0.00     0.031 C 
ATOM     48  C   UNL A   1      37.943  31.127  29.048  1.00  0.00     0.029 A 
ATOM     49  N   UNL A   1      39.409  30.853  30.716  1.00  0.00    -0.354 N 
ATOM     50  C   UNL A   1      39.340  33.407  34.191  1.00  0.00     0.074 A 
ATOM     51  C   UNL A   1      38.338  34.442  34.057  1.00  0.00     0.031 C 
ATOM     52  C   UNL A   1      38.740  30.101  28.718  1.00  0.00     0.029 A 
ATOM     53  C   UNL A   1      39.716  29.893  29.782  1.00  0.00     0.049 A 
ATOM     54  H   UNL A   1      39.913  30.971  31.553  1.00  0.00     0.167 HD
ATOM     55  C   UNL A   1      40.175  33.285  35.251  1.00  0.00     0.031 A 
ATOM     56  C   UNL A   1      40.672  28.946  29.784  1.00  0.00     0.031 A 
ATOM     57  C   UNL A   1      41.173  32.255  35.381  1.00  0.00     0.049 A 
ATOM     58  C   UNL A   1      41.582  28.831  30.973  1.00  0.00     0.074 A 
ATOM     59  C   UNL A   1      42.025  32.008  36.443  1.00  0.00     0.029 A 
ATOM     60  N   UNL A   1      41.459  31.307  34.410  1.00  0.00    -0.354 N 
ATOM     61  N   UNL A   1      41.601  29.544  32.072  1.00  0.00    -0.248 NA
ATOM     62  C   UNL A   1      42.594  27.766  30.925  1.00  0.00     0.031 C 
ATOM     63  C   UNL A   1      42.869  30.950  36.090  1.00  0.00     0.029 A 
ATOM     64  C   UNL A   1      42.498  30.495  34.834  1.00  0.00     0.049 A 
ATOM     65  H   UNL A   1      40.994  31.224  33.547  1.00  0.00     0.167 HD
ATOM     66  C   UNL A   1      42.612  29.005  32.856  1.00  0.00     0.074 A 
ATOM     67  C   UNL A   1      43.162  27.885  32.117  1.00  0.00     0.031 C 
ATOM     68  C   UNL A   1      43.050  29.400  34.077  1.00  0.00     0.031 A 
BRANCH  55  69
ATOM     69  C   UNL A   1      40.051  34.305  36.352  1.00  0.00    -0.014 A 
ATOM     70  C   UNL A   1      40.758  35.518  36.308  1.00  0.00     0.009 A 
ATOM     71  C   UNL A   1      39.187  34.065  37.432  1.00  0.00     0.009 A 
ATOM     72  C   UNL A   1      40.633  36.450  37.341  1.00  0.00     0.001 A 
ATOM     73  C   UNL A   1      39.039  35.012  38.447  1.00  0.00     0.001 A 
ATOM     74  C   UNL A   1      39.770  36.198  38.407  1.00  0.00     0.000 A 
ENDBRANCH  55  69
BRANCH  56  75
ATOM     75  C   UNL A   1      40.800  28.020  28.629  1.00  0.00    -0.014 A 
ATOM     76  C   UNL A   1      41.644  28.331  27.552  1.00  0.00     0.009 A 
ATOM     77  C   UNL A   1      40.081  26.815  28.600  1.00  0.00     0.009 A 
ATOM     78  C   UNL A   1      41.744  27.467  26.459  1.00  0.00     0.001 A 
ATOM     79  C   UNL A   1      40.207  25.939  27.521  1.00  0.00     0.001 A 
ATOM     80  C   UNL A   1      41.030  26.270  26.447  1.00  0.00     0.000 A 
ENDBRANCH  56  75
BRANCH  68  81
ATOM     81  C   UNL A   1      44.170  28.605  34.688  1.00  0.00    -0.014 A 
ATOM     82  C   UNL A   1      45.514  28.958  34.479  1.00  0.00     0.009 A 
ATOM     83  C   UNL A   1      43.877  27.492  35.492  1.00  0.00     0.009 A 
ATOM     84  C   UNL A   1      46.540  28.184  35.023  1.00  0.00     0.001 A 
ATOM     85  C   UNL A   1      44.906  26.740  36.063  1.00  0.00     0.001 A 
ATOM     86  C   UNL A   1      46.236  27.078  35.816  1.00  0.00     0.000 A 
ENDBRANCH  68  81
ENDBRANCH  42  43
ENDBRANCH  34  37
ENDBRANCH  32  33
ENDBRANCH  31  32
ENDBRANCH  30  31
ENDBRANCH   1  30
TORSDOF 17
ENDMDL
MODEL 3
REMARK VINA RESULT:     -11.0      1.309      5.866
REMARK SMILES CC[C@@H](C)[C@H](C(=O)NCCCCCCNC(=O)c1ccc(-c2c3nc(c(-c4ccccc4)c4ccc([nH]4)c(-c4ccccc4)c4nc(c(-c5ccccc5)c5ccc2[nH]5)C=C4)C=C3)cc1)N1C(=O)/C(=C/c2ccc3c(c2)OCO3)SC1=S
REMARK SMILES IDX 11 1 10 2 9 3 8 4 6 5 7 6 5 8 3 9 4 10 2 11 1 12 66 13 67 14
REMARK SMILES IDX 81 15 68 16 69 17 80 18 82 19 70 20 71 21 72 22 76 23 73 24
REMARK SMILES IDX 75 25 74 26 77 27 79 28 78 29 12 30 13 31 14 32 15 33 16 34
REMARK SMILES IDX 17 36 18 37 19 38 65 39 20 40 64 41 21 42 22 43 23 44 58 45
REMARK SMILES IDX 24 46 63 47 57 48 59 49 25 50 62 51 56 52 55 53 26 55 48 56
REMARK SMILES IDX 33 57 47 58 34 59 37 60 46 61 60 62 35 63 36 64 45 66 61 67
REMARK SMILES IDX 38 68 27 69 28 70 32 71 29 72 31 73 30 74 49 75 50 76 54 77
REMARK SMILES IDX 51 78 53 79 52 80 39 81 40 82 44 83 41 84 43 85 42 86
REMARK H PARENT 8 7 15 35 59 54 37 65
REMARK Flexibility Score: inf
ROOT
ATOM      1  C   UNL A   1      33.524  27.539  26.373  1.00  0.00     0.002 C 
ENDROOT
BRANCH   1   2
ATOM      2  C   UNL A   1      34.223  26.728  25.286  1.00  0.00     0.021 C 
BRANCH   2   3
ATOM      3  C   UNL A   1      34.287  25.231  25.574  1.00  0.00     0.116 C 
BRANCH   3   4
ATOM      4  N   UNL A   1      35.106  24.527  24.611  1.00  0.00    -0.354 N 
ATOM      5  C   UNL A   1      34.815  23.614  23.650  1.00  0.00     0.243 C 
ATOM      6  O   UNL A   1      35.751  23.323  22.889  1.00  0.00    -0.273 OA
ATOM      7  H   UNL A   1      36.062  24.756  24.663  1.00  0.00     0.163 HD
BRANCH   5   8
ATOM      8  C   UNL A   1      33.415  22.983  23.378  1.00  0.00     0.184 C 
BRANCH   8   9
ATOM      9  C   UNL A   1      32.960  21.583  23.890  1.00  0.00     0.018 C 
ATOM     10  C   UNL A   1      34.022  20.833  24.713  1.00  0.00     0.010 C 
BRANCH   9  11
ATOM     11  C   UNL A   1      32.171  20.820  22.792  1.00  0.00     0.002 C 
ATOM     12  C   UNL A   1      32.241  19.303  22.831  1.00  0.00     0.004 C 
ENDBRANCH   9  11
ENDBRANCH   8   9
BRANCH   8  13
ATOM     13  N   UNL A   1      32.368  24.025  23.498  1.00  0.00    -0.280 N 
ATOM     14  C   UNL A   1      32.349  25.084  22.605  1.00  0.00     0.266 C 
ATOM     15  C   UNL A   1      31.469  24.099  24.546  1.00  0.00     0.149 C 
ATOM     16  O   UNL A   1      33.141  25.281  21.685  1.00  0.00    -0.268 OA
ATOM     17  C   UNL A   1      31.294  26.059  22.968  1.00  0.00     0.081 C 
ATOM     18  S   UNL A   1      30.536  25.580  24.433  1.00  0.00    -0.054 SA
ATOM     19  S   UNL A   1      31.244  23.036  25.815  1.00  0.00    -0.052 S 
ATOM     20  C   UNL A   1      31.108  27.200  22.284  1.00  0.00     0.029 C 
BRANCH  20  21
ATOM     21  C   UNL A   1      30.398  28.330  22.888  1.00  0.00    -0.020 A 
ATOM     22  C   UNL A   1      30.919  29.077  23.963  1.00  0.00     0.012 A 
ATOM     23  C   UNL A   1      29.254  28.766  22.205  1.00  0.00     0.058 A 
ATOM     24  C   UNL A   1      30.333  30.300  24.317  1.00  0.00     0.051 A 
ATOM     25  C   UNL A   1      28.739  29.991  22.540  1.00  0.00     0.166 A 
ATOM     26  C   UNL A   1      29.270  30.746  23.558  1.00  0.00     0.165 A 
ATOM     27  O   UNL A   1      27.738  30.631  21.878  1.00  0.00    -0.454 OA
ATOM     28  O   UNL A   1      28.666  31.963  23.653  1.00  0.00    -0.454 OA
ATOM     29  C   UNL A   1      27.869  31.949  22.448  1.00  0.00     0.468 C 
ENDBRANCH  20  21
ENDBRANCH   8  13
ENDBRANCH   5   8
ENDBRANCH   3   4
ENDBRANCH   2   3
ENDBRANCH   1   2
BRANCH   1  30
ATOM     30  C   UNL A   1      34.196  28.870  26.726  1.00  0.00     0.002 C 
BRANCH  30  31
ATOM     31  C   UNL A   1      33.452  30.132  26.277  1.00  0.00     0.021 C 
BRANCH  31  32
ATOM     32  C   UNL A   1      32.417  30.663  27.266  1.00  0.00     0.116 C 
BRANCH  32  33
ATOM     33  N   UNL A   1      32.279  32.107  27.188  1.00  0.00    -0.352 N 
ATOM     34  C   UNL A   1      33.046  33.103  27.732  1.00  0.00     0.251 C 
ATOM     35  H   UNL A   1      31.510  32.420  26.661  1.00  0.00     0.163 HD
ATOM     36  O   UNL A   1      32.632  34.257  27.731  1.00  0.00    -0.269 OA
BRANCH  34  37
ATOM     37  C   UNL A   1      34.364  32.798  28.326  1.00  0.00     0.039 A 
ATOM     38  C   UNL A   1      34.419  31.890  29.385  1.00  0.00     0.014 A 
ATOM     39  C   UNL A   1      35.530  33.437  27.889  1.00  0.00     0.014 A 
ATOM     40  C   UNL A   1      35.646  31.592  29.978  1.00  0.00     0.010 A 
ATOM     41  C   UNL A   1      36.763  33.084  28.433  1.00  0.00     0.010 A 
ATOM     42  C   UNL A   1      36.831  32.165  29.490  1.00  0.00    -0.014 A 
BRANCH  42  43
ATOM     43  C   UNL A   1      38.141  31.787  30.077  1.00  0.00     0.031 A 
ATOM     44  C   UNL A   1      38.999  30.733  29.435  1.00  0.00     0.074 A 
ATOM     45  C   UNL A   1      38.546  32.392  31.210  1.00  0.00     0.049 A 
ATOM     46  N   UNL A   1      40.194  30.322  29.782  1.00  0.00    -0.248 NA
ATOM     47  C   UNL A   1      38.439  30.032  28.269  1.00  0.00     0.031 C 
ATOM     48  C   UNL A   1      37.777  33.390  31.958  1.00  0.00     0.029 A 
ATOM     49  N   UNL A   1      39.710  32.265  31.924  1.00  0.00    -0.354 N 
ATOM     50  C   UNL A   1      40.524  29.316  28.883  1.00  0.00     0.074 A 
ATOM     51  C   UNL A   1      39.383  29.138  28.012  1.00  0.00     0.031 C 
ATOM     52  C   UNL A   1      38.509  33.817  32.997  1.00  0.00     0.029 A 
ATOM     53  C   UNL A   1      39.779  33.101  33.013  1.00  0.00     0.049 A 
ATOM     54  H   UNL A   1      40.428  31.636  31.681  1.00  0.00     0.167 HD
ATOM     55  C   UNL A   1      41.679  28.615  28.781  1.00  0.00     0.031 A 
ATOM     56  C   UNL A   1      40.759  33.277  33.918  1.00  0.00     0.031 A 
ATOM     57  C   UNL A   1      42.812  28.793  29.652  1.00  0.00     0.049 A 
ATOM     58  C   UNL A   1      42.030  32.490  33.781  1.00  0.00     0.074 A 
ATOM     59  C   UNL A   1      44.050  28.177  29.592  1.00  0.00     0.029 A 
ATOM     60  N   UNL A   1      42.840  29.643  30.747  1.00  0.00    -0.354 N 
ATOM     61  N   UNL A   1      42.361  31.606  32.871  1.00  0.00    -0.248 NA
ATOM     62  C   UNL A   1      43.070  32.739  34.788  1.00  0.00     0.031 C 
ATOM     63  C   UNL A   1      44.806  28.609  30.688  1.00  0.00     0.029 A 
ATOM     64  C   UNL A   1      44.062  29.543  31.392  1.00  0.00     0.049 A 
ATOM     65  H   UNL A   1      42.101  30.230  31.026  1.00  0.00     0.167 HD
ATOM     66  C   UNL A   1      43.653  31.207  33.184  1.00  0.00     0.074 A 
ATOM     67  C   UNL A   1      44.055  31.968  34.350  1.00  0.00     0.031 C 
ATOM     68  C   UNL A   1      44.438  30.290  32.565  1.00  0.00     0.031 A 
BRANCH  55  69
ATOM     69  C   UNL A   1      41.767  27.579  27.693  1.00  0.00    -0.014 A 
ATOM     70  C   UNL A   1      41.350  26.254  27.909  1.00  0.00     0.009 A 
ATOM     71  C   UNL A   1      42.240  27.940  26.422  1.00  0.00     0.009 A 
ATOM     72  C   UNL A   1      41.444  25.306  26.887  1.00  0.00     0.001 A 
ATOM     73  C   UNL A   1      42.303  26.997  25.393  1.00  0.00     0.001 A 
ATOM     74  C   UNL A   1      41.916  25.679  25.629  1.00  0.00     0.000 A 
ENDBRANCH  55  69
BRANCH  56  75
ATOM     75  C   UNL A   1      40.580  34.256  35.021  1.00  0.00    -0.014 A 
ATOM     76  C   UNL A   1      39.973  33.872  36.227  1.00  0.00     0.009 A 
ATOM     77  C   UNL A   1      41.022  35.580  34.877  1.00  0.00     0.009 A 
ATOM     78  C   UNL A   1      39.787  34.803  37.253  1.00  0.00     0.001 A 
ATOM     79  C   UNL A   1      40.864  36.499  35.915  1.00  0.00     0.001 A 
ATOM     80  C   UNL A   1      40.238  36.113  37.099  1.00  0.00     0.000 A 
ENDBRANCH  56  75
BRANCH  68  81
ATOM     81  C   UNL A   1      45.812  30.075  33.136  1.00  0.00    -0.014 A 
ATOM     82  C   UNL A   1      46.049  29.099  34.119  1.00  0.00     0.009 A 
ATOM     83  C   UNL A   1      46.888  30.853  32.679  1.00  0.00     0.009 A 
ATOM     84  C   UNL A   1      47.324  28.941  34.665  1.00  0.00     0.001 A 
ATOM     85  C   UNL A   1      48.169  30.669  33.202  1.00  0.00     0.001 A 
ATOM     86  C   UNL A   1      48.383  29.723  34.204  1.00  0.00     0.000 A 
ENDBRANCH  68  81
ENDBRANCH  42  43
ENDBRANCH  34  37
ENDBRANCH  32  33
ENDBRANCH  31  32
ENDBRANCH  30  31
ENDBRANCH   1  30
TORSDOF 17
ENDMDL
