MODEL 1
REMARK VINA RESULT:     -10.9      0.000      0.000
REMARK SMILES C#Cc1cc(Cl)c2c(c1)C=C(C(=O)NCCCCCCNC(=O)c1ccc(-c3c4nc(c(-c5ccccc5)c5ccc([nH]5)c(-c5ccccc5)c5nc(c(-c6ccccc6)c6ccc3[nH]6)C=C5)C=C4)cc1)[C@@H](C(F)(F)F)O2
REMARK SMILES IDX 18 1 17 2 16 3 15 4 14 5 12 6 13 7 11 9 3 10 4 11 9 12 5 13
REMARK SMILES IDX 8 14 6 15 7 16 10 17 77 18 72 19 2 20 1 21 73 22 74 23 75 24
REMARK SMILES IDX 76 25 19 26 20 27 21 28 22 29 23 31 24 32 25 33 71 34 26 35
REMARK SMILES IDX 70 36 27 37 28 38 29 39 64 40 30 41 69 42 63 43 65 44 31 45
REMARK SMILES IDX 68 46 62 47 61 48 32 50 54 51 39 52 53 53 40 54 43 55 52 56
REMARK SMILES IDX 66 57 41 58 42 59 51 61 67 62 44 63 33 64 34 65 38 66 35 67
REMARK SMILES IDX 37 68 36 69 55 70 56 71 60 72 57 73 59 74 58 75 45 76 46 77
REMARK SMILES IDX 50 78 47 79 49 80 48 81
REMARK H PARENT 14 8 21 30 65 49 43 60
REMARK Flexibility Score: inf
ROOT
ATOM      1  C   UNL A   1      35.380  22.254  24.171  1.00  0.00     0.002 C 
ENDROOT
BRANCH   1   2
ATOM      2  C   UNL A   1      34.718  21.412  25.270  1.00  0.00     0.002 C 
BRANCH   2   3
ATOM      3  C   UNL A   1      33.709  20.384  24.756  1.00  0.00     0.021 C 
BRANCH   3   4
ATOM      4  C   UNL A   1      32.339  20.990  24.485  1.00  0.00     0.116 C 
BRANCH   4   5
ATOM      5  N   UNL A   1      31.764  21.578  25.681  1.00  0.00    -0.352 N 
ATOM      6  C   UNL A   1      31.603  22.821  26.194  1.00  0.00     0.251 C 
ATOM      7  O   UNL A   1      31.007  22.879  27.274  1.00  0.00    -0.270 OA
ATOM      8  H   UNL A   1      31.392  20.889  26.278  1.00  0.00     0.163 HD
BRANCH   6   9
ATOM      9  C   UNL A   1      32.090  24.076  25.548  1.00  0.00     0.067 C 
ATOM     10  C   UNL A   1      33.765  28.589  26.039  1.00  0.00     0.027 A 
ATOM     11  C   UNL A   1      34.005  28.661  24.666  1.00  0.00     0.041 A 
ATOM     12  C   UNL A   1      33.246  27.420  26.606  1.00  0.00     0.029 A 
ATOM     13  C   UNL A   1      33.725  27.563  23.861  1.00  0.00     0.084 A 
ATOM     14  C   UNL A   1      32.962  26.314  25.798  1.00  0.00     0.020 A 
ATOM     15  Cl  UNL A   1      34.043  27.675  22.166  1.00  0.00    -0.080 Cl
ATOM     16  C   UNL A   1      33.198  26.396  24.423  1.00  0.00     0.146 A 
ATOM     17  C   UNL A   1      32.473  25.065  26.375  1.00  0.00     0.025 C 
ATOM     18  O   UNL A   1      32.977  25.344  23.585  1.00  0.00    -0.474 OA
ATOM     19  C   UNL A   1      32.136  24.271  24.062  1.00  0.00     0.314 C 
BRANCH  10  20
ATOM     20  C   UNL A   1      34.069  29.718  26.859  1.00  0.00    -0.070 C 
ATOM     21  C   UNL A   1      34.354  30.651  27.559  1.00  0.00     0.010 C 
ENDBRANCH  10  20
BRANCH  19  22
ATOM     22  C   UNL A   1      30.735  24.413  23.438  1.00  0.00     0.429 C 
ATOM     23  F   UNL A   1      30.786  25.192  22.329  1.00  0.00    -0.167 F 
ATOM     24  F   UNL A   1      30.210  23.229  23.045  1.00  0.00    -0.167 F 
ATOM     25  F   UNL A   1      29.847  24.971  24.291  1.00  0.00    -0.167 F 
ENDBRANCH  19  22
ENDBRANCH   6   9
ENDBRANCH   4   5
ENDBRANCH   3   4
ENDBRANCH   2   3
ENDBRANCH   1   2
BRANCH   1  26
ATOM     26  C   UNL A   1      36.041  23.544  24.665  1.00  0.00     0.021 C 
BRANCH  26  27
ATOM     27  C   UNL A   1      36.605  23.440  26.075  1.00  0.00     0.116 C 
BRANCH  27  28
ATOM     28  N   UNL A   1      37.762  22.561  26.120  1.00  0.00    -0.352 N 
ATOM     29  C   UNL A   1      39.074  22.873  26.363  1.00  0.00     0.251 C 
ATOM     30  H   UNL A   1      37.578  21.608  25.952  1.00  0.00     0.163 HD
ATOM     31  O   UNL A   1      39.964  22.066  26.119  1.00  0.00    -0.269 OA
BRANCH  29  32
ATOM     32  C   UNL A   1      39.403  24.200  26.912  1.00  0.00     0.039 A 
ATOM     33  C   UNL A   1      39.134  24.463  28.254  1.00  0.00     0.014 A 
ATOM     34  C   UNL A   1      39.990  25.175  26.098  1.00  0.00     0.014 A 
ATOM     35  C   UNL A   1      39.496  25.696  28.795  1.00  0.00     0.010 A 
ATOM     36  C   UNL A   1      40.430  26.365  26.658  1.00  0.00     0.010 A 
ATOM     37  C   UNL A   1      40.172  26.644  28.007  1.00  0.00    -0.014 A 
BRANCH  37  38
ATOM     38  C   UNL A   1      40.590  27.945  28.577  1.00  0.00     0.031 A 
ATOM     39  C   UNL A   1      42.032  28.179  28.930  1.00  0.00     0.074 A 
ATOM     40  C   UNL A   1      39.671  28.905  28.795  1.00  0.00     0.049 A 
ATOM     41  N   UNL A   1      42.590  29.244  29.447  1.00  0.00    -0.248 NA
ATOM     42  C   UNL A   1      42.969  27.068  28.689  1.00  0.00     0.031 C 
ATOM     43  C   UNL A   1      38.240  28.786  28.508  1.00  0.00     0.029 A 
ATOM     44  N   UNL A   1      39.805  30.173  29.299  1.00  0.00    -0.354 N 
ATOM     45  C   UNL A   1      43.935  28.931  29.589  1.00  0.00     0.074 A 
ATOM     46  C   UNL A   1      44.101  27.557  29.171  1.00  0.00     0.031 C 
ATOM     47  C   UNL A   1      37.637  29.950  28.797  1.00  0.00     0.029 A 
ATOM     48  C   UNL A   1      38.627  30.878  29.335  1.00  0.00     0.049 A 
ATOM     49  H   UNL A   1      40.664  30.544  29.606  1.00  0.00     0.167 HD
ATOM     50  C   UNL A   1      44.948  29.727  30.001  1.00  0.00     0.031 A 
ATOM     51  C   UNL A   1      38.371  32.132  29.756  1.00  0.00     0.031 A 
ATOM     52  C   UNL A   1      44.779  31.093  30.415  1.00  0.00     0.049 A 
ATOM     53  C   UNL A   1      39.506  32.975  30.270  1.00  0.00     0.074 A 
ATOM     54  C   UNL A   1      45.748  31.991  30.822  1.00  0.00     0.029 A 
ATOM     55  N   UNL A   1      43.563  31.756  30.475  1.00  0.00    -0.354 N 
ATOM     56  N   UNL A   1      40.783  32.684  30.345  1.00  0.00    -0.248 NA
ATOM     57  C   UNL A   1      39.167  34.321  30.752  1.00  0.00     0.031 C 
ATOM     58  C   UNL A   1      45.111  33.176  31.197  1.00  0.00     0.029 A 
ATOM     59  C   UNL A   1      43.754  33.043  30.949  1.00  0.00     0.049 A 
ATOM     60  H   UNL A   1      42.694  31.370  30.220  1.00  0.00     0.167 HD
ATOM     61  C   UNL A   1      41.401  33.817  30.856  1.00  0.00     0.074 A 
ATOM     62  C   UNL A   1      40.363  34.808  31.053  1.00  0.00     0.031 C 
ATOM     63  C   UNL A   1      42.711  34.018  31.140  1.00  0.00     0.031 A 
BRANCH  50  64
ATOM     64  C   UNL A   1      46.334  29.144  30.020  1.00  0.00    -0.014 A 
ATOM     65  C   UNL A   1      47.149  29.175  28.877  1.00  0.00     0.009 A 
ATOM     66  C   UNL A   1      46.859  28.622  31.213  1.00  0.00     0.009 A 
ATOM     67  C   UNL A   1      48.453  28.675  28.923  1.00  0.00     0.001 A 
ATOM     68  C   UNL A   1      48.172  28.154  31.265  1.00  0.00     0.001 A 
ATOM     69  C   UNL A   1      48.965  28.175  30.119  1.00  0.00     0.000 A 
ENDBRANCH  50  64
BRANCH  51  70
ATOM     70  C   UNL A   1      36.987  32.672  29.684  1.00  0.00    -0.014 A 
ATOM     71  C   UNL A   1      36.603  33.509  28.625  1.00  0.00     0.009 A 
ATOM     72  C   UNL A   1      36.036  32.341  30.663  1.00  0.00     0.009 A 
ATOM     73  C   UNL A   1      35.304  34.017  28.557  1.00  0.00     0.001 A 
ATOM     74  C   UNL A   1      34.728  32.824  30.575  1.00  0.00     0.001 A 
ATOM     75  C   UNL A   1      34.366  33.668  29.527  1.00  0.00     0.000 A 
ENDBRANCH  51  70
BRANCH  63  76
ATOM     76  C   UNL A   1      43.112  35.364  31.677  1.00  0.00    -0.014 A 
ATOM     77  C   UNL A   1      43.065  35.643  33.052  1.00  0.00     0.009 A 
ATOM     78  C   UNL A   1      43.630  36.336  30.805  1.00  0.00     0.009 A 
ATOM     79  C   UNL A   1      43.506  36.875  33.538  1.00  0.00     0.001 A 
ATOM     80  C   UNL A   1      44.104  37.551  31.298  1.00  0.00     0.001 A 
ATOM     81  C   UNL A   1      44.034  37.824  32.663  1.00  0.00     0.000 A 
ENDBRANCH  63  76
ENDBRANCH  37  38
ENDBRANCH  29  32
ENDBRANCH  27  28
ENDBRANCH  26  27
ENDBRANCH   1  26
TORSDOF 15
ENDMDL
MODEL 2
REMARK VINA RESULT:     -10.8      2.693      7.688
REMARK SMILES C#Cc1cc(Cl)c2c(c1)C=C(C(=O)NCCCCCCNC(=O)c1ccc(-c3c4nc(c(-c5ccccc5)c5ccc([nH]5)c(-c5ccccc5)c5nc(c(-c6ccccc6)c6ccc3[nH]6)C=C5)C=C4)cc1)[C@@H](C(F)(F)F)O2
REMARK SMILES IDX 18 1 17 2 16 3 15 4 14 5 12 6 13 7 11 9 3 10 4 11 9 12 5 13
REMARK SMILES IDX 8 14 6 15 7 16 10 17 77 18 72 19 2 20 1 21 73 22 74 23 75 24
REMARK SMILES IDX 76 25 19 26 20 27 21 28 22 29 23 31 24 32 25 33 71 34 26 35
REMARK SMILES IDX 70 36 27 37 28 38 29 39 64 40 30 41 69 42 63 43 65 44 31 45
REMARK SMILES IDX 68 46 62 47 61 48 32 50 54 51 39 52 53 53 40 54 43 55 52 56
REMARK SMILES IDX 66 57 41 58 42 59 51 61 67 62 44 63 33 64 34 65 38 66 35 67
REMARK SMILES IDX 37 68 36 69 55 70 56 71 60 72 57 73 59 74 58 75 45 76 46 77
REMARK SMILES IDX 50 78 47 79 49 80 48 81
REMARK H PARENT 14 8 21 30 65 49 43 60
REMARK Flexibility Score: inf
ROOT
ATOM      1  C   UNL A   1      31.571  28.597  25.776  1.00  0.00     0.002 C 
ENDROOT
BRANCH   1   2
ATOM      2  C   UNL A   1      31.565  27.862  24.429  1.00  0.00     0.002 C 
BRANCH   2   3
ATOM      3  C   UNL A   1      30.275  27.096  24.132  1.00  0.00     0.021 C 
BRANCH   3   4
ATOM      4  C   UNL A   1      30.533  25.711  23.554  1.00  0.00     0.116 C 
BRANCH   4   5
ATOM      5  N   UNL A   1      31.434  25.762  22.417  1.00  0.00    -0.352 N 
ATOM      6  C   UNL A   1      32.572  25.141  22.028  1.00  0.00     0.251 C 
ATOM      7  O   UNL A   1      33.014  25.478  20.926  1.00  0.00    -0.270 OA
ATOM      8  H   UNL A   1      31.138  26.425  21.752  1.00  0.00     0.163 HD
BRANCH   6   9
ATOM      9  C   UNL A   1      33.296  24.110  22.832  1.00  0.00     0.067 C 
ATOM     10  C   UNL A   1      33.462  19.594  24.562  1.00  0.00     0.027 A 
ATOM     11  C   UNL A   1      34.751  19.817  25.050  1.00  0.00     0.041 A 
ATOM     12  C   UNL A   1      32.784  20.602  23.868  1.00  0.00     0.029 A 
ATOM     13  C   UNL A   1      35.359  21.050  24.845  1.00  0.00     0.084 A 
ATOM     14  C   UNL A   1      33.394  21.845  23.662  1.00  0.00     0.020 A 
ATOM     15  Cl  UNL A   1      36.959  21.295  25.450  1.00  0.00    -0.080 Cl
ATOM     16  C   UNL A   1      34.681  22.063  24.160  1.00  0.00     0.146 A 
ATOM     17  C   UNL A   1      32.728  22.892  22.893  1.00  0.00     0.025 C 
ATOM     18  O   UNL A   1      35.346  23.236  23.963  1.00  0.00    -0.474 OA
ATOM     19  C   UNL A   1      34.570  24.389  23.570  1.00  0.00     0.314 C 
BRANCH  10  20
ATOM     20  C   UNL A   1      32.851  18.319  24.766  1.00  0.00    -0.070 C 
ATOM     21  C   UNL A   1      32.334  17.255  24.972  1.00  0.00     0.010 C 
ENDBRANCH  10  20
BRANCH  19  22
ATOM     22  C   UNL A   1      34.359  25.297  24.797  1.00  0.00     0.429 C 
ATOM     23  F   UNL A   1      33.171  25.023  25.392  1.00  0.00    -0.167 F 
ATOM     24  F   UNL A   1      35.307  25.126  25.748  1.00  0.00    -0.167 F 
ATOM     25  F   UNL A   1      34.362  26.609  24.472  1.00  0.00    -0.167 F 
ENDBRANCH  19  22
ENDBRANCH   6   9
ENDBRANCH   4   5
ENDBRANCH   3   4
ENDBRANCH   2   3
ENDBRANCH   1   2
BRANCH   1  26
ATOM     26  C   UNL A   1      32.382  27.908  26.877  1.00  0.00     0.021 C 
BRANCH  26  27
ATOM     27  C   UNL A   1      33.762  28.515  27.089  1.00  0.00     0.116 C 
BRANCH  27  28
ATOM     28  N   UNL A   1      33.671  29.911  27.488  1.00  0.00    -0.352 N 
ATOM     29  C   UNL A   1      34.563  30.664  28.206  1.00  0.00     0.251 C 
ATOM     30  H   UNL A   1      32.854  30.381  27.202  1.00  0.00     0.163 HD
ATOM     31  O   UNL A   1      34.232  31.746  28.674  1.00  0.00    -0.269 OA
BRANCH  29  32
ATOM     32  C   UNL A   1      35.927  30.146  28.418  1.00  0.00     0.039 A 
ATOM     33  C   UNL A   1      36.840  30.193  27.366  1.00  0.00     0.014 A 
ATOM     34  C   UNL A   1      36.298  29.628  29.663  1.00  0.00     0.014 A 
ATOM     35  C   UNL A   1      38.148  29.760  27.577  1.00  0.00     0.010 A 
ATOM     36  C   UNL A   1      37.622  29.282  29.897  1.00  0.00     0.010 A 
ATOM     37  C   UNL A   1      38.554  29.329  28.851  1.00  0.00    -0.014 A 
BRANCH  37  38
ATOM     38  C   UNL A   1      39.949  28.895  29.097  1.00  0.00     0.031 A 
ATOM     39  C   UNL A   1      40.376  27.503  28.723  1.00  0.00     0.074 A 
ATOM     40  C   UNL A   1      40.820  29.743  29.675  1.00  0.00     0.049 A 
ATOM     41  N   UNL A   1      41.546  26.936  28.867  1.00  0.00    -0.248 NA
ATOM     42  C   UNL A   1      39.354  26.627  28.124  1.00  0.00     0.031 C 
ATOM     43  C   UNL A   1      40.515  31.112  30.097  1.00  0.00     0.029 A 
ATOM     44  N   UNL A   1      42.143  29.583  29.997  1.00  0.00    -0.354 N 
ATOM     45  C   UNL A   1      41.400  25.645  28.378  1.00  0.00     0.074 A 
ATOM     46  C   UNL A   1      40.014  25.487  27.996  1.00  0.00     0.031 C 
ATOM     47  C   UNL A   1      41.631  31.681  30.579  1.00  0.00     0.029 A 
ATOM     48  C   UNL A   1      42.715  30.705  30.547  1.00  0.00     0.049 A 
ATOM     49  H   UNL A   1      42.637  28.744  29.848  1.00  0.00     0.167 HD
ATOM     50  C   UNL A   1      42.342  24.686  28.230  1.00  0.00     0.031 A 
ATOM     51  C   UNL A   1      43.972  30.922  30.979  1.00  0.00     0.031 A 
ATOM     52  C   UNL A   1      43.720  24.848  28.610  1.00  0.00     0.049 A 
ATOM     53  C   UNL A   1      44.986  29.816  30.862  1.00  0.00     0.074 A 
ATOM     54  C   UNL A   1      44.757  23.945  28.474  1.00  0.00     0.029 A 
ATOM     55  N   UNL A   1      44.248  25.985  29.202  1.00  0.00    -0.354 N 
ATOM     56  N   UNL A   1      44.846  28.620  30.344  1.00  0.00    -0.248 NA
ATOM     57  C   UNL A   1      46.332  30.093  31.383  1.00  0.00     0.031 C 
ATOM     58  C   UNL A   1      45.900  24.508  29.047  1.00  0.00     0.029 A 
ATOM     59  C   UNL A   1      45.592  25.791  29.470  1.00  0.00     0.049 A 
ATOM     60  H   UNL A   1      43.743  26.806  29.401  1.00  0.00     0.167 HD
ATOM     61  C   UNL A   1      46.090  28.012  30.452  1.00  0.00     0.074 A 
ATOM     62  C   UNL A   1      46.977  28.980  31.066  1.00  0.00     0.031 C 
ATOM     63  C   UNL A   1      46.463  26.763  30.081  1.00  0.00     0.031 A 
BRANCH  50  64
ATOM     64  C   UNL A   1      41.920  23.376  27.626  1.00  0.00    -0.014 A 
ATOM     65  C   UNL A   1      41.385  22.349  28.421  1.00  0.00     0.009 A 
ATOM     66  C   UNL A   1      41.990  23.190  26.236  1.00  0.00     0.009 A 
ATOM     67  C   UNL A   1      40.951  21.156  27.839  1.00  0.00     0.001 A 
ATOM     68  C   UNL A   1      41.524  22.010  25.654  1.00  0.00     0.001 A 
ATOM     69  C   UNL A   1      41.012  20.992  26.457  1.00  0.00     0.000 A 
ENDBRANCH  50  64
BRANCH  51  70
ATOM     70  C   UNL A   1      44.346  32.249  31.538  1.00  0.00    -0.014 A 
ATOM     71  C   UNL A   1      44.212  32.508  32.910  1.00  0.00     0.009 A 
ATOM     72  C   UNL A   1      44.856  33.260  30.707  1.00  0.00     0.009 A 
ATOM     73  C   UNL A   1      44.561  33.754  33.435  1.00  0.00     0.001 A 
ATOM     74  C   UNL A   1      45.237  34.494  31.239  1.00  0.00     0.001 A 
ATOM     75  C   UNL A   1      45.081  34.742  32.601  1.00  0.00     0.000 A 
ENDBRANCH  51  70
BRANCH  63  76
ATOM     76  C   UNL A   1      47.896  26.365  30.304  1.00  0.00    -0.014 A 
ATOM     77  C   UNL A   1      48.875  26.594  29.325  1.00  0.00     0.009 A 
ATOM     78  C   UNL A   1      48.287  25.836  31.545  1.00  0.00     0.009 A 
ATOM     79  C   UNL A   1      50.212  26.279  29.577  1.00  0.00     0.001 A 
ATOM     80  C   UNL A   1      49.628  25.558  31.807  1.00  0.00     0.001 A 
ATOM     81  C   UNL A   1      50.589  25.772  30.820  1.00  0.00     0.000 A 
ENDBRANCH  63  76
ENDBRANCH  37  38
ENDBRANCH  29  32
ENDBRANCH  27  28
ENDBRANCH  26  27
ENDBRANCH   1  26
TORSDOF 15
ENDMDL
MODEL 3
REMARK VINA RESULT:     -10.8      3.058      7.481
REMARK SMILES C#Cc1cc(Cl)c2c(c1)C=C(C(=O)NCCCCCCNC(=O)c1ccc(-c3c4nc(c(-c5ccccc5)c5ccc([nH]5)c(-c5ccccc5)c5nc(c(-c6ccccc6)c6ccc3[nH]6)C=C5)C=C4)cc1)[C@@H](C(F)(F)F)O2
REMARK SMILES IDX 18 1 17 2 16 3 15 4 14 5 12 6 13 7 11 9 3 10 4 11 9 12 5 13
REMARK SMILES IDX 8 14 6 15 7 16 10 17 77 18 72 19 2 20 1 21 73 22 74 23 75 24
REMARK SMILES IDX 76 25 19 26 20 27 21 28 22 29 23 31 24 32 25 33 71 34 26 35
REMARK SMILES IDX 70 36 27 37 28 38 29 39 64 40 30 41 69 42 63 43 65 44 31 45
REMARK SMILES IDX 68 46 62 47 61 48 32 50 54 51 39 52 53 53 40 54 43 55 52 56
REMARK SMILES IDX 66 57 41 58 42 59 51 61 67 62 44 63 33 64 34 65 38 66 35 67
REMARK SMILES IDX 37 68 36 69 55 70 56 71 60 72 57 73 59 74 58 75 45 76 46 77
REMARK SMILES IDX 50 78 47 79 49 80 48 81
REMARK H PARENT 14 8 21 30 65 49 43 60
REMARK Flexibility Score: inf
ROOT
ATOM      1  C   UNL A   1      31.558  30.426  26.120  1.00  0.00     0.002 C 
ENDROOT
BRANCH   1   2
ATOM      2  C   UNL A   1      32.394  29.580  27.089  1.00  0.00     0.002 C 
BRANCH   2   3
ATOM      3  C   UNL A   1      31.686  28.330  27.610  1.00  0.00     0.021 C 
BRANCH   3   4
ATOM      4  C   UNL A   1      31.993  27.090  26.781  1.00  0.00     0.116 C 
BRANCH   4   5
ATOM      5  N   UNL A   1      32.603  27.432  25.508  1.00  0.00    -0.352 N 
ATOM      6  C   UNL A   1      33.319  26.796  24.552  1.00  0.00     0.251 C 
ATOM      7  O   UNL A   1      33.629  27.483  23.573  1.00  0.00    -0.270 OA
ATOM      8  H   UNL A   1      32.456  28.379  25.281  1.00  0.00     0.163 HD
BRANCH   6   9
ATOM      9  C   UNL A   1      33.740  25.364  24.616  1.00  0.00     0.067 C 
ATOM     10  C   UNL A   1      37.209  22.118  25.530  1.00  0.00     0.027 A 
ATOM     11  C   UNL A   1      36.292  21.078  25.375  1.00  0.00     0.041 A 
ATOM     12  C   UNL A   1      36.798  23.449  25.400  1.00  0.00     0.029 A 
ATOM     13  C   UNL A   1      34.964  21.370  25.088  1.00  0.00     0.084 A 
ATOM     14  C   UNL A   1      35.462  23.746  25.110  1.00  0.00     0.020 A 
ATOM     15  Cl  UNL A   1      33.847  20.064  24.912  1.00  0.00    -0.080 Cl
ATOM     16  C   UNL A   1      34.550  22.699  24.948  1.00  0.00     0.146 A 
ATOM     17  C   UNL A   1      34.999  25.128  25.025  1.00  0.00     0.025 C 
ATOM     18  O   UNL A   1      33.229  22.919  24.701  1.00  0.00    -0.474 OA
ATOM     19  C   UNL A   1      32.845  24.227  24.224  1.00  0.00     0.314 C 
BRANCH  10  20
ATOM     20  C   UNL A   1      38.568  21.807  25.838  1.00  0.00    -0.070 C 
ATOM     21  C   UNL A   1      39.701  21.529  26.126  1.00  0.00     0.010 C 
ENDBRANCH  10  20
BRANCH  19  22
ATOM     22  C   UNL A   1      32.602  24.159  22.704  1.00  0.00     0.429 C 
ATOM     23  F   UNL A   1      33.647  24.703  22.032  1.00  0.00    -0.167 F 
ATOM     24  F   UNL A   1      32.475  22.892  22.247  1.00  0.00    -0.167 F 
ATOM     25  F   UNL A   1      31.484  24.823  22.333  1.00  0.00    -0.167 F 
ENDBRANCH  19  22
ENDBRANCH   6   9
ENDBRANCH   4   5
ENDBRANCH   3   4
ENDBRANCH   2   3
ENDBRANCH   1   2
BRANCH   1  26
ATOM     26  C   UNL A   1      31.437  31.904  26.501  1.00  0.00     0.021 C 
BRANCH  26  27
ATOM     27  C   UNL A   1      32.648  32.442  27.251  1.00  0.00     0.116 C 
BRANCH  27  28
ATOM     28  N   UNL A   1      32.472  33.840  27.607  1.00  0.00    -0.352 N 
ATOM     29  C   UNL A   1      33.126  34.577  28.560  1.00  0.00     0.251 C 
ATOM     30  H   UNL A   1      31.789  34.327  27.092  1.00  0.00     0.163 HD
ATOM     31  O   UNL A   1      32.694  35.669  28.911  1.00  0.00    -0.269 OA
BRANCH  29  32
ATOM     32  C   UNL A   1      34.353  34.032  29.169  1.00  0.00     0.039 A 
ATOM     33  C   UNL A   1      34.247  33.235  30.308  1.00  0.00     0.014 A 
ATOM     34  C   UNL A   1      35.602  34.302  28.600  1.00  0.00     0.014 A 
ATOM     35  C   UNL A   1      35.397  32.668  30.854  1.00  0.00     0.010 A 
ATOM     36  C   UNL A   1      36.733  33.666  29.091  1.00  0.00     0.010 A 
ATOM     37  C   UNL A   1      36.643  32.857  30.233  1.00  0.00    -0.014 A 
BRANCH  37  38
ATOM     38  C   UNL A   1      37.870  32.236  30.785  1.00  0.00     0.031 A 
ATOM     39  C   UNL A   1      38.412  30.976  30.169  1.00  0.00     0.074 A 
ATOM     40  C   UNL A   1      38.479  32.792  31.849  1.00  0.00     0.049 A 
ATOM     41  N   UNL A   1      39.464  30.279  30.516  1.00  0.00    -0.248 NA
ATOM     42  C   UNL A   1      37.669  30.415  29.028  1.00  0.00     0.031 C 
ATOM     43  C   UNL A   1      38.034  34.004  32.540  1.00  0.00     0.029 A 
ATOM     44  N   UNL A   1      39.609  32.417  32.529  1.00  0.00    -0.354 N 
ATOM     45  C   UNL A   1      39.507  29.205  29.638  1.00  0.00     0.074 A 
ATOM     46  C   UNL A   1      38.342  29.301  28.786  1.00  0.00     0.031 C 
ATOM     47  C   UNL A   1      38.908  34.297  33.516  1.00  0.00     0.029 A 
ATOM     48  C   UNL A   1      39.945  33.270  33.551  1.00  0.00     0.049 A 
ATOM     49  H   UNL A   1      40.131  31.612  32.305  1.00  0.00     0.167 HD
ATOM     50  C   UNL A   1      40.451  28.242  29.528  1.00  0.00     0.031 A 
ATOM     51  C   UNL A   1      40.972  33.229  34.422  1.00  0.00     0.031 A 
ATOM     52  C   UNL A   1      41.609  28.151  30.375  1.00  0.00     0.049 A 
ATOM     53  C   UNL A   1      41.972  32.110  34.319  1.00  0.00     0.074 A 
ATOM     54  C   UNL A   1      42.637  27.228  30.325  1.00  0.00     0.029 A 
ATOM     55  N   UNL A   1      41.889  29.011  31.425  1.00  0.00    -0.354 N 
ATOM     56  N   UNL A   1      42.031  31.134  33.446  1.00  0.00    -0.248 NA
ATOM     57  C   UNL A   1      43.051  32.092  35.317  1.00  0.00     0.031 C 
ATOM     58  C   UNL A   1      43.504  27.487  31.388  1.00  0.00     0.029 A 
ATOM     59  C   UNL A   1      43.058  28.618  32.054  1.00  0.00     0.049 A 
ATOM     60  H   UNL A   1      41.340  29.786  31.685  1.00  0.00     0.167 HD
ATOM     61  C   UNL A   1      43.165  30.401  33.772  1.00  0.00     0.074 A 
ATOM     62  C   UNL A   1      43.775  31.059  34.910  1.00  0.00     0.031 C 
ATOM     63  C   UNL A   1      43.654  29.282  33.185  1.00  0.00     0.031 A 
BRANCH  50  64
ATOM     64  C   UNL A   1      40.276  27.209  28.449  1.00  0.00    -0.014 A 
ATOM     65  C   UNL A   1      40.906  27.350  27.202  1.00  0.00     0.009 A 
ATOM     66  C   UNL A   1      39.531  26.047  28.705  1.00  0.00     0.009 A 
ATOM     67  C   UNL A   1      40.775  26.359  26.226  1.00  0.00     0.001 A 
ATOM     68  C   UNL A   1      39.431  25.043  27.741  1.00  0.00     0.001 A 
ATOM     69  C   UNL A   1      40.047  25.203  26.501  1.00  0.00     0.000 A 
ENDBRANCH  50  64
BRANCH  51  70
ATOM     70  C   UNL A   1      41.117  34.295  35.450  1.00  0.00    -0.014 A 
ATOM     71  C   UNL A   1      41.859  35.454  35.174  1.00  0.00     0.009 A 
ATOM     72  C   UNL A   1      40.502  34.170  36.706  1.00  0.00     0.009 A 
ATOM     73  C   UNL A   1      41.997  36.454  36.139  1.00  0.00     0.001 A 
ATOM     74  C   UNL A   1      40.613  35.187  37.657  1.00  0.00     0.001 A 
ATOM     75  C   UNL A   1      41.368  36.324  37.375  1.00  0.00     0.000 A 
ENDBRANCH  51  70
BRANCH  63  76
ATOM     76  C   UNL A   1      44.923  28.698  33.740  1.00  0.00    -0.014 A 
ATOM     77  C   UNL A   1      44.895  27.696  34.722  1.00  0.00     0.009 A 
ATOM     78  C   UNL A   1      46.163  29.092  33.208  1.00  0.00     0.009 A 
ATOM     79  C   UNL A   1      46.082  27.119  35.176  1.00  0.00     0.001 A 
ATOM     80  C   UNL A   1      47.344  28.487  33.637  1.00  0.00     0.001 A 
ATOM     81  C   UNL A   1      47.303  27.506  34.627  1.00  0.00     0.000 A 
ENDBRANCH  63  76
ENDBRANCH  37  38
ENDBRANCH  29  32
ENDBRANCH  27  28
ENDBRANCH  26  27
ENDBRANCH   1  26
TORSDOF 15
ENDMDL
