MODEL 1
REMARK VINA RESULT:     -12.2      0.000      0.000
REMARK SMILES Cc1cc([N+](=O)[O-])ccc1NC(=O)[C@@H]1[C@@H](C(=O)NCCCCCCNC(=O)c2ccc(-c3c4nc(c(-c5ccccc5)c5ccc([nH]5)c(-c5ccccc5)c5nc(c(-c6ccccc6)c6ccc3[nH]6)C=C5)C=C4)cc2)[C@H]2C=C[C@@H]1C2
REMARK SMILES IDX 21 1 20 2 19 3 18 4 16 5 17 6 15 8 14 9 79 10 76 11 78 12
REMARK SMILES IDX 80 13 77 14 12 15 11 16 13 18 10 19 1 20 2 21 3 22 4 23 9 24
REMARK SMILES IDX 8 25 5 26 6 27 7 28 22 29 23 30 24 31 25 32 26 33 27 35
REMARK SMILES IDX 28 36 29 37 75 38 30 39 74 40 31 41 32 42 33 43 68 44 34 45
REMARK SMILES IDX 73 46 67 47 69 48 35 49 72 50 66 51 65 52 36 54 58 55 43 56
REMARK SMILES IDX 57 57 44 58 47 59 56 60 70 61 45 62 46 63 55 65 71 66 48 67
REMARK SMILES IDX 37 68 38 69 42 70 39 71 41 72 40 73 59 74 60 75 64 76 61 77
REMARK SMILES IDX 63 78 62 79 49 80 50 81 54 82 51 83 53 84 52 85
REMARK H PARENT 18 7 11 17 25 34 69 53 47 64
REMARK Flexibility Score: inf
ROOT
ATOM      1  C   UNL A   1      37.880  20.416  25.064  1.00  0.00     0.002 C 
ENDROOT
BRANCH   1   2
ATOM      2  C   UNL A   1      36.505  20.214  24.413  1.00  0.00     0.021 C 
BRANCH   2   3
ATOM      3  C   UNL A   1      35.295  20.118  25.342  1.00  0.00     0.116 C 
BRANCH   3   4
ATOM      4  N   UNL A   1      34.037  20.378  24.684  1.00  0.00    -0.356 N 
ATOM      5  C   UNL A   1      33.338  21.541  24.579  1.00  0.00     0.224 C 
ATOM      6  O   UNL A   1      32.309  21.507  23.900  1.00  0.00    -0.275 OA
ATOM      7  H   UNL A   1      33.623  19.599  24.246  1.00  0.00     0.163 HD
BRANCH   5   8
ATOM      8  C   UNL A   1      33.763  22.791  25.348  1.00  0.00     0.098 C 
ATOM      9  C   UNL A   1      32.665  23.925  25.236  1.00  0.00     0.099 C 
ATOM     10  C   UNL A   1      33.499  25.161  24.810  1.00  0.00     0.025 C 
ATOM     11  C   UNL A   1      35.022  23.528  24.820  1.00  0.00     0.025 C 
ATOM     12  C   UNL A   1      33.916  24.935  23.375  1.00  0.00    -0.027 C 
ATOM     13  C   UNL A   1      34.843  24.896  25.486  1.00  0.00     0.017 C 
ATOM     14  C   UNL A   1      34.820  23.946  23.380  1.00  0.00    -0.027 C 
BRANCH   9  15
ATOM     15  C   UNL A   1      31.870  24.185  26.502  1.00  0.00     0.228 C 
ATOM     16  N   UNL A   1      31.021  25.258  26.619  1.00  0.00    -0.326 N 
ATOM     17  H   UNL A   1      30.585  25.311  27.501  1.00  0.00     0.169 HD
ATOM     18  O   UNL A   1      32.000  23.464  27.496  1.00  0.00    -0.274 OA
BRANCH  16  19
ATOM     19  C   UNL A   1      30.639  26.303  25.748  1.00  0.00     0.044 A 
ATOM     20  C   UNL A   1      32.189  27.959  26.990  1.00  0.00     0.047 C 
ATOM     21  C   UNL A   1      31.255  27.569  25.872  1.00  0.00    -0.021 A 
ATOM     22  C   UNL A   1      30.986  28.572  24.911  1.00  0.00     0.091 A 
ATOM     23  C   UNL A   1      30.109  28.327  23.852  1.00  0.00     0.269 A 
ATOM     24  C   UNL A   1      29.677  26.134  24.741  1.00  0.00     0.033 A 
ATOM     25  C   UNL A   1      29.426  27.118  23.782  1.00  0.00     0.088 A 
BRANCH  23  26
ATOM     26  N   UNL A   1      29.900  29.339  22.812  1.00  0.00     0.062 N 
ATOM     27  O   UNL A   1      29.456  30.441  23.162  1.00  0.00    -0.258 OA
ATOM     28  O   UNL A   1      30.197  29.035  21.647  1.00  0.00    -0.258 OA
ENDBRANCH  23  26
ENDBRANCH  16  19
ENDBRANCH   9  15
ENDBRANCH   5   8
ENDBRANCH   3   4
ENDBRANCH   2   3
ENDBRANCH   1   2
BRANCH   1  29
ATOM     29  C   UNL A   1      38.238  21.817  25.578  1.00  0.00     0.002 C 
BRANCH  29  30
ATOM     30  C   UNL A   1      39.616  22.001  26.215  1.00  0.00     0.021 C 
BRANCH  30  31
ATOM     31  C   UNL A   1      40.216  20.758  26.852  1.00  0.00     0.116 C 
BRANCH  31  32
ATOM     32  N   UNL A   1      41.239  20.080  26.070  1.00  0.00    -0.352 N 
ATOM     33  C   UNL A   1      42.567  20.446  25.872  1.00  0.00     0.251 C 
ATOM     34  H   UNL A   1      40.954  19.253  25.621  1.00  0.00     0.163 HD
ATOM     35  O   UNL A   1      43.288  19.788  25.157  1.00  0.00    -0.269 OA
BRANCH  33  36
ATOM     36  C   UNL A   1      43.126  21.585  26.655  1.00  0.00     0.039 A 
ATOM     37  C   UNL A   1      43.063  21.507  28.051  1.00  0.00     0.014 A 
ATOM     38  C   UNL A   1      43.514  22.772  26.041  1.00  0.00     0.014 A 
ATOM     39  C   UNL A   1      43.134  22.678  28.804  1.00  0.00     0.010 A 
ATOM     40  C   UNL A   1      43.480  23.946  26.769  1.00  0.00     0.010 A 
ATOM     41  C   UNL A   1      43.222  23.904  28.140  1.00  0.00    -0.014 A 
BRANCH  41  42
ATOM     42  C   UNL A   1      42.928  25.175  28.789  1.00  0.00     0.031 A 
ATOM     43  C   UNL A   1      41.715  25.933  28.437  1.00  0.00     0.074 A 
ATOM     44  C   UNL A   1      43.784  25.697  29.695  1.00  0.00     0.049 A 
ATOM     45  N   UNL A   1      41.675  27.223  28.364  1.00  0.00    -0.248 NA
ATOM     46  C   UNL A   1      40.453  25.288  28.100  1.00  0.00     0.031 C 
ATOM     47  C   UNL A   1      43.559  26.866  30.542  1.00  0.00     0.029 A 
ATOM     48  N   UNL A   1      45.138  25.409  29.870  1.00  0.00    -0.354 N 
ATOM     49  C   UNL A   1      40.352  27.578  28.264  1.00  0.00     0.074 A 
ATOM     50  C   UNL A   1      39.640  26.346  28.004  1.00  0.00     0.031 C 
ATOM     51  C   UNL A   1      44.751  27.381  30.884  1.00  0.00     0.029 A 
ATOM     52  C   UNL A   1      45.770  26.624  30.178  1.00  0.00     0.049 A 
ATOM     53  H   UNL A   1      45.566  24.526  29.793  1.00  0.00     0.167 HD
ATOM     54  C   UNL A   1      39.956  28.844  28.576  1.00  0.00     0.031 A 
ATOM     55  C   UNL A   1      46.807  27.151  29.468  1.00  0.00     0.031 A 
ATOM     56  C   UNL A   1      41.063  29.673  29.037  1.00  0.00     0.049 A 
ATOM     57  C   UNL A   1      46.541  28.555  28.977  1.00  0.00     0.074 A 
ATOM     58  C   UNL A   1      41.480  30.037  30.308  1.00  0.00     0.029 A 
ATOM     59  N   UNL A   1      42.083  30.027  28.167  1.00  0.00    -0.354 N 
ATOM     60  N   UNL A   1      45.350  29.080  28.910  1.00  0.00    -0.248 NA
ATOM     61  C   UNL A   1      47.572  29.446  28.455  1.00  0.00     0.031 C 
ATOM     62  C   UNL A   1      42.770  30.608  30.201  1.00  0.00     0.029 A 
ATOM     63  C   UNL A   1      43.128  30.599  28.864  1.00  0.00     0.049 A 
ATOM     64  H   UNL A   1      42.064  29.889  27.192  1.00  0.00     0.167 HD
ATOM     65  C   UNL A   1      45.430  30.334  28.359  1.00  0.00     0.074 A 
ATOM     66  C   UNL A   1      46.845  30.518  28.092  1.00  0.00     0.031 C 
ATOM     67  C   UNL A   1      44.309  31.090  28.167  1.00  0.00     0.031 A 
BRANCH  54  68
ATOM     68  C   UNL A   1      38.510  29.225  28.769  1.00  0.00    -0.014 A 
ATOM     69  C   UNL A   1      37.798  29.819  27.711  1.00  0.00     0.009 A 
ATOM     70  C   UNL A   1      37.805  29.048  29.971  1.00  0.00     0.009 A 
ATOM     71  C   UNL A   1      36.499  30.313  27.875  1.00  0.00     0.001 A 
ATOM     72  C   UNL A   1      36.519  29.574  30.155  1.00  0.00     0.001 A 
ATOM     73  C   UNL A   1      35.871  30.220  29.109  1.00  0.00     0.000 A 
ENDBRANCH  54  68
BRANCH  55  74
ATOM     74  C   UNL A   1      47.616  26.151  28.725  1.00  0.00    -0.014 A 
ATOM     75  C   UNL A   1      47.436  26.045  27.333  1.00  0.00     0.009 A 
ATOM     76  C   UNL A   1      48.779  25.614  29.297  1.00  0.00     0.009 A 
ATOM     77  C   UNL A   1      48.443  25.516  26.523  1.00  0.00     0.001 A 
ATOM     78  C   UNL A   1      49.782  25.080  28.481  1.00  0.00     0.001 A 
ATOM     79  C   UNL A   1      49.629  25.062  27.095  1.00  0.00     0.000 A 
ENDBRANCH  55  74
BRANCH  67  80
ATOM     80  C   UNL A   1      44.182  32.388  27.400  1.00  0.00    -0.014 A 
ATOM     81  C   UNL A   1      44.294  32.521  26.012  1.00  0.00     0.009 A 
ATOM     82  C   UNL A   1      43.821  33.561  28.109  1.00  0.00     0.009 A 
ATOM     83  C   UNL A   1      44.084  33.754  25.373  1.00  0.00     0.001 A 
ATOM     84  C   UNL A   1      43.570  34.781  27.477  1.00  0.00     0.001 A 
ATOM     85  C   UNL A   1      43.711  34.880  26.103  1.00  0.00     0.000 A 
ENDBRANCH  67  80
ENDBRANCH  41  42
ENDBRANCH  33  36
ENDBRANCH  31  32
ENDBRANCH  30  31
ENDBRANCH  29  30
ENDBRANCH   1  29
TORSDOF 16
ENDMDL
MODEL 2
REMARK VINA RESULT:     -12.0      1.933      2.705
REMARK SMILES Cc1cc([N+](=O)[O-])ccc1NC(=O)[C@@H]1[C@@H](C(=O)NCCCCCCNC(=O)c2ccc(-c3c4nc(c(-c5ccccc5)c5ccc([nH]5)c(-c5ccccc5)c5nc(c(-c6ccccc6)c6ccc3[nH]6)C=C5)C=C4)cc2)[C@H]2C=C[C@@H]1C2
REMARK SMILES IDX 21 1 20 2 19 3 18 4 16 5 17 6 15 8 14 9 79 10 76 11 78 12
REMARK SMILES IDX 80 13 77 14 12 15 11 16 13 18 10 19 1 20 2 21 3 22 4 23 9 24
REMARK SMILES IDX 8 25 5 26 6 27 7 28 22 29 23 30 24 31 25 32 26 33 27 35
REMARK SMILES IDX 28 36 29 37 75 38 30 39 74 40 31 41 32 42 33 43 68 44 34 45
REMARK SMILES IDX 73 46 67 47 69 48 35 49 72 50 66 51 65 52 36 54 58 55 43 56
REMARK SMILES IDX 57 57 44 58 47 59 56 60 70 61 45 62 46 63 55 65 71 66 48 67
REMARK SMILES IDX 37 68 38 69 42 70 39 71 41 72 40 73 59 74 60 75 64 76 61 77
REMARK SMILES IDX 63 78 62 79 49 80 50 81 54 82 51 83 53 84 52 85
REMARK H PARENT 18 7 11 17 25 34 69 53 47 64
REMARK Flexibility Score: inf
ROOT
ATOM      1  C   UNL A   1      38.975  22.811  26.160  1.00  0.00     0.002 C 
ENDROOT
BRANCH   1   2
ATOM      2  C   UNL A   1      37.742  22.145  25.535  1.00  0.00     0.021 C 
BRANCH   2   3
ATOM      3  C   UNL A   1      36.951  22.953  24.508  1.00  0.00     0.116 C 
BRANCH   3   4
ATOM      4  N   UNL A   1      36.162  24.015  25.087  1.00  0.00    -0.356 N 
ATOM      5  C   UNL A   1      34.920  24.455  24.749  1.00  0.00     0.224 C 
ATOM      6  O   UNL A   1      34.440  25.347  25.453  1.00  0.00    -0.275 OA
ATOM      7  H   UNL A   1      36.586  24.490  25.838  1.00  0.00     0.163 HD
BRANCH   5   8
ATOM      8  C   UNL A   1      34.209  23.934  23.500  1.00  0.00     0.098 C 
ATOM      9  C   UNL A   1      32.943  24.821  23.159  1.00  0.00     0.099 C 
ATOM     10  C   UNL A   1      31.827  23.759  22.979  1.00  0.00     0.025 C 
ATOM     11  C   UNL A   1      33.575  22.522  23.610  1.00  0.00     0.025 C 
ATOM     12  C   UNL A   1      31.512  23.217  24.354  1.00  0.00    -0.027 C 
ATOM     13  C   UNL A   1      32.601  22.563  22.428  1.00  0.00     0.017 C 
ATOM     14  C   UNL A   1      32.567  22.485  24.738  1.00  0.00    -0.027 C 
BRANCH   9  15
ATOM     15  C   UNL A   1      33.085  25.709  21.937  1.00  0.00     0.228 C 
ATOM     16  N   UNL A   1      32.949  27.073  22.010  1.00  0.00    -0.326 N 
ATOM     17  H   UNL A   1      33.050  27.519  21.138  1.00  0.00     0.169 HD
ATOM     18  O   UNL A   1      33.279  25.226  20.817  1.00  0.00    -0.274 OA
BRANCH  16  19
ATOM     19  C   UNL A   1      32.695  27.975  23.068  1.00  0.00     0.044 A 
ATOM     20  C   UNL A   1      30.189  28.075  22.433  1.00  0.00     0.047 C 
ATOM     21  C   UNL A   1      31.366  28.390  23.321  1.00  0.00    -0.021 A 
ATOM     22  C   UNL A   1      31.087  29.172  24.466  1.00  0.00     0.091 A 
ATOM     23  C   UNL A   1      32.111  29.549  25.339  1.00  0.00     0.269 A 
ATOM     24  C   UNL A   1      33.709  28.471  23.900  1.00  0.00     0.033 A 
ATOM     25  C   UNL A   1      33.430  29.227  25.041  1.00  0.00     0.088 A 
BRANCH  23  26
ATOM     26  N   UNL A   1      31.804  30.286  26.569  1.00  0.00     0.062 N 
ATOM     27  O   UNL A   1      31.750  29.643  27.626  1.00  0.00    -0.258 OA
ATOM     28  O   UNL A   1      31.633  31.510  26.477  1.00  0.00    -0.258 OA
ENDBRANCH  23  26
ENDBRANCH  16  19
ENDBRANCH   9  15
ENDBRANCH   5   8
ENDBRANCH   3   4
ENDBRANCH   2   3
ENDBRANCH   1   2
BRANCH   1  29
ATOM     29  C   UNL A   1      39.988  21.916  26.889  1.00  0.00     0.002 C 
BRANCH  29  30
ATOM     30  C   UNL A   1      40.598  20.758  26.099  1.00  0.00     0.021 C 
BRANCH  30  31
ATOM     31  C   UNL A   1      41.979  20.310  26.551  1.00  0.00     0.116 C 
BRANCH  31  32
ATOM     32  N   UNL A   1      42.843  19.783  25.506  1.00  0.00    -0.352 N 
ATOM     33  C   UNL A   1      43.807  20.450  24.756  1.00  0.00     0.251 C 
ATOM     34  H   UNL A   1      42.731  18.827  25.301  1.00  0.00     0.163 HD
ATOM     35  O   UNL A   1      44.424  19.871  23.890  1.00  0.00    -0.269 OA
BRANCH  33  36
ATOM     36  C   UNL A   1      44.164  21.850  25.121  1.00  0.00     0.039 A 
ATOM     37  C   UNL A   1      45.140  22.037  26.107  1.00  0.00     0.014 A 
ATOM     38  C   UNL A   1      43.426  22.936  24.659  1.00  0.00     0.014 A 
ATOM     39  C   UNL A   1      45.187  23.245  26.800  1.00  0.00     0.010 A 
ATOM     40  C   UNL A   1      43.396  24.095  25.409  1.00  0.00     0.010 A 
ATOM     41  C   UNL A   1      44.228  24.222  26.522  1.00  0.00    -0.014 A 
BRANCH  41  42
ATOM     42  C   UNL A   1      43.954  25.337  27.419  1.00  0.00     0.031 A 
ATOM     43  C   UNL A   1      42.628  25.978  27.435  1.00  0.00     0.074 A 
ATOM     44  C   UNL A   1      44.925  25.824  28.225  1.00  0.00     0.049 A 
ATOM     45  N   UNL A   1      42.451  27.248  27.589  1.00  0.00    -0.248 NA
ATOM     46  C   UNL A   1      41.391  25.234  27.236  1.00  0.00     0.031 C 
ATOM     47  C   UNL A   1      44.767  26.818  29.284  1.00  0.00     0.029 A 
ATOM     48  N   UNL A   1      46.307  25.689  28.091  1.00  0.00    -0.354 N 
ATOM     49  C   UNL A   1      41.108  27.444  27.801  1.00  0.00     0.074 A 
ATOM     50  C   UNL A   1      40.479  26.183  27.474  1.00  0.00     0.031 C 
ATOM     51  C   UNL A   1      45.949  27.425  29.478  1.00  0.00     0.029 A 
ATOM     52  C   UNL A   1      46.870  26.915  28.476  1.00  0.00     0.049 A 
ATOM     53  H   UNL A   1      46.792  24.888  27.788  1.00  0.00     0.167 HD
ATOM     54  C   UNL A   1      40.666  28.589  28.390  1.00  0.00     0.031 A 
ATOM     55  C   UNL A   1      47.684  27.668  27.684  1.00  0.00     0.031 A 
ATOM     56  C   UNL A   1      41.759  29.476  28.770  1.00  0.00     0.049 A 
ATOM     57  C   UNL A   1      47.190  29.083  27.496  1.00  0.00     0.074 A 
ATOM     58  C   UNL A   1      42.392  29.700  29.983  1.00  0.00     0.029 A 
ATOM     59  N   UNL A   1      42.541  30.080  27.796  1.00  0.00    -0.354 N 
ATOM     60  N   UNL A   1      45.966  29.458  27.743  1.00  0.00    -0.248 NA
ATOM     61  C   UNL A   1      48.002  30.166  26.948  1.00  0.00     0.031 C 
ATOM     62  C   UNL A   1      43.572  30.439  29.733  1.00  0.00     0.029 A 
ATOM     63  C   UNL A   1      43.647  30.672  28.372  1.00  0.00     0.049 A 
ATOM     64  H   UNL A   1      42.335  30.086  26.833  1.00  0.00     0.167 HD
ATOM     65  C   UNL A   1      45.811  30.779  27.407  1.00  0.00     0.074 A 
ATOM     66  C   UNL A   1      47.116  31.178  26.914  1.00  0.00     0.031 C 
ATOM     67  C   UNL A   1      44.607  31.406  27.559  1.00  0.00     0.031 A 
BRANCH  54  68
ATOM     68  C   UNL A   1      39.261  28.751  28.913  1.00  0.00    -0.014 A 
ATOM     69  C   UNL A   1      38.223  29.101  28.028  1.00  0.00     0.009 A 
ATOM     70  C   UNL A   1      38.902  28.599  30.262  1.00  0.00     0.009 A 
ATOM     71  C   UNL A   1      36.931  29.393  28.477  1.00  0.00     0.001 A 
ATOM     72  C   UNL A   1      37.620  28.927  30.725  1.00  0.00     0.001 A 
ATOM     73  C   UNL A   1      36.638  29.338  29.833  1.00  0.00     0.000 A 
ENDBRANCH  54  68
BRANCH  55  74
ATOM     74  C   UNL A   1      48.415  26.899  26.645  1.00  0.00    -0.014 A 
ATOM     75  C   UNL A   1      47.956  26.966  25.316  1.00  0.00     0.009 A 
ATOM     76  C   UNL A   1      49.720  26.447  26.885  1.00  0.00     0.009 A 
ATOM     77  C   UNL A   1      48.817  26.695  24.250  1.00  0.00     0.001 A 
ATOM     78  C   UNL A   1      50.577  26.171  25.814  1.00  0.00     0.001 A 
ATOM     79  C   UNL A   1      50.137  26.327  24.500  1.00  0.00     0.000 A 
ENDBRANCH  55  74
BRANCH  67  80
ATOM     80  C   UNL A   1      44.203  32.776  27.059  1.00  0.00    -0.014 A 
ATOM     81  C   UNL A   1      44.102  33.926  27.848  1.00  0.00     0.009 A 
ATOM     82  C   UNL A   1      44.006  32.958  25.668  1.00  0.00     0.009 A 
ATOM     83  C   UNL A   1      43.795  35.177  27.287  1.00  0.00     0.001 A 
ATOM     84  C   UNL A   1      43.742  34.205  25.097  1.00  0.00     0.001 A 
ATOM     85  C   UNL A   1      43.628  35.319  25.912  1.00  0.00     0.000 A 
ENDBRANCH  67  80
ENDBRANCH  41  42
ENDBRANCH  33  36
ENDBRANCH  31  32
ENDBRANCH  30  31
ENDBRANCH  29  30
ENDBRANCH   1  29
TORSDOF 16
ENDMDL
MODEL 3
REMARK VINA RESULT:     -12.0      3.141      8.777
REMARK SMILES Cc1cc([N+](=O)[O-])ccc1NC(=O)[C@@H]1[C@@H](C(=O)NCCCCCCNC(=O)c2ccc(-c3c4nc(c(-c5ccccc5)c5ccc([nH]5)c(-c5ccccc5)c5nc(c(-c6ccccc6)c6ccc3[nH]6)C=C5)C=C4)cc2)[C@H]2C=C[C@@H]1C2
REMARK SMILES IDX 21 1 20 2 19 3 18 4 16 5 17 6 15 8 14 9 79 10 76 11 78 12
REMARK SMILES IDX 80 13 77 14 12 15 11 16 13 18 10 19 1 20 2 21 3 22 4 23 9 24
REMARK SMILES IDX 8 25 5 26 6 27 7 28 22 29 23 30 24 31 25 32 26 33 27 35
REMARK SMILES IDX 28 36 29 37 75 38 30 39 74 40 31 41 32 42 33 43 68 44 34 45
REMARK SMILES IDX 73 46 67 47 69 48 35 49 72 50 66 51 65 52 36 54 58 55 43 56
REMARK SMILES IDX 57 57 44 58 47 59 56 60 70 61 45 62 46 63 55 65 71 66 48 67
REMARK SMILES IDX 37 68 38 69 42 70 39 71 41 72 40 73 59 74 60 75 64 76 61 77
REMARK SMILES IDX 63 78 62 79 49 80 50 81 54 82 51 83 53 84 52 85
REMARK H PARENT 18 7 11 17 25 34 69 53 47 64
REMARK Flexibility Score: inf
ROOT
ATOM      1  C   UNL A   1      31.666  29.340  24.717  1.00  0.00     0.002 C 
ENDROOT
BRANCH   1   2
ATOM      2  C   UNL A   1      32.457  28.675  23.582  1.00  0.00     0.021 C 
BRANCH   2   3
ATOM      3  C   UNL A   1      33.774  27.991  23.950  1.00  0.00     0.116 C 
BRANCH   3   4
ATOM      4  N   UNL A   1      34.057  26.817  23.160  1.00  0.00    -0.356 N 
ATOM      5  C   UNL A   1      33.573  25.551  23.284  1.00  0.00     0.224 C 
ATOM      6  O   UNL A   1      33.932  24.737  22.429  1.00  0.00    -0.275 OA
ATOM      7  H   UNL A   1      34.695  26.951  22.423  1.00  0.00     0.163 HD
BRANCH   5   8
ATOM      8  C   UNL A   1      32.711  25.147  24.480  1.00  0.00     0.098 C 
ATOM      9  C   UNL A   1      32.820  23.593  24.757  1.00  0.00     0.099 C 
ATOM     10  C   UNL A   1      31.334  23.163  24.854  1.00  0.00     0.025 C 
ATOM     11  C   UNL A   1      31.178  25.323  24.312  1.00  0.00     0.025 C 
ATOM     12  C   UNL A   1      30.766  23.228  23.455  1.00  0.00    -0.027 C 
ATOM     13  C   UNL A   1      30.670  24.411  25.433  1.00  0.00     0.017 C 
ATOM     14  C   UNL A   1      30.685  24.525  23.125  1.00  0.00    -0.027 C 
BRANCH   9  15
ATOM     15  C   UNL A   1      33.605  23.210  25.998  1.00  0.00     0.228 C 
ATOM     16  N   UNL A   1      34.012  21.920  26.231  1.00  0.00    -0.326 N 
ATOM     17  H   UNL A   1      34.497  21.816  27.082  1.00  0.00     0.169 HD
ATOM     18  O   UNL A   1      33.861  24.044  26.873  1.00  0.00    -0.274 OA
BRANCH  16  19
ATOM     19  C   UNL A   1      33.886  20.710  25.512  1.00  0.00     0.044 A 
ATOM     20  C   UNL A   1      36.416  20.718  24.976  1.00  0.00     0.047 C 
ATOM     21  C   UNL A   1      35.044  20.094  24.983  1.00  0.00    -0.021 A 
ATOM     22  C   UNL A   1      34.942  18.811  24.394  1.00  0.00     0.091 A 
ATOM     23  C   UNL A   1      33.710  18.157  24.319  1.00  0.00     0.269 A 
ATOM     24  C   UNL A   1      32.651  20.074  25.311  1.00  0.00     0.033 A 
ATOM     25  C   UNL A   1      32.555  18.800  24.747  1.00  0.00     0.088 A 
BRANCH  23  26
ATOM     26  N   UNL A   1      33.626  16.794  23.786  1.00  0.00     0.062 N 
ATOM     27  O   UNL A   1      33.078  15.934  24.489  1.00  0.00    -0.258 OA
ATOM     28  O   UNL A   1      34.096  16.588  22.657  1.00  0.00    -0.258 OA
ENDBRANCH  23  26
ENDBRANCH  16  19
ENDBRANCH   9  15
ENDBRANCH   5   8
ENDBRANCH   3   4
ENDBRANCH   2   3
ENDBRANCH   1   2
BRANCH   1  29
ATOM     29  C   UNL A   1      31.654  28.653  26.089  1.00  0.00     0.002 C 
BRANCH  29  30
ATOM     30  C   UNL A   1      32.254  29.424  27.266  1.00  0.00     0.021 C 
BRANCH  30  31
ATOM     31  C   UNL A   1      33.702  29.857  27.097  1.00  0.00     0.116 C 
BRANCH  31  32
ATOM     32  N   UNL A   1      34.133  30.958  27.945  1.00  0.00    -0.352 N 
ATOM     33  C   UNL A   1      35.307  31.079  28.683  1.00  0.00     0.251 C 
ATOM     34  H   UNL A   1      33.512  31.719  28.005  1.00  0.00     0.163 HD
ATOM     35  O   UNL A   1      35.503  32.053  29.374  1.00  0.00    -0.269 OA
BRANCH  33  36
ATOM     36  C   UNL A   1      36.377  30.056  28.510  1.00  0.00     0.039 A 
ATOM     37  C   UNL A   1      36.684  29.243  29.607  1.00  0.00     0.014 A 
ATOM     38  C   UNL A   1      37.187  30.032  27.378  1.00  0.00     0.014 A 
ATOM     39  C   UNL A   1      37.927  28.617  29.666  1.00  0.00     0.010 A 
ATOM     40  C   UNL A   1      38.459  29.502  27.475  1.00  0.00     0.010 A 
ATOM     41  C   UNL A   1      38.852  28.854  28.647  1.00  0.00    -0.014 A 
BRANCH  41  42
ATOM     42  C   UNL A   1      40.273  28.566  28.789  1.00  0.00     0.031 A 
ATOM     43  C   UNL A   1      40.848  27.331  28.228  1.00  0.00     0.074 A 
ATOM     44  C   UNL A   1      41.080  29.410  29.472  1.00  0.00     0.049 A 
ATOM     45  N   UNL A   1      41.781  26.650  28.808  1.00  0.00    -0.248 NA
ATOM     46  C   UNL A   1      40.384  26.744  26.978  1.00  0.00     0.031 C 
ATOM     47  C   UNL A   1      42.536  29.347  29.564  1.00  0.00     0.029 A 
ATOM     48  N   UNL A   1      40.721  30.368  30.420  1.00  0.00    -0.354 N 
ATOM     49  C   UNL A   1      42.232  25.728  27.894  1.00  0.00     0.074 A 
ATOM     50  C   UNL A   1      41.272  25.757  26.813  1.00  0.00     0.031 C 
ATOM     51  C   UNL A   1      42.919  29.963  30.695  1.00  0.00     0.029 A 
ATOM     52  C   UNL A   1      41.713  30.342  31.413  1.00  0.00     0.049 A 
ATOM     53  H   UNL A   1      39.928  30.951  30.396  1.00  0.00     0.167 HD
ATOM     54  C   UNL A   1      43.455  25.150  28.049  1.00  0.00     0.031 A 
ATOM     55  C   UNL A   1      41.469  30.120  32.735  1.00  0.00     0.031 A 
ATOM     56  C   UNL A   1      44.165  25.659  29.217  1.00  0.00     0.049 A 
ATOM     57  C   UNL A   1      42.266  28.970  33.303  1.00  0.00     0.074 A 
ATOM     58  C   UNL A   1      45.163  26.611  29.350  1.00  0.00     0.029 A 
ATOM     59  N   UNL A   1      43.692  25.396  30.494  1.00  0.00    -0.354 N 
ATOM     60  N   UNL A   1      42.841  28.059  32.569  1.00  0.00    -0.248 NA
ATOM     61  C   UNL A   1      42.416  28.707  34.731  1.00  0.00     0.031 C 
ATOM     62  C   UNL A   1      45.285  26.931  30.723  1.00  0.00     0.029 A 
ATOM     63  C   UNL A   1      44.369  26.164  31.420  1.00  0.00     0.049 A 
ATOM     64  H   UNL A   1      42.977  24.754  30.708  1.00  0.00     0.167 HD
ATOM     65  C   UNL A   1      43.422  27.115  33.376  1.00  0.00     0.074 A 
ATOM     66  C   UNL A   1      43.129  27.566  34.724  1.00  0.00     0.031 C 
ATOM     67  C   UNL A   1      44.079  26.042  32.842  1.00  0.00     0.031 A 
BRANCH  54  68
ATOM     68  C   UNL A   1      44.132  24.363  26.957  1.00  0.00    -0.014 A 
ATOM     69  C   UNL A   1      44.814  25.041  25.928  1.00  0.00     0.009 A 
ATOM     70  C   UNL A   1      44.114  22.961  26.871  1.00  0.00     0.009 A 
ATOM     71  C   UNL A   1      45.345  24.370  24.822  1.00  0.00     0.001 A 
ATOM     72  C   UNL A   1      44.609  22.285  25.747  1.00  0.00     0.001 A 
ATOM     73  C   UNL A   1      45.213  22.992  24.715  1.00  0.00     0.000 A 
ENDBRANCH  54  68
BRANCH  55  74
ATOM     74  C   UNL A   1      40.097  30.478  33.176  1.00  0.00    -0.014 A 
ATOM     75  C   UNL A   1      39.743  31.840  33.222  1.00  0.00     0.009 A 
ATOM     76  C   UNL A   1      39.077  29.516  33.171  1.00  0.00     0.009 A 
ATOM     77  C   UNL A   1      38.403  32.230  33.151  1.00  0.00     0.001 A 
ATOM     78  C   UNL A   1      37.737  29.912  33.105  1.00  0.00     0.001 A 
ATOM     79  C   UNL A   1      37.402  31.265  33.061  1.00  0.00     0.000 A 
ENDBRANCH  55  74
BRANCH  67  80
ATOM     80  C   UNL A   1      44.596  24.816  33.563  1.00  0.00    -0.014 A 
ATOM     81  C   UNL A   1      45.915  24.624  33.986  1.00  0.00     0.009 A 
ATOM     82  C   UNL A   1      43.669  23.813  33.942  1.00  0.00     0.009 A 
ATOM     83  C   UNL A   1      46.292  23.486  34.719  1.00  0.00     0.001 A 
ATOM     84  C   UNL A   1      44.028  22.700  34.706  1.00  0.00     0.001 A 
ATOM     85  C   UNL A   1      45.348  22.532  35.090  1.00  0.00     0.000 A 
ENDBRANCH  67  80
ENDBRANCH  41  42
ENDBRANCH  33  36
ENDBRANCH  31  32
ENDBRANCH  30  31
ENDBRANCH  29  30
ENDBRANCH   1  29
TORSDOF 16
ENDMDL
