MODEL 1
REMARK VINA RESULT:      -9.6      0.000      0.000
REMARK SMILES CN(CCOCC1CC1)C(=O)N1CC[C@H](C(=O)NCCCCCCNC(=O)c2ccc(-c3c4nc(c(-c5ccccc5)c5ccc([nH]5)c(-c5ccccc5)c5nc(c(-c6ccccc6)c6ccc3[nH]6)C=C5)C=C4)cc2)C1
REMARK SMILES IDX 19 1 18 2 16 3 17 4 15 6 12 7 13 8 76 9 14 10 10 11 11 12
REMARK SMILES IDX 2 13 1 14 3 15 4 16 5 17 6 18 7 19 8 20 9 21 20 22 21 23
REMARK SMILES IDX 22 24 23 25 24 26 25 27 26 28 27 30 28 31 29 32 75 33 30 34
REMARK SMILES IDX 74 35 31 36 32 37 33 38 68 39 34 40 73 41 67 42 69 43 35 44
REMARK SMILES IDX 72 45 66 46 65 47 36 49 58 50 43 51 57 52 44 53 47 54 56 55
REMARK SMILES IDX 70 56 45 57 46 58 55 60 71 61 48 62 37 63 38 64 42 65 39 66
REMARK SMILES IDX 41 67 40 68 59 69 60 70 64 71 61 72 63 73 62 74 49 75 50 76
REMARK SMILES IDX 54 77 51 78 53 79 52 80
REMARK H PARENT 18 5 25 29 69 48 47 59
REMARK Flexibility Score: inf
ROOT
ATOM      1  C   UNL A   1      34.062  29.798  26.902  1.00  0.00     0.116 C 
ENDROOT
BRANCH   1   2
ATOM      2  N   UNL A   1      32.898  29.291  27.601  1.00  0.00    -0.356 N 
ATOM      3  C   UNL A   1      32.073  28.247  27.318  1.00  0.00     0.224 C 
ATOM      4  O   UNL A   1      31.162  28.010  28.117  1.00  0.00    -0.275 OA
ATOM      5  H   UNL A   1      32.664  29.785  28.420  1.00  0.00     0.163 HD
BRANCH   3   6
ATOM      6  C   UNL A   1      32.224  27.397  26.068  1.00  0.00     0.100 C 
ATOM      7  N   UNL A   1      32.170  25.019  26.162  1.00  0.00    -0.324 N 
ATOM      8  C   UNL A   1      33.464  25.377  25.590  1.00  0.00     0.122 C 
ATOM      9  C   UNL A   1      31.300  26.185  26.060  1.00  0.00     0.134 C 
ATOM     10  C   UNL A   1      33.639  26.863  25.866  1.00  0.00     0.037 C 
BRANCH   7  11
ATOM     11  C   UNL A   1      31.612  23.856  26.634  1.00  0.00     0.319 C 
ATOM     12  O   UNL A   1      30.544  23.919  27.256  1.00  0.00    -0.248 OA
BRANCH  11  13
ATOM     13  N   UNL A   1      32.200  22.623  26.446  1.00  0.00    -0.325 N 
ATOM     14  C   UNL A   1      33.080  22.157  27.518  1.00  0.00     0.148 C 
BRANCH  13  15
ATOM     15  C   UNL A   1      32.028  21.695  25.335  1.00  0.00     0.149 C 
BRANCH  15  16
ATOM     16  C   UNL A   1      32.815  20.379  25.460  1.00  0.00     0.181 C 
BRANCH  16  17
ATOM     17  O   UNL A   1      32.113  19.174  25.157  1.00  0.00    -0.379 OA
BRANCH  17  18
ATOM     18  C   UNL A   1      32.469  18.517  23.939  1.00  0.00     0.163 C 
BRANCH  18  19
ATOM     19  C   UNL A   1      33.289  17.281  24.122  1.00  0.00     0.015 C 
ATOM     20  C   UNL A   1      34.137  16.674  23.038  1.00  0.00     0.006 C 
ATOM     21  C   UNL A   1      34.793  17.347  24.214  1.00  0.00     0.006 C 
ENDBRANCH  18  19
ENDBRANCH  17  18
ENDBRANCH  16  17
ENDBRANCH  15  16
ENDBRANCH  13  15
ENDBRANCH  11  13
ENDBRANCH   7  11
ENDBRANCH   3   6
ENDBRANCH   1   2
BRANCH   1  22
ATOM     22  C   UNL A   1      35.291  29.887  27.797  1.00  0.00     0.021 C 
BRANCH  22  23
ATOM     23  C   UNL A   1      35.271  31.070  28.762  1.00  0.00     0.002 C 
BRANCH  23  24
ATOM     24  C   UNL A   1      35.405  32.441  28.093  1.00  0.00     0.002 C 
BRANCH  24  25
ATOM     25  C   UNL A   1      34.223  33.389  28.316  1.00  0.00     0.021 C 
BRANCH  25  26
ATOM     26  C   UNL A   1      34.602  34.745  28.899  1.00  0.00     0.116 C 
BRANCH  26  27
ATOM     27  N   UNL A   1      33.912  35.009  30.150  1.00  0.00    -0.352 N 
ATOM     28  C   UNL A   1      34.137  34.487  31.398  1.00  0.00     0.251 C 
ATOM     29  H   UNL A   1      33.175  35.659  30.094  1.00  0.00     0.163 HD
ATOM     30  O   UNL A   1      33.320  34.650  32.295  1.00  0.00    -0.269 OA
BRANCH  28  31
ATOM     31  C   UNL A   1      35.371  33.716  31.653  1.00  0.00     0.039 A 
ATOM     32  C   UNL A   1      35.269  32.459  32.252  1.00  0.00     0.014 A 
ATOM     33  C   UNL A   1      36.622  34.239  31.314  1.00  0.00     0.014 A 
ATOM     34  C   UNL A   1      36.421  31.702  32.465  1.00  0.00     0.010 A 
ATOM     35  C   UNL A   1      37.760  33.453  31.457  1.00  0.00     0.010 A 
ATOM     36  C   UNL A   1      37.672  32.180  32.041  1.00  0.00    -0.014 A 
BRANCH  36  37
ATOM     37  C   UNL A   1      38.898  31.363  32.203  1.00  0.00     0.031 A 
ATOM     38  C   UNL A   1      39.848  31.638  33.335  1.00  0.00     0.074 A 
ATOM     39  C   UNL A   1      39.184  30.408  31.297  1.00  0.00     0.049 A 
ATOM     40  N   UNL A   1      40.990  31.061  33.613  1.00  0.00    -0.248 NA
ATOM     41  C   UNL A   1      39.480  32.718  34.264  1.00  0.00     0.031 C 
ATOM     42  C   UNL A   1      38.362  30.070  30.132  1.00  0.00     0.029 A 
ATOM     43  N   UNL A   1      40.250  29.548  31.211  1.00  0.00    -0.354 N 
ATOM     44  C   UNL A   1      41.480  31.715  34.735  1.00  0.00     0.074 A 
ATOM     45  C   UNL A   1      40.540  32.767  35.056  1.00  0.00     0.031 C 
ATOM     46  C   UNL A   1      38.937  29.054  29.469  1.00  0.00     0.029 A 
ATOM     47  C   UNL A   1      40.187  28.701  30.132  1.00  0.00     0.049 A 
ATOM     48  H   UNL A   1      40.989  29.539  31.861  1.00  0.00     0.167 HD
ATOM     49  C   UNL A   1      42.600  31.452  35.448  1.00  0.00     0.031 A 
ATOM     50  C   UNL A   1      41.044  27.749  29.719  1.00  0.00     0.031 A 
ATOM     51  C   UNL A   1      43.531  30.401  35.132  1.00  0.00     0.049 A 
ATOM     52  C   UNL A   1      42.295  27.494  30.512  1.00  0.00     0.074 A 
ATOM     53  C   UNL A   1      44.666  30.018  35.824  1.00  0.00     0.029 A 
ATOM     54  N   UNL A   1      43.434  29.568  34.028  1.00  0.00    -0.354 N 
ATOM     55  N   UNL A   1      42.708  28.075  31.613  1.00  0.00    -0.248 NA
ATOM     56  C   UNL A   1      43.194  26.445  30.011  1.00  0.00     0.031 C 
ATOM     57  C   UNL A   1      45.289  28.993  35.107  1.00  0.00     0.029 A 
ATOM     58  C   UNL A   1      44.508  28.694  34.002  1.00  0.00     0.049 A 
ATOM     59  H   UNL A   1      42.710  29.594  33.362  1.00  0.00     0.167 HD
ATOM     60  C   UNL A   1      43.900  27.445  31.949  1.00  0.00     0.074 A 
ATOM     61  C   UNL A   1      44.132  26.425  30.946  1.00  0.00     0.031 C 
ATOM     62  C   UNL A   1      44.727  27.689  32.994  1.00  0.00     0.031 A 
BRANCH  49  63
ATOM     63  C   UNL A   1      42.887  32.326  36.639  1.00  0.00    -0.014 A 
ATOM     64  C   UNL A   1      42.422  31.987  37.920  1.00  0.00     0.009 A 
ATOM     65  C   UNL A   1      43.662  33.485  36.484  1.00  0.00     0.009 A 
ATOM     66  C   UNL A   1      42.695  32.812  39.014  1.00  0.00     0.001 A 
ATOM     67  C   UNL A   1      43.960  34.291  37.585  1.00  0.00     0.001 A 
ATOM     68  C   UNL A   1      43.468  33.960  38.846  1.00  0.00     0.000 A 
ENDBRANCH  49  63
BRANCH  50  69
ATOM     69  C   UNL A   1      40.748  26.957  28.495  1.00  0.00    -0.014 A 
ATOM     70  C   UNL A   1      39.972  25.790  28.572  1.00  0.00     0.009 A 
ATOM     71  C   UNL A   1      41.246  27.358  27.246  1.00  0.00     0.009 A 
ATOM     72  C   UNL A   1      39.727  25.026  27.428  1.00  0.00     0.001 A 
ATOM     73  C   UNL A   1      40.973  26.610  26.099  1.00  0.00     0.001 A 
ATOM     74  C   UNL A   1      40.223  25.440  26.192  1.00  0.00     0.000 A 
ENDBRANCH  50  69
BRANCH  62  75
ATOM     75  C   UNL A   1      45.947  26.820  33.122  1.00  0.00    -0.014 A 
ATOM     76  C   UNL A   1      45.883  25.556  33.729  1.00  0.00     0.009 A 
ATOM     77  C   UNL A   1      47.170  27.258  32.590  1.00  0.00     0.009 A 
ATOM     78  C   UNL A   1      47.027  24.762  33.829  1.00  0.00     0.001 A 
ATOM     79  C   UNL A   1      48.306  26.449  32.663  1.00  0.00     0.001 A 
ATOM     80  C   UNL A   1      48.235  25.206  33.290  1.00  0.00     0.000 A 
ENDBRANCH  62  75
ENDBRANCH  36  37
ENDBRANCH  28  31
ENDBRANCH  26  27
ENDBRANCH  25  26
ENDBRANCH  24  25
ENDBRANCH  23  24
ENDBRANCH  22  23
ENDBRANCH   1  22
TORSDOF 20
ENDMDL
MODEL 2
REMARK VINA RESULT:      -9.4      1.307      2.161
REMARK SMILES CN(CCOCC1CC1)C(=O)N1CC[C@H](C(=O)NCCCCCCNC(=O)c2ccc(-c3c4nc(c(-c5ccccc5)c5ccc([nH]5)c(-c5ccccc5)c5nc(c(-c6ccccc6)c6ccc3[nH]6)C=C5)C=C4)cc2)C1
REMARK SMILES IDX 19 1 18 2 16 3 17 4 15 6 12 7 13 8 76 9 14 10 10 11 11 12
REMARK SMILES IDX 2 13 1 14 3 15 4 16 5 17 6 18 7 19 8 20 9 21 20 22 21 23
REMARK SMILES IDX 22 24 23 25 24 26 25 27 26 28 27 30 28 31 29 32 75 33 30 34
REMARK SMILES IDX 74 35 31 36 32 37 33 38 68 39 34 40 73 41 67 42 69 43 35 44
REMARK SMILES IDX 72 45 66 46 65 47 36 49 58 50 43 51 57 52 44 53 47 54 56 55
REMARK SMILES IDX 70 56 45 57 46 58 55 60 71 61 48 62 37 63 38 64 42 65 39 66
REMARK SMILES IDX 41 67 40 68 59 69 60 70 64 71 61 72 63 73 62 74 49 75 50 76
REMARK SMILES IDX 54 77 51 78 53 79 52 80
REMARK H PARENT 18 5 25 29 69 48 47 59
REMARK Flexibility Score: inf
ROOT
ATOM      1  C   UNL A   1      33.388  30.256  26.767  1.00  0.00     0.116 C 
ENDROOT
BRANCH   1   2
ATOM      2  N   UNL A   1      32.395  29.489  27.493  1.00  0.00    -0.356 N 
ATOM      3  C   UNL A   1      31.880  28.252  27.261  1.00  0.00     0.224 C 
ATOM      4  O   UNL A   1      31.058  27.818  28.074  1.00  0.00    -0.275 OA
ATOM      5  H   UNL A   1      32.031  29.941  28.289  1.00  0.00     0.163 HD
BRANCH   3   6
ATOM      6  C   UNL A   1      32.263  27.416  26.052  1.00  0.00     0.100 C 
ATOM      7  N   UNL A   1      32.333  25.039  26.149  1.00  0.00    -0.324 N 
ATOM      8  C   UNL A   1      33.674  25.473  25.772  1.00  0.00     0.122 C 
ATOM      9  C   UNL A   1      31.421  26.154  25.914  1.00  0.00     0.134 C 
ATOM     10  C   UNL A   1      33.721  26.965  26.064  1.00  0.00     0.037 C 
BRANCH   7  11
ATOM     11  C   UNL A   1      31.778  23.844  26.539  1.00  0.00     0.319 C 
ATOM     12  O   UNL A   1      30.745  23.861  27.219  1.00  0.00    -0.248 OA
BRANCH  11  13
ATOM     13  N   UNL A   1      32.333  22.626  26.205  1.00  0.00    -0.325 N 
ATOM     14  C   UNL A   1      33.476  22.196  27.010  1.00  0.00     0.148 C 
BRANCH  13  15
ATOM     15  C   UNL A   1      31.905  21.684  25.178  1.00  0.00     0.149 C 
BRANCH  15  16
ATOM     16  C   UNL A   1      32.835  21.590  23.955  1.00  0.00     0.181 C 
BRANCH  16  17
ATOM     17  O   UNL A   1      33.560  22.768  23.603  1.00  0.00    -0.379 OA
BRANCH  17  18
ATOM     18  C   UNL A   1      33.245  23.359  22.341  1.00  0.00     0.163 C 
BRANCH  18  19
ATOM     19  C   UNL A   1      33.085  24.844  22.378  1.00  0.00     0.015 C 
ATOM     20  C   UNL A   1      32.746  25.678  21.174  1.00  0.00     0.006 C 
ATOM     21  C   UNL A   1      31.726  25.488  22.263  1.00  0.00     0.006 C 
ENDBRANCH  18  19
ENDBRANCH  17  18
ENDBRANCH  16  17
ENDBRANCH  15  16
ENDBRANCH  13  15
ENDBRANCH  11  13
ENDBRANCH   7  11
ENDBRANCH   3   6
ENDBRANCH   1   2
BRANCH   1  22
ATOM     22  C   UNL A   1      34.683  30.429  27.549  1.00  0.00     0.021 C 
BRANCH  22  23
ATOM     23  C   UNL A   1      34.653  31.582  28.549  1.00  0.00     0.002 C 
BRANCH  23  24
ATOM     24  C   UNL A   1      34.715  32.976  27.918  1.00  0.00     0.002 C 
BRANCH  24  25
ATOM     25  C   UNL A   1      33.553  33.904  28.284  1.00  0.00     0.021 C 
BRANCH  25  26
ATOM     26  C   UNL A   1      33.977  35.231  28.903  1.00  0.00     0.116 C 
BRANCH  26  27
ATOM     27  N   UNL A   1      33.359  35.445  30.201  1.00  0.00    -0.352 N 
ATOM     28  C   UNL A   1      33.626  34.844  31.404  1.00  0.00     0.251 C 
ATOM     29  H   UNL A   1      32.644  36.121  30.220  1.00  0.00     0.163 HD
ATOM     30  O   UNL A   1      32.860  34.982  32.350  1.00  0.00    -0.269 OA
BRANCH  28  31
ATOM     31  C   UNL A   1      34.842  34.019  31.552  1.00  0.00     0.039 A 
ATOM     32  C   UNL A   1      36.065  34.536  31.119  1.00  0.00     0.014 A 
ATOM     33  C   UNL A   1      34.772  32.736  32.102  1.00  0.00     0.014 A 
ATOM     34  C   UNL A   1      37.228  33.785  31.285  1.00  0.00     0.010 A 
ATOM     35  C   UNL A   1      35.940  32.020  32.337  1.00  0.00     0.010 A 
ATOM     36  C   UNL A   1      37.179  32.534  31.924  1.00  0.00    -0.014 A 
BRANCH  36  37
ATOM     37  C   UNL A   1      38.414  31.750  32.165  1.00  0.00     0.031 A 
ATOM     38  C   UNL A   1      39.289  32.061  33.348  1.00  0.00     0.074 A 
ATOM     39  C   UNL A   1      38.776  30.794  31.288  1.00  0.00     0.049 A 
ATOM     40  N   UNL A   1      40.427  31.516  33.698  1.00  0.00    -0.248 NA
ATOM     41  C   UNL A   1      38.840  33.140  34.242  1.00  0.00     0.031 C 
ATOM     42  C   UNL A   1      38.032  30.423  30.083  1.00  0.00     0.029 A 
ATOM     43  N   UNL A   1      39.866  29.961  31.275  1.00  0.00    -0.354 N 
ATOM     44  C   UNL A   1      40.834  32.194  34.840  1.00  0.00     0.074 A 
ATOM     45  C   UNL A   1      39.851  33.224  35.093  1.00  0.00     0.031 C 
ATOM     46  C   UNL A   1      38.670  29.417  29.465  1.00  0.00     0.029 A 
ATOM     47  C   UNL A   1      39.888  29.102  30.204  1.00  0.00     0.049 A 
ATOM     48  H   UNL A   1      40.566  29.977  31.967  1.00  0.00     0.167 HD
ATOM     49  C   UNL A   1      41.917  31.967  35.620  1.00  0.00     0.031 A 
ATOM     50  C   UNL A   1      40.791  28.168  29.852  1.00  0.00     0.031 A 
ATOM     51  C   UNL A   1      42.890  30.937  35.370  1.00  0.00     0.049 A 
ATOM     52  C   UNL A   1      42.000  27.953  30.720  1.00  0.00     0.074 A 
ATOM     53  C   UNL A   1      43.992  30.590  36.131  1.00  0.00     0.029 A 
ATOM     54  N   UNL A   1      42.879  30.091  34.271  1.00  0.00    -0.354 N 
ATOM     55  N   UNL A   1      42.333  28.556  31.836  1.00  0.00    -0.248 NA
ATOM     56  C   UNL A   1      42.953  26.923  30.283  1.00  0.00     0.031 C 
ATOM     57  C   UNL A   1      44.682  29.574  35.463  1.00  0.00     0.029 A 
ATOM     58  C   UNL A   1      43.974  29.245  34.318  1.00  0.00     0.049 A 
ATOM     59  H   UNL A   1      42.195  30.092  33.564  1.00  0.00     0.167 HD
ATOM     60  C   UNL A   1      43.519  27.960  32.247  1.00  0.00     0.074 A 
ATOM     61  C   UNL A   1      43.834  26.937  31.272  1.00  0.00     0.031 C 
ATOM     62  C   UNL A   1      44.277  28.236  33.336  1.00  0.00     0.031 A 
BRANCH  49  63
ATOM     63  C   UNL A   1      42.111  32.859  36.815  1.00  0.00    -0.014 A 
ATOM     64  C   UNL A   1      42.854  34.048  36.724  1.00  0.00     0.009 A 
ATOM     65  C   UNL A   1      41.513  32.526  38.040  1.00  0.00     0.009 A 
ATOM     66  C   UNL A   1      43.025  34.863  37.845  1.00  0.00     0.001 A 
ATOM     67  C   UNL A   1      41.660  33.360  39.151  1.00  0.00     0.001 A 
ATOM     68  C   UNL A   1      42.424  34.521  39.056  1.00  0.00     0.000 A 
ENDBRANCH  49  63
BRANCH  50  69
ATOM     69  C   UNL A   1      40.587  27.357  28.622  1.00  0.00    -0.014 A 
ATOM     70  C   UNL A   1      39.849  26.165  28.670  1.00  0.00     0.009 A 
ATOM     71  C   UNL A   1      41.136  27.766  27.397  1.00  0.00     0.009 A 
ATOM     72  C   UNL A   1      39.690  25.383  27.522  1.00  0.00     0.001 A 
ATOM     73  C   UNL A   1      40.949  27.000  26.244  1.00  0.00     0.001 A 
ATOM     74  C   UNL A   1      40.236  25.804  26.310  1.00  0.00     0.000 A 
ENDBRANCH  50  69
BRANCH  62  75
ATOM     75  C   UNL A   1      45.509  27.399  33.545  1.00  0.00    -0.014 A 
ATOM     76  C   UNL A   1      45.449  26.163  34.205  1.00  0.00     0.009 A 
ATOM     77  C   UNL A   1      46.741  27.840  33.036  1.00  0.00     0.009 A 
ATOM     78  C   UNL A   1      46.605  25.398  34.379  1.00  0.00     0.001 A 
ATOM     79  C   UNL A   1      47.889  27.060  33.184  1.00  0.00     0.001 A 
ATOM     80  C   UNL A   1      47.821  25.845  33.864  1.00  0.00     0.000 A 
ENDBRANCH  62  75
ENDBRANCH  36  37
ENDBRANCH  28  31
ENDBRANCH  26  27
ENDBRANCH  25  26
ENDBRANCH  24  25
ENDBRANCH  23  24
ENDBRANCH  22  23
ENDBRANCH   1  22
TORSDOF 20
ENDMDL
MODEL 3
REMARK VINA RESULT:      -9.3      3.151      5.021
REMARK SMILES CN(CCOCC1CC1)C(=O)N1CC[C@H](C(=O)NCCCCCCNC(=O)c2ccc(-c3c4nc(c(-c5ccccc5)c5ccc([nH]5)c(-c5ccccc5)c5nc(c(-c6ccccc6)c6ccc3[nH]6)C=C5)C=C4)cc2)C1
REMARK SMILES IDX 19 1 18 2 16 3 17 4 15 6 12 7 13 8 76 9 14 10 10 11 11 12
REMARK SMILES IDX 2 13 1 14 3 15 4 16 5 17 6 18 7 19 8 20 9 21 20 22 21 23
REMARK SMILES IDX 22 24 23 25 24 26 25 27 26 28 27 30 28 31 29 32 75 33 30 34
REMARK SMILES IDX 74 35 31 36 32 37 33 38 68 39 34 40 73 41 67 42 69 43 35 44
REMARK SMILES IDX 72 45 66 46 65 47 36 49 58 50 43 51 57 52 44 53 47 54 56 55
REMARK SMILES IDX 70 56 45 57 46 58 55 60 71 61 48 62 37 63 38 64 42 65 39 66
REMARK SMILES IDX 41 67 40 68 59 69 60 70 64 71 61 72 63 73 62 74 49 75 50 76
REMARK SMILES IDX 54 77 51 78 53 79 52 80
REMARK H PARENT 18 5 25 29 69 48 47 59
REMARK Flexibility Score: inf
ROOT
ATOM      1  C   UNL A   1      34.088  31.336  27.338  1.00  0.00     0.116 C 
ENDROOT
BRANCH   1   2
ATOM      2  N   UNL A   1      32.939  30.464  27.484  1.00  0.00    -0.356 N 
ATOM      3  C   UNL A   1      32.702  29.216  27.001  1.00  0.00     0.224 C 
ATOM      4  O   UNL A   1      31.634  28.679  27.313  1.00  0.00    -0.275 OA
ATOM      5  H   UNL A   1      32.207  30.839  28.025  1.00  0.00     0.163 HD
BRANCH   3   6
ATOM      6  C   UNL A   1      33.679  28.486  26.094  1.00  0.00     0.100 C 
ATOM      7  N   UNL A   1      32.936  27.228  24.215  1.00  0.00    -0.324 N 
ATOM      8  C   UNL A   1      33.657  26.295  25.074  1.00  0.00     0.122 C 
ATOM      9  C   UNL A   1      33.302  28.580  24.620  1.00  0.00     0.134 C 
ATOM     10  C   UNL A   1      33.808  27.000  26.414  1.00  0.00     0.037 C 
BRANCH   7  11
ATOM     11  C   UNL A   1      32.133  27.097  23.108  1.00  0.00     0.319 C 
ATOM     12  O   UNL A   1      32.571  26.486  22.125  1.00  0.00    -0.248 OA
BRANCH  11  13
ATOM     13  N   UNL A   1      30.861  27.628  23.049  1.00  0.00    -0.325 N 
ATOM     14  C   UNL A   1      29.841  26.948  23.847  1.00  0.00     0.148 C 
BRANCH  13  15
ATOM     15  C   UNL A   1      30.403  28.808  22.327  1.00  0.00     0.149 C 
BRANCH  15  16
ATOM     16  C   UNL A   1      28.883  29.049  22.375  1.00  0.00     0.181 C 
BRANCH  16  17
ATOM     17  O   UNL A   1      28.297  29.703  21.251  1.00  0.00    -0.379 OA
BRANCH  17  18
ATOM     18  C   UNL A   1      28.028  31.099  21.393  1.00  0.00     0.163 C 
BRANCH  18  19
ATOM     19  C   UNL A   1      28.833  31.779  22.452  1.00  0.00     0.015 C 
ATOM     20  C   UNL A   1      28.748  33.250  22.751  1.00  0.00     0.006 C 
ATOM     21  C   UNL A   1      28.197  32.253  23.735  1.00  0.00     0.006 C 
ENDBRANCH  18  19
ENDBRANCH  17  18
ENDBRANCH  16  17
ENDBRANCH  15  16
ENDBRANCH  13  15
ENDBRANCH  11  13
ENDBRANCH   7  11
ENDBRANCH   3   6
ENDBRANCH   1   2
BRANCH   1  22
ATOM     22  C   UNL A   1      34.810  31.582  28.656  1.00  0.00     0.021 C 
BRANCH  22  23
ATOM     23  C   UNL A   1      34.403  32.878  29.353  1.00  0.00     0.002 C 
BRANCH  23  24
ATOM     24  C   UNL A   1      34.057  34.030  28.406  1.00  0.00     0.002 C 
BRANCH  24  25
ATOM     25  C   UNL A   1      32.881  34.905  28.853  1.00  0.00     0.021 C 
BRANCH  25  26
ATOM     26  C   UNL A   1      33.286  36.183  29.577  1.00  0.00     0.116 C 
BRANCH  26  27
ATOM     27  N   UNL A   1      32.527  36.375  30.802  1.00  0.00    -0.352 N 
ATOM     28  C   UNL A   1      32.668  35.764  32.021  1.00  0.00     0.251 C 
ATOM     29  H   UNL A   1      31.805  37.043  30.749  1.00  0.00     0.163 HD
ATOM     30  O   UNL A   1      31.801  35.882  32.878  1.00  0.00    -0.269 OA
BRANCH  28  31
ATOM     31  C   UNL A   1      33.871  34.951  32.293  1.00  0.00     0.039 A 
ATOM     32  C   UNL A   1      35.124  35.469  31.962  1.00  0.00     0.014 A 
ATOM     33  C   UNL A   1      33.758  33.677  32.858  1.00  0.00     0.014 A 
ATOM     34  C   UNL A   1      36.272  34.730  32.246  1.00  0.00     0.010 A 
ATOM     35  C   UNL A   1      34.905  32.975  33.210  1.00  0.00     0.010 A 
ATOM     36  C   UNL A   1      36.173  33.491  32.901  1.00  0.00    -0.014 A 
BRANCH  36  37
ATOM     37  C   UNL A   1      37.386  32.720  33.267  1.00  0.00     0.031 A 
ATOM     38  C   UNL A   1      38.131  33.038  34.534  1.00  0.00     0.074 A 
ATOM     39  C   UNL A   1      37.848  31.771  32.431  1.00  0.00     0.049 A 
ATOM     40  N   UNL A   1      39.234  32.506  34.999  1.00  0.00    -0.248 NA
ATOM     41  C   UNL A   1      37.579  34.110  35.379  1.00  0.00     0.031 C 
ATOM     42  C   UNL A   1      37.236  31.395  31.154  1.00  0.00     0.029 A 
ATOM     43  N   UNL A   1      38.943  30.951  32.529  1.00  0.00    -0.354 N 
ATOM     44  C   UNL A   1      39.512  33.186  36.177  1.00  0.00     0.074 A 
ATOM     45  C   UNL A   1      38.496  34.204  36.330  1.00  0.00     0.031 C 
ATOM     46  C   UNL A   1      37.947  30.397  30.604  1.00  0.00     0.029 A 
ATOM     47  C   UNL A   1      39.086  30.095  31.464  1.00  0.00     0.049 A 
ATOM     48  H   UNL A   1      39.568  30.973  33.289  1.00  0.00     0.167 HD
ATOM     49  C   UNL A   1      40.512  32.969  37.064  1.00  0.00     0.031 A 
ATOM     50  C   UNL A   1      40.032  29.173  31.205  1.00  0.00     0.031 A 
ATOM     51  C   UNL A   1      41.518  31.952  36.914  1.00  0.00     0.049 A 
ATOM     52  C   UNL A   1      41.147  28.970  32.193  1.00  0.00     0.074 A 
ATOM     53  C   UNL A   1      42.540  31.615  37.785  1.00  0.00     0.029 A 
ATOM     54  N   UNL A   1      41.630  31.108  35.820  1.00  0.00    -0.354 N 
ATOM     55  N   UNL A   1      41.357  29.574  33.338  1.00  0.00    -0.248 NA
ATOM     56  C   UNL A   1      42.152  27.952  31.855  1.00  0.00     0.031 C 
ATOM     57  C   UNL A   1      43.307  30.609  37.189  1.00  0.00     0.029 A 
ATOM     58  C   UNL A   1      42.725  30.275  35.978  1.00  0.00     0.049 A 
ATOM     59  H   UNL A   1      41.023  31.103  35.045  1.00  0.00     0.167 HD
ATOM     60  C   UNL A   1      42.500  28.991  33.869  1.00  0.00     0.074 A 
ATOM     61  C   UNL A   1      42.927  27.974  32.930  1.00  0.00     0.031 C 
ATOM     62  C   UNL A   1      43.139  29.272  35.031  1.00  0.00     0.031 A 
BRANCH  49  63
ATOM     63  C   UNL A   1      40.571  33.861  38.275  1.00  0.00    -0.014 A 
ATOM     64  C   UNL A   1      39.912  33.517  39.466  1.00  0.00     0.009 A 
ATOM     65  C   UNL A   1      41.326  35.043  38.234  1.00  0.00     0.009 A 
ATOM     66  C   UNL A   1      39.977  34.358  40.579  1.00  0.00     0.001 A 
ATOM     67  C   UNL A   1      41.414  35.866  39.359  1.00  0.00     0.001 A 
ATOM     68  C   UNL A   1      40.731  35.529  40.526  1.00  0.00     0.000 A 
ENDBRANCH  49  63
BRANCH  50  69
ATOM     69  C   UNL A   1      39.965  28.363  29.960  1.00  0.00    -0.014 A 
ATOM     70  C   UNL A   1      39.306  27.124  29.951  1.00  0.00     0.009 A 
ATOM     71  C   UNL A   1      40.566  28.819  28.777  1.00  0.00     0.009 A 
ATOM     72  C   UNL A   1      39.277  26.346  28.790  1.00  0.00     0.001 A 
ATOM     73  C   UNL A   1      40.509  28.054  27.611  1.00  0.00     0.001 A 
ATOM     74  C   UNL A   1      39.874  26.814  27.621  1.00  0.00     0.000 A 
ENDBRANCH  50  69
BRANCH  62  75
ATOM     75  C   UNL A   1      44.353  28.450  35.364  1.00  0.00    -0.014 A 
ATOM     76  C   UNL A   1      45.641  28.866  34.994  1.00  0.00     0.009 A 
ATOM     77  C   UNL A   1      44.206  27.260  36.095  1.00  0.00     0.009 A 
ATOM     78  C   UNL A   1      46.755  28.090  35.322  1.00  0.00     0.001 A 
ATOM     79  C   UNL A   1      45.324  26.503  36.450  1.00  0.00     0.001 A 
ATOM     80  C   UNL A   1      46.596  26.914  36.055  1.00  0.00     0.000 A 
ENDBRANCH  62  75
ENDBRANCH  36  37
ENDBRANCH  28  31
ENDBRANCH  26  27
ENDBRANCH  25  26
ENDBRANCH  24  25
ENDBRANCH  23  24
ENDBRANCH  22  23
ENDBRANCH   1  22
TORSDOF 20
ENDMDL
