MODEL 1
REMARK VINA RESULT:     -11.6      0.000      0.000
REMARK SMILES O=C(NCCCCCCNC(=O)c1ccc(-c2c3nc(c(-c4ccccc4)c4ccc([nH]4)c(-c4ccccc4)c4nc(c(-c5ccccc5)c5ccc2[nH]5)C=C4)C=C3)cc1)C1=Cc2cc(Cl)c(Cl)cc2O[C@@H]1C(F)(F)F
REMARK SMILES IDX 7 1 6 2 5 3 4 4 3 5 1 6 2 7 61 9 62 10 72 11 63 12 71 13
REMARK SMILES IDX 64 14 70 15 65 16 69 17 66 18 67 19 68 20 73 21 74 22 75 23
REMARK SMILES IDX 76 24 8 25 9 26 10 27 11 28 12 30 13 31 14 32 60 33 15 34
REMARK SMILES IDX 59 35 16 36 17 37 18 38 53 39 19 40 58 41 52 42 54 43 20 44
REMARK SMILES IDX 57 45 51 46 50 47 21 49 43 50 28 51 42 52 29 53 32 54 41 55
REMARK SMILES IDX 55 56 30 57 31 58 40 60 56 61 33 62 22 63 23 64 27 65 24 66
REMARK SMILES IDX 26 67 25 68 44 69 45 70 49 71 46 72 48 73 47 74 34 75 35 76
REMARK SMILES IDX 39 77 36 78 38 79 37 80
REMARK H PARENT 3 8 10 29 54 48 32 59
REMARK Flexibility Score: inf
ROOT
ATOM      1  C   UNL A   1      38.063  21.460  24.900  1.00  0.00     0.002 C 
ENDROOT
BRANCH   1   2
ATOM      2  C   UNL A   1      38.507  22.404  26.024  1.00  0.00     0.002 C 
BRANCH   2   3
ATOM      3  C   UNL A   1      37.634  23.629  26.288  1.00  0.00     0.021 C 
BRANCH   3   4
ATOM      4  C   UNL A   1      36.178  23.539  25.844  1.00  0.00     0.116 C 
BRANCH   4   5
ATOM      5  N   UNL A   1      35.272  22.930  26.802  1.00  0.00    -0.352 N 
ATOM      6  O   UNL A   1      33.784  21.444  27.597  1.00  0.00    -0.270 OA
ATOM      7  C   UNL A   1      34.349  21.935  26.621  1.00  0.00     0.251 C 
ATOM      8  H   UNL A   1      35.331  23.285  27.719  1.00  0.00     0.163 HD
BRANCH   7   9
ATOM      9  C   UNL A   1      34.067  21.351  25.276  1.00  0.00     0.067 C 
ATOM     10  C   UNL A   1      34.867  20.414  24.739  1.00  0.00     0.025 C 
ATOM     11  C   UNL A   1      32.600  21.376  24.912  1.00  0.00     0.314 C 
ATOM     12  C   UNL A   1      34.200  19.094  24.664  1.00  0.00     0.019 A 
ATOM     13  O   UNL A   1      31.990  20.062  25.042  1.00  0.00    -0.475 OA
ATOM     14  C   UNL A   1      35.002  17.947  24.630  1.00  0.00     0.034 A 
ATOM     15  C   UNL A   1      32.827  18.981  24.919  1.00  0.00     0.129 A 
ATOM     16  C   UNL A   1      34.449  16.703  24.945  1.00  0.00     0.060 A 
ATOM     17  C   UNL A   1      32.267  17.735  25.188  1.00  0.00     0.069 A 
ATOM     18  Cl  UNL A   1      35.527  15.360  25.071  1.00  0.00    -0.083 Cl
ATOM     19  C   UNL A   1      33.081  16.600  25.235  1.00  0.00     0.063 A 
ATOM     20  Cl  UNL A   1      32.359  15.114  25.740  1.00  0.00    -0.083 Cl
BRANCH  11  21
ATOM     21  C   UNL A   1      32.365  21.961  23.509  1.00  0.00     0.429 C 
ATOM     22  F   UNL A   1      31.235  22.705  23.470  1.00  0.00    -0.167 F 
ATOM     23  F   UNL A   1      33.383  22.765  23.121  1.00  0.00    -0.167 F 
ATOM     24  F   UNL A   1      32.241  20.994  22.567  1.00  0.00    -0.167 F 
ENDBRANCH  11  21
ENDBRANCH   7   9
ENDBRANCH   4   5
ENDBRANCH   3   4
ENDBRANCH   2   3
ENDBRANCH   1   2
BRANCH   1  25
ATOM     25  C   UNL A   1      38.483  19.990  25.005  1.00  0.00     0.021 C 
BRANCH  25  26
ATOM     26  C   UNL A   1      39.312  19.595  26.225  1.00  0.00     0.116 C 
BRANCH  26  27
ATOM     27  N   UNL A   1      40.600  19.021  25.880  1.00  0.00    -0.352 N 
ATOM     28  C   UNL A   1      41.856  19.578  25.888  1.00  0.00     0.251 C 
ATOM     29  H   UNL A   1      40.569  18.080  25.595  1.00  0.00     0.163 HD
ATOM     30  O   UNL A   1      42.802  18.932  25.445  1.00  0.00    -0.269 OA
BRANCH  28  31
ATOM     31  C   UNL A   1      42.093  20.951  26.399  1.00  0.00     0.039 A 
ATOM     32  C   UNL A   1      41.977  21.173  27.775  1.00  0.00     0.014 A 
ATOM     33  C   UNL A   1      42.368  22.025  25.548  1.00  0.00     0.014 A 
ATOM     34  C   UNL A   1      42.184  22.452  28.302  1.00  0.00     0.010 A 
ATOM     35  C   UNL A   1      42.636  23.290  26.080  1.00  0.00     0.010 A 
ATOM     36  C   UNL A   1      42.542  23.518  27.462  1.00  0.00    -0.014 A 
BRANCH  36  37
ATOM     37  C   UNL A   1      42.813  24.871  28.016  1.00  0.00     0.031 A 
ATOM     38  C   UNL A   1      44.202  25.254  28.451  1.00  0.00     0.074 A 
ATOM     39  C   UNL A   1      41.801  25.747  28.165  1.00  0.00     0.049 A 
ATOM     40  N   UNL A   1      44.618  26.371  28.997  1.00  0.00    -0.248 NA
ATOM     41  C   UNL A   1      45.258  24.248  28.267  1.00  0.00     0.031 C 
ATOM     42  C   UNL A   1      40.402  25.496  27.811  1.00  0.00     0.029 A 
ATOM     43  N   UNL A   1      41.792  27.028  28.661  1.00  0.00    -0.354 N 
ATOM     44  C   UNL A   1      45.976  26.196  29.231  1.00  0.00     0.074 A 
ATOM     45  C   UNL A   1      46.306  24.851  28.810  1.00  0.00     0.031 C 
ATOM     46  C   UNL A   1      39.676  26.592  28.082  1.00  0.00     0.029 A 
ATOM     47  C   UNL A   1      40.546  27.609  28.664  1.00  0.00     0.049 A 
ATOM     48  H   UNL A   1      42.601  27.486  28.985  1.00  0.00     0.167 HD
ATOM     49  C   UNL A   1      46.874  27.078  29.734  1.00  0.00     0.031 A 
ATOM     50  C   UNL A   1      40.146  28.821  29.094  1.00  0.00     0.031 A 
ATOM     51  C   UNL A   1      46.554  28.418  30.147  1.00  0.00     0.049 A 
ATOM     52  C   UNL A   1      41.159  29.774  29.667  1.00  0.00     0.074 A 
ATOM     53  C   UNL A   1      47.405  29.398  30.631  1.00  0.00     0.029 A 
ATOM     54  N   UNL A   1      45.283  28.968  30.129  1.00  0.00    -0.354 N 
ATOM     55  N   UNL A   1      42.449  29.611  29.828  1.00  0.00    -0.248 NA
ATOM     56  C   UNL A   1      40.658  31.085  30.107  1.00  0.00     0.031 C 
ATOM     57  C   UNL A   1      46.641  30.525  30.946  1.00  0.00     0.029 A 
ATOM     58  C   UNL A   1      45.323  30.266  30.609  1.00  0.00     0.049 A 
ATOM     59  H   UNL A   1      44.471  28.505  29.818  1.00  0.00     0.167 HD
ATOM     60  C   UNL A   1      42.918  30.804  30.362  1.00  0.00     0.074 A 
ATOM     61  C   UNL A   1      41.778  31.689  30.480  1.00  0.00     0.031 C 
ATOM     62  C   UNL A   1      44.182  31.137  30.720  1.00  0.00     0.031 A 
BRANCH  49  63
ATOM     63  C   UNL A   1      48.299  26.616  29.868  1.00  0.00    -0.014 A 
ATOM     64  C   UNL A   1      48.737  25.944  31.020  1.00  0.00     0.009 A 
ATOM     65  C   UNL A   1      49.200  26.810  28.811  1.00  0.00     0.009 A 
ATOM     66  C   UNL A   1      50.059  25.507  31.124  1.00  0.00     0.001 A 
ATOM     67  C   UNL A   1      50.514  26.347  28.906  1.00  0.00     0.001 A 
ATOM     68  C   UNL A   1      50.945  25.704  30.064  1.00  0.00     0.000 A 
ENDBRANCH  49  63
BRANCH  50  69
ATOM     69  C   UNL A   1      38.715  29.211  28.998  1.00  0.00    -0.014 A 
ATOM     70  C   UNL A   1      37.857  29.054  30.098  1.00  0.00     0.009 A 
ATOM     71  C   UNL A   1      38.196  29.728  27.801  1.00  0.00     0.009 A 
ATOM     72  C   UNL A   1      36.502  29.378  29.989  1.00  0.00     0.001 A 
ATOM     73  C   UNL A   1      36.848  30.078  27.706  1.00  0.00     0.001 A 
ATOM     74  C   UNL A   1      36.000  29.893  28.796  1.00  0.00     0.000 A 
ENDBRANCH  50  69
BRANCH  62  75
ATOM     75  C   UNL A   1      44.405  32.528  31.242  1.00  0.00    -0.014 A 
ATOM     76  C   UNL A   1      44.686  33.596  30.375  1.00  0.00     0.009 A 
ATOM     77  C   UNL A   1      44.296  32.779  32.618  1.00  0.00     0.009 A 
ATOM     78  C   UNL A   1      44.885  34.882  30.882  1.00  0.00     0.001 A 
ATOM     79  C   UNL A   1      44.469  34.070  33.119  1.00  0.00     0.001 A 
ATOM     80  C   UNL A   1      44.772  35.119  32.251  1.00  0.00     0.000 A 
ENDBRANCH  62  75
ENDBRANCH  36  37
ENDBRANCH  28  31
ENDBRANCH  26  27
ENDBRANCH  25  26
ENDBRANCH   1  25
TORSDOF 14
ENDMDL
MODEL 2
REMARK VINA RESULT:     -11.3      1.811      6.907
REMARK SMILES O=C(NCCCCCCNC(=O)c1ccc(-c2c3nc(c(-c4ccccc4)c4ccc([nH]4)c(-c4ccccc4)c4nc(c(-c5ccccc5)c5ccc2[nH]5)C=C4)C=C3)cc1)C1=Cc2cc(Cl)c(Cl)cc2O[C@@H]1C(F)(F)F
REMARK SMILES IDX 7 1 6 2 5 3 4 4 3 5 1 6 2 7 61 9 62 10 72 11 63 12 71 13
REMARK SMILES IDX 64 14 70 15 65 16 69 17 66 18 67 19 68 20 73 21 74 22 75 23
REMARK SMILES IDX 76 24 8 25 9 26 10 27 11 28 12 30 13 31 14 32 60 33 15 34
REMARK SMILES IDX 59 35 16 36 17 37 18 38 53 39 19 40 58 41 52 42 54 43 20 44
REMARK SMILES IDX 57 45 51 46 50 47 21 49 43 50 28 51 42 52 29 53 32 54 41 55
REMARK SMILES IDX 55 56 30 57 31 58 40 60 56 61 33 62 22 63 23 64 27 65 24 66
REMARK SMILES IDX 26 67 25 68 44 69 45 70 49 71 46 72 48 73 47 74 34 75 35 76
REMARK SMILES IDX 39 77 36 78 38 79 37 80
REMARK H PARENT 3 8 10 29 54 48 32 59
REMARK Flexibility Score: inf
ROOT
ATOM      1  C   UNL A   1      33.271  27.230  24.922  1.00  0.00     0.002 C 
ENDROOT
BRANCH   1   2
ATOM      2  C   UNL A   1      33.931  26.078  25.690  1.00  0.00     0.002 C 
BRANCH   2   3
ATOM      3  C   UNL A   1      34.632  25.002  24.862  1.00  0.00     0.021 C 
BRANCH   3   4
ATOM      4  C   UNL A   1      35.494  24.004  25.629  1.00  0.00     0.116 C 
BRANCH   4   5
ATOM      5  N   UNL A   1      34.790  23.199  26.610  1.00  0.00    -0.352 N 
ATOM      6  O   UNL A   1      33.723  21.403  27.442  1.00  0.00    -0.270 OA
ATOM      7  C   UNL A   1      34.125  22.013  26.452  1.00  0.00     0.251 C 
ATOM      8  H   UNL A   1      34.790  23.560  27.527  1.00  0.00     0.163 HD
BRANCH   7   9
ATOM      9  C   UNL A   1      33.948  21.376  25.113  1.00  0.00     0.067 C 
ATOM     10  C   UNL A   1      34.808  20.448  24.661  1.00  0.00     0.025 C 
ATOM     11  C   UNL A   1      32.508  21.343  24.655  1.00  0.00     0.314 C 
ATOM     12  C   UNL A   1      34.186  19.105  24.591  1.00  0.00     0.019 A 
ATOM     13  O   UNL A   1      31.929  20.016  24.791  1.00  0.00    -0.475 OA
ATOM     14  C   UNL A   1      35.022  17.984  24.649  1.00  0.00     0.034 A 
ATOM     15  C   UNL A   1      32.803  18.958  24.760  1.00  0.00     0.129 A 
ATOM     16  C   UNL A   1      34.485  16.734  24.970  1.00  0.00     0.060 A 
ATOM     17  C   UNL A   1      32.263  17.705  25.036  1.00  0.00     0.069 A 
ATOM     18  Cl  UNL A   1      35.592  15.430  25.213  1.00  0.00    -0.083 Cl
ATOM     19  C   UNL A   1      33.105  16.598  25.175  1.00  0.00     0.063 A 
ATOM     20  Cl  UNL A   1      32.395  15.108  25.685  1.00  0.00    -0.083 Cl
BRANCH  11  21
ATOM     21  C   UNL A   1      32.347  21.874  23.220  1.00  0.00     0.429 C 
ATOM     22  F   UNL A   1      31.296  22.720  23.124  1.00  0.00    -0.167 F 
ATOM     23  F   UNL A   1      33.444  22.554  22.809  1.00  0.00    -0.167 F 
ATOM     24  F   UNL A   1      32.142  20.875  22.326  1.00  0.00    -0.167 F 
ENDBRANCH  11  21
ENDBRANCH   7   9
ENDBRANCH   4   5
ENDBRANCH   3   4
ENDBRANCH   2   3
ENDBRANCH   1   2
BRANCH   1  25
ATOM     25  C   UNL A   1      33.321  28.623  25.558  1.00  0.00     0.021 C 
BRANCH  25  26
ATOM     26  C   UNL A   1      33.699  28.693  27.036  1.00  0.00     0.116 C 
BRANCH  26  27
ATOM     27  N   UNL A   1      33.625  30.036  27.582  1.00  0.00    -0.352 N 
ATOM     28  C   UNL A   1      34.546  30.760  28.300  1.00  0.00     0.251 C 
ATOM     29  H   UNL A   1      32.777  30.505  27.410  1.00  0.00     0.163 HD
ATOM     30  O   UNL A   1      34.224  31.851  28.763  1.00  0.00    -0.269 OA
BRANCH  28  31
ATOM     31  C   UNL A   1      35.915  30.243  28.549  1.00  0.00     0.039 A 
ATOM     32  C   UNL A   1      36.842  30.297  27.503  1.00  0.00     0.014 A 
ATOM     33  C   UNL A   1      36.282  29.659  29.765  1.00  0.00     0.014 A 
ATOM     34  C   UNL A   1      38.142  29.816  27.688  1.00  0.00     0.010 A 
ATOM     35  C   UNL A   1      37.598  29.235  29.970  1.00  0.00     0.010 A 
ATOM     36  C   UNL A   1      38.541  29.304  28.931  1.00  0.00    -0.014 A 
BRANCH  36  37
ATOM     37  C   UNL A   1      39.934  28.835  29.156  1.00  0.00     0.031 A 
ATOM     38  C   UNL A   1      40.961  29.752  29.764  1.00  0.00     0.074 A 
ATOM     39  C   UNL A   1      40.290  27.592  28.776  1.00  0.00     0.049 A 
ATOM     40  N   UNL A   1      42.232  29.532  29.993  1.00  0.00    -0.248 NA
ATOM     41  C   UNL A   1      40.506  31.097  30.149  1.00  0.00     0.031 C 
ATOM     42  C   UNL A   1      39.403  26.610  28.148  1.00  0.00     0.029 A 
ATOM     43  N   UNL A   1      41.498  26.944  28.857  1.00  0.00    -0.354 N 
ATOM     44  C   UNL A   1      42.729  30.711  30.536  1.00  0.00     0.074 A 
ATOM     45  C   UNL A   1      41.635  31.657  30.561  1.00  0.00     0.031 C 
ATOM     46  C   UNL A   1      40.090  25.480  27.920  1.00  0.00     0.029 A 
ATOM     47  C   UNL A   1      41.473  25.668  28.347  1.00  0.00     0.049 A 
ATOM     48  H   UNL A   1      42.305  27.355  29.242  1.00  0.00     0.167 HD
ATOM     49  C   UNL A   1      43.977  30.979  30.989  1.00  0.00     0.031 A 
ATOM     50  C   UNL A   1      42.454  24.753  28.228  1.00  0.00     0.031 A 
ATOM     51  C   UNL A   1      45.067  30.040  30.974  1.00  0.00     0.049 A 
ATOM     52  C   UNL A   1      43.836  25.082  28.721  1.00  0.00     0.074 A 
ATOM     53  C   UNL A   1      46.357  30.209  31.450  1.00  0.00     0.029 A 
ATOM     54  N   UNL A   1      44.999  28.758  30.455  1.00  0.00    -0.354 N 
ATOM     55  N   UNL A   1      44.273  26.183  29.283  1.00  0.00    -0.248 NA
ATOM     56  C   UNL A   1      44.858  24.035  28.573  1.00  0.00     0.031 C 
ATOM     57  C   UNL A   1      47.081  29.044  31.179  1.00  0.00     0.029 A 
ATOM     58  C   UNL A   1      46.227  28.131  30.581  1.00  0.00     0.049 A 
ATOM     59  H   UNL A   1      44.195  28.352  30.056  1.00  0.00     0.167 HD
ATOM     60  C   UNL A   1      45.611  25.952  29.578  1.00  0.00     0.074 A 
ATOM     61  C   UNL A   1      45.909  24.601  29.151  1.00  0.00     0.031 C 
ATOM     62  C   UNL A   1      46.511  26.785  30.154  1.00  0.00     0.031 A 
BRANCH  49  63
ATOM     63  C   UNL A   1      44.234  32.354  31.542  1.00  0.00    -0.014 A 
ATOM     64  C   UNL A   1      44.027  32.639  32.901  1.00  0.00     0.009 A 
ATOM     65  C   UNL A   1      44.735  33.363  30.706  1.00  0.00     0.009 A 
ATOM     66  C   UNL A   1      44.284  33.915  33.404  1.00  0.00     0.001 A 
ATOM     67  C   UNL A   1      45.018  34.631  31.216  1.00  0.00     0.001 A 
ATOM     68  C   UNL A   1      44.785  34.909  32.562  1.00  0.00     0.000 A 
ENDBRANCH  49  63
BRANCH  50  69
ATOM     69  C   UNL A   1      42.168  23.428  27.618  1.00  0.00    -0.014 A 
ATOM     70  C   UNL A   1      42.311  23.232  26.236  1.00  0.00     0.009 A 
ATOM     71  C   UNL A   1      41.735  22.356  28.414  1.00  0.00     0.009 A 
ATOM     72  C   UNL A   1      41.996  22.000  25.659  1.00  0.00     0.001 A 
ATOM     73  C   UNL A   1      41.450  21.116  27.838  1.00  0.00     0.001 A 
ATOM     74  C   UNL A   1      41.571  20.942  26.461  1.00  0.00     0.000 A 
ENDBRANCH  50  69
BRANCH  62  75
ATOM     75  C   UNL A   1      47.894  26.249  30.388  1.00  0.00    -0.014 A 
ATOM     76  C   UNL A   1      48.855  26.238  29.365  1.00  0.00     0.009 A 
ATOM     77  C   UNL A   1      48.251  25.780  31.661  1.00  0.00     0.009 A 
ATOM     78  C   UNL A   1      50.137  25.740  29.606  1.00  0.00     0.001 A 
ATOM     79  C   UNL A   1      49.540  25.308  31.907  1.00  0.00     0.001 A 
ATOM     80  C   UNL A   1      50.480  25.279  30.877  1.00  0.00     0.000 A 
ENDBRANCH  62  75
ENDBRANCH  36  37
ENDBRANCH  28  31
ENDBRANCH  26  27
ENDBRANCH  25  26
ENDBRANCH   1  25
TORSDOF 14
ENDMDL
MODEL 3
REMARK VINA RESULT:     -11.2      0.594      5.944
REMARK SMILES O=C(NCCCCCCNC(=O)c1ccc(-c2c3nc(c(-c4ccccc4)c4ccc([nH]4)c(-c4ccccc4)c4nc(c(-c5ccccc5)c5ccc2[nH]5)C=C4)C=C3)cc1)C1=Cc2cc(Cl)c(Cl)cc2O[C@@H]1C(F)(F)F
REMARK SMILES IDX 7 1 6 2 5 3 4 4 3 5 1 6 2 7 61 9 62 10 72 11 63 12 71 13
REMARK SMILES IDX 64 14 70 15 65 16 69 17 66 18 67 19 68 20 73 21 74 22 75 23
REMARK SMILES IDX 76 24 8 25 9 26 10 27 11 28 12 30 13 31 14 32 60 33 15 34
REMARK SMILES IDX 59 35 16 36 17 37 18 38 53 39 19 40 58 41 52 42 54 43 20 44
REMARK SMILES IDX 57 45 51 46 50 47 21 49 43 50 28 51 42 52 29 53 32 54 41 55
REMARK SMILES IDX 55 56 30 57 31 58 40 60 56 61 33 62 22 63 23 64 27 65 24 66
REMARK SMILES IDX 26 67 25 68 44 69 45 70 49 71 46 72 48 73 47 74 34 75 35 76
REMARK SMILES IDX 39 77 36 78 38 79 37 80
REMARK H PARENT 3 8 10 29 54 48 32 59
REMARK Flexibility Score: inf
ROOT
ATOM      1  C   UNL A   1      37.777  21.433  24.663  1.00  0.00     0.002 C 
ENDROOT
BRANCH   1   2
ATOM      2  C   UNL A   1      37.595  22.419  25.824  1.00  0.00     0.002 C 
BRANCH   2   3
ATOM      3  C   UNL A   1      37.038  23.800  25.482  1.00  0.00     0.021 C 
BRANCH   3   4
ATOM      4  C   UNL A   1      35.522  23.957  25.534  1.00  0.00     0.116 C 
BRANCH   4   5
ATOM      5  N   UNL A   1      34.849  23.167  26.550  1.00  0.00    -0.352 N 
ATOM      6  O   UNL A   1      33.796  21.390  27.437  1.00  0.00    -0.270 OA
ATOM      7  C   UNL A   1      34.163  21.988  26.427  1.00  0.00     0.251 C 
ATOM      8  H   UNL A   1      34.893  23.533  27.464  1.00  0.00     0.163 HD
BRANCH   7   9
ATOM      9  C   UNL A   1      33.923  21.346  25.101  1.00  0.00     0.067 C 
ATOM     10  C   UNL A   1      34.758  20.412  24.615  1.00  0.00     0.025 C 
ATOM     11  C   UNL A   1      32.463  21.316  24.710  1.00  0.00     0.314 C 
ATOM     12  C   UNL A   1      34.129  19.072  24.580  1.00  0.00     0.019 A 
ATOM     13  O   UNL A   1      31.886  19.991  24.880  1.00  0.00    -0.475 OA
ATOM     14  C   UNL A   1      34.962  17.948  24.605  1.00  0.00     0.034 A 
ATOM     15  C   UNL A   1      32.754  18.931  24.814  1.00  0.00     0.129 A 
ATOM     16  C   UNL A   1      34.437  16.702  24.957  1.00  0.00     0.060 A 
ATOM     17  C   UNL A   1      32.223  17.681  25.121  1.00  0.00     0.069 A 
ATOM     18  Cl  UNL A   1      35.549  15.394  25.155  1.00  0.00    -0.083 Cl
ATOM     19  C   UNL A   1      33.067  16.571  25.227  1.00  0.00     0.063 A 
ATOM     20  Cl  UNL A   1      32.376  15.087  25.776  1.00  0.00    -0.083 Cl
BRANCH  11  21
ATOM     21  C   UNL A   1      32.238  21.840  23.282  1.00  0.00     0.429 C 
ATOM     22  F   UNL A   1      31.952  20.830  22.428  1.00  0.00    -0.167 F 
ATOM     23  F   UNL A   1      31.206  22.715  23.223  1.00  0.00    -0.167 F 
ATOM     24  F   UNL A   1      33.329  22.480  22.795  1.00  0.00    -0.167 F 
ENDBRANCH  11  21
ENDBRANCH   7   9
ENDBRANCH   4   5
ENDBRANCH   3   4
ENDBRANCH   2   3
ENDBRANCH   1   2
BRANCH   1  25
ATOM     25  C   UNL A   1      38.320  20.040  24.999  1.00  0.00     0.021 C 
BRANCH  25  26
ATOM     26  C   UNL A   1      39.288  19.942  26.176  1.00  0.00     0.116 C 
BRANCH  26  27
ATOM     27  N   UNL A   1      40.509  19.226  25.854  1.00  0.00    -0.352 N 
ATOM     28  C   UNL A   1      41.822  19.624  25.925  1.00  0.00     0.251 C 
ATOM     29  H   UNL A   1      40.375  18.306  25.533  1.00  0.00     0.163 HD
ATOM     30  O   UNL A   1      42.699  18.882  25.492  1.00  0.00    -0.269 OA
BRANCH  28  31
ATOM     31  C   UNL A   1      42.204  20.941  26.494  1.00  0.00     0.039 A 
ATOM     32  C   UNL A   1      42.618  21.946  25.614  1.00  0.00     0.014 A 
ATOM     33  C   UNL A   1      42.218  21.182  27.871  1.00  0.00     0.014 A 
ATOM     34  C   UNL A   1      42.995  23.201  26.105  1.00  0.00     0.010 A 
ATOM     35  C   UNL A   1      42.534  22.454  28.357  1.00  0.00     0.010 A 
ATOM     36  C   UNL A   1      42.931  23.475  27.479  1.00  0.00    -0.014 A 
BRANCH  36  37
ATOM     37  C   UNL A   1      43.282  24.820  28.009  1.00  0.00     0.031 A 
ATOM     38  C   UNL A   1      42.211  25.851  28.246  1.00  0.00     0.074 A 
ATOM     39  C   UNL A   1      44.572  25.131  28.241  1.00  0.00     0.049 A 
ATOM     40  N   UNL A   1      42.333  27.088  28.660  1.00  0.00    -0.248 NA
ATOM     41  C   UNL A   1      40.826  25.447  27.964  1.00  0.00     0.031 C 
ATOM     42  C   UNL A   1      45.712  24.237  28.028  1.00  0.00     0.029 A 
ATOM     43  N   UNL A   1      45.143  26.292  28.704  1.00  0.00    -0.354 N 
ATOM     44  C   UNL A   1      41.046  27.610  28.677  1.00  0.00     0.074 A 
ATOM     45  C   UNL A   1      40.163  26.573  28.190  1.00  0.00     0.031 C 
ATOM     46  C   UNL A   1      46.842  24.874  28.377  1.00  0.00     0.029 A 
ATOM     47  C   UNL A   1      46.512  26.231  28.801  1.00  0.00     0.049 A 
ATOM     48  H   UNL A   1      44.620  27.091  28.942  1.00  0.00     0.167 HD
ATOM     49  C   UNL A   1      40.631  28.837  29.078  1.00  0.00     0.031 A 
ATOM     50  C   UNL A   1      47.406  27.164  29.180  1.00  0.00     0.031 A 
ATOM     51  C   UNL A   1      41.502  29.870  29.570  1.00  0.00     0.049 A 
ATOM     52  C   UNL A   1      46.921  28.524  29.601  1.00  0.00     0.074 A 
ATOM     53  C   UNL A   1      41.167  31.130  30.039  1.00  0.00     0.029 A 
ATOM     54  N   UNL A   1      42.880  29.766  29.658  1.00  0.00    -0.354 N 
ATOM     55  N   UNL A   1      45.694  28.981  29.664  1.00  0.00    -0.248 NA
ATOM     56  C   UNL A   1      47.947  29.493  30.016  1.00  0.00     0.031 C 
ATOM     57  C   UNL A   1      42.347  31.804  30.367  1.00  0.00     0.029 A 
ATOM     58  C   UNL A   1      43.412  30.944  30.153  1.00  0.00     0.049 A 
ATOM     59  H   UNL A   1      43.405  28.971  29.405  1.00  0.00     0.167 HD
ATOM     60  C   UNL A   1      45.798  30.279  30.149  1.00  0.00     0.074 A 
ATOM     61  C   UNL A   1      47.205  30.530  30.381  1.00  0.00     0.031 C 
ATOM     62  C   UNL A   1      44.814  31.181  30.382  1.00  0.00     0.031 A 
BRANCH  49  63
ATOM     63  C   UNL A   1      39.158  29.130  28.997  1.00  0.00    -0.014 A 
ATOM     64  C   UNL A   1      38.571  29.573  27.801  1.00  0.00     0.009 A 
ATOM     65  C   UNL A   1      38.339  28.913  30.116  1.00  0.00     0.009 A 
ATOM     66  C   UNL A   1      37.200  29.826  27.737  1.00  0.00     0.001 A 
ATOM     67  C   UNL A   1      36.963  29.141  30.041  1.00  0.00     0.001 A 
ATOM     68  C   UNL A   1      36.396  29.604  28.855  1.00  0.00     0.000 A 
ENDBRANCH  49  63
BRANCH  50  69
ATOM     69  C   UNL A   1      48.858  26.849  29.185  1.00  0.00    -0.014 A 
ATOM     70  C   UNL A   1      49.469  26.313  30.330  1.00  0.00     0.009 A 
ATOM     71  C   UNL A   1      49.645  27.096  28.049  1.00  0.00     0.009 A 
ATOM     72  C   UNL A   1      50.843  26.062  30.347  1.00  0.00     0.001 A 
ATOM     73  C   UNL A   1      51.013  26.815  28.060  1.00  0.00     0.001 A 
ATOM     74  C   UNL A   1      51.612  26.308  29.211  1.00  0.00     0.000 A 
ENDBRANCH  50  69
BRANCH  62  75
ATOM     75  C   UNL A   1      45.221  32.512  30.948  1.00  0.00    -0.014 A 
ATOM     76  C   UNL A   1      45.322  32.715  32.334  1.00  0.00     0.009 A 
ATOM     77  C   UNL A   1      45.543  33.566  30.081  1.00  0.00     0.009 A 
ATOM     78  C   UNL A   1      45.706  33.959  32.838  1.00  0.00     0.001 A 
ATOM     79  C   UNL A   1      45.954  34.800  30.587  1.00  0.00     0.001 A 
ATOM     80  C   UNL A   1      46.027  34.998  31.965  1.00  0.00     0.000 A 
ENDBRANCH  62  75
ENDBRANCH  36  37
ENDBRANCH  28  31
ENDBRANCH  26  27
ENDBRANCH  25  26
ENDBRANCH   1  25
TORSDOF 14
ENDMDL
