MODEL 1
REMARK VINA RESULT:     -11.3      0.000      0.000
REMARK SMILES COC(=O)C[C@@H](NC(=O)c1ccccc1C(=O)NCCCCCCNC(=O)c1ccc(-c2c3nc(c(-c4ccccc4)c4ccc([nH]4)c(-c4ccccc4)c4nc(c(-c5ccccc5)c5ccc2[nH]5)C=C4)C=C3)cc1)c1cccc(C)c1C
REMARK SMILES IDX 20 1 19 2 18 3 16 4 17 5 15 7 10 8 11 9 12 10 14 11 13 12
REMARK SMILES IDX 8 13 7 14 9 16 6 17 5 18 3 19 4 20 2 21 1 22 76 23 77 24
REMARK SMILES IDX 82 25 78 26 80 27 83 28 79 29 81 30 21 31 22 32 23 33 24 34
REMARK SMILES IDX 25 35 26 36 27 38 28 39 29 40 75 41 30 42 74 43 31 44 32 45
REMARK SMILES IDX 33 46 68 47 34 48 73 49 67 50 69 51 35 52 72 53 66 54 65 55
REMARK SMILES IDX 36 57 58 58 43 59 57 60 44 61 47 62 56 63 70 64 45 65 46 66
REMARK SMILES IDX 55 68 71 69 48 70 37 71 38 72 42 73 39 74 41 75 40 76 59 77
REMARK SMILES IDX 60 78 64 79 61 80 63 81 62 82 49 83 50 84 54 85 51 86 53 87
REMARK SMILES IDX 52 88
REMARK H PARENT 18 6 7 15 25 37 69 56 47 67
REMARK Flexibility Score: inf
ROOT
ATOM      1  C   UNL A   1      39.081  23.684  26.498  1.00  0.00     0.021 C 
ENDROOT
BRANCH   1   2
ATOM      2  C   UNL A   1      37.545  23.727  26.265  1.00  0.00     0.116 C 
BRANCH   2   3
ATOM      3  N   UNL A   1      37.183  23.700  24.803  1.00  0.00    -0.352 N 
ATOM      4  C   UNL A   1      36.149  23.538  23.862  1.00  0.00     0.252 C 
ATOM      5  O   UNL A   1      36.644  23.228  22.761  1.00  0.00    -0.269 OA
ATOM      6  H   UNL A   1      38.012  23.861  24.297  1.00  0.00     0.163 HD
BRANCH   4   7
ATOM      7  C   UNL A   1      34.540  23.852  23.789  1.00  0.00     0.052 A 
ATOM      8  C   UNL A   1      33.173  25.037  23.096  1.00  0.00     0.052 A 
ATOM      9  C   UNL A   1      31.518  24.351  22.762  1.00  0.00     0.014 A 
ATOM     10  C   UNL A   1      31.126  22.657  23.144  1.00  0.00     0.001 A 
ATOM     11  C   UNL A   1      34.045  22.099  24.073  1.00  0.00     0.014 A 
ATOM     12  C   UNL A   1      32.358  21.549  23.804  1.00  0.00     0.001 A 
BRANCH   8  13
ATOM     13  C   UNL A   1      32.949  26.276  22.025  1.00  0.00     0.252 C 
ATOM     14  N   UNL A   1      32.265  27.540  22.255  1.00  0.00    -0.345 N 
ATOM     15  H   UNL A   1      32.577  28.244  21.641  1.00  0.00     0.164 HD
ATOM     16  O   UNL A   1      33.524  26.162  20.938  1.00  0.00    -0.269 OA
BRANCH  14  17
ATOM     17  C   UNL A   1      31.158  28.064  23.231  1.00  0.00     0.124 C 
BRANCH  17  18
ATOM     18  C   UNL A   1      30.320  29.226  22.686  1.00  0.00     0.152 C 
BRANCH  18  19
ATOM     19  C   UNL A   1      28.867  28.800  22.636  1.00  0.00     0.307 C 
ATOM     20  O   UNL A   1      28.428  27.777  23.141  1.00  0.00    -0.252 OA
BRANCH  19  21
ATOM     21  O   UNL A   1      28.132  29.698  21.923  1.00  0.00    -0.469 OA
ATOM     22  C   UNL A   1      28.790  30.947  21.698  1.00  0.00     0.282 C 
ENDBRANCH  19  21
ENDBRANCH  18  19
ENDBRANCH  17  18
BRANCH  17  23
ATOM     23  C   UNL A   1      31.772  28.272  24.593  1.00  0.00    -0.022 A 
ATOM     24  C   UNL A   1      32.803  29.142  24.906  1.00  0.00     0.006 A 
ATOM     25  C   UNL A   1      31.548  27.180  25.410  1.00  0.00    -0.043 A 
ATOM     26  C   UNL A   1      33.834  28.733  25.740  1.00  0.00     0.001 A 
ATOM     27  C   UNL A   1      32.864  26.403  26.099  1.00  0.00    -0.048 A 
ATOM     28  C   UNL A   1      29.927  26.587  25.069  1.00  0.00     0.045 C 
ATOM     29  C   UNL A   1      33.929  27.410  26.218  1.00  0.00     0.004 A 
ATOM     30  C   UNL A   1      32.872  24.320  26.621  1.00  0.00     0.044 C 
ENDBRANCH  17  23
ENDBRANCH  14  17
ENDBRANCH   8  13
ENDBRANCH   4   7
ENDBRANCH   2   3
ENDBRANCH   1   2
BRANCH   1  31
ATOM     31  C   UNL A   1      39.716  22.289  26.564  1.00  0.00     0.002 C 
BRANCH  31  32
ATOM     32  C   UNL A   1      40.852  22.090  27.575  1.00  0.00     0.002 C 
BRANCH  32  33
ATOM     33  C   UNL A   1      41.803  20.909  27.332  1.00  0.00     0.021 C 
BRANCH  33  34
ATOM     34  C   UNL A   1      41.644  20.151  26.016  1.00  0.00     0.116 C 
BRANCH  34  35
ATOM     35  N   UNL A   1      42.914  19.937  25.335  1.00  0.00    -0.352 N 
ATOM     36  C   UNL A   1      43.921  20.812  25.016  1.00  0.00     0.251 C 
ATOM     37  H   UNL A   1      43.077  19.006  25.058  1.00  0.00     0.163 HD
ATOM     38  O   UNL A   1      44.816  20.456  24.254  1.00  0.00    -0.269 OA
BRANCH  36  39
ATOM     39  C   UNL A   1      43.941  22.183  25.574  1.00  0.00     0.039 A 
ATOM     40  C   UNL A   1      43.432  23.235  24.804  1.00  0.00     0.014 A 
ATOM     41  C   UNL A   1      44.505  22.445  26.823  1.00  0.00     0.014 A 
ATOM     42  C   UNL A   1      43.444  24.537  25.310  1.00  0.00     0.010 A 
ATOM     43  C   UNL A   1      44.435  23.726  27.363  1.00  0.00     0.010 A 
ATOM     44  C   UNL A   1      43.922  24.790  26.606  1.00  0.00    -0.014 A 
BRANCH  44  45
ATOM     45  C   UNL A   1      43.927  26.160  27.177  1.00  0.00     0.031 A 
ATOM     46  C   UNL A   1      45.232  26.880  27.397  1.00  0.00     0.074 A 
ATOM     47  C   UNL A   1      42.766  26.738  27.544  1.00  0.00     0.049 A 
ATOM     48  N   UNL A   1      45.449  28.052  27.936  1.00  0.00    -0.248 NA
ATOM     49  C   UNL A   1      46.457  26.178  26.979  1.00  0.00     0.031 C 
ATOM     50  C   UNL A   1      41.438  26.134  27.411  1.00  0.00     0.029 A 
ATOM     51  N   UNL A   1      42.518  27.964  28.108  1.00  0.00    -0.354 N 
ATOM     52  C   UNL A   1      46.829  28.220  27.931  1.00  0.00     0.074 A 
ATOM     53  C   UNL A   1      47.402  27.005  27.399  1.00  0.00     0.031 C 
ATOM     54  C   UNL A   1      40.514  27.005  27.846  1.00  0.00     0.029 A 
ATOM     55  C   UNL A   1      41.184  28.206  28.334  1.00  0.00     0.049 A 
ATOM     56  H   UNL A   1      43.227  28.609  28.329  1.00  0.00     0.167 HD
ATOM     57  C   UNL A   1      47.556  29.298  28.309  1.00  0.00     0.031 A 
ATOM     58  C   UNL A   1      40.571  29.274  28.880  1.00  0.00     0.031 A 
ATOM     59  C   UNL A   1      46.985  30.508  28.838  1.00  0.00     0.049 A 
ATOM     60  C   UNL A   1      41.406  30.440  29.333  1.00  0.00     0.074 A 
ATOM     61  C   UNL A   1      47.630  31.671  29.222  1.00  0.00     0.029 A 
ATOM     62  N   UNL A   1      45.631  30.709  29.058  1.00  0.00    -0.354 N 
ATOM     63  N   UNL A   1      42.705  30.606  29.267  1.00  0.00    -0.248 NA
ATOM     64  C   UNL A   1      40.684  31.576  29.924  1.00  0.00     0.031 C 
ATOM     65  C   UNL A   1      46.672  32.554  29.727  1.00  0.00     0.029 A 
ATOM     66  C   UNL A   1      45.423  31.969  29.591  1.00  0.00     0.049 A 
ATOM     67  H   UNL A   1      44.923  30.052  28.865  1.00  0.00     0.167 HD
ATOM     68  C   UNL A   1      42.951  31.877  29.769  1.00  0.00     0.074 A 
ATOM     69  C   UNL A   1      41.665  32.445  30.118  1.00  0.00     0.031 C 
ATOM     70  C   UNL A   1      44.134  32.521  29.924  1.00  0.00     0.031 A 
BRANCH  57  71
ATOM     71  C   UNL A   1      49.051  29.213  28.161  1.00  0.00    -0.014 A 
ATOM     72  C   UNL A   1      49.858  28.720  29.201  1.00  0.00     0.009 A 
ATOM     73  C   UNL A   1      49.662  29.599  26.957  1.00  0.00     0.009 A 
ATOM     74  C   UNL A   1      51.244  28.656  29.055  1.00  0.00     0.001 A 
ATOM     75  C   UNL A   1      51.046  29.501  26.801  1.00  0.00     0.001 A 
ATOM     76  C   UNL A   1      51.837  29.040  27.853  1.00  0.00     0.000 A 
ENDBRANCH  57  71
BRANCH  58  77
ATOM     77  C   UNL A   1      39.090  29.305  29.020  1.00  0.00    -0.014 A 
ATOM     78  C   UNL A   1      38.281  29.706  27.944  1.00  0.00     0.009 A 
ATOM     79  C   UNL A   1      38.477  28.967  30.236  1.00  0.00     0.009 A 
ATOM     80  C   UNL A   1      36.896  29.809  28.098  1.00  0.00     0.001 A 
ATOM     81  C   UNL A   1      37.089  29.036  30.376  1.00  0.00     0.001 A 
ATOM     82  C   UNL A   1      36.302  29.471  29.312  1.00  0.00     0.000 A 
ENDBRANCH  58  77
BRANCH  70  83
ATOM     83  C   UNL A   1      44.087  33.934  30.437  1.00  0.00    -0.014 A 
ATOM     84  C   UNL A   1      44.194  34.225  31.806  1.00  0.00     0.009 A 
ATOM     85  C   UNL A   1      43.966  34.995  29.526  1.00  0.00     0.009 A 
ATOM     86  C   UNL A   1      44.138  35.547  32.253  1.00  0.00     0.001 A 
ATOM     87  C   UNL A   1      43.948  36.316  29.971  1.00  0.00     0.001 A 
ATOM     88  C   UNL A   1      44.020  36.591  31.335  1.00  0.00     0.000 A 
ENDBRANCH  70  83
ENDBRANCH  44  45
ENDBRANCH  36  39
ENDBRANCH  34  35
ENDBRANCH  33  34
ENDBRANCH  32  33
ENDBRANCH  31  32
ENDBRANCH   1  31
TORSDOF 19
ENDMDL
MODEL 2
REMARK VINA RESULT:     -11.1      2.426      3.605
REMARK SMILES COC(=O)C[C@@H](NC(=O)c1ccccc1C(=O)NCCCCCCNC(=O)c1ccc(-c2c3nc(c(-c4ccccc4)c4ccc([nH]4)c(-c4ccccc4)c4nc(c(-c5ccccc5)c5ccc2[nH]5)C=C4)C=C3)cc1)c1cccc(C)c1C
REMARK SMILES IDX 20 1 19 2 18 3 16 4 17 5 15 7 10 8 11 9 12 10 14 11 13 12
REMARK SMILES IDX 8 13 7 14 9 16 6 17 5 18 3 19 4 20 2 21 1 22 76 23 77 24
REMARK SMILES IDX 82 25 78 26 80 27 83 28 79 29 81 30 21 31 22 32 23 33 24 34
REMARK SMILES IDX 25 35 26 36 27 38 28 39 29 40 75 41 30 42 74 43 31 44 32 45
REMARK SMILES IDX 33 46 68 47 34 48 73 49 67 50 69 51 35 52 72 53 66 54 65 55
REMARK SMILES IDX 36 57 58 58 43 59 57 60 44 61 47 62 56 63 70 64 45 65 46 66
REMARK SMILES IDX 55 68 71 69 48 70 37 71 38 72 42 73 39 74 41 75 40 76 59 77
REMARK SMILES IDX 60 78 64 79 61 80 63 81 62 82 49 83 50 84 54 85 51 86 53 87
REMARK SMILES IDX 52 88
REMARK H PARENT 18 6 7 15 25 37 69 56 47 67
REMARK Flexibility Score: inf
ROOT
ATOM      1  C   UNL A   1      34.067  18.394  24.595  1.00  0.00     0.021 C 
ENDROOT
BRANCH   1   2
ATOM      2  C   UNL A   1      32.644  19.012  24.681  1.00  0.00     0.116 C 
BRANCH   2   3
ATOM      3  N   UNL A   1      32.418  20.086  23.650  1.00  0.00    -0.352 N 
ATOM      4  C   UNL A   1      32.354  21.471  23.407  1.00  0.00     0.252 C 
ATOM      5  O   UNL A   1      31.705  21.672  22.362  1.00  0.00    -0.269 OA
ATOM      6  H   UNL A   1      32.243  19.634  22.794  1.00  0.00     0.163 HD
BRANCH   4   7
ATOM      7  C   UNL A   1      33.068  22.824  24.001  1.00  0.00     0.052 A 
ATOM      8  C   UNL A   1      32.874  24.343  25.188  1.00  0.00     0.052 A 
ATOM      9  C   UNL A   1      34.372  25.043  25.954  1.00  0.00     0.014 A 
ATOM     10  C   UNL A   1      35.990  24.414  25.560  1.00  0.00     0.001 A 
ATOM     11  C   UNL A   1      34.783  22.205  23.728  1.00  0.00     0.014 A 
ATOM     12  C   UNL A   1      36.202  23.031  24.454  1.00  0.00     0.001 A 
BRANCH   8  13
ATOM     13  C   UNL A   1      31.902  24.943  26.382  1.00  0.00     0.252 C 
ATOM     14  N   UNL A   1      31.451  26.315  26.559  1.00  0.00    -0.345 N 
ATOM     15  H   UNL A   1      30.614  26.362  27.075  1.00  0.00     0.164 HD
ATOM     16  O   UNL A   1      31.412  24.108  27.150  1.00  0.00    -0.269 OA
BRANCH  14  17
ATOM     17  C   UNL A   1      31.959  27.735  26.137  1.00  0.00     0.124 C 
BRANCH  17  18
ATOM     18  C   UNL A   1      31.786  28.821  27.204  1.00  0.00     0.152 C 
BRANCH  18  19
ATOM     19  C   UNL A   1      32.370  30.118  26.683  1.00  0.00     0.307 C 
ATOM     20  O   UNL A   1      33.554  30.418  26.747  1.00  0.00    -0.252 OA
BRANCH  19  21
ATOM     21  O   UNL A   1      31.389  30.909  26.166  1.00  0.00    -0.469 OA
ATOM     22  C   UNL A   1      31.393  32.248  26.667  1.00  0.00     0.282 C 
ENDBRANCH  19  21
ENDBRANCH  18  19
ENDBRANCH  17  18
BRANCH  17  23
ATOM     23  C   UNL A   1      31.415  28.057  24.768  1.00  0.00    -0.022 A 
ATOM     24  C   UNL A   1      30.083  28.236  24.434  1.00  0.00     0.006 A 
ATOM     25  C   UNL A   1      32.308  27.686  23.779  1.00  0.00    -0.043 A 
ATOM     26  C   UNL A   1      29.571  27.670  23.274  1.00  0.00     0.001 A 
ATOM     27  C   UNL A   1      31.794  26.636  22.579  1.00  0.00    -0.048 A 
ATOM     28  C   UNL A   1      33.928  28.032  24.373  1.00  0.00     0.045 C 
ATOM     29  C   UNL A   1      30.341  26.824  22.452  1.00  0.00     0.004 A 
ATOM     30  C   UNL A   1      33.107  25.294  21.536  1.00  0.00     0.044 C 
ENDBRANCH  17  23
ENDBRANCH  14  17
ENDBRANCH   8  13
ENDBRANCH   4   7
ENDBRANCH   2   3
ENDBRANCH   1   2
BRANCH   1  31
ATOM     31  C   UNL A   1      35.232  19.326  24.955  1.00  0.00     0.002 C 
BRANCH  31  32
ATOM     32  C   UNL A   1      36.638  18.713  24.955  1.00  0.00     0.002 C 
BRANCH  32  33
ATOM     33  C   UNL A   1      37.805  19.645  24.604  1.00  0.00     0.021 C 
BRANCH  33  34
ATOM     34  C   UNL A   1      38.736  20.053  25.745  1.00  0.00     0.116 C 
BRANCH  34  35
ATOM     35  N   UNL A   1      39.927  19.218  25.822  1.00  0.00    -0.352 N 
ATOM     36  C   UNL A   1      41.232  19.539  26.095  1.00  0.00     0.251 C 
ATOM     37  H   UNL A   1      39.768  18.262  25.649  1.00  0.00     0.163 HD
ATOM     38  O   UNL A   1      42.115  18.707  25.904  1.00  0.00    -0.269 OA
BRANCH  36  39
ATOM     39  C   UNL A   1      41.593  20.878  26.613  1.00  0.00     0.039 A 
ATOM     40  C   UNL A   1      42.007  21.865  25.711  1.00  0.00     0.014 A 
ATOM     41  C   UNL A   1      41.578  21.150  27.981  1.00  0.00     0.014 A 
ATOM     42  C   UNL A   1      42.355  23.134  26.178  1.00  0.00     0.010 A 
ATOM     43  C   UNL A   1      41.838  22.439  28.438  1.00  0.00     0.010 A 
ATOM     44  C   UNL A   1      42.247  23.440  27.545  1.00  0.00    -0.014 A 
BRANCH  44  45
ATOM     45  C   UNL A   1      42.590  24.788  28.067  1.00  0.00     0.031 A 
ATOM     46  C   UNL A   1      44.018  25.120  28.412  1.00  0.00     0.074 A 
ATOM     47  C   UNL A   1      41.615  25.693  28.276  1.00  0.00     0.049 A 
ATOM     48  N   UNL A   1      44.509  26.215  28.934  1.00  0.00    -0.248 NA
ATOM     49  C   UNL A   1      45.024  24.073  28.164  1.00  0.00     0.031 C 
ATOM     50  C   UNL A   1      40.190  25.484  28.009  1.00  0.00     0.029 A 
ATOM     51  N   UNL A   1      41.675  26.974  28.765  1.00  0.00    -0.354 N 
ATOM     52  C   UNL A   1      45.871  25.984  29.085  1.00  0.00     0.074 A 
ATOM     53  C   UNL A   1      46.119  24.624  28.664  1.00  0.00     0.031 C 
ATOM     54  C   UNL A   1      39.517  26.608  28.304  1.00  0.00     0.029 A 
ATOM     55  C   UNL A   1      40.453  27.599  28.826  1.00  0.00     0.049 A 
ATOM     56  H   UNL A   1      42.515  27.404  29.046  1.00  0.00     0.167 HD
ATOM     57  C   UNL A   1      46.836  26.834  29.508  1.00  0.00     0.031 A 
ATOM     58  C   UNL A   1      40.123  28.830  29.261  1.00  0.00     0.031 A 
ATOM     59  C   UNL A   1      46.589  28.188  29.926  1.00  0.00     0.049 A 
ATOM     60  C   UNL A   1      41.209  29.739  29.770  1.00  0.00     0.074 A 
ATOM     61  C   UNL A   1      47.500  29.143  30.344  1.00  0.00     0.029 A 
ATOM     62  N   UNL A   1      45.336  28.779  29.980  1.00  0.00    -0.354 N 
ATOM     63  N   UNL A   1      42.500  29.524  29.850  1.00  0.00    -0.248 NA
ATOM     64  C   UNL A   1      40.790  31.068  30.234  1.00  0.00     0.031 C 
ATOM     65  C   UNL A   1      46.792  30.293  30.705  1.00  0.00     0.029 A 
ATOM     66  C   UNL A   1      45.448  30.078  30.443  1.00  0.00     0.049 A 
ATOM     67  H   UNL A   1      44.492  28.339  29.728  1.00  0.00     0.167 HD
ATOM     68  C   UNL A   1      43.050  30.703  30.334  1.00  0.00     0.074 A 
ATOM     69  C   UNL A   1      41.955  31.635  30.512  1.00  0.00     0.031 C 
ATOM     70  C   UNL A   1      44.347  30.994  30.605  1.00  0.00     0.031 A 
BRANCH  57  71
ATOM     71  C   UNL A   1      48.250  26.318  29.539  1.00  0.00    -0.014 A 
ATOM     72  C   UNL A   1      49.057  26.339  28.389  1.00  0.00     0.009 A 
ATOM     73  C   UNL A   1      48.796  25.833  30.738  1.00  0.00     0.009 A 
ATOM     74  C   UNL A   1      50.363  25.848  28.429  1.00  0.00     0.001 A 
ATOM     75  C   UNL A   1      50.114  25.374  30.784  1.00  0.00     0.001 A 
ATOM     76  C   UNL A   1      50.892  25.372  29.627  1.00  0.00     0.000 A 
ENDBRANCH  57  71
BRANCH  58  77
ATOM     77  C   UNL A   1      38.708  29.289  29.226  1.00  0.00    -0.014 A 
ATOM     78  C   UNL A   1      37.878  29.126  30.347  1.00  0.00     0.009 A 
ATOM     79  C   UNL A   1      38.168  29.861  28.063  1.00  0.00     0.009 A 
ATOM     80  C   UNL A   1      36.529  29.486  30.290  1.00  0.00     0.001 A 
ATOM     81  C   UNL A   1      36.828  30.254  28.021  1.00  0.00     0.001 A 
ATOM     82  C   UNL A   1      36.007  30.053  29.128  1.00  0.00     0.000 A 
ENDBRANCH  58  77
BRANCH  70  83
ATOM     83  C   UNL A   1      44.659  32.392  31.062  1.00  0.00    -0.014 A 
ATOM     84  C   UNL A   1      44.777  32.714  32.423  1.00  0.00     0.009 A 
ATOM     85  C   UNL A   1      44.869  33.399  30.106  1.00  0.00     0.009 A 
ATOM     86  C   UNL A   1      45.058  34.024  32.816  1.00  0.00     0.001 A 
ATOM     87  C   UNL A   1      45.186  34.699  30.500  1.00  0.00     0.001 A 
ATOM     88  C   UNL A   1      45.268  35.013  31.855  1.00  0.00     0.000 A 
ENDBRANCH  70  83
ENDBRANCH  44  45
ENDBRANCH  36  39
ENDBRANCH  34  35
ENDBRANCH  33  34
ENDBRANCH  32  33
ENDBRANCH  31  32
ENDBRANCH   1  31
TORSDOF 19
ENDMDL
MODEL 3
REMARK VINA RESULT:     -11.1      2.380      6.611
REMARK SMILES COC(=O)C[C@@H](NC(=O)c1ccccc1C(=O)NCCCCCCNC(=O)c1ccc(-c2c3nc(c(-c4ccccc4)c4ccc([nH]4)c(-c4ccccc4)c4nc(c(-c5ccccc5)c5ccc2[nH]5)C=C4)C=C3)cc1)c1cccc(C)c1C
REMARK SMILES IDX 20 1 19 2 18 3 16 4 17 5 15 7 10 8 11 9 12 10 14 11 13 12
REMARK SMILES IDX 8 13 7 14 9 16 6 17 5 18 3 19 4 20 2 21 1 22 76 23 77 24
REMARK SMILES IDX 82 25 78 26 80 27 83 28 79 29 81 30 21 31 22 32 23 33 24 34
REMARK SMILES IDX 25 35 26 36 27 38 28 39 29 40 75 41 30 42 74 43 31 44 32 45
REMARK SMILES IDX 33 46 68 47 34 48 73 49 67 50 69 51 35 52 72 53 66 54 65 55
REMARK SMILES IDX 36 57 58 58 43 59 57 60 44 61 47 62 56 63 70 64 45 65 46 66
REMARK SMILES IDX 55 68 71 69 48 70 37 71 38 72 42 73 39 74 41 75 40 76 59 77
REMARK SMILES IDX 60 78 64 79 61 80 63 81 62 82 49 83 50 84 54 85 51 86 53 87
REMARK SMILES IDX 52 88
REMARK H PARENT 18 6 7 15 25 37 69 56 47 67
REMARK Flexibility Score: inf
ROOT
ATOM      1  C   UNL A   1      34.117  18.568  24.549  1.00  0.00     0.021 C 
ENDROOT
BRANCH   1   2
ATOM      2  C   UNL A   1      32.695  19.188  24.642  1.00  0.00     0.116 C 
BRANCH   2   3
ATOM      3  N   UNL A   1      32.461  20.251  23.602  1.00  0.00    -0.352 N 
ATOM      4  C   UNL A   1      32.373  21.633  23.348  1.00  0.00     0.252 C 
ATOM      5  O   UNL A   1      31.731  21.814  22.295  1.00  0.00    -0.269 OA
ATOM      6  H   UNL A   1      32.303  19.789  22.747  1.00  0.00     0.163 HD
BRANCH   4   7
ATOM      7  C   UNL A   1      33.056  23.002  23.940  1.00  0.00     0.052 A 
ATOM      8  C   UNL A   1      32.798  24.559  25.063  1.00  0.00     0.052 A 
ATOM      9  C   UNL A   1      34.251  25.280  25.894  1.00  0.00     0.014 A 
ATOM     10  C   UNL A   1      35.887  24.636  25.617  1.00  0.00     0.001 A 
ATOM     11  C   UNL A   1      34.782  22.371  23.788  1.00  0.00     0.014 A 
ATOM     12  C   UNL A   1      36.158  23.218  24.571  1.00  0.00     0.001 A 
BRANCH   8  13
ATOM     13  C   UNL A   1      31.759  25.199  26.178  1.00  0.00     0.252 C 
ATOM     14  N   UNL A   1      31.371  26.592  26.339  1.00  0.00    -0.345 N 
ATOM     15  H   UNL A   1      30.496  26.681  26.780  1.00  0.00     0.164 HD
ATOM     16  O   UNL A   1      31.158  24.385  26.886  1.00  0.00    -0.269 OA
BRANCH  14  17
ATOM     17  C   UNL A   1      31.993  27.986  25.986  1.00  0.00     0.124 C 
BRANCH  17  18
ATOM     18  C   UNL A   1      31.895  29.033  27.102  1.00  0.00     0.152 C 
BRANCH  18  19
ATOM     19  C   UNL A   1      33.268  29.627  27.340  1.00  0.00     0.307 C 
ATOM     20  O   UNL A   1      34.267  28.974  27.601  1.00  0.00    -0.252 OA
BRANCH  19  21
ATOM     21  O   UNL A   1      33.220  30.985  27.255  1.00  0.00    -0.469 OA
ATOM     22  C   UNL A   1      34.433  31.639  27.633  1.00  0.00     0.282 C 
ENDBRANCH  19  21
ENDBRANCH  18  19
ENDBRANCH  17  18
BRANCH  17  23
ATOM     23  C   UNL A   1      31.490  28.412  24.630  1.00  0.00    -0.022 A 
ATOM     24  C   UNL A   1      30.185  28.739  24.303  1.00  0.00     0.006 A 
ATOM     25  C   UNL A   1      32.344  27.989  23.629  1.00  0.00    -0.043 A 
ATOM     26  C   UNL A   1      29.622  28.272  23.124  1.00  0.00     0.001 A 
ATOM     27  C   UNL A   1      31.730  27.042  22.390  1.00  0.00    -0.048 A 
ATOM     28  C   UNL A   1      33.988  28.145  24.235  1.00  0.00     0.045 C 
ATOM     29  C   UNL A   1      30.304  27.383  22.271  1.00  0.00     0.004 A 
ATOM     30  C   UNL A   1      32.902  25.613  21.297  1.00  0.00     0.044 C 
ENDBRANCH  17  23
ENDBRANCH  14  17
ENDBRANCH   8  13
ENDBRANCH   4   7
ENDBRANCH   2   3
ENDBRANCH   1   2
BRANCH   1  31
ATOM     31  C   UNL A   1      35.278  19.465  25.001  1.00  0.00     0.002 C 
BRANCH  31  32
ATOM     32  C   UNL A   1      36.681  18.848  24.981  1.00  0.00     0.002 C 
BRANCH  32  33
ATOM     33  C   UNL A   1      37.847  19.781  24.626  1.00  0.00     0.021 C 
BRANCH  33  34
ATOM     34  C   UNL A   1      38.826  20.126  25.747  1.00  0.00     0.116 C 
BRANCH  34  35
ATOM     35  N   UNL A   1      39.923  19.172  25.846  1.00  0.00    -0.352 N 
ATOM     36  C   UNL A   1      41.270  19.368  26.018  1.00  0.00     0.251 C 
ATOM     37  H   UNL A   1      39.652  18.228  25.779  1.00  0.00     0.163 HD
ATOM     38  O   UNL A   1      42.045  18.426  25.867  1.00  0.00    -0.269 OA
BRANCH  36  39
ATOM     39  C   UNL A   1      41.805  20.700  26.380  1.00  0.00     0.039 A 
ATOM     40  C   UNL A   1      41.960  21.663  25.376  1.00  0.00     0.014 A 
ATOM     41  C   UNL A   1      42.203  20.987  27.685  1.00  0.00     0.014 A 
ATOM     42  C   UNL A   1      42.466  22.925  25.695  1.00  0.00     0.010 A 
ATOM     43  C   UNL A   1      42.622  22.272  28.019  1.00  0.00     0.010 A 
ATOM     44  C   UNL A   1      42.776  23.249  27.026  1.00  0.00    -0.014 A 
BRANCH  44  45
ATOM     45  C   UNL A   1      43.294  24.591  27.396  1.00  0.00     0.031 A 
ATOM     46  C   UNL A   1      42.344  25.661  27.868  1.00  0.00     0.074 A 
ATOM     47  C   UNL A   1      44.606  24.863  27.262  1.00  0.00     0.049 A 
ATOM     48  N   UNL A   1      42.592  26.907  28.180  1.00  0.00    -0.248 NA
ATOM     49  C   UNL A   1      40.924  25.288  27.978  1.00  0.00     0.031 C 
ATOM     50  C   UNL A   1      45.624  23.923  26.788  1.00  0.00     0.029 A 
ATOM     51  N   UNL A   1      45.310  26.015  27.510  1.00  0.00    -0.354 N 
ATOM     52  C   UNL A   1      41.362  27.466  28.511  1.00  0.00     0.074 A 
ATOM     53  C   UNL A   1      40.363  26.444  28.297  1.00  0.00     0.031 C 
ATOM     54  C   UNL A   1      46.825  24.524  26.814  1.00  0.00     0.029 A 
ATOM     55  C   UNL A   1      46.656  25.904  27.258  1.00  0.00     0.049 A 
ATOM     56  H   UNL A   1      44.890  26.842  27.838  1.00  0.00     0.167 HD
ATOM     57  C   UNL A   1      41.090  28.707  28.977  1.00  0.00     0.031 A 
ATOM     58  C   UNL A   1      47.642  26.814  27.366  1.00  0.00     0.031 A 
ATOM     59  C   UNL A   1      42.085  29.723  29.190  1.00  0.00     0.049 A 
ATOM     60  C   UNL A   1      47.305  28.201  27.843  1.00  0.00     0.074 A 
ATOM     61  C   UNL A   1      41.920  31.003  29.688  1.00  0.00     0.029 A 
ATOM     62  N   UNL A   1      43.436  29.572  28.914  1.00  0.00    -0.354 N 
ATOM     63  N   UNL A   1      46.146  28.693  28.208  1.00  0.00    -0.248 NA
ATOM     64  C   UNL A   1      48.420  29.153  27.938  1.00  0.00     0.031 C 
ATOM     65  C   UNL A   1      43.161  31.646  29.661  1.00  0.00     0.029 A 
ATOM     66  C   UNL A   1      44.111  30.742  29.214  1.00  0.00     0.049 A 
ATOM     67  H   UNL A   1      43.852  28.754  28.557  1.00  0.00     0.167 HD
ATOM     68  C   UNL A   1      46.399  29.997  28.613  1.00  0.00     0.074 A 
ATOM     69  C   UNL A   1      47.824  30.212  28.466  1.00  0.00     0.031 C 
ATOM     70  C   UNL A   1      45.532  30.934  29.070  1.00  0.00     0.031 A 
BRANCH  57  71
ATOM     71  C   UNL A   1      39.653  29.031  29.288  1.00  0.00    -0.014 A 
ATOM     72  C   UNL A   1      39.105  28.765  30.554  1.00  0.00     0.009 A 
ATOM     73  C   UNL A   1      38.843  29.638  28.315  1.00  0.00     0.009 A 
ATOM     74  C   UNL A   1      37.768  29.061  30.826  1.00  0.00     0.001 A 
ATOM     75  C   UNL A   1      37.516  29.965  28.601  1.00  0.00     0.001 A 
ATOM     76  C   UNL A   1      36.977  29.666  29.851  1.00  0.00     0.000 A 
ENDBRANCH  57  71
BRANCH  58  77
ATOM     77  C   UNL A   1      49.046  26.451  27.031  1.00  0.00    -0.014 A 
ATOM     78  C   UNL A   1      49.517  26.567  25.713  1.00  0.00     0.009 A 
ATOM     79  C   UNL A   1      49.913  25.954  28.017  1.00  0.00     0.009 A 
ATOM     80  C   UNL A   1      50.810  26.153  25.383  1.00  0.00     0.001 A 
ATOM     81  C   UNL A   1      51.218  25.577  27.691  1.00  0.00     0.001 A 
ATOM     82  C   UNL A   1      51.660  25.662  26.372  1.00  0.00     0.000 A 
ENDBRANCH  58  77
BRANCH  70  83
ATOM     83  C   UNL A   1      46.109  32.254  29.502  1.00  0.00    -0.014 A 
ATOM     84  C   UNL A   1      46.248  33.327  28.607  1.00  0.00     0.009 A 
ATOM     85  C   UNL A   1      46.491  32.434  30.841  1.00  0.00     0.009 A 
ATOM     86  C   UNL A   1      46.796  34.537  29.037  1.00  0.00     0.001 A 
ATOM     87  C   UNL A   1      47.003  33.656  31.276  1.00  0.00     0.001 A 
ATOM     88  C   UNL A   1      47.168  34.702  30.371  1.00  0.00     0.000 A 
ENDBRANCH  70  83
ENDBRANCH  44  45
ENDBRANCH  36  39
ENDBRANCH  34  35
ENDBRANCH  33  34
ENDBRANCH  32  33
ENDBRANCH  31  32
ENDBRANCH   1  31
TORSDOF 19
ENDMDL
