MODEL 1
REMARK VINA RESULT:     -10.2      0.000      0.000
REMARK SMILES O=C(NCCCCCCNC(=O)[C@H]1CC[C@@H](C(F)F)[NH2+]1)c1ccc(-c2c3nc(c(-c4ccccc4)c4ccc([nH]4)c(-c4ccccc4)c4nc(c(-c5ccccc5)c5ccc2[nH]5)C=C4)C=C3)cc1
REMARK SMILES IDX 6 1 5 2 4 3 3 4 1 5 2 6 21 8 22 9 68 10 23 11 67 12 24 13
REMARK SMILES IDX 25 14 26 15 61 16 27 17 66 18 60 19 62 20 28 21 65 22 59 23
REMARK SMILES IDX 58 24 29 26 51 27 36 28 50 29 37 30 40 31 49 32 63 33 38 34
REMARK SMILES IDX 39 35 48 37 64 38 41 39 30 40 31 41 35 42 32 43 34 44 33 45
REMARK SMILES IDX 52 46 53 47 57 48 54 49 56 50 55 51 42 52 43 53 47 54 44 55
REMARK SMILES IDX 46 56 45 57 7 58 8 59 9 60 10 61 11 62 12 64 13 65 14 66
REMARK SMILES IDX 20 67 15 68 16 69 17 72 18 73 19 74
REMARK H PARENT 3 7 62 25 40 36 10 63 20 70 20 71
REMARK Flexibility Score: inf
ROOT
ATOM      1  C   UNL A   1      31.640  30.688  26.124  1.00  0.00     0.002 C 
ENDROOT
BRANCH   1   2
ATOM      2  C   UNL A   1      31.397  32.067  26.737  1.00  0.00     0.021 C 
BRANCH   2   3
ATOM      3  C   UNL A   1      32.649  32.779  27.235  1.00  0.00     0.116 C 
BRANCH   3   4
ATOM      4  N   UNL A   1      32.394  34.157  27.618  1.00  0.00    -0.352 N 
ATOM      5  O   UNL A   1      32.547  36.018  28.884  1.00  0.00    -0.269 OA
ATOM      6  C   UNL A   1      32.998  34.920  28.590  1.00  0.00     0.251 C 
ATOM      7  H   UNL A   1      31.687  34.612  27.106  1.00  0.00     0.163 HD
BRANCH   6   8
ATOM      8  C   UNL A   1      34.183  34.393  29.304  1.00  0.00     0.039 A 
ATOM      9  C   UNL A   1      35.465  34.546  28.773  1.00  0.00     0.014 A 
ATOM     10  C   UNL A   1      34.003  33.736  30.524  1.00  0.00     0.014 A 
ATOM     11  C   UNL A   1      36.543  33.911  29.381  1.00  0.00     0.010 A 
ATOM     12  C   UNL A   1      35.101  33.171  31.178  1.00  0.00     0.010 A 
ATOM     13  C   UNL A   1      36.374  33.218  30.591  1.00  0.00    -0.014 A 
BRANCH  13  14
ATOM     14  C   UNL A   1      37.552  32.577  31.232  1.00  0.00     0.031 A 
ATOM     15  C   UNL A   1      38.049  33.035  32.577  1.00  0.00     0.074 A 
ATOM     16  C   UNL A   1      38.151  31.544  30.610  1.00  0.00     0.049 A 
ATOM     17  N   UNL A   1      39.024  32.546  33.303  1.00  0.00    -0.248 NA
ATOM     18  C   UNL A   1      37.375  34.194  33.182  1.00  0.00     0.031 C 
ATOM     19  C   UNL A   1      37.766  31.010  29.301  1.00  0.00     0.029 A 
ATOM     20  N   UNL A   1      39.190  30.742  31.005  1.00  0.00    -0.354 N 
ATOM     21  C   UNL A   1      39.098  33.350  34.434  1.00  0.00     0.074 A 
ATOM     22  C   UNL A   1      38.083  34.372  34.289  1.00  0.00     0.031 C 
ATOM     23  C   UNL A   1      38.517  29.931  29.030  1.00  0.00     0.029 A 
ATOM     24  C   UNL A   1      39.471  29.734  30.114  1.00  0.00     0.049 A 
ATOM     25  H   UNL A   1      39.686  30.874  31.845  1.00  0.00     0.167 HD
ATOM     26  C   UNL A   1      39.932  33.246  35.497  1.00  0.00     0.031 A 
ATOM     27  C   UNL A   1      40.396  28.758  30.161  1.00  0.00     0.031 A 
ATOM     28  C   UNL A   1      40.935  32.224  35.647  1.00  0.00     0.049 A 
ATOM     29  C   UNL A   1      41.313  28.674  31.345  1.00  0.00     0.074 A 
ATOM     30  C   UNL A   1      41.800  32.015  36.707  1.00  0.00     0.029 A 
ATOM     31  N   UNL A   1      41.211  31.245  34.707  1.00  0.00    -0.354 N 
ATOM     32  N   UNL A   1      41.340  29.418  32.424  1.00  0.00    -0.248 NA
ATOM     33  C   UNL A   1      42.325  27.610  31.318  1.00  0.00     0.031 C 
ATOM     34  C   UNL A   1      42.632  30.935  36.387  1.00  0.00     0.029 A 
ATOM     35  C   UNL A   1      42.247  30.440  35.152  1.00  0.00     0.049 A 
ATOM     36  H   UNL A   1      40.741  31.136  33.848  1.00  0.00     0.167 HD
ATOM     37  C   UNL A   1      42.354  28.897  33.216  1.00  0.00     0.074 A 
ATOM     38  C   UNL A   1      42.906  27.764  32.500  1.00  0.00     0.031 C 
ATOM     39  C   UNL A   1      42.787  29.317  34.429  1.00  0.00     0.031 A 
BRANCH  26  40
ATOM     40  C   UNL A   1      39.814  34.288  36.576  1.00  0.00    -0.014 A 
ATOM     41  C   UNL A   1      39.025  34.076  37.717  1.00  0.00     0.009 A 
ATOM     42  C   UNL A   1      40.536  35.486  36.464  1.00  0.00     0.009 A 
ATOM     43  C   UNL A   1      38.935  35.058  38.707  1.00  0.00     0.001 A 
ATOM     44  C   UNL A   1      40.465  36.455  37.467  1.00  0.00     0.001 A 
ATOM     45  C   UNL A   1      39.657  36.245  38.583  1.00  0.00     0.000 A 
ENDBRANCH  26  40
BRANCH  27  46
ATOM     46  C   UNL A   1      40.489  27.774  29.052  1.00  0.00    -0.014 A 
ATOM     47  C   UNL A   1      39.695  26.617  29.061  1.00  0.00     0.009 A 
ATOM     48  C   UNL A   1      41.363  27.992  27.977  1.00  0.00     0.009 A 
ATOM     49  C   UNL A   1      39.791  25.688  28.023  1.00  0.00     0.001 A 
ATOM     50  C   UNL A   1      41.435  27.076  26.927  1.00  0.00     0.001 A 
ATOM     51  C   UNL A   1      40.655  25.921  26.954  1.00  0.00     0.000 A 
ENDBRANCH  27  46
BRANCH  39  52
ATOM     52  C   UNL A   1      43.884  28.521  35.074  1.00  0.00    -0.014 A 
ATOM     53  C   UNL A   1      45.235  28.841  34.872  1.00  0.00     0.009 A 
ATOM     54  C   UNL A   1      43.556  27.441  35.909  1.00  0.00     0.009 A 
ATOM     55  C   UNL A   1      46.238  28.070  35.465  1.00  0.00     0.001 A 
ATOM     56  C   UNL A   1      44.559  26.690  36.522  1.00  0.00     0.001 A 
ATOM     57  C   UNL A   1      45.900  26.998  36.291  1.00  0.00     0.000 A 
ENDBRANCH  39  52
ENDBRANCH  13  14
ENDBRANCH   6   8
ENDBRANCH   3   4
ENDBRANCH   2   3
ENDBRANCH   1   2
BRANCH   1  58
ATOM     58  C   UNL A   1      32.208  29.631  27.079  1.00  0.00     0.002 C 
BRANCH  58  59
ATOM     59  C   UNL A   1      33.683  29.271  26.866  1.00  0.00     0.021 C 
BRANCH  59  60
ATOM     60  C   UNL A   1      33.920  28.107  25.905  1.00  0.00     0.116 C 
BRANCH  60  61
ATOM     61  N   UNL A   1      34.026  28.576  24.543  1.00  0.00    -0.351 N 
ATOM     62  C   UNL A   1      33.607  28.117  23.342  1.00  0.00     0.278 C 
ATOM     63  H   UNL A   1      34.517  29.427  24.473  1.00  0.00     0.163 HD
ATOM     64  O   UNL A   1      34.138  28.673  22.369  1.00  0.00    -0.268 OA
BRANCH  62  65
ATOM     65  C   UNL A   1      32.550  26.998  23.101  1.00  0.00     0.273 C 
ATOM     66  C   UNL A   1      31.624  26.452  24.165  1.00  0.00     0.082 C 
ATOM     67  N   UNL A   1      31.557  27.525  22.121  1.00  0.00    -0.329 N 
ATOM     68  C   UNL A   1      30.586  27.545  24.320  1.00  0.00     0.078 C 
ATOM     69  C   UNL A   1      30.408  28.071  22.894  1.00  0.00     0.251 C 
ATOM     70  H   UNL A   1      31.239  26.774  21.509  1.00  0.00     0.347 HD
ATOM     71  H   UNL A   1      31.976  28.254  21.543  1.00  0.00     0.347 HD
BRANCH  69  72
ATOM     72  C   UNL A   1      30.237  29.603  22.862  1.00  0.00     0.399 C 
ATOM     73  F   UNL A   1      30.233  30.071  21.591  1.00  0.00    -0.204 F 
ATOM     74  F   UNL A   1      29.062  29.964  23.433  1.00  0.00    -0.204 F 
ENDBRANCH  69  72
ENDBRANCH  62  65
ENDBRANCH  60  61
ENDBRANCH  59  60
ENDBRANCH  58  59
ENDBRANCH   1  58
TORSDOF 14
ENDMDL
MODEL 2
REMARK VINA RESULT:     -10.0      1.281      6.305
REMARK SMILES O=C(NCCCCCCNC(=O)[C@H]1CC[C@@H](C(F)F)[NH2+]1)c1ccc(-c2c3nc(c(-c4ccccc4)c4ccc([nH]4)c(-c4ccccc4)c4nc(c(-c5ccccc5)c5ccc2[nH]5)C=C4)C=C3)cc1
REMARK SMILES IDX 6 1 5 2 4 3 3 4 1 5 2 6 21 8 22 9 68 10 23 11 67 12 24 13
REMARK SMILES IDX 25 14 26 15 61 16 27 17 66 18 60 19 62 20 28 21 65 22 59 23
REMARK SMILES IDX 58 24 29 26 51 27 36 28 50 29 37 30 40 31 49 32 63 33 38 34
REMARK SMILES IDX 39 35 48 37 64 38 41 39 30 40 31 41 35 42 32 43 34 44 33 45
REMARK SMILES IDX 52 46 53 47 57 48 54 49 56 50 55 51 42 52 43 53 47 54 44 55
REMARK SMILES IDX 46 56 45 57 7 58 8 59 9 60 10 61 11 62 12 64 13 65 14 66
REMARK SMILES IDX 20 67 15 68 16 69 17 72 18 73 19 74
REMARK H PARENT 3 7 62 25 40 36 10 63 20 70 20 71
REMARK Flexibility Score: inf
ROOT
ATOM      1  C   UNL A   1      31.614  30.346  26.035  1.00  0.00     0.002 C 
ENDROOT
BRANCH   1   2
ATOM      2  C   UNL A   1      31.420  31.741  26.630  1.00  0.00     0.021 C 
BRANCH   2   3
ATOM      3  C   UNL A   1      32.691  32.401  27.149  1.00  0.00     0.116 C 
BRANCH   3   4
ATOM      4  N   UNL A   1      32.479  33.780  27.556  1.00  0.00    -0.352 N 
ATOM      5  O   UNL A   1      32.756  35.637  28.807  1.00  0.00    -0.269 OA
ATOM      6  C   UNL A   1      33.173  34.537  28.471  1.00  0.00     0.251 C 
ATOM      7  H   UNL A   1      31.731  34.239  27.111  1.00  0.00     0.163 HD
BRANCH   6   8
ATOM      8  C   UNL A   1      34.416  34.003  29.073  1.00  0.00     0.039 A 
ATOM      9  C   UNL A   1      35.663  34.295  28.518  1.00  0.00     0.014 A 
ATOM     10  C   UNL A   1      34.325  33.196  30.211  1.00  0.00     0.014 A 
ATOM     11  C   UNL A   1      36.800  33.659  29.006  1.00  0.00     0.010 A 
ATOM     12  C   UNL A   1      35.480  32.626  30.752  1.00  0.00     0.010 A 
ATOM     13  C   UNL A   1      36.722  32.819  30.129  1.00  0.00    -0.014 A 
BRANCH  13  14
ATOM     14  C   UNL A   1      37.961  32.180  30.646  1.00  0.00     0.031 A 
ATOM     15  C   UNL A   1      38.499  30.917  30.028  1.00  0.00     0.074 A 
ATOM     16  C   UNL A   1      38.626  32.771  31.656  1.00  0.00     0.049 A 
ATOM     17  N   UNL A   1      39.597  30.264  30.318  1.00  0.00    -0.248 NA
ATOM     18  C   UNL A   1      37.702  30.303  28.955  1.00  0.00     0.031 C 
ATOM     19  C   UNL A   1      38.204  33.995  32.342  1.00  0.00     0.029 A 
ATOM     20  N   UNL A   1      39.810  32.441  32.263  1.00  0.00    -0.354 N 
ATOM     21  C   UNL A   1      39.610  29.152  29.486  1.00  0.00     0.074 A 
ATOM     22  C   UNL A   1      38.400  29.206  28.693  1.00  0.00     0.031 C 
ATOM     23  C   UNL A   1      39.145  34.345  33.233  1.00  0.00     0.029 A 
ATOM     24  C   UNL A   1      40.204  33.343  33.221  1.00  0.00     0.049 A 
ATOM     25  H   UNL A   1      40.328  31.635  32.035  1.00  0.00     0.167 HD
ATOM     26  C   UNL A   1      40.545  28.175  29.387  1.00  0.00     0.031 A 
ATOM     27  C   UNL A   1      41.296  33.364  34.007  1.00  0.00     0.031 A 
ATOM     28  C   UNL A   1      41.754  28.125  30.167  1.00  0.00     0.049 A 
ATOM     29  C   UNL A   1      42.308  32.265  33.884  1.00  0.00     0.074 A 
ATOM     30  C   UNL A   1      42.779  27.197  30.110  1.00  0.00     0.029 A 
ATOM     31  N   UNL A   1      42.098  29.039  31.150  1.00  0.00    -0.354 N 
ATOM     32  N   UNL A   1      42.323  31.244  33.062  1.00  0.00    -0.248 NA
ATOM     33  C   UNL A   1      43.458  32.325  34.797  1.00  0.00     0.031 C 
ATOM     34  C   UNL A   1      43.723  27.524  31.091  1.00  0.00     0.029 A 
ATOM     35  C   UNL A   1      43.310  28.686  31.722  1.00  0.00     0.049 A 
ATOM     36  H   UNL A   1      41.560  29.824  31.406  1.00  0.00     0.167 HD
ATOM     37  C   UNL A   1      43.495  30.553  33.340  1.00  0.00     0.074 A 
ATOM     38  C   UNL A   1      44.171  31.282  34.396  1.00  0.00     0.031 C 
ATOM     39  C   UNL A   1      43.970  29.419  32.771  1.00  0.00     0.031 A 
BRANCH  26  40
ATOM     40  C   UNL A   1      40.282  27.058  28.415  1.00  0.00    -0.014 A 
ATOM     41  C   UNL A   1      39.509  25.942  28.772  1.00  0.00     0.009 A 
ATOM     42  C   UNL A   1      40.786  27.143  27.108  1.00  0.00     0.009 A 
ATOM     43  C   UNL A   1      39.275  24.919  27.850  1.00  0.00     0.001 A 
ATOM     44  C   UNL A   1      40.530  26.131  26.180  1.00  0.00     0.001 A 
ATOM     45  C   UNL A   1      39.783  25.016  26.554  1.00  0.00     0.000 A 
ENDBRANCH  26  40
BRANCH  27  46
ATOM     46  C   UNL A   1      41.490  34.476  34.972  1.00  0.00    -0.014 A 
ATOM     47  C   UNL A   1      41.007  34.371  36.285  1.00  0.00     0.009 A 
ATOM     48  C   UNL A   1      42.170  35.642  34.588  1.00  0.00     0.009 A 
ATOM     49  C   UNL A   1      41.182  35.423  37.187  1.00  0.00     0.001 A 
ATOM     50  C   UNL A   1      42.368  36.679  35.501  1.00  0.00     0.001 A 
ATOM     51  C   UNL A   1      41.868  36.572  36.797  1.00  0.00     0.000 A 
ENDBRANCH  27  46
BRANCH  39  52
ATOM     52  C   UNL A   1      45.303  28.924  33.251  1.00  0.00    -0.014 A 
ATOM     53  C   UNL A   1      45.405  28.011  34.312  1.00  0.00     0.009 A 
ATOM     54  C   UNL A   1      46.475  29.367  32.617  1.00  0.00     0.009 A 
ATOM     55  C   UNL A   1      46.659  27.583  34.754  1.00  0.00     0.001 A 
ATOM     56  C   UNL A   1      47.724  28.916  33.044  1.00  0.00     0.001 A 
ATOM     57  C   UNL A   1      47.816  28.033  34.119  1.00  0.00     0.000 A 
ENDBRANCH  39  52
ENDBRANCH  13  14
ENDBRANCH   6   8
ENDBRANCH   3   4
ENDBRANCH   2   3
ENDBRANCH   1   2
BRANCH   1  58
ATOM     58  C   UNL A   1      32.185  29.293  26.993  1.00  0.00     0.002 C 
BRANCH  58  59
ATOM     59  C   UNL A   1      33.619  28.839  26.700  1.00  0.00     0.021 C 
BRANCH  59  60
ATOM     60  C   UNL A   1      33.730  27.678  25.714  1.00  0.00     0.116 C 
BRANCH  60  61
ATOM     61  N   UNL A   1      33.885  28.162  24.362  1.00  0.00    -0.351 N 
ATOM     62  C   UNL A   1      33.433  27.765  23.150  1.00  0.00     0.278 C 
ATOM     63  H   UNL A   1      34.449  28.967  24.310  1.00  0.00     0.163 HD
ATOM     64  O   UNL A   1      34.017  28.290  22.191  1.00  0.00    -0.268 OA
BRANCH  62  65
ATOM     65  C   UNL A   1      32.283  26.748  22.882  1.00  0.00     0.273 C 
ATOM     66  C   UNL A   1      31.224  26.368  23.894  1.00  0.00     0.082 C 
ATOM     67  N   UNL A   1      31.431  27.314  21.798  1.00  0.00    -0.329 N 
ATOM     68  C   UNL A   1      30.302  27.570  23.904  1.00  0.00     0.078 C 
ATOM     69  C   UNL A   1      30.292  28.022  22.442  1.00  0.00     0.251 C 
ATOM     70  H   UNL A   1      31.081  26.564  21.202  1.00  0.00     0.347 HD
ATOM     71  H   UNL A   1      31.970  27.958  21.218  1.00  0.00     0.347 HD
BRANCH  69  72
ATOM     72  C   UNL A   1      30.290  29.559  22.314  1.00  0.00     0.399 C 
ATOM     73  F   UNL A   1      29.454  29.970  21.330  1.00  0.00    -0.204 F 
ATOM     74  F   UNL A   1      29.875  30.134  23.469  1.00  0.00    -0.204 F 
ENDBRANCH  69  72
ENDBRANCH  62  65
ENDBRANCH  60  61
ENDBRANCH  59  60
ENDBRANCH  58  59
ENDBRANCH   1  58
TORSDOF 14
ENDMDL
MODEL 3
REMARK VINA RESULT:      -9.9      4.553      8.520
REMARK SMILES O=C(NCCCCCCNC(=O)[C@H]1CC[C@@H](C(F)F)[NH2+]1)c1ccc(-c2c3nc(c(-c4ccccc4)c4ccc([nH]4)c(-c4ccccc4)c4nc(c(-c5ccccc5)c5ccc2[nH]5)C=C4)C=C3)cc1
REMARK SMILES IDX 6 1 5 2 4 3 3 4 1 5 2 6 21 8 22 9 68 10 23 11 67 12 24 13
REMARK SMILES IDX 25 14 26 15 61 16 27 17 66 18 60 19 62 20 28 21 65 22 59 23
REMARK SMILES IDX 58 24 29 26 51 27 36 28 50 29 37 30 40 31 49 32 63 33 38 34
REMARK SMILES IDX 39 35 48 37 64 38 41 39 30 40 31 41 35 42 32 43 34 44 33 45
REMARK SMILES IDX 52 46 53 47 57 48 54 49 56 50 55 51 42 52 43 53 47 54 44 55
REMARK SMILES IDX 46 56 45 57 7 58 8 59 9 60 10 61 11 62 12 64 13 65 14 66
REMARK SMILES IDX 20 67 15 68 16 69 17 72 18 73 19 74
REMARK H PARENT 3 7 62 25 40 36 10 63 20 70 20 71
REMARK Flexibility Score: inf
ROOT
ATOM      1  C   UNL A   1      34.021  26.763  25.633  1.00  0.00     0.002 C 
ENDROOT
BRANCH   1   2
ATOM      2  C   UNL A   1      33.689  28.224  25.938  1.00  0.00     0.021 C 
BRANCH   2   3
ATOM      3  C   UNL A   1      33.546  28.555  27.419  1.00  0.00     0.116 C 
BRANCH   3   4
ATOM      4  N   UNL A   1      33.567  29.985  27.676  1.00  0.00    -0.352 N 
ATOM      5  O   UNL A   1      34.367  31.932  28.488  1.00  0.00    -0.269 OA
ATOM      6  C   UNL A   1      34.578  30.765  28.188  1.00  0.00     0.251 C 
ATOM      7  H   UNL A   1      32.738  30.465  27.451  1.00  0.00     0.163 HD
BRANCH   6   8
ATOM      8  C   UNL A   1      35.920  30.179  28.403  1.00  0.00     0.039 A 
ATOM      9  C   UNL A   1      36.248  29.566  29.613  1.00  0.00     0.014 A 
ATOM     10  C   UNL A   1      36.862  30.246  27.372  1.00  0.00     0.014 A 
ATOM     11  C   UNL A   1      37.558  29.161  29.847  1.00  0.00     0.010 A 
ATOM     12  C   UNL A   1      38.155  29.760  27.580  1.00  0.00     0.010 A 
ATOM     13  C   UNL A   1      38.526  29.252  28.834  1.00  0.00    -0.014 A 
BRANCH  13  14
ATOM     14  C   UNL A   1      39.909  28.780  29.106  1.00  0.00     0.031 A 
ATOM     15  C   UNL A   1      40.362  27.411  28.675  1.00  0.00     0.074 A 
ATOM     16  C   UNL A   1      40.775  29.615  29.711  1.00  0.00     0.049 A 
ATOM     17  N   UNL A   1      41.550  26.867  28.779  1.00  0.00    -0.248 NA
ATOM     18  C   UNL A   1      39.355  26.536  28.055  1.00  0.00     0.031 C 
ATOM     19  C   UNL A   1      40.456  30.966  30.181  1.00  0.00     0.029 A 
ATOM     20  N   UNL A   1      42.104  29.465  30.010  1.00  0.00    -0.354 N 
ATOM     21  C   UNL A   1      41.427  25.583  28.266  1.00  0.00     0.074 A 
ATOM     22  C   UNL A   1      40.045  25.419  27.868  1.00  0.00     0.031 C 
ATOM     23  C   UNL A   1      41.572  31.541  30.653  1.00  0.00     0.029 A 
ATOM     24  C   UNL A   1      42.669  30.584  30.571  1.00  0.00     0.049 A 
ATOM     25  H   UNL A   1      42.606  28.635  29.838  1.00  0.00     0.167 HD
ATOM     26  C   UNL A   1      42.379  24.626  28.134  1.00  0.00     0.031 A 
ATOM     27  C   UNL A   1      43.929  30.817  30.980  1.00  0.00     0.031 A 
ATOM     28  C   UNL A   1      43.756  24.791  28.520  1.00  0.00     0.049 A 
ATOM     29  C   UNL A   1      44.959  29.737  30.832  1.00  0.00     0.074 A 
ATOM     30  C   UNL A   1      44.801  23.892  28.388  1.00  0.00     0.029 A 
ATOM     31  N   UNL A   1      44.278  25.926  29.117  1.00  0.00    -0.354 N 
ATOM     32  N   UNL A   1      44.834  28.543  30.305  1.00  0.00    -0.248 NA
ATOM     33  C   UNL A   1      46.307  30.040  31.332  1.00  0.00     0.031 C 
ATOM     34  C   UNL A   1      45.947  24.468  28.949  1.00  0.00     0.029 A 
ATOM     35  C   UNL A   1      45.627  25.746  29.380  1.00  0.00     0.049 A 
ATOM     36  H   UNL A   1      43.767  26.742  29.325  1.00  0.00     0.167 HD
ATOM     37  C   UNL A   1      46.092  27.961  30.387  1.00  0.00     0.074 A 
ATOM     38  C   UNL A   1      46.968  28.941  30.999  1.00  0.00     0.031 C 
ATOM     39  C   UNL A   1      46.486  26.727  29.989  1.00  0.00     0.031 A 
BRANCH  26  40
ATOM     40  C   UNL A   1      41.953  23.297  27.572  1.00  0.00    -0.014 A 
ATOM     41  C   UNL A   1      41.360  22.315  28.380  1.00  0.00     0.009 A 
ATOM     42  C   UNL A   1      42.117  23.040  26.202  1.00  0.00     0.009 A 
ATOM     43  C   UNL A   1      40.970  21.090  27.833  1.00  0.00     0.001 A 
ATOM     44  C   UNL A   1      41.704  21.824  25.653  1.00  0.00     0.001 A 
ATOM     45  C   UNL A   1      41.139  20.847  26.470  1.00  0.00     0.000 A 
ENDBRANCH  26  40
BRANCH  27  46
ATOM     46  C   UNL A   1      44.287  32.138  31.557  1.00  0.00    -0.014 A 
ATOM     47  C   UNL A   1      44.741  33.176  30.728  1.00  0.00     0.009 A 
ATOM     48  C   UNL A   1      44.166  32.371  32.935  1.00  0.00     0.009 A 
ATOM     49  C   UNL A   1      45.086  34.414  31.274  1.00  0.00     0.001 A 
ATOM     50  C   UNL A   1      44.484  33.618  33.472  1.00  0.00     0.001 A 
ATOM     51  C   UNL A   1      44.952  34.636  32.644  1.00  0.00     0.000 A 
ENDBRANCH  27  46
BRANCH  39  52
ATOM     52  C   UNL A   1      47.937  26.387  30.165  1.00  0.00    -0.014 A 
ATOM     53  C   UNL A   1      48.876  26.644  29.154  1.00  0.00     0.009 A 
ATOM     54  C   UNL A   1      48.373  25.815  31.371  1.00  0.00     0.009 A 
ATOM     55  C   UNL A   1      50.217  26.297  29.333  1.00  0.00     0.001 A 
ATOM     56  C   UNL A   1      49.718  25.495  31.557  1.00  0.00     0.001 A 
ATOM     57  C   UNL A   1      50.637  25.726  30.534  1.00  0.00     0.000 A 
ENDBRANCH  39  52
ENDBRANCH  13  14
ENDBRANCH   6   8
ENDBRANCH   3   4
ENDBRANCH   2   3
ENDBRANCH   1   2
BRANCH   1  58
ATOM     58  C   UNL A   1      32.864  25.927  25.072  1.00  0.00     0.002 C 
BRANCH  58  59
ATOM     59  C   UNL A   1      32.017  25.185  26.113  1.00  0.00     0.021 C 
BRANCH  59  60
ATOM     60  C   UNL A   1      31.988  23.667  25.942  1.00  0.00     0.116 C 
BRANCH  60  61
ATOM     61  N   UNL A   1      33.104  23.050  26.620  1.00  0.00    -0.351 N 
ATOM     62  C   UNL A   1      34.068  22.171  26.263  1.00  0.00     0.278 C 
ATOM     63  H   UNL A   1      33.181  23.335  27.560  1.00  0.00     0.163 HD
ATOM     64  O   UNL A   1      34.685  21.674  27.217  1.00  0.00    -0.268 OA
BRANCH  62  65
ATOM     65  C   UNL A   1      34.447  21.759  24.809  1.00  0.00     0.273 C 
ATOM     66  C   UNL A   1      34.361  22.678  23.609  1.00  0.00     0.082 C 
ATOM     67  N   UNL A   1      35.904  21.440  24.801  1.00  0.00    -0.329 N 
ATOM     68  C   UNL A   1      35.561  23.587  23.778  1.00  0.00     0.078 C 
ATOM     69  C   UNL A   1      36.631  22.660  24.359  1.00  0.00     0.251 C 
ATOM     70  H   UNL A   1      36.089  20.672  24.156  1.00  0.00     0.347 HD
ATOM     71  H   UNL A   1      36.213  21.157  25.732  1.00  0.00     0.347 HD
BRANCH  69  72
ATOM     72  C   UNL A   1      37.485  23.366  25.431  1.00  0.00     0.399 C 
ATOM     73  F   UNL A   1      36.709  24.057  26.301  1.00  0.00    -0.204 F 
ATOM     74  F   UNL A   1      38.195  22.462  26.149  1.00  0.00    -0.204 F 
ENDBRANCH  69  72
ENDBRANCH  62  65
ENDBRANCH  60  61
ENDBRANCH  59  60
ENDBRANCH  58  59
ENDBRANCH   1  58
TORSDOF 14
ENDMDL
