MODEL 1
REMARK VINA RESULT:     -11.7      0.000      0.000
REMARK SMILES CC1=C2C(=O)CC(C)(C)CC2=N[C@@H]1C(=O)NCCCCCCNC(=O)c1ccc(-c2c3nc(c(-c4ccccc4)c4ccc([nH]4)c(-c4ccccc4)c4nc(c(-c5ccccc5)c5ccc2[nH]5)C=C4)C=C3)cc1
REMARK SMILES IDX 20 1 19 2 18 3 17 4 16 5 14 6 15 7 13 9 1 10 2 11 3 12 4 13
REMARK SMILES IDX 11 14 12 15 5 16 6 17 10 18 7 19 8 20 9 21 21 22 22 23 23 24
REMARK SMILES IDX 24 25 25 27 26 28 27 29 73 30 28 31 72 32 29 33 30 34 31 35
REMARK SMILES IDX 66 36 32 37 71 38 65 39 67 40 33 41 70 42 64 43 63 44 34 46
REMARK SMILES IDX 56 47 41 48 55 49 42 50 45 51 54 52 68 53 43 54 44 55 53 57
REMARK SMILES IDX 69 58 46 59 35 60 36 61 40 62 37 63 39 64 38 65 57 66 58 67
REMARK SMILES IDX 62 68 59 69 61 70 60 71 47 72 48 73 52 74 49 75 51 76 50 77
REMARK H PARENT 16 8 23 26 67 45 45 56
REMARK Flexibility Score: inf
ROOT
ATOM      1  C   UNL A   1      34.421  35.081  28.058  1.00  0.00     0.002 C 
ENDROOT
BRANCH   1   2
ATOM      2  C   UNL A   1      34.881  33.615  28.013  1.00  0.00     0.002 C 
BRANCH   2   3
ATOM      3  C   UNL A   1      33.757  32.576  28.141  1.00  0.00     0.021 C 
BRANCH   3   4
ATOM      4  C   UNL A   1      34.145  31.201  27.604  1.00  0.00     0.116 C 
BRANCH   4   5
ATOM      5  N   UNL A   1      33.005  30.339  27.565  1.00  0.00    -0.354 N 
ATOM      6  C   UNL A   1      32.680  29.283  26.797  1.00  0.00     0.249 C 
ATOM      7  O   UNL A   1      31.596  28.770  27.124  1.00  0.00    -0.272 OA
ATOM      8  H   UNL A   1      32.318  30.564  28.234  1.00  0.00     0.163 HD
BRANCH   6   9
ATOM      9  C   UNL A   1      33.526  28.664  25.600  1.00  0.00     0.221 C 
ATOM     10  C   UNL A   1      32.395  28.950  23.138  1.00  0.00     0.043 C 
ATOM     11  C   UNL A   1      33.123  28.205  24.197  1.00  0.00    -0.027 C 
ATOM     12  C   UNL A   1      33.502  26.939  23.992  1.00  0.00     0.040 C 
ATOM     13  C   UNL A   1      33.368  25.991  22.879  1.00  0.00     0.165 C 
ATOM     14  C   UNL A   1      33.568  26.490  25.357  1.00  0.00     0.048 C 
ATOM     15  N   UNL A   1      33.929  27.351  26.246  1.00  0.00    -0.271 NA
ATOM     16  O   UNL A   1      33.877  26.216  21.785  1.00  0.00    -0.294 OA
ATOM     17  C   UNL A   1      32.622  24.706  23.187  1.00  0.00     0.088 C 
ATOM     18  C   UNL A   1      32.997  25.148  25.680  1.00  0.00     0.063 C 
ATOM     19  C   UNL A   1      31.957  24.725  24.590  1.00  0.00    -0.023 C 
ATOM     20  C   UNL A   1      30.707  25.646  24.532  1.00  0.00     0.012 C 
ATOM     21  C   UNL A   1      31.452  23.323  24.956  1.00  0.00     0.012 C 
ENDBRANCH   6   9
ENDBRANCH   4   5
ENDBRANCH   3   4
ENDBRANCH   2   3
ENDBRANCH   1   2
BRANCH   1  22
ATOM     22  C   UNL A   1      33.160  35.359  28.892  1.00  0.00     0.021 C 
BRANCH  22  23
ATOM     23  C   UNL A   1      33.277  36.603  29.761  1.00  0.00     0.116 C 
BRANCH  23  24
ATOM     24  N   UNL A   1      32.537  36.453  31.007  1.00  0.00    -0.352 N 
ATOM     25  C   UNL A   1      32.678  35.508  31.997  1.00  0.00     0.251 C 
ATOM     26  H   UNL A   1      31.835  37.125  31.164  1.00  0.00     0.163 HD
ATOM     27  O   UNL A   1      31.763  35.297  32.781  1.00  0.00    -0.269 OA
BRANCH  25  28
ATOM     28  C   UNL A   1      33.935  34.745  32.105  1.00  0.00     0.039 A 
ATOM     29  C   UNL A   1      33.936  33.374  31.841  1.00  0.00     0.014 A 
ATOM     30  C   UNL A   1      35.108  35.391  32.497  1.00  0.00     0.014 A 
ATOM     31  C   UNL A   1      35.138  32.677  31.902  1.00  0.00     0.010 A 
ATOM     32  C   UNL A   1      36.314  34.728  32.447  1.00  0.00     0.010 A 
ATOM     33  C   UNL A   1      36.332  33.366  32.179  1.00  0.00    -0.014 A 
BRANCH  33  34
ATOM     34  C   UNL A   1      37.613  32.686  32.008  1.00  0.00     0.031 A 
ATOM     35  C   UNL A   1      38.348  32.492  33.284  1.00  0.00     0.074 A 
ATOM     36  C   UNL A   1      38.039  32.108  30.864  1.00  0.00     0.049 A 
ATOM     37  N   UNL A   1      39.407  33.121  33.669  1.00  0.00    -0.248 NA
ATOM     38  C   UNL A   1      37.752  31.631  34.319  1.00  0.00     0.031 C 
ATOM     39  C   UNL A   1      37.309  31.960  29.603  1.00  0.00     0.029 A 
ATOM     40  N   UNL A   1      39.198  31.431  30.621  1.00  0.00    -0.354 N 
ATOM     41  C   UNL A   1      39.753  32.562  34.892  1.00  0.00     0.074 A 
ATOM     42  C   UNL A   1      38.600  31.817  35.332  1.00  0.00     0.031 C 
ATOM     43  C   UNL A   1      37.934  31.050  28.822  1.00  0.00     0.029 A 
ATOM     44  C   UNL A   1      39.188  30.677  29.452  1.00  0.00     0.049 A 
ATOM     45  H   UNL A   1      39.977  31.472  31.223  1.00  0.00     0.167 HD
ATOM     46  C   UNL A   1      41.058  32.495  35.273  1.00  0.00     0.031 A 
ATOM     47  C   UNL A   1      40.132  29.794  29.037  1.00  0.00     0.031 A 
ATOM     48  C   UNL A   1      41.884  33.375  34.477  1.00  0.00     0.049 A 
ATOM     49  C   UNL A   1      41.385  30.123  29.747  1.00  0.00     0.074 A 
ATOM     50  C   UNL A   1      41.886  34.724  34.181  1.00  0.00     0.029 A 
ATOM     51  N   UNL A   1      42.662  32.777  33.514  1.00  0.00    -0.354 N 
ATOM     52  N   UNL A   1      42.079  31.198  29.513  1.00  0.00    -0.248 NA
ATOM     53  C   UNL A   1      41.666  29.459  31.008  1.00  0.00     0.031 C 
ATOM     54  C   UNL A   1      42.277  34.803  32.810  1.00  0.00     0.029 A 
ATOM     55  C   UNL A   1      42.572  33.513  32.365  1.00  0.00     0.049 A 
ATOM     56  H   UNL A   1      43.194  31.957  33.631  1.00  0.00     0.167 HD
ATOM     57  C   UNL A   1      42.505  31.609  30.766  1.00  0.00     0.074 A 
ATOM     58  C   UNL A   1      42.342  30.434  31.621  1.00  0.00     0.031 C 
ATOM     59  C   UNL A   1      42.661  32.938  31.042  1.00  0.00     0.031 A 
BRANCH  46  60
ATOM     60  C   UNL A   1      41.647  31.283  35.968  1.00  0.00    -0.014 A 
ATOM     61  C   UNL A   1      42.717  31.482  36.860  1.00  0.00     0.009 A 
ATOM     62  C   UNL A   1      41.424  29.959  35.543  1.00  0.00     0.009 A 
ATOM     63  C   UNL A   1      43.587  30.440  37.201  1.00  0.00     0.001 A 
ATOM     64  C   UNL A   1      42.263  28.906  35.918  1.00  0.00     0.001 A 
ATOM     65  C   UNL A   1      43.368  29.155  36.717  1.00  0.00     0.000 A 
ENDBRANCH  46  60
BRANCH  47  66
ATOM     66  C   UNL A   1      40.015  28.572  28.213  1.00  0.00    -0.014 A 
ATOM     67  C   UNL A   1      40.782  28.425  27.043  1.00  0.00     0.009 A 
ATOM     68  C   UNL A   1      39.380  27.427  28.725  1.00  0.00     0.009 A 
ATOM     69  C   UNL A   1      40.959  27.169  26.447  1.00  0.00     0.001 A 
ATOM     70  C   UNL A   1      39.552  26.174  28.126  1.00  0.00     0.001 A 
ATOM     71  C   UNL A   1      40.358  26.042  27.000  1.00  0.00     0.000 A 
ENDBRANCH  47  66
BRANCH  59  72
ATOM     72  C   UNL A   1      42.697  33.903  29.882  1.00  0.00    -0.014 A 
ATOM     73  C   UNL A   1      43.809  34.074  29.039  1.00  0.00     0.009 A 
ATOM     74  C   UNL A   1      41.515  34.588  29.567  1.00  0.00     0.009 A 
ATOM     75  C   UNL A   1      43.749  34.941  27.941  1.00  0.00     0.001 A 
ATOM     76  C   UNL A   1      41.446  35.433  28.459  1.00  0.00     0.001 A 
ATOM     77  C   UNL A   1      42.566  35.618  27.652  1.00  0.00     0.000 A 
ENDBRANCH  59  72
ENDBRANCH  33  34
ENDBRANCH  25  28
ENDBRANCH  23  24
ENDBRANCH  22  23
ENDBRANCH   1  22
TORSDOF 13
ENDMDL
MODEL 2
REMARK VINA RESULT:     -11.6      5.262     10.933
REMARK SMILES CC1=C2C(=O)CC(C)(C)CC2=N[C@@H]1C(=O)NCCCCCCNC(=O)c1ccc(-c2c3nc(c(-c4ccccc4)c4ccc([nH]4)c(-c4ccccc4)c4nc(c(-c5ccccc5)c5ccc2[nH]5)C=C4)C=C3)cc1
REMARK SMILES IDX 20 1 19 2 18 3 17 4 16 5 14 6 15 7 13 9 1 10 2 11 3 12 4 13
REMARK SMILES IDX 11 14 12 15 5 16 6 17 10 18 7 19 8 20 9 21 21 22 22 23 23 24
REMARK SMILES IDX 24 25 25 27 26 28 27 29 73 30 28 31 72 32 29 33 30 34 31 35
REMARK SMILES IDX 66 36 32 37 71 38 65 39 67 40 33 41 70 42 64 43 63 44 34 46
REMARK SMILES IDX 56 47 41 48 55 49 42 50 45 51 54 52 68 53 43 54 44 55 53 57
REMARK SMILES IDX 69 58 46 59 35 60 36 61 40 62 37 63 39 64 38 65 57 66 58 67
REMARK SMILES IDX 62 68 59 69 61 70 60 71 47 72 48 73 52 74 49 75 51 76 50 77
REMARK H PARENT 16 8 23 26 67 45 45 56
REMARK Flexibility Score: inf
ROOT
ATOM      1  C   UNL A   1      42.209  20.262  26.974  1.00  0.00     0.002 C 
ENDROOT
BRANCH   1   2
ATOM      2  C   UNL A   1      40.771  20.738  27.236  1.00  0.00     0.002 C 
BRANCH   2   3
ATOM      3  C   UNL A   1      40.115  21.497  26.074  1.00  0.00     0.021 C 
BRANCH   3   4
ATOM      4  C   UNL A   1      38.590  21.465  26.119  1.00  0.00     0.116 C 
BRANCH   4   5
ATOM      5  N   UNL A   1      38.041  22.120  24.972  1.00  0.00    -0.354 N 
ATOM      6  C   UNL A   1      36.977  22.925  24.799  1.00  0.00     0.249 C 
ATOM      7  O   UNL A   1      36.871  23.331  23.628  1.00  0.00    -0.272 OA
ATOM      8  H   UNL A   1      38.542  21.947  24.143  1.00  0.00     0.163 HD
BRANCH   6   9
ATOM      9  C   UNL A   1      35.926  23.387  25.901  1.00  0.00     0.221 C 
ATOM     10  C   UNL A   1      34.260  21.420  26.783  1.00  0.00     0.043 C 
ATOM     11  C   UNL A   1      34.582  22.800  26.338  1.00  0.00    -0.027 C 
ATOM     12  C   UNL A   1      33.620  23.726  26.257  1.00  0.00     0.040 C 
ATOM     13  C   UNL A   1      32.174  23.734  26.515  1.00  0.00     0.165 C 
ATOM     14  C   UNL A   1      34.213  24.596  25.277  1.00  0.00     0.048 C 
ATOM     15  N   UNL A   1      35.497  24.706  25.283  1.00  0.00    -0.271 NA
ATOM     16  O   UNL A   1      31.725  23.508  27.634  1.00  0.00    -0.294 OA
ATOM     17  C   UNL A   1      31.292  24.097  25.336  1.00  0.00     0.088 C 
ATOM     18  C   UNL A   1      33.337  25.121  24.186  1.00  0.00     0.063 C 
ATOM     19  C   UNL A   1      32.085  24.198  24.005  1.00  0.00    -0.023 C 
ATOM     20  C   UNL A   1      32.437  22.761  23.528  1.00  0.00     0.012 C 
ATOM     21  C   UNL A   1      31.210  24.822  22.911  1.00  0.00     0.012 C 
ENDBRANCH   6   9
ENDBRANCH   4   5
ENDBRANCH   3   4
ENDBRANCH   2   3
ENDBRANCH   1   2
BRANCH   1  22
ATOM     22  C   UNL A   1      42.355  19.103  25.976  1.00  0.00     0.021 C 
BRANCH  22  23
ATOM     23  C   UNL A   1      43.745  18.481  25.977  1.00  0.00     0.116 C 
BRANCH  23  24
ATOM     24  N   UNL A   1      44.375  18.585  24.667  1.00  0.00    -0.352 N 
ATOM     25  C   UNL A   1      44.625  19.703  23.906  1.00  0.00     0.251 C 
ATOM     26  H   UNL A   1      44.665  17.731  24.270  1.00  0.00     0.163 HD
ATOM     27  O   UNL A   1      44.816  19.597  22.702  1.00  0.00    -0.269 OA
BRANCH  25  28
ATOM     28  C   UNL A   1      44.655  21.031  24.545  1.00  0.00     0.039 A 
ATOM     29  C   UNL A   1      43.797  22.036  24.092  1.00  0.00     0.014 A 
ATOM     30  C   UNL A   1      45.558  21.284  25.578  1.00  0.00     0.014 A 
ATOM     31  C   UNL A   1      43.804  23.268  24.737  1.00  0.00     0.010 A 
ATOM     32  C   UNL A   1      45.486  22.462  26.288  1.00  0.00     0.010 A 
ATOM     33  C   UNL A   1      44.633  23.468  25.854  1.00  0.00    -0.014 A 
BRANCH  33  34
ATOM     34  C   UNL A   1      44.467  24.669  26.669  1.00  0.00     0.031 A 
ATOM     35  C   UNL A   1      45.518  25.690  26.428  1.00  0.00     0.074 A 
ATOM     36  C   UNL A   1      43.388  24.946  27.432  1.00  0.00     0.049 A 
ATOM     37  N   UNL A   1      46.486  26.004  27.221  1.00  0.00    -0.248 NA
ATOM     38  C   UNL A   1      45.607  26.311  25.097  1.00  0.00     0.031 C 
ATOM     39  C   UNL A   1      42.145  24.180  27.549  1.00  0.00     0.029 A 
ATOM     40  N   UNL A   1      43.135  26.046  28.198  1.00  0.00    -0.354 N 
ATOM     41  C   UNL A   1      47.167  27.038  26.592  1.00  0.00     0.074 A 
ATOM     42  C   UNL A   1      46.721  27.036  25.221  1.00  0.00     0.031 C 
ATOM     43  C   UNL A   1      41.197  24.942  28.139  1.00  0.00     0.029 A 
ATOM     44  C   UNL A   1      41.806  26.181  28.588  1.00  0.00     0.049 A 
ATOM     45  H   UNL A   1      43.834  26.692  28.453  1.00  0.00     0.167 HD
ATOM     46  C   UNL A   1      47.788  28.000  27.328  1.00  0.00     0.031 A 
ATOM     47  C   UNL A   1      41.240  27.241  29.219  1.00  0.00     0.031 A 
ATOM     48  C   UNL A   1      47.955  27.586  28.703  1.00  0.00     0.049 A 
ATOM     49  C   UNL A   1      42.328  28.001  29.868  1.00  0.00     0.074 A 
ATOM     50  C   UNL A   1      48.540  26.511  29.343  1.00  0.00     0.029 A 
ATOM     51  N   UNL A   1      47.101  28.152  29.618  1.00  0.00    -0.354 N 
ATOM     52  N   UNL A   1      42.993  27.561  30.894  1.00  0.00    -0.248 NA
ATOM     53  C   UNL A   1      42.956  29.083  29.131  1.00  0.00     0.031 C 
ATOM     54  C   UNL A   1      47.672  26.216  30.439  1.00  0.00     0.029 A 
ATOM     55  C   UNL A   1      46.654  27.170  30.459  1.00  0.00     0.049 A 
ATOM     56  H   UNL A   1      46.852  29.103  29.662  1.00  0.00     0.167 HD
ATOM     57  C   UNL A   1      44.299  27.952  30.647  1.00  0.00     0.074 A 
ATOM     58  C   UNL A   1      44.192  28.997  29.631  1.00  0.00     0.031 C 
ATOM     59  C   UNL A   1      45.345  27.182  31.073  1.00  0.00     0.031 A 
BRANCH  46  60
ATOM     60  C   UNL A   1      47.754  29.469  26.949  1.00  0.00    -0.014 A 
ATOM     61  C   UNL A   1      48.904  30.244  27.188  1.00  0.00     0.009 A 
ATOM     62  C   UNL A   1      46.565  30.176  26.687  1.00  0.00     0.009 A 
ATOM     63  C   UNL A   1      48.836  31.638  27.287  1.00  0.00     0.001 A 
ATOM     64  C   UNL A   1      46.503  31.571  26.739  1.00  0.00     0.001 A 
ATOM     65  C   UNL A   1      47.632  32.300  27.077  1.00  0.00     0.000 A 
ENDBRANCH  46  60
BRANCH  47  66
ATOM     66  C   UNL A   1      39.859  27.768  29.169  1.00  0.00    -0.014 A 
ATOM     67  C   UNL A   1      39.059  27.779  30.326  1.00  0.00     0.009 A 
ATOM     68  C   UNL A   1      39.428  28.532  28.071  1.00  0.00     0.009 A 
ATOM     69  C   UNL A   1      37.907  28.574  30.402  1.00  0.00     0.001 A 
ATOM     70  C   UNL A   1      38.274  29.321  28.144  1.00  0.00     0.001 A 
ATOM     71  C   UNL A   1      37.526  29.358  29.317  1.00  0.00     0.000 A 
ENDBRANCH  47  66
BRANCH  59  72
ATOM     72  C   UNL A   1      45.063  26.107  32.094  1.00  0.00    -0.014 A 
ATOM     73  C   UNL A   1      45.043  26.330  33.482  1.00  0.00     0.009 A 
ATOM     74  C   UNL A   1      44.697  24.839  31.620  1.00  0.00     0.009 A 
ATOM     75  C   UNL A   1      44.710  25.298  34.368  1.00  0.00     0.001 A 
ATOM     76  C   UNL A   1      44.340  23.817  32.502  1.00  0.00     0.001 A 
ATOM     77  C   UNL A   1      44.357  24.044  33.875  1.00  0.00     0.000 A 
ENDBRANCH  59  72
ENDBRANCH  33  34
ENDBRANCH  25  28
ENDBRANCH  23  24
ENDBRANCH  22  23
ENDBRANCH   1  22
TORSDOF 13
ENDMDL
MODEL 3
REMARK VINA RESULT:     -11.3      4.099      6.349
REMARK SMILES CC1=C2C(=O)CC(C)(C)CC2=N[C@@H]1C(=O)NCCCCCCNC(=O)c1ccc(-c2c3nc(c(-c4ccccc4)c4ccc([nH]4)c(-c4ccccc4)c4nc(c(-c5ccccc5)c5ccc2[nH]5)C=C4)C=C3)cc1
REMARK SMILES IDX 20 1 19 2 18 3 17 4 16 5 14 6 15 7 13 9 1 10 2 11 3 12 4 13
REMARK SMILES IDX 11 14 12 15 5 16 6 17 10 18 7 19 8 20 9 21 21 22 22 23 23 24
REMARK SMILES IDX 24 25 25 27 26 28 27 29 73 30 28 31 72 32 29 33 30 34 31 35
REMARK SMILES IDX 66 36 32 37 71 38 65 39 67 40 33 41 70 42 64 43 63 44 34 46
REMARK SMILES IDX 56 47 41 48 55 49 42 50 45 51 54 52 68 53 43 54 44 55 53 57
REMARK SMILES IDX 69 58 46 59 35 60 36 61 40 62 37 63 39 64 38 65 57 66 58 67
REMARK SMILES IDX 62 68 59 69 61 70 60 71 47 72 48 73 52 74 49 75 51 76 50 77
REMARK H PARENT 16 8 23 26 67 45 45 56
REMARK Flexibility Score: inf
ROOT
ATOM      1  C   UNL A   1      33.963  28.351  24.232  1.00  0.00     0.002 C 
ENDROOT
BRANCH   1   2
ATOM      2  C   UNL A   1      33.152  28.795  23.004  1.00  0.00     0.002 C 
BRANCH   2   3
ATOM      3  C   UNL A   1      31.654  29.016  23.259  1.00  0.00     0.021 C 
BRANCH   3   4
ATOM      4  C   UNL A   1      30.761  28.063  22.467  1.00  0.00     0.116 C 
BRANCH   4   5
ATOM      5  N   UNL A   1      31.552  27.087  21.786  1.00  0.00    -0.354 N 
ATOM      6  C   UNL A   1      31.765  25.774  21.991  1.00  0.00     0.249 C 
ATOM      7  O   UNL A   1      32.498  25.267  21.124  1.00  0.00    -0.272 OA
ATOM      8  H   UNL A   1      32.041  27.447  21.011  1.00  0.00     0.163 HD
BRANCH   6   9
ATOM      9  C   UNL A   1      31.174  24.872  23.162  1.00  0.00     0.221 C 
ATOM     10  C   UNL A   1      30.815  26.170  25.530  1.00  0.00     0.043 C 
ATOM     11  C   UNL A   1      31.221  25.018  24.684  1.00  0.00    -0.027 C 
ATOM     12  C   UNL A   1      31.730  23.915  25.244  1.00  0.00     0.040 C 
ATOM     13  C   UNL A   1      32.030  23.504  26.621  1.00  0.00     0.165 C 
ATOM     14  C   UNL A   1      32.488  23.414  24.129  1.00  0.00     0.048 C 
ATOM     15  N   UNL A   1      32.014  23.625  22.948  1.00  0.00    -0.271 NA
ATOM     16  O   UNL A   1      31.143  23.402  27.463  1.00  0.00    -0.294 OA
ATOM     17  C   UNL A   1      33.478  23.159  26.911  1.00  0.00     0.088 C 
ATOM     18  C   UNL A   1      33.866  22.900  24.394  1.00  0.00     0.063 C 
ATOM     19  C   UNL A   1      34.422  23.503  25.727  1.00  0.00    -0.023 C 
ATOM     20  C   UNL A   1      34.613  25.044  25.680  1.00  0.00     0.012 C 
ATOM     21  C   UNL A   1      35.811  22.896  25.961  1.00  0.00     0.012 C 
ENDBRANCH   6   9
ENDBRANCH   4   5
ENDBRANCH   3   4
ENDBRANCH   2   3
ENDBRANCH   1   2
BRANCH   1  22
ATOM     22  C   UNL A   1      33.370  28.734  25.597  1.00  0.00     0.021 C 
BRANCH  22  23
ATOM     23  C   UNL A   1      34.425  28.935  26.675  1.00  0.00     0.116 C 
BRANCH  23  24
ATOM     24  N   UNL A   1      34.628  30.348  26.965  1.00  0.00    -0.352 N 
ATOM     25  C   UNL A   1      35.540  30.944  27.806  1.00  0.00     0.251 C 
ATOM     26  H   UNL A   1      34.027  30.967  26.490  1.00  0.00     0.163 HD
ATOM     27  O   UNL A   1      35.347  32.080  28.216  1.00  0.00    -0.269 OA
BRANCH  25  28
ATOM     28  C   UNL A   1      36.748  30.205  28.217  1.00  0.00     0.039 A 
ATOM     29  C   UNL A   1      36.775  29.558  29.454  1.00  0.00     0.014 A 
ATOM     30  C   UNL A   1      37.864  30.179  27.380  1.00  0.00     0.014 A 
ATOM     31  C   UNL A   1      37.904  28.826  29.807  1.00  0.00     0.010 A 
ATOM     32  C   UNL A   1      38.933  29.363  27.677  1.00  0.00     0.010 A 
ATOM     33  C   UNL A   1      38.972  28.708  28.901  1.00  0.00    -0.014 A 
BRANCH  33  34
ATOM     34  C   UNL A   1      40.043  27.753  29.169  1.00  0.00     0.031 A 
ATOM     35  C   UNL A   1      40.660  27.925  30.510  1.00  0.00     0.074 A 
ATOM     36  C   UNL A   1      40.349  26.691  28.394  1.00  0.00     0.049 A 
ATOM     37  N   UNL A   1      41.829  28.406  30.766  1.00  0.00    -0.248 NA
ATOM     38  C   UNL A   1      39.828  27.700  31.703  1.00  0.00     0.031 C 
ATOM     39  C   UNL A   1      39.650  26.218  27.196  1.00  0.00     0.029 A 
ATOM     40  N   UNL A   1      41.306  25.736  28.578  1.00  0.00    -0.354 N 
ATOM     41  C   UNL A   1      41.978  28.317  32.144  1.00  0.00     0.074 A 
ATOM     42  C   UNL A   1      40.659  28.081  32.676  1.00  0.00     0.031 C 
ATOM     43  C   UNL A   1      40.051  24.961  26.904  1.00  0.00     0.029 A 
ATOM     44  C   UNL A   1      41.146  24.602  27.788  1.00  0.00     0.049 A 
ATOM     45  H   UNL A   1      42.047  25.840  29.218  1.00  0.00     0.167 HD
ATOM     46  C   UNL A   1      43.209  28.121  32.691  1.00  0.00     0.031 A 
ATOM     47  C   UNL A   1      41.848  23.444  27.864  1.00  0.00     0.031 A 
ATOM     48  C   UNL A   1      44.259  28.408  31.740  1.00  0.00     0.049 A 
ATOM     49  C   UNL A   1      43.118  23.743  28.558  1.00  0.00     0.074 A 
ATOM     50  C   UNL A   1      44.614  29.493  30.962  1.00  0.00     0.029 A 
ATOM     51  N   UNL A   1      44.893  27.323  31.184  1.00  0.00    -0.354 N 
ATOM     52  N   UNL A   1      44.070  24.455  28.031  1.00  0.00    -0.248 NA
ATOM     53  C   UNL A   1      43.176  23.590  30.001  1.00  0.00     0.031 C 
ATOM     54  C   UNL A   1      45.061  28.933  29.727  1.00  0.00     0.029 A 
ATOM     55  C   UNL A   1      45.034  27.542  29.843  1.00  0.00     0.049 A 
ATOM     56  H   UNL A   1      45.195  26.522  31.670  1.00  0.00     0.167 HD
ATOM     57  C   UNL A   1      44.541  25.225  29.082  1.00  0.00     0.074 A 
ATOM     58  C   UNL A   1      44.056  24.554  30.286  1.00  0.00     0.031 C 
ATOM     59  C   UNL A   1      45.021  26.485  28.857  1.00  0.00     0.031 A 
BRANCH  46  60
ATOM     60  C   UNL A   1      43.445  27.188  33.863  1.00  0.00    -0.014 A 
ATOM     61  C   UNL A   1      44.029  27.718  35.028  1.00  0.00     0.009 A 
ATOM     62  C   UNL A   1      43.429  25.784  33.753  1.00  0.00     0.009 A 
ATOM     63  C   UNL A   1      44.671  26.896  35.962  1.00  0.00     0.001 A 
ATOM     64  C   UNL A   1      44.029  24.957  34.706  1.00  0.00     0.001 A 
ATOM     65  C   UNL A   1      44.684  25.516  35.791  1.00  0.00     0.000 A 
ENDBRANCH  46  60
BRANCH  47  66
ATOM     66  C   UNL A   1      41.454  22.054  27.553  1.00  0.00    -0.014 A 
ATOM     67  C   UNL A   1      40.190  21.779  26.999  1.00  0.00     0.009 A 
ATOM     68  C   UNL A   1      42.417  21.031  27.517  1.00  0.00     0.009 A 
ATOM     69  C   UNL A   1      39.924  20.552  26.377  1.00  0.00     0.001 A 
ATOM     70  C   UNL A   1      42.149  19.802  26.902  1.00  0.00     0.001 A 
ATOM     71  C   UNL A   1      40.910  19.572  26.313  1.00  0.00     0.000 A 
ENDBRANCH  47  66
BRANCH  59  72
ATOM     72  C   UNL A   1      45.342  26.876  27.435  1.00  0.00    -0.014 A 
ATOM     73  C   UNL A   1      44.399  27.404  26.535  1.00  0.00     0.009 A 
ATOM     74  C   UNL A   1      46.681  26.806  27.026  1.00  0.00     0.009 A 
ATOM     75  C   UNL A   1      44.783  27.806  25.250  1.00  0.00     0.001 A 
ATOM     76  C   UNL A   1      47.069  27.229  25.754  1.00  0.00     0.001 A 
ATOM     77  C   UNL A   1      46.118  27.719  24.863  1.00  0.00     0.000 A 
ENDBRANCH  59  72
ENDBRANCH  33  34
ENDBRANCH  25  28
ENDBRANCH  23  24
ENDBRANCH  22  23
ENDBRANCH   1  22
TORSDOF 13
ENDMDL
