MODEL 1
REMARK VINA RESULT:     -13.8      0.000      0.000
REMARK SMILES Cc1ccccc1C(=O)Nc1cc(C(=O)NCCCCCCNC(=O)c2ccc(-c3c4nc(c(-c5ccccc5)c5ccc([nH]5)c(-c5ccccc5)c5nc(c(-c6ccccc6)c6ccc3[nH]6)C=C5)C=C4)cc2)ccc1N1CC[NH+](CC(=O)Nc2ccc(F)cc2)CC1
REMARK SMILES IDX 18 1 17 2 16 3 14 4 15 5 13 7 11 8 12 9 76 10 75 11 74 12
REMARK SMILES IDX 10 13 8 14 9 15 7 17 1 18 2 19 3 20 4 21 6 22 5 23 77 24
REMARK SMILES IDX 78 25 93 26 79 27 92 28 80 29 81 31 82 32 83 33 84 34 85 36
REMARK SMILES IDX 86 37 91 38 87 39 90 40 88 41 89 42 19 43 20 44 21 45 22 46
REMARK SMILES IDX 23 47 24 48 25 50 26 51 27 52 73 53 28 54 72 55 29 56 30 57
REMARK SMILES IDX 31 58 66 59 32 60 71 61 65 62 67 63 33 64 70 65 64 66 63 67
REMARK SMILES IDX 34 69 56 70 41 71 55 72 42 73 45 74 54 75 68 76 43 77 44 78
REMARK SMILES IDX 53 80 69 81 46 82 35 83 36 84 40 85 37 86 39 87 38 88 57 89
REMARK SMILES IDX 58 90 62 91 59 92 61 93 60 94 47 95 48 96 52 97 49 98 51 99
REMARK SMILES IDX 50 100
REMARK H PARENT 16 6 10 16 80 30 84 35 23 49 67 68 45 79
REMARK Flexibility Score: inf
ROOT
ATOM      1  C   UNL A   1      34.397  32.693  28.686  1.00  0.00     0.021 C 
ENDROOT
BRANCH   1   2
ATOM      2  C   UNL A   1      33.739  31.485  28.012  1.00  0.00     0.116 C 
BRANCH   2   3
ATOM      3  N   UNL A   1      32.650  31.891  27.143  1.00  0.00    -0.352 N 
ATOM      4  C   UNL A   1      31.732  31.192  26.396  1.00  0.00     0.251 C 
ATOM      5  O   UNL A   1      30.892  31.850  25.781  1.00  0.00    -0.269 OA
ATOM      6  H   UNL A   1      32.548  32.867  27.075  1.00  0.00     0.163 HD
BRANCH   4   7
ATOM      7  C   UNL A   1      31.660  29.702  26.337  1.00  0.00     0.042 A 
ATOM      8  C   UNL A   1      31.697  27.590  25.159  1.00  0.00     0.065 A 
ATOM      9  C   UNL A   1      31.544  28.977  25.164  1.00  0.00     0.042 A 
ATOM     10  C   UNL A   1      31.766  26.826  26.359  1.00  0.00     0.061 A 
ATOM     11  C   UNL A   1      31.768  27.573  27.546  1.00  0.00     0.029 A 
ATOM     12  C   UNL A   1      31.755  28.982  27.536  1.00  0.00     0.016 A 
BRANCH   8  13
ATOM     13  N   UNL A   1      31.762  26.960  23.910  1.00  0.00    -0.320 N 
ATOM     14  C   UNL A   1      31.053  27.233  22.751  1.00  0.00     0.255 C 
ATOM     15  O   UNL A   1      31.472  26.718  21.707  1.00  0.00    -0.269 OA
ATOM     16  H   UNL A   1      32.403  26.215  23.847  1.00  0.00     0.170 HD
BRANCH  14  17
ATOM     17  C   UNL A   1      29.830  28.094  22.645  1.00  0.00     0.043 A 
ATOM     18  C   UNL A   1      28.103  26.686  23.978  1.00  0.00     0.045 C 
ATOM     19  C   UNL A   1      28.531  27.858  23.144  1.00  0.00    -0.038 A 
ATOM     20  C   UNL A   1      27.517  28.813  22.889  1.00  0.00     0.004 A 
ATOM     21  C   UNL A   1      27.795  30.026  22.262  1.00  0.00     0.000 A 
ATOM     22  C   UNL A   1      30.094  29.351  22.056  1.00  0.00     0.014 A 
ATOM     23  C   UNL A   1      29.096  30.310  21.877  1.00  0.00     0.001 A 
ENDBRANCH  14  17
ENDBRANCH   8  13
BRANCH  10  24
ATOM     24  N   UNL A   1      31.879  25.438  26.375  1.00  0.00    -0.359 N 
ATOM     25  C   UNL A   1      33.186  24.721  26.341  1.00  0.00     0.178 C 
ATOM     26  C   UNL A   1      30.811  24.613  25.813  1.00  0.00     0.178 C 
ATOM     27  C   UNL A   1      33.066  23.192  26.721  1.00  0.00     0.284 C 
ATOM     28  C   UNL A   1      30.682  23.373  26.700  1.00  0.00     0.284 C 
ATOM     29  N   UNL A   1      31.799  22.466  26.467  1.00  0.00    -0.324 N 
ATOM     30  H   UNL A   1      31.788  21.702  27.144  1.00  0.00     0.348 HD
BRANCH  29  31
ATOM     31  C   UNL A   1      31.678  21.669  25.224  1.00  0.00     0.364 C 
BRANCH  31  32
ATOM     32  C   UNL A   1      32.549  20.423  25.076  1.00  0.00     0.279 C 
ATOM     33  O   UNL A   1      32.051  19.305  25.276  1.00  0.00    -0.268 OA
ATOM     34  N   UNL A   1      33.856  20.425  24.667  1.00  0.00    -0.321 N 
ATOM     35  H   UNL A   1      34.119  19.543  24.316  1.00  0.00     0.170 HD
BRANCH  34  36
ATOM     36  C   UNL A   1      34.932  21.338  24.608  1.00  0.00     0.041 A 
ATOM     37  C   UNL A   1      35.974  21.130  25.531  1.00  0.00     0.029 A 
ATOM     38  C   UNL A   1      34.998  22.482  23.819  1.00  0.00     0.029 A 
ATOM     39  C   UNL A   1      37.006  22.064  25.696  1.00  0.00     0.041 A 
ATOM     40  C   UNL A   1      35.993  23.454  24.021  1.00  0.00     0.041 A 
ATOM     41  C   UNL A   1      36.988  23.236  24.959  1.00  0.00     0.123 A 
ATOM     42  F   UNL A   1      37.940  24.158  25.150  1.00  0.00    -0.207 F 
ENDBRANCH  34  36
ENDBRANCH  31  32
ENDBRANCH  29  31
ENDBRANCH  10  24
ENDBRANCH   4   7
ENDBRANCH   2   3
ENDBRANCH   1   2
BRANCH   1  43
ATOM     43  C   UNL A   1      34.187  34.007  27.927  1.00  0.00     0.002 C 
BRANCH  43  44
ATOM     44  C   UNL A   1      34.042  35.266  28.800  1.00  0.00     0.002 C 
BRANCH  44  45
ATOM     45  C   UNL A   1      33.417  35.045  30.179  1.00  0.00     0.021 C 
BRANCH  45  46
ATOM     46  C   UNL A   1      33.359  36.308  31.023  1.00  0.00     0.116 C 
BRANCH  46  47
ATOM     47  N   UNL A   1      33.737  36.095  32.413  1.00  0.00    -0.352 N 
ATOM     48  C   UNL A   1      34.536  35.119  32.991  1.00  0.00     0.251 C 
ATOM     49  H   UNL A   1      33.364  36.750  33.046  1.00  0.00     0.163 HD
ATOM     50  O   UNL A   1      34.672  35.081  34.193  1.00  0.00    -0.269 OA
BRANCH  48  51
ATOM     51  C   UNL A   1      35.343  34.221  32.119  1.00  0.00     0.039 A 
ATOM     52  C   UNL A   1      35.134  32.842  32.254  1.00  0.00     0.014 A 
ATOM     53  C   UNL A   1      36.417  34.696  31.378  1.00  0.00     0.014 A 
ATOM     54  C   UNL A   1      36.145  31.960  31.884  1.00  0.00     0.010 A 
ATOM     55  C   UNL A   1      37.465  33.841  31.115  1.00  0.00     0.010 A 
ATOM     56  C   UNL A   1      37.352  32.486  31.435  1.00  0.00    -0.014 A 
BRANCH  56  57
ATOM     57  C   UNL A   1      38.588  31.723  31.366  1.00  0.00     0.031 A 
ATOM     58  C   UNL A   1      38.622  30.443  30.641  1.00  0.00     0.074 A 
ATOM     59  C   UNL A   1      39.721  32.255  31.871  1.00  0.00     0.049 A 
ATOM     60  N   UNL A   1      39.532  29.545  30.809  1.00  0.00    -0.248 NA
ATOM     61  C   UNL A   1      37.588  30.045  29.691  1.00  0.00     0.031 C 
ATOM     62  C   UNL A   1      41.096  31.826  31.634  1.00  0.00     0.029 A 
ATOM     63  N   UNL A   1      39.823  33.186  32.905  1.00  0.00    -0.354 N 
ATOM     64  C   UNL A   1      39.383  28.617  29.808  1.00  0.00     0.074 A 
ATOM     65  C   UNL A   1      38.114  28.922  29.193  1.00  0.00     0.031 C 
ATOM     66  C   UNL A   1      41.871  32.278  32.634  1.00  0.00     0.029 A 
ATOM     67  C   UNL A   1      40.990  32.875  33.625  1.00  0.00     0.049 A 
ATOM     68  H   UNL A   1      39.197  33.922  33.094  1.00  0.00     0.167 HD
ATOM     69  C   UNL A   1      40.419  27.781  29.525  1.00  0.00     0.031 A 
ATOM     70  C   UNL A   1      40.920  32.487  34.932  1.00  0.00     0.031 A 
ATOM     71  C   UNL A   1      41.524  27.952  30.467  1.00  0.00     0.049 A 
ATOM     72  C   UNL A   1      41.439  31.086  35.182  1.00  0.00     0.074 A 
ATOM     73  C   UNL A   1      42.735  28.623  30.400  1.00  0.00     0.029 A 
ATOM     74  N   UNL A   1      41.314  27.651  31.806  1.00  0.00    -0.354 N 
ATOM     75  N   UNL A   1      41.610  30.191  34.247  1.00  0.00    -0.248 NA
ATOM     76  C   UNL A   1      41.784  30.572  36.504  1.00  0.00     0.031 C 
ATOM     77  C   UNL A   1      43.230  28.766  31.725  1.00  0.00     0.029 A 
ATOM     78  C   UNL A   1      42.335  28.157  32.586  1.00  0.00     0.049 A 
ATOM     79  H   UNL A   1      40.544  27.146  32.152  1.00  0.00     0.167 HD
ATOM     80  C   UNL A   1      42.078  29.025  34.796  1.00  0.00     0.074 A 
ATOM     81  C   UNL A   1      42.177  29.319  36.214  1.00  0.00     0.031 C 
ATOM     82  C   UNL A   1      42.333  27.924  34.026  1.00  0.00     0.031 A 
BRANCH  69  83
ATOM     83  C   UNL A   1      40.534  27.005  28.237  1.00  0.00    -0.014 A 
ATOM     84  C   UNL A   1      40.284  25.621  28.237  1.00  0.00     0.009 A 
ATOM     85  C   UNL A   1      40.932  27.558  27.008  1.00  0.00     0.009 A 
ATOM     86  C   UNL A   1      40.505  24.825  27.105  1.00  0.00     0.001 A 
ATOM     87  C   UNL A   1      41.191  26.765  25.882  1.00  0.00     0.001 A 
ATOM     88  C   UNL A   1      40.986  25.394  25.934  1.00  0.00     0.000 A 
ENDBRANCH  69  83
BRANCH  70  89
ATOM     89  C   UNL A   1      39.806  33.143  35.675  1.00  0.00    -0.014 A 
ATOM     90  C   UNL A   1      38.677  32.359  35.994  1.00  0.00     0.009 A 
ATOM     91  C   UNL A   1      40.017  34.331  36.389  1.00  0.00     0.009 A 
ATOM     92  C   UNL A   1      37.864  32.680  37.084  1.00  0.00     0.001 A 
ATOM     93  C   UNL A   1      39.186  34.657  37.472  1.00  0.00     0.001 A 
ATOM     94  C   UNL A   1      38.139  33.813  37.843  1.00  0.00     0.000 A 
ENDBRANCH  70  89
BRANCH  82  95
ATOM     95  C   UNL A   1      42.649  26.517  34.498  1.00  0.00    -0.014 A 
ATOM     96  C   UNL A   1      41.824  25.731  35.309  1.00  0.00     0.009 A 
ATOM     97  C   UNL A   1      43.813  25.881  33.997  1.00  0.00     0.009 A 
ATOM     98  C   UNL A   1      42.154  24.401  35.621  1.00  0.00     0.001 A 
ATOM     99  C   UNL A   1      44.122  24.546  34.263  1.00  0.00     0.001 A 
ATOM    100  C   UNL A   1      43.293  23.806  35.088  1.00  0.00     0.000 A 
ENDBRANCH  82  95
ENDBRANCH  56  57
ENDBRANCH  48  51
ENDBRANCH  46  47
ENDBRANCH  45  46
ENDBRANCH  44  45
ENDBRANCH  43  44
ENDBRANCH   1  43
TORSDOF 19
ENDMDL
MODEL 2
REMARK VINA RESULT:     -13.2      3.865      7.947
REMARK SMILES Cc1ccccc1C(=O)Nc1cc(C(=O)NCCCCCCNC(=O)c2ccc(-c3c4nc(c(-c5ccccc5)c5ccc([nH]5)c(-c5ccccc5)c5nc(c(-c6ccccc6)c6ccc3[nH]6)C=C5)C=C4)cc2)ccc1N1CC[NH+](CC(=O)Nc2ccc(F)cc2)CC1
REMARK SMILES IDX 18 1 17 2 16 3 14 4 15 5 13 7 11 8 12 9 76 10 75 11 74 12
REMARK SMILES IDX 10 13 8 14 9 15 7 17 1 18 2 19 3 20 4 21 6 22 5 23 77 24
REMARK SMILES IDX 78 25 93 26 79 27 92 28 80 29 81 31 82 32 83 33 84 34 85 36
REMARK SMILES IDX 86 37 91 38 87 39 90 40 88 41 89 42 19 43 20 44 21 45 22 46
REMARK SMILES IDX 23 47 24 48 25 50 26 51 27 52 73 53 28 54 72 55 29 56 30 57
REMARK SMILES IDX 31 58 66 59 32 60 71 61 65 62 67 63 33 64 70 65 64 66 63 67
REMARK SMILES IDX 34 69 56 70 41 71 55 72 42 73 45 74 54 75 68 76 43 77 44 78
REMARK SMILES IDX 53 80 69 81 46 82 35 83 36 84 40 85 37 86 39 87 38 88 57 89
REMARK SMILES IDX 58 90 62 91 59 92 61 93 60 94 47 95 48 96 52 97 49 98 51 99
REMARK SMILES IDX 50 100
REMARK H PARENT 16 6 10 16 80 30 84 35 23 49 67 68 45 79
REMARK Flexibility Score: inf
ROOT
ATOM      1  C   UNL A   1      34.857  32.698  28.228  1.00  0.00     0.021 C 
ENDROOT
BRANCH   1   2
ATOM      2  C   UNL A   1      34.042  31.481  27.779  1.00  0.00     0.116 C 
BRANCH   2   3
ATOM      3  N   UNL A   1      32.825  31.879  27.097  1.00  0.00    -0.352 N 
ATOM      4  C   UNL A   1      31.821  31.175  26.478  1.00  0.00     0.251 C 
ATOM      5  O   UNL A   1      30.882  31.826  26.016  1.00  0.00    -0.269 OA
ATOM      6  H   UNL A   1      32.692  32.854  27.073  1.00  0.00     0.163 HD
BRANCH   4   7
ATOM      7  C   UNL A   1      31.774  29.687  26.387  1.00  0.00     0.042 A 
ATOM      8  C   UNL A   1      31.856  27.600  25.166  1.00  0.00     0.065 A 
ATOM      9  C   UNL A   1      31.680  28.983  25.199  1.00  0.00     0.042 A 
ATOM     10  C   UNL A   1      31.927  26.813  26.351  1.00  0.00     0.061 A 
ATOM     11  C   UNL A   1      31.905  27.535  27.553  1.00  0.00     0.029 A 
ATOM     12  C   UNL A   1      31.870  28.943  27.572  1.00  0.00     0.016 A 
BRANCH   8  13
ATOM     13  N   UNL A   1      31.943  26.997  23.905  1.00  0.00    -0.320 N 
ATOM     14  C   UNL A   1      31.221  27.265  22.752  1.00  0.00     0.255 C 
ATOM     15  O   UNL A   1      31.658  26.787  21.699  1.00  0.00    -0.269 OA
ATOM     16  H   UNL A   1      32.613  26.279  23.827  1.00  0.00     0.170 HD
BRANCH  14  17
ATOM     17  C   UNL A   1      29.966  28.078  22.665  1.00  0.00     0.043 A 
ATOM     18  C   UNL A   1      28.309  26.598  24.010  1.00  0.00     0.045 C 
ATOM     19  C   UNL A   1      28.683  27.790  23.177  1.00  0.00    -0.038 A 
ATOM     20  C   UNL A   1      27.629  28.707  22.939  1.00  0.00     0.004 A 
ATOM     21  C   UNL A   1      27.854  29.933  22.316  1.00  0.00     0.000 A 
ATOM     22  C   UNL A   1      30.174  29.348  22.080  1.00  0.00     0.014 A 
ATOM     23  C   UNL A   1      29.138  30.268  21.918  1.00  0.00     0.001 A 
ENDBRANCH  14  17
ENDBRANCH   8  13
BRANCH  10  24
ATOM     24  N   UNL A   1      32.063  25.427  26.339  1.00  0.00    -0.359 N 
ATOM     25  C   UNL A   1      33.367  24.732  26.143  1.00  0.00     0.178 C 
ATOM     26  C   UNL A   1      30.949  24.588  25.898  1.00  0.00     0.178 C 
ATOM     27  C   UNL A   1      33.318  23.197  26.520  1.00  0.00     0.284 C 
ATOM     28  C   UNL A   1      30.945  23.339  26.782  1.00  0.00     0.284 C 
ATOM     29  N   UNL A   1      32.041  22.453  26.410  1.00  0.00    -0.324 N 
ATOM     30  H   UNL A   1      32.123  21.683  27.075  1.00  0.00     0.348 HD
BRANCH  29  31
ATOM     31  C   UNL A   1      31.786  21.665  25.181  1.00  0.00     0.364 C 
BRANCH  31  32
ATOM     32  C   UNL A   1      32.960  21.391  24.242  1.00  0.00     0.279 C 
ATOM     33  O   UNL A   1      33.283  22.249  23.406  1.00  0.00    -0.268 OA
ATOM     34  N   UNL A   1      33.754  20.276  24.285  1.00  0.00    -0.321 N 
ATOM     35  H   UNL A   1      34.623  20.444  23.854  1.00  0.00     0.170 HD
BRANCH  34  36
ATOM     36  C   UNL A   1      33.674  18.954  24.774  1.00  0.00     0.041 A 
ATOM     37  C   UNL A   1      34.650  18.057  24.301  1.00  0.00     0.029 A 
ATOM     38  C   UNL A   1      32.661  18.431  25.571  1.00  0.00     0.029 A 
ATOM     39  C   UNL A   1      34.576  16.683  24.567  1.00  0.00     0.041 A 
ATOM     40  C   UNL A   1      32.542  17.049  25.790  1.00  0.00     0.041 A 
ATOM     41  C   UNL A   1      33.501  16.186  25.286  1.00  0.00     0.123 A 
ATOM     42  F   UNL A   1      33.393  14.868  25.497  1.00  0.00    -0.207 F 
ENDBRANCH  34  36
ENDBRANCH  31  32
ENDBRANCH  29  31
ENDBRANCH  10  24
ENDBRANCH   4   7
ENDBRANCH   2   3
ENDBRANCH   1   2
BRANCH   1  43
ATOM     43  C   UNL A   1      34.089  33.636  29.166  1.00  0.00     0.002 C 
BRANCH  43  44
ATOM     44  C   UNL A   1      34.413  33.495  30.663  1.00  0.00     0.002 C 
BRANCH  44  45
ATOM     45  C   UNL A   1      35.845  33.065  30.991  1.00  0.00     0.021 C 
BRANCH  45  46
ATOM     46  C   UNL A   1      35.931  31.676  31.604  1.00  0.00     0.116 C 
BRANCH  46  47
ATOM     47  N   UNL A   1      36.065  30.614  30.617  1.00  0.00    -0.352 N 
ATOM     48  C   UNL A   1      37.111  30.308  29.758  1.00  0.00     0.251 C 
ATOM     49  H   UNL A   1      35.287  30.016  30.547  1.00  0.00     0.163 HD
ATOM     50  O   UNL A   1      36.993  29.409  28.956  1.00  0.00    -0.269 OA
BRANCH  48  51
ATOM     51  C   UNL A   1      38.425  30.986  29.932  1.00  0.00     0.039 A 
ATOM     52  C   UNL A   1      39.410  30.296  30.651  1.00  0.00     0.014 A 
ATOM     53  C   UNL A   1      38.603  32.325  29.610  1.00  0.00     0.014 A 
ATOM     54  C   UNL A   1      40.426  31.015  31.276  1.00  0.00     0.010 A 
ATOM     55  C   UNL A   1      39.535  33.054  30.316  1.00  0.00     0.010 A 
ATOM     56  C   UNL A   1      40.398  32.404  31.202  1.00  0.00    -0.014 A 
BRANCH  56  57
ATOM     57  C   UNL A   1      41.158  33.273  32.085  1.00  0.00     0.031 A 
ATOM     58  C   UNL A   1      40.495  33.922  33.227  1.00  0.00     0.074 A 
ATOM     59  C   UNL A   1      42.493  33.385  31.913  1.00  0.00     0.049 A 
ATOM     60  N   UNL A   1      40.966  34.953  33.842  1.00  0.00    -0.248 NA
ATOM     61  C   UNL A   1      39.202  33.486  33.741  1.00  0.00     0.031 C 
ATOM     62  C   UNL A   1      43.474  33.927  32.847  1.00  0.00     0.029 A 
ATOM     63  N   UNL A   1      43.203  33.217  30.725  1.00  0.00    -0.354 N 
ATOM     64  C   UNL A   1      40.223  35.125  34.984  1.00  0.00     0.074 A 
ATOM     65  C   UNL A   1      39.088  34.246  34.834  1.00  0.00     0.031 C 
ATOM     66  C   UNL A   1      44.573  34.286  32.164  1.00  0.00     0.029 A 
ATOM     67  C   UNL A   1      44.270  34.133  30.750  1.00  0.00     0.049 A 
ATOM     68  H   UNL A   1      42.997  32.578  30.005  1.00  0.00     0.167 HD
ATOM     69  C   UNL A   1      40.728  35.891  35.989  1.00  0.00     0.031 A 
ATOM     70  C   UNL A   1      44.349  35.137  29.828  1.00  0.00     0.031 A 
ATOM     71  C   UNL A   1      41.989  36.523  35.605  1.00  0.00     0.049 A 
ATOM     72  C   UNL A   1      44.287  36.525  30.431  1.00  0.00     0.074 A 
ATOM     73  C   UNL A   1      43.318  36.231  35.870  1.00  0.00     0.029 A 
ATOM     74  N   UNL A   1      41.988  37.441  34.564  1.00  0.00    -0.354 N 
ATOM     75  N   UNL A   1      43.855  36.782  31.636  1.00  0.00    -0.248 NA
ATOM     76  C   UNL A   1      44.683  37.736  29.719  1.00  0.00     0.031 C 
ATOM     77  C   UNL A   1      44.118  36.950  34.940  1.00  0.00     0.029 A 
ATOM     78  C   UNL A   1      43.275  37.696  34.135  1.00  0.00     0.049 A 
ATOM     79  H   UNL A   1      41.180  37.855  34.183  1.00  0.00     0.167 HD
ATOM     80  C   UNL A   1      43.913  38.131  31.876  1.00  0.00     0.074 A 
ATOM     81  C   UNL A   1      44.447  38.684  30.645  1.00  0.00     0.031 C 
ATOM     82  C   UNL A   1      43.508  38.663  33.069  1.00  0.00     0.031 A 
BRANCH  69  83
ATOM     83  C   UNL A   1      40.215  35.847  37.406  1.00  0.00    -0.014 A 
ATOM     84  C   UNL A   1      39.600  34.676  37.885  1.00  0.00     0.009 A 
ATOM     85  C   UNL A   1      40.255  36.929  38.301  1.00  0.00     0.009 A 
ATOM     86  C   UNL A   1      38.985  34.619  39.143  1.00  0.00     0.001 A 
ATOM     87  C   UNL A   1      39.611  36.894  39.546  1.00  0.00     0.001 A 
ATOM     88  C   UNL A   1      38.967  35.739  39.963  1.00  0.00     0.000 A 
ENDBRANCH  69  83
BRANCH  70  89
ATOM     89  C   UNL A   1      43.806  34.746  28.495  1.00  0.00    -0.014 A 
ATOM     90  C   UNL A   1      42.745  35.512  27.967  1.00  0.00     0.009 A 
ATOM     91  C   UNL A   1      44.554  33.948  27.618  1.00  0.00     0.009 A 
ATOM     92  C   UNL A   1      42.529  35.585  26.588  1.00  0.00     0.001 A 
ATOM     93  C   UNL A   1      44.321  34.012  26.236  1.00  0.00     0.001 A 
ATOM     94  C   UNL A   1      43.339  34.859  25.720  1.00  0.00     0.000 A 
ENDBRANCH  70  89
BRANCH  82  95
ATOM     95  C   UNL A   1      43.316  40.128  33.411  1.00  0.00    -0.014 A 
ATOM     96  C   UNL A   1      43.898  40.788  34.498  1.00  0.00     0.009 A 
ATOM     97  C   UNL A   1      42.586  40.943  32.509  1.00  0.00     0.009 A 
ATOM     98  C   UNL A   1      43.740  42.172  34.686  1.00  0.00     0.001 A 
ATOM     99  C   UNL A   1      42.467  42.326  32.663  1.00  0.00     0.001 A 
ATOM    100  C   UNL A   1      43.039  42.941  33.763  1.00  0.00     0.000 A 
ENDBRANCH  82  95
ENDBRANCH  56  57
ENDBRANCH  48  51
ENDBRANCH  46  47
ENDBRANCH  45  46
ENDBRANCH  44  45
ENDBRANCH  43  44
ENDBRANCH   1  43
TORSDOF 19
ENDMDL
MODEL 3
REMARK VINA RESULT:     -12.0      5.269     10.959
REMARK SMILES Cc1ccccc1C(=O)Nc1cc(C(=O)NCCCCCCNC(=O)c2ccc(-c3c4nc(c(-c5ccccc5)c5ccc([nH]5)c(-c5ccccc5)c5nc(c(-c6ccccc6)c6ccc3[nH]6)C=C5)C=C4)cc2)ccc1N1CC[NH+](CC(=O)Nc2ccc(F)cc2)CC1
REMARK SMILES IDX 18 1 17 2 16 3 14 4 15 5 13 7 11 8 12 9 76 10 75 11 74 12
REMARK SMILES IDX 10 13 8 14 9 15 7 17 1 18 2 19 3 20 4 21 6 22 5 23 77 24
REMARK SMILES IDX 78 25 93 26 79 27 92 28 80 29 81 31 82 32 83 33 84 34 85 36
REMARK SMILES IDX 86 37 91 38 87 39 90 40 88 41 89 42 19 43 20 44 21 45 22 46
REMARK SMILES IDX 23 47 24 48 25 50 26 51 27 52 73 53 28 54 72 55 29 56 30 57
REMARK SMILES IDX 31 58 66 59 32 60 71 61 65 62 67 63 33 64 70 65 64 66 63 67
REMARK SMILES IDX 34 69 56 70 41 71 55 72 42 73 45 74 54 75 68 76 43 77 44 78
REMARK SMILES IDX 53 80 69 81 46 82 35 83 36 84 40 85 37 86 39 87 38 88 57 89
REMARK SMILES IDX 58 90 62 91 59 92 61 93 60 94 47 95 48 96 52 97 49 98 51 99
REMARK SMILES IDX 50 100
REMARK H PARENT 16 6 10 16 80 30 84 35 23 49 67 68 45 79
REMARK Flexibility Score: inf
ROOT
ATOM      1  C   UNL A   1      44.746  21.624  24.387  1.00  0.00     0.021 C 
ENDROOT
BRANCH   1   2
ATOM      2  C   UNL A   1      43.527  21.773  25.303  1.00  0.00     0.116 C 
BRANCH   2   3
ATOM      3  N   UNL A   1      43.311  20.579  26.099  1.00  0.00    -0.352 N 
ATOM      4  C   UNL A   1      42.184  19.974  26.600  1.00  0.00     0.251 C 
ATOM      5  O   UNL A   1      42.342  18.922  27.221  1.00  0.00    -0.269 OA
ATOM      6  H   UNL A   1      44.144  20.105  26.326  1.00  0.00     0.163 HD
BRANCH   4   7
ATOM      7  C   UNL A   1      40.796  20.480  26.387  1.00  0.00     0.042 A 
ATOM      8  C   UNL A   1      39.085  22.185  26.504  1.00  0.00     0.065 A 
ATOM      9  C   UNL A   1      40.313  21.665  26.913  1.00  0.00     0.042 A 
ATOM     10  C   UNL A   1      38.172  21.442  25.701  1.00  0.00     0.061 A 
ATOM     11  C   UNL A   1      38.634  20.190  25.270  1.00  0.00     0.029 A 
ATOM     12  C   UNL A   1      39.933  19.735  25.572  1.00  0.00     0.016 A 
BRANCH   8  13
ATOM     13  N   UNL A   1      38.764  23.479  26.934  1.00  0.00    -0.320 N 
ATOM     14  C   UNL A   1      39.606  24.542  27.221  1.00  0.00     0.255 C 
ATOM     15  O   UNL A   1      39.079  25.657  27.324  1.00  0.00    -0.269 OA
ATOM     16  H   UNL A   1      37.803  23.658  27.050  1.00  0.00     0.170 HD
BRANCH  14  17
ATOM     17  C   UNL A   1      41.090  24.468  27.414  1.00  0.00     0.043 A 
ATOM     18  C   UNL A   1      41.933  25.884  25.407  1.00  0.00     0.045 C 
ATOM     19  C   UNL A   1      42.118  25.017  26.618  1.00  0.00    -0.038 A 
ATOM     20  C   UNL A   1      43.466  24.785  26.987  1.00  0.00     0.004 A 
ATOM     21  C   UNL A   1      43.798  24.131  28.171  1.00  0.00     0.000 A 
ATOM     22  C   UNL A   1      41.455  23.851  28.632  1.00  0.00     0.014 A 
ATOM     23  C   UNL A   1      42.788  23.695  29.014  1.00  0.00     0.001 A 
ENDBRANCH  14  17
ENDBRANCH   8  13
BRANCH  10  24
ATOM     24  N   UNL A   1      36.925  21.928  25.316  1.00  0.00    -0.359 N 
ATOM     25  C   UNL A   1      35.663  21.146  25.454  1.00  0.00     0.178 C 
ATOM     26  C   UNL A   1      36.824  22.902  24.231  1.00  0.00     0.178 C 
ATOM     27  C   UNL A   1      34.362  22.029  25.283  1.00  0.00     0.284 C 
ATOM     28  C   UNL A   1      35.711  23.883  24.605  1.00  0.00     0.284 C 
ATOM     29  N   UNL A   1      34.407  23.252  24.447  1.00  0.00    -0.324 N 
ATOM     30  H   UNL A   1      33.669  23.854  24.815  1.00  0.00     0.348 HD
BRANCH  29  31
ATOM     31  C   UNL A   1      33.947  23.164  23.041  1.00  0.00     0.364 C 
BRANCH  31  32
ATOM     32  C   UNL A   1      32.525  22.671  22.776  1.00  0.00     0.279 C 
ATOM     33  O   UNL A   1      32.349  21.518  22.354  1.00  0.00    -0.268 OA
ATOM     34  N   UNL A   1      31.387  23.389  23.033  1.00  0.00    -0.321 N 
ATOM     35  H   UNL A   1      30.606  22.795  23.120  1.00  0.00     0.170 HD
BRANCH  34  36
ATOM     36  C   UNL A   1      31.021  24.742  23.207  1.00  0.00     0.041 A 
ATOM     37  C   UNL A   1      31.522  25.648  22.254  1.00  0.00     0.029 A 
ATOM     38  C   UNL A   1      30.325  25.273  24.288  1.00  0.00     0.029 A 
ATOM     39  C   UNL A   1      31.382  27.034  22.413  1.00  0.00     0.041 A 
ATOM     40  C   UNL A   1      30.234  26.661  24.490  1.00  0.00     0.041 A 
ATOM     41  C   UNL A   1      30.765  27.529  23.550  1.00  0.00     0.123 A 
ATOM     42  F   UNL A   1      30.676  28.852  23.737  1.00  0.00    -0.207 F 
ENDBRANCH  34  36
ENDBRANCH  31  32
ENDBRANCH  29  31
ENDBRANCH  10  24
ENDBRANCH   4   7
ENDBRANCH   2   3
ENDBRANCH   1   2
BRANCH   1  43
ATOM     43  C   UNL A   1      46.083  21.774  25.119  1.00  0.00     0.002 C 
BRANCH  43  44
ATOM     44  C   UNL A   1      46.385  23.177  25.676  1.00  0.00     0.002 C 
BRANCH  44  45
ATOM     45  C   UNL A   1      46.662  24.258  24.628  1.00  0.00     0.021 C 
BRANCH  45  46
ATOM     46  C   UNL A   1      47.558  25.375  25.137  1.00  0.00     0.116 C 
BRANCH  46  47
ATOM     47  N   UNL A   1      47.376  26.634  24.428  1.00  0.00    -0.352 N 
ATOM     48  C   UNL A   1      46.889  27.856  24.870  1.00  0.00     0.251 C 
ATOM     49  H   UNL A   1      47.641  26.615  23.481  1.00  0.00     0.163 HD
ATOM     50  O   UNL A   1      46.755  28.772  24.090  1.00  0.00    -0.269 OA
BRANCH  48  51
ATOM     51  C   UNL A   1      46.679  28.078  26.327  1.00  0.00     0.039 A 
ATOM     52  C   UNL A   1      47.565  28.949  26.976  1.00  0.00     0.014 A 
ATOM     53  C   UNL A   1      45.806  27.290  27.067  1.00  0.00     0.014 A 
ATOM     54  C   UNL A   1      47.762  28.823  28.348  1.00  0.00     0.010 A 
ATOM     55  C   UNL A   1      46.077  27.082  28.401  1.00  0.00     0.010 A 
ATOM     56  C   UNL A   1      47.103  27.799  29.021  1.00  0.00    -0.014 A 
BRANCH  56  57
ATOM     57  C   UNL A   1      47.484  27.328  30.343  1.00  0.00     0.031 A 
ATOM     58  C   UNL A   1      48.546  26.321  30.488  1.00  0.00     0.074 A 
ATOM     59  C   UNL A   1      46.935  27.907  31.433  1.00  0.00     0.049 A 
ATOM     60  N   UNL A   1      48.713  25.598  31.541  1.00  0.00    -0.248 NA
ATOM     61  C   UNL A   1      49.487  26.007  29.418  1.00  0.00     0.031 C 
ATOM     62  C   UNL A   1      47.391  27.823  32.817  1.00  0.00     0.029 A 
ATOM     63  N   UNL A   1      45.689  28.528  31.516  1.00  0.00    -0.354 N 
ATOM     64  C   UNL A   1      49.924  24.962  31.416  1.00  0.00     0.074 A 
ATOM     65  C   UNL A   1      50.326  25.179  30.047  1.00  0.00     0.031 C 
ATOM     66  C   UNL A   1      46.366  28.127  33.631  1.00  0.00     0.029 A 
ATOM     67  C   UNL A   1      45.181  28.259  32.800  1.00  0.00     0.049 A 
ATOM     68  H   UNL A   1      45.249  29.055  30.811  1.00  0.00     0.167 HD
ATOM     69  C   UNL A   1      50.514  24.443  32.527  1.00  0.00     0.031 A 
ATOM     70  C   UNL A   1      44.038  27.528  32.958  1.00  0.00     0.031 A 
ATOM     71  C   UNL A   1      49.651  24.558  33.701  1.00  0.00     0.049 A 
ATOM     72  C   UNL A   1      44.243  26.234  33.719  1.00  0.00     0.074 A 
ATOM     73  C   UNL A   1      49.615  25.437  34.772  1.00  0.00     0.029 A 
ATOM     74  N   UNL A   1      48.442  23.874  33.712  1.00  0.00    -0.354 N 
ATOM     75  N   UNL A   1      45.406  25.672  33.910  1.00  0.00    -0.248 NA
ATOM     76  C   UNL A   1      43.154  25.458  34.305  1.00  0.00     0.031 C 
ATOM     77  C   UNL A   1      48.348  25.308  35.402  1.00  0.00     0.029 A 
ATOM     78  C   UNL A   1      47.631  24.333  34.730  1.00  0.00     0.049 A 
ATOM     79  H   UNL A   1      48.198  23.159  33.082  1.00  0.00     0.167 HD
ATOM     80  C   UNL A   1      45.252  24.510  34.622  1.00  0.00     0.074 A 
ATOM     81  C   UNL A   1      43.822  24.425  34.852  1.00  0.00     0.031 C 
ATOM     82  C   UNL A   1      46.323  23.725  34.948  1.00  0.00     0.031 A 
BRANCH  69  83
ATOM     83  C   UNL A   1      51.976  24.078  32.599  1.00  0.00    -0.014 A 
ATOM     84  C   UNL A   1      52.949  25.071  32.384  1.00  0.00     0.009 A 
ATOM     85  C   UNL A   1      52.461  22.779  32.821  1.00  0.00     0.009 A 
ATOM     86  C   UNL A   1      54.315  24.769  32.305  1.00  0.00     0.001 A 
ATOM     87  C   UNL A   1      53.822  22.461  32.708  1.00  0.00     0.001 A 
ATOM     88  C   UNL A   1      54.749  23.457  32.440  1.00  0.00     0.000 A 
ENDBRANCH  69  83
BRANCH  70  89
ATOM     89  C   UNL A   1      43.055  27.739  31.857  1.00  0.00    -0.014 A 
ATOM     90  C   UNL A   1      42.321  28.944  31.853  1.00  0.00     0.009 A 
ATOM     91  C   UNL A   1      43.138  27.003  30.666  1.00  0.00     0.009 A 
ATOM     92  C   UNL A   1      41.805  29.466  30.663  1.00  0.00     0.001 A 
ATOM     93  C   UNL A   1      42.603  27.524  29.479  1.00  0.00     0.001 A 
ATOM     94  C   UNL A   1      41.975  28.770  29.470  1.00  0.00     0.000 A 
ENDBRANCH  70  89
BRANCH  82  95
ATOM     95  C   UNL A   1      46.301  22.328  35.539  1.00  0.00    -0.014 A 
ATOM     96  C   UNL A   1      46.280  22.028  36.905  1.00  0.00     0.009 A 
ATOM     97  C   UNL A   1      46.176  21.223  34.660  1.00  0.00     0.009 A 
ATOM     98  C   UNL A   1      46.164  20.705  37.364  1.00  0.00     0.001 A 
ATOM     99  C   UNL A   1      46.012  19.912  35.109  1.00  0.00     0.001 A 
ATOM    100  C   UNL A   1      46.016  19.651  36.468  1.00  0.00     0.000 A 
ENDBRANCH  82  95
ENDBRANCH  56  57
ENDBRANCH  48  51
ENDBRANCH  46  47
ENDBRANCH  45  46
ENDBRANCH  44  45
ENDBRANCH  43  44
ENDBRANCH   1  43
TORSDOF 19
ENDMDL
