MODEL 1
REMARK VINA RESULT:     -11.7      0.000      0.000
REMARK SMILES Cc1ccc(C(=O)NCCCCCCNC(=O)c2ccc(-c3c4nc(c(-c5ccccc5)c5ccc([nH]5)c(-c5ccccc5)c5nc(c(-c6ccccc6)c6ccc3[nH]6)C=C5)C=C4)cc2)c(Oc2cccc(F)c2C(N)=O)c1
REMARK SMILES IDX 11 1 10 2 9 3 8 4 6 5 7 6 5 8 1 9 2 10 3 11 78 12 4 13 66 14
REMARK SMILES IDX 67 15 68 16 69 17 74 18 70 19 72 20 71 21 73 22 75 23 76 24
REMARK SMILES IDX 77 25 12 28 13 29 14 30 15 31 16 32 17 34 18 35 19 36 65 37
REMARK SMILES IDX 20 38 64 39 21 40 22 41 23 42 58 43 24 44 63 45 57 46 59 47
REMARK SMILES IDX 25 48 62 49 56 50 55 51 26 53 48 54 33 55 47 56 34 57 37 58
REMARK SMILES IDX 46 59 60 60 35 61 36 62 45 64 61 65 38 66 27 67 28 68 32 69
REMARK SMILES IDX 29 70 31 71 30 72 49 73 50 74 54 75 51 76 53 77 52 78 39 79
REMARK SMILES IDX 40 80 44 81 41 82 43 83 42 84
REMARK H PARENT 8 7 76 26 76 27 15 33 59 52 37 63
REMARK Flexibility Score: inf
ROOT
ATOM      1  C   UNL A   1      34.145  29.334  26.826  1.00  0.00     0.002 C 
ENDROOT
BRANCH   1   2
ATOM      2  C   UNL A   1      33.408  28.003  26.993  1.00  0.00     0.021 C 
BRANCH   2   3
ATOM      3  C   UNL A   1      31.886  28.028  27.076  1.00  0.00     0.116 C 
BRANCH   3   4
ATOM      4  N   UNL A   1      31.220  26.756  27.142  1.00  0.00    -0.352 N 
ATOM      5  C   UNL A   1      31.239  25.676  26.287  1.00  0.00     0.255 C 
ATOM      6  O   UNL A   1      30.700  24.649  26.713  1.00  0.00    -0.269 OA
ATOM      7  H   UNL A   1      30.650  26.636  27.936  1.00  0.00     0.163 HD
BRANCH   5   8
ATOM      8  C   UNL A   1      31.777  25.651  24.881  1.00  0.00     0.082 A 
ATOM      9  C   UNL A   1      32.727  25.540  20.638  1.00  0.00     0.044 C 
ATOM     10  C   UNL A   1      32.390  25.574  22.100  1.00  0.00    -0.047 A 
ATOM     11  C   UNL A   1      31.125  25.968  22.531  1.00  0.00     0.004 A 
ATOM     12  C   UNL A   1      33.327  25.173  23.054  1.00  0.00     0.051 A 
ATOM     13  C   UNL A   1      30.824  25.993  23.897  1.00  0.00     0.018 A 
ATOM     14  C   UNL A   1      33.050  25.257  24.434  1.00  0.00     0.140 A 
BRANCH  14  15
ATOM     15  O   UNL A   1      33.989  24.830  25.331  1.00  0.00    -0.456 OA
BRANCH  15  16
ATOM     16  C   UNL A   1      34.690  23.650  25.160  1.00  0.00     0.143 A 
ATOM     17  C   UNL A   1      36.063  23.906  24.968  1.00  0.00     0.048 A 
ATOM     18  C   UNL A   1      34.218  22.328  25.059  1.00  0.00     0.117 A 
ATOM     19  C   UNL A   1      36.966  22.880  24.702  1.00  0.00     0.007 A 
ATOM     20  C   UNL A   1      35.145  21.311  24.777  1.00  0.00     0.139 A 
ATOM     21  C   UNL A   1      36.501  21.577  24.598  1.00  0.00     0.040 A 
ATOM     22  F   UNL A   1      34.744  20.037  24.630  1.00  0.00    -0.206 F 
BRANCH  18  23
ATOM     23  C   UNL A   1      32.844  21.844  25.313  1.00  0.00     0.255 C 
ATOM     24  N   UNL A   1      32.263  22.071  26.526  1.00  0.00    -0.365 N 
ATOM     25  O   UNL A   1      32.224  21.257  24.433  1.00  0.00    -0.269 OA
ATOM     26  H   UNL A   1      32.763  22.542  27.231  1.00  0.00     0.159 HD
ATOM     27  H   UNL A   1      31.343  21.764  26.696  1.00  0.00     0.159 HD
ENDBRANCH  18  23
ENDBRANCH  15  16
ENDBRANCH  14  15
ENDBRANCH   5   8
ENDBRANCH   3   4
ENDBRANCH   2   3
ENDBRANCH   1   2
BRANCH   1  28
ATOM     28  C   UNL A   1      33.455  30.616  27.316  1.00  0.00     0.002 C 
BRANCH  28  29
ATOM     29  C   UNL A   1      34.265  31.582  28.181  1.00  0.00     0.021 C 
BRANCH  29  30
ATOM     30  C   UNL A   1      34.098  33.060  27.866  1.00  0.00     0.116 C 
BRANCH  30  31
ATOM     31  N   UNL A   1      33.394  33.820  28.892  1.00  0.00    -0.352 N 
ATOM     32  C   UNL A   1      33.889  34.327  30.086  1.00  0.00     0.251 C 
ATOM     33  H   UNL A   1      32.442  33.996  28.714  1.00  0.00     0.163 HD
ATOM     34  O   UNL A   1      33.177  34.966  30.835  1.00  0.00    -0.269 OA
BRANCH  32  35
ATOM     35  C   UNL A   1      35.340  34.183  30.368  1.00  0.00     0.039 A 
ATOM     36  C   UNL A   1      36.235  34.516  29.347  1.00  0.00     0.014 A 
ATOM     37  C   UNL A   1      35.786  33.531  31.515  1.00  0.00     0.014 A 
ATOM     38  C   UNL A   1      37.515  33.965  29.364  1.00  0.00     0.010 A 
ATOM     39  C   UNL A   1      37.020  32.908  31.489  1.00  0.00     0.010 A 
ATOM     40  C   UNL A   1      37.851  33.064  30.377  1.00  0.00    -0.014 A 
BRANCH  40  41
ATOM     41  C   UNL A   1      38.970  32.138  30.257  1.00  0.00     0.031 A 
ATOM     42  C   UNL A   1      38.756  30.740  29.825  1.00  0.00     0.074 A 
ATOM     43  C   UNL A   1      40.226  32.539  30.566  1.00  0.00     0.049 A 
ATOM     44  N   UNL A   1      39.468  29.746  30.245  1.00  0.00    -0.248 NA
ATOM     45  C   UNL A   1      37.700  30.348  28.896  1.00  0.00     0.031 C 
ATOM     46  C   UNL A   1      41.467  31.800  30.336  1.00  0.00     0.029 A 
ATOM     47  N   UNL A   1      40.667  33.639  31.287  1.00  0.00    -0.354 N 
ATOM     48  C   UNL A   1      39.184  28.678  29.431  1.00  0.00     0.074 A 
ATOM     49  C   UNL A   1      38.013  29.067  28.676  1.00  0.00     0.031 C 
ATOM     50  C   UNL A   1      42.412  32.278  31.163  1.00  0.00     0.029 A 
ATOM     51  C   UNL A   1      41.763  33.230  32.046  1.00  0.00     0.049 A 
ATOM     52  H   UNL A   1      40.277  34.542  31.266  1.00  0.00     0.167 HD
ATOM     53  C   UNL A   1      40.051  27.634  29.333  1.00  0.00     0.031 A 
ATOM     54  C   UNL A   1      41.801  33.181  33.411  1.00  0.00     0.031 A 
ATOM     55  C   UNL A   1      41.243  27.805  30.157  1.00  0.00     0.049 A 
ATOM     56  C   UNL A   1      42.167  31.811  33.960  1.00  0.00     0.074 A 
ATOM     57  C   UNL A   1      42.538  28.200  29.865  1.00  0.00     0.029 A 
ATOM     58  N   UNL A   1      41.124  27.839  31.540  1.00  0.00    -0.354 N 
ATOM     59  N   UNL A   1      42.110  30.709  33.266  1.00  0.00    -0.248 NA
ATOM     60  C   UNL A   1      42.562  31.566  35.346  1.00  0.00     0.031 C 
ATOM     61  C   UNL A   1      43.195  28.499  31.085  1.00  0.00     0.029 A 
ATOM     62  C   UNL A   1      42.304  28.270  32.115  1.00  0.00     0.049 A 
ATOM     63  H   UNL A   1      40.313  27.592  32.040  1.00  0.00     0.167 HD
ATOM     64  C   UNL A   1      42.440  29.637  34.057  1.00  0.00     0.074 A 
ATOM     65  C   UNL A   1      42.727  30.230  35.351  1.00  0.00     0.031 C 
ATOM     66  C   UNL A   1      42.430  28.362  33.566  1.00  0.00     0.031 A 
BRANCH  53  67
ATOM     67  C   UNL A   1      39.932  26.637  28.214  1.00  0.00    -0.014 A 
ATOM     68  C   UNL A   1      39.194  25.453  28.398  1.00  0.00     0.009 A 
ATOM     69  C   UNL A   1      40.580  26.790  26.977  1.00  0.00     0.009 A 
ATOM     70  C   UNL A   1      39.196  24.429  27.445  1.00  0.00     0.001 A 
ATOM     71  C   UNL A   1      40.618  25.752  26.036  1.00  0.00     0.001 A 
ATOM     72  C   UNL A   1      39.936  24.565  26.279  1.00  0.00     0.000 A 
ENDBRANCH  53  67
BRANCH  54  73
ATOM     73  C   UNL A   1      40.885  34.128  34.099  1.00  0.00    -0.014 A 
ATOM     74  C   UNL A   1      39.674  33.635  34.618  1.00  0.00     0.009 A 
ATOM     75  C   UNL A   1      41.336  35.385  34.524  1.00  0.00     0.009 A 
ATOM     76  C   UNL A   1      38.994  34.326  35.626  1.00  0.00     0.001 A 
ATOM     77  C   UNL A   1      40.645  36.081  35.523  1.00  0.00     0.001 A 
ATOM     78  C   UNL A   1      39.497  35.535  36.097  1.00  0.00     0.000 A 
ENDBRANCH  54  73
BRANCH  66  79
ATOM     79  C   UNL A   1      42.600  27.067  34.335  1.00  0.00    -0.014 A 
ATOM     80  C   UNL A   1      41.599  26.426  35.072  1.00  0.00     0.009 A 
ATOM     81  C   UNL A   1      43.836  26.381  34.241  1.00  0.00     0.009 A 
ATOM     82  C   UNL A   1      41.827  25.190  35.702  1.00  0.00     0.001 A 
ATOM     83  C   UNL A   1      44.057  25.133  34.830  1.00  0.00     0.001 A 
ATOM     84  C   UNL A   1      43.050  24.540  35.573  1.00  0.00     0.000 A 
ENDBRANCH  66  79
ENDBRANCH  40  41
ENDBRANCH  32  35
ENDBRANCH  30  31
ENDBRANCH  29  30
ENDBRANCH  28  29
ENDBRANCH   1  28
TORSDOF 16
ENDMDL
MODEL 2
REMARK VINA RESULT:     -11.5      1.863      3.020
REMARK SMILES Cc1ccc(C(=O)NCCCCCCNC(=O)c2ccc(-c3c4nc(c(-c5ccccc5)c5ccc([nH]5)c(-c5ccccc5)c5nc(c(-c6ccccc6)c6ccc3[nH]6)C=C5)C=C4)cc2)c(Oc2cccc(F)c2C(N)=O)c1
REMARK SMILES IDX 11 1 10 2 9 3 8 4 6 5 7 6 5 8 1 9 2 10 3 11 78 12 4 13 66 14
REMARK SMILES IDX 67 15 68 16 69 17 74 18 70 19 72 20 71 21 73 22 75 23 76 24
REMARK SMILES IDX 77 25 12 28 13 29 14 30 15 31 16 32 17 34 18 35 19 36 65 37
REMARK SMILES IDX 20 38 64 39 21 40 22 41 23 42 58 43 24 44 63 45 57 46 59 47
REMARK SMILES IDX 25 48 62 49 56 50 55 51 26 53 48 54 33 55 47 56 34 57 37 58
REMARK SMILES IDX 46 59 60 60 35 61 36 62 45 64 61 65 38 66 27 67 28 68 32 69
REMARK SMILES IDX 29 70 31 71 30 72 49 73 50 74 54 75 51 76 53 77 52 78 39 79
REMARK SMILES IDX 40 80 44 81 41 82 43 83 42 84
REMARK H PARENT 8 7 76 26 76 27 15 33 59 52 37 63
REMARK Flexibility Score: inf
ROOT
ATOM      1  C   UNL A   1      33.606  30.018  26.955  1.00  0.00     0.002 C 
ENDROOT
BRANCH   1   2
ATOM      2  C   UNL A   1      32.586  28.884  27.085  1.00  0.00     0.021 C 
BRANCH   2   3
ATOM      3  C   UNL A   1      33.057  27.458  26.818  1.00  0.00     0.116 C 
BRANCH   3   4
ATOM      4  N   UNL A   1      32.058  26.426  26.873  1.00  0.00    -0.352 N 
ATOM      5  C   UNL A   1      32.074  25.122  26.428  1.00  0.00     0.255 C 
ATOM      6  O   UNL A   1      31.120  24.425  26.786  1.00  0.00    -0.269 OA
ATOM      7  H   UNL A   1      31.215  26.699  27.303  1.00  0.00     0.163 HD
BRANCH   5   8
ATOM      8  C   UNL A   1      33.085  24.501  25.501  1.00  0.00     0.082 A 
ATOM      9  C   UNL A   1      36.407  22.751  23.307  1.00  0.00     0.044 C 
ATOM     10  C   UNL A   1      35.268  23.359  24.070  1.00  0.00    -0.047 A 
ATOM     11  C   UNL A   1      35.256  23.347  25.463  1.00  0.00     0.004 A 
ATOM     12  C   UNL A   1      34.216  23.985  23.398  1.00  0.00     0.051 A 
ATOM     13  C   UNL A   1      34.188  23.920  26.163  1.00  0.00     0.018 A 
ATOM     14  C   UNL A   1      33.108  24.506  24.095  1.00  0.00     0.140 A 
BRANCH  14  15
ATOM     15  O   UNL A   1      32.113  25.131  23.396  1.00  0.00    -0.456 OA
BRANCH  15  16
ATOM     16  C   UNL A   1      31.979  26.507  23.374  1.00  0.00     0.143 A 
ATOM     17  C   UNL A   1      33.215  27.126  23.094  1.00  0.00     0.048 A 
ATOM     18  C   UNL A   1      30.863  27.310  23.676  1.00  0.00     0.117 A 
ATOM     19  C   UNL A   1      33.352  28.512  23.088  1.00  0.00     0.007 A 
ATOM     20  C   UNL A   1      31.028  28.705  23.679  1.00  0.00     0.139 A 
ATOM     21  C   UNL A   1      32.253  29.304  23.391  1.00  0.00     0.040 A 
ATOM     22  F   UNL A   1      30.008  29.517  24.000  1.00  0.00    -0.206 F 
BRANCH  18  23
ATOM     23  C   UNL A   1      29.473  26.862  23.908  1.00  0.00     0.255 C 
ATOM     24  N   UNL A   1      29.225  25.874  24.814  1.00  0.00    -0.365 N 
ATOM     25  O   UNL A   1      28.547  27.388  23.300  1.00  0.00    -0.269 OA
ATOM     26  H   UNL A   1      29.971  25.453  25.299  1.00  0.00     0.159 HD
ATOM     27  H   UNL A   1      28.300  25.581  24.983  1.00  0.00     0.159 HD
ENDBRANCH  18  23
ENDBRANCH  15  16
ENDBRANCH  14  15
ENDBRANCH   5   8
ENDBRANCH   3   4
ENDBRANCH   2   3
ENDBRANCH   1   2
BRANCH   1  28
ATOM     28  C   UNL A   1      33.291  31.363  27.626  1.00  0.00     0.002 C 
BRANCH  28  29
ATOM     29  C   UNL A   1      34.383  32.016  28.473  1.00  0.00     0.021 C 
BRANCH  29  30
ATOM     30  C   UNL A   1      34.415  33.536  28.467  1.00  0.00     0.116 C 
BRANCH  30  31
ATOM     31  N   UNL A   1      33.504  34.162  29.416  1.00  0.00    -0.352 N 
ATOM     32  C   UNL A   1      33.683  34.375  30.777  1.00  0.00     0.251 C 
ATOM     33  H   UNL A   1      32.648  34.476  29.044  1.00  0.00     0.163 HD
ATOM     34  O   UNL A   1      32.833  34.937  31.438  1.00  0.00    -0.269 OA
BRANCH  32  35
ATOM     35  C   UNL A   1      34.990  34.016  31.382  1.00  0.00     0.039 A 
ATOM     36  C   UNL A   1      36.108  34.765  31.005  1.00  0.00     0.014 A 
ATOM     37  C   UNL A   1      35.143  32.842  32.117  1.00  0.00     0.014 A 
ATOM     38  C   UNL A   1      37.376  34.204  31.137  1.00  0.00     0.010 A 
ATOM     39  C   UNL A   1      36.388  32.243  32.166  1.00  0.00     0.010 A 
ATOM     40  C   UNL A   1      37.490  32.893  31.606  1.00  0.00    -0.014 A 
BRANCH  40  41
ATOM     41  C   UNL A   1      38.687  32.090  31.390  1.00  0.00     0.031 A 
ATOM     42  C   UNL A   1      38.620  30.808  30.655  1.00  0.00     0.074 A 
ATOM     43  C   UNL A   1      39.880  32.494  31.886  1.00  0.00     0.049 A 
ATOM     44  N   UNL A   1      39.379  29.794  30.916  1.00  0.00    -0.248 NA
ATOM     45  C   UNL A   1      37.668  30.560  29.577  1.00  0.00     0.031 C 
ATOM     46  C   UNL A   1      41.191  31.904  31.614  1.00  0.00     0.029 A 
ATOM     47  N   UNL A   1      40.177  33.436  32.859  1.00  0.00    -0.354 N 
ATOM     48  C   UNL A   1      39.242  28.913  29.873  1.00  0.00     0.074 A 
ATOM     49  C   UNL A   1      38.100  29.380  29.118  1.00  0.00     0.031 C 
ATOM     50  C   UNL A   1      42.032  32.251  32.602  1.00  0.00     0.029 A 
ATOM     51  C   UNL A   1      41.247  32.945  33.607  1.00  0.00     0.049 A 
ATOM     52  H   UNL A   1      39.718  34.296  32.996  1.00  0.00     0.167 HD
ATOM     53  C   UNL A   1      40.197  27.974  29.632  1.00  0.00     0.031 A 
ATOM     54  C   UNL A   1      41.192  32.602  34.928  1.00  0.00     0.031 A 
ATOM     55  C   UNL A   1      41.308  28.038  30.574  1.00  0.00     0.049 A 
ATOM     56  C   UNL A   1      41.628  31.172  35.205  1.00  0.00     0.074 A 
ATOM     57  C   UNL A   1      42.585  28.570  30.487  1.00  0.00     0.029 A 
ATOM     58  N   UNL A   1      41.090  27.763  31.918  1.00  0.00    -0.354 N 
ATOM     59  N   UNL A   1      41.712  30.246  34.291  1.00  0.00    -0.248 NA
ATOM     60  C   UNL A   1      41.942  30.657  36.537  1.00  0.00     0.031 C 
ATOM     61  C   UNL A   1      43.127  28.639  31.794  1.00  0.00     0.029 A 
ATOM     62  C   UNL A   1      42.186  28.134  32.671  1.00  0.00     0.049 A 
ATOM     63  H   UNL A   1      40.268  27.361  32.281  1.00  0.00     0.167 HD
ATOM     64  C   UNL A   1      42.071  29.052  34.863  1.00  0.00     0.074 A 
ATOM     65  C   UNL A   1      42.215  29.366  36.273  1.00  0.00     0.031 C 
ATOM     66  C   UNL A   1      42.200  27.916  34.114  1.00  0.00     0.031 A 
BRANCH  53  67
ATOM     67  C   UNL A   1      40.239  27.238  28.321  1.00  0.00    -0.014 A 
ATOM     68  C   UNL A   1      39.613  25.985  28.193  1.00  0.00     0.009 A 
ATOM     69  C   UNL A   1      40.937  27.712  27.197  1.00  0.00     0.009 A 
ATOM     70  C   UNL A   1      39.769  25.197  27.048  1.00  0.00     0.001 A 
ATOM     71  C   UNL A   1      41.130  26.911  26.064  1.00  0.00     0.001 A 
ATOM     72  C   UNL A   1      40.557  25.646  25.996  1.00  0.00     0.000 A 
ENDBRANCH  53  67
BRANCH  54  73
ATOM     73  C   UNL A   1      40.155  33.316  35.718  1.00  0.00    -0.014 A 
ATOM     74  C   UNL A   1      38.890  32.715  35.867  1.00  0.00     0.009 A 
ATOM     75  C   UNL A   1      40.500  34.373  36.570  1.00  0.00     0.009 A 
ATOM     76  C   UNL A   1      38.043  33.082  36.917  1.00  0.00     0.001 A 
ATOM     77  C   UNL A   1      39.642  34.748  37.612  1.00  0.00     0.001 A 
ATOM     78  C   UNL A   1      38.434  34.079  37.806  1.00  0.00     0.000 A 
ENDBRANCH  54  73
BRANCH  66  79
ATOM     79  C   UNL A   1      42.421  26.499  34.603  1.00  0.00    -0.014 A 
ATOM     80  C   UNL A   1      41.546  25.780  35.426  1.00  0.00     0.009 A 
ATOM     81  C   UNL A   1      43.550  25.786  34.129  1.00  0.00     0.009 A 
ATOM     82  C   UNL A   1      41.799  24.444  35.779  1.00  0.00     0.001 A 
ATOM     83  C   UNL A   1      43.786  24.445  34.442  1.00  0.00     0.001 A 
ATOM     84  C   UNL A   1      42.912  23.774  35.279  1.00  0.00     0.000 A 
ENDBRANCH  66  79
ENDBRANCH  40  41
ENDBRANCH  32  35
ENDBRANCH  30  31
ENDBRANCH  29  30
ENDBRANCH  28  29
ENDBRANCH   1  28
TORSDOF 16
ENDMDL
MODEL 3
REMARK VINA RESULT:     -11.5      3.876      8.717
REMARK SMILES Cc1ccc(C(=O)NCCCCCCNC(=O)c2ccc(-c3c4nc(c(-c5ccccc5)c5ccc([nH]5)c(-c5ccccc5)c5nc(c(-c6ccccc6)c6ccc3[nH]6)C=C5)C=C4)cc2)c(Oc2cccc(F)c2C(N)=O)c1
REMARK SMILES IDX 11 1 10 2 9 3 8 4 6 5 7 6 5 8 1 9 2 10 3 11 78 12 4 13 66 14
REMARK SMILES IDX 67 15 68 16 69 17 74 18 70 19 72 20 71 21 73 22 75 23 76 24
REMARK SMILES IDX 77 25 12 28 13 29 14 30 15 31 16 32 17 34 18 35 19 36 65 37
REMARK SMILES IDX 20 38 64 39 21 40 22 41 23 42 58 43 24 44 63 45 57 46 59 47
REMARK SMILES IDX 25 48 62 49 56 50 55 51 26 53 48 54 33 55 47 56 34 57 37 58
REMARK SMILES IDX 46 59 60 60 35 61 36 62 45 64 61 65 38 66 27 67 28 68 32 69
REMARK SMILES IDX 29 70 31 71 30 72 49 73 50 74 54 75 51 76 53 77 52 78 39 79
REMARK SMILES IDX 40 80 44 81 41 82 43 83 42 84
REMARK H PARENT 8 7 76 26 76 27 15 33 59 52 37 63
REMARK Flexibility Score: inf
ROOT
ATOM      1  C   UNL A   1      37.569  23.968  25.974  1.00  0.00     0.002 C 
ENDROOT
BRANCH   1   2
ATOM      2  C   UNL A   1      36.106  24.200  25.589  1.00  0.00     0.021 C 
BRANCH   2   3
ATOM      3  C   UNL A   1      35.472  23.260  24.569  1.00  0.00     0.116 C 
BRANCH   3   4
ATOM      4  N   UNL A   1      34.912  23.865  23.391  1.00  0.00    -0.352 N 
ATOM      5  C   UNL A   1      34.089  24.960  23.237  1.00  0.00     0.255 C 
ATOM      6  O   UNL A   1      33.924  25.342  22.074  1.00  0.00    -0.269 OA
ATOM      7  H   UNL A   1      35.158  23.419  22.549  1.00  0.00     0.163 HD
BRANCH   5   8
ATOM      8  C   UNL A   1      33.327  25.672  24.322  1.00  0.00     0.082 A 
ATOM      9  C   UNL A   1      31.689  27.909  27.674  1.00  0.00     0.044 C 
ATOM     10  C   UNL A   1      32.264  27.136  26.523  1.00  0.00    -0.047 A 
ATOM     11  C   UNL A   1      33.542  27.413  26.046  1.00  0.00     0.004 A 
ATOM     12  C   UNL A   1      31.540  26.098  25.933  1.00  0.00     0.051 A 
ATOM     13  C   UNL A   1      34.067  26.683  24.973  1.00  0.00     0.018 A 
ATOM     14  C   UNL A   1      32.037  25.403  24.812  1.00  0.00     0.140 A 
BRANCH  14  15
ATOM     15  O   UNL A   1      31.304  24.378  24.283  1.00  0.00    -0.456 OA
BRANCH  15  16
ATOM     16  C   UNL A   1      31.748  23.069  24.299  1.00  0.00     0.143 A 
ATOM     17  C   UNL A   1      31.777  22.533  22.995  1.00  0.00     0.048 A 
ATOM     18  C   UNL A   1      32.056  22.234  25.390  1.00  0.00     0.117 A 
ATOM     19  C   UNL A   1      32.123  21.204  22.759  1.00  0.00     0.007 A 
ATOM     20  C   UNL A   1      32.388  20.894  25.130  1.00  0.00     0.139 A 
ATOM     21  C   UNL A   1      32.421  20.380  23.835  1.00  0.00     0.040 A 
ATOM     22  F   UNL A   1      32.651  20.044  26.135  1.00  0.00    -0.206 F 
BRANCH  18  23
ATOM     23  C   UNL A   1      32.170  22.623  26.812  1.00  0.00     0.255 C 
ATOM     24  N   UNL A   1      33.394  22.636  27.412  1.00  0.00    -0.365 N 
ATOM     25  O   UNL A   1      31.170  22.948  27.444  1.00  0.00    -0.269 OA
ATOM     26  H   UNL A   1      34.194  22.373  26.903  1.00  0.00     0.159 HD
ATOM     27  H   UNL A   1      33.478  22.908  28.355  1.00  0.00     0.159 HD
ENDBRANCH  18  23
ENDBRANCH  15  16
ENDBRANCH  14  15
ENDBRANCH   5   8
ENDBRANCH   3   4
ENDBRANCH   2   3
ENDBRANCH   1   2
BRANCH   1  28
ATOM     28  C   UNL A   1      38.125  22.538  25.900  1.00  0.00     0.002 C 
BRANCH  28  29
ATOM     29  C   UNL A   1      39.630  22.343  26.081  1.00  0.00     0.021 C 
BRANCH  29  30
ATOM     30  C   UNL A   1      40.061  21.036  26.727  1.00  0.00     0.116 C 
BRANCH  30  31
ATOM     31  N   UNL A   1      41.068  20.295  25.978  1.00  0.00    -0.352 N 
ATOM     32  C   UNL A   1      42.435  20.527  25.900  1.00  0.00     0.251 C 
ATOM     33  H   UNL A   1      40.734  19.529  25.457  1.00  0.00     0.163 HD
ATOM     34  O   UNL A   1      43.154  19.801  25.245  1.00  0.00    -0.269 OA
BRANCH  32  35
ATOM     35  C   UNL A   1      43.017  21.605  26.739  1.00  0.00     0.039 A 
ATOM     36  C   UNL A   1      42.779  21.556  28.116  1.00  0.00     0.014 A 
ATOM     37  C   UNL A   1      43.582  22.739  26.161  1.00  0.00     0.014 A 
ATOM     38  C   UNL A   1      42.864  22.730  28.860  1.00  0.00     0.010 A 
ATOM     39  C   UNL A   1      43.578  23.923  26.874  1.00  0.00     0.010 A 
ATOM     40  C   UNL A   1      43.145  23.929  28.201  1.00  0.00    -0.014 A 
BRANCH  40  41
ATOM     41  C   UNL A   1      42.849  25.230  28.790  1.00  0.00     0.031 A 
ATOM     42  C   UNL A   1      41.661  26.003  28.367  1.00  0.00     0.074 A 
ATOM     43  C   UNL A   1      43.676  25.764  29.720  1.00  0.00     0.049 A 
ATOM     44  N   UNL A   1      41.627  27.295  28.328  1.00  0.00    -0.248 NA
ATOM     45  C   UNL A   1      40.419  25.374  27.930  1.00  0.00     0.031 C 
ATOM     46  C   UNL A   1      43.436  26.960  30.527  1.00  0.00     0.029 A 
ATOM     47  N   UNL A   1      44.983  25.440  30.053  1.00  0.00    -0.354 N 
ATOM     48  C   UNL A   1      40.312  27.655  28.175  1.00  0.00     0.074 A 
ATOM     49  C   UNL A   1      39.612  26.437  27.833  1.00  0.00     0.031 C 
ATOM     50  C   UNL A   1      44.618  27.426  30.966  1.00  0.00     0.029 A 
ATOM     51  C   UNL A   1      45.652  26.632  30.330  1.00  0.00     0.049 A 
ATOM     52  H   UNL A   1      45.367  24.535  30.088  1.00  0.00     0.167 HD
ATOM     53  C   UNL A   1      39.893  28.905  28.519  1.00  0.00     0.031 A 
ATOM     54  C   UNL A   1      46.689  27.140  29.599  1.00  0.00     0.031 A 
ATOM     55  C   UNL A   1      40.969  29.742  29.038  1.00  0.00     0.049 A 
ATOM     56  C   UNL A   1      46.442  28.552  29.093  1.00  0.00     0.074 A 
ATOM     57  C   UNL A   1      41.340  30.106  30.323  1.00  0.00     0.029 A 
ATOM     58  N   UNL A   1      42.022  30.103  28.209  1.00  0.00    -0.354 N 
ATOM     59  N   UNL A   1      45.265  29.110  29.037  1.00  0.00    -0.248 NA
ATOM     60  C   UNL A   1      47.486  29.421  28.553  1.00  0.00     0.031 C 
ATOM     61  C   UNL A   1      42.640  30.667  30.266  1.00  0.00     0.029 A 
ATOM     62  C   UNL A   1      43.050  30.658  28.946  1.00  0.00     0.049 A 
ATOM     63  H   UNL A   1      42.034  29.980  27.232  1.00  0.00     0.167 HD
ATOM     64  C   UNL A   1      45.363  30.360  28.478  1.00  0.00     0.074 A 
ATOM     65  C   UNL A   1      46.780  30.512  28.203  1.00  0.00     0.031 C 
ATOM     66  C   UNL A   1      44.258  31.141  28.286  1.00  0.00     0.031 A 
BRANCH  53  67
ATOM     67  C   UNL A   1      38.430  29.208  28.683  1.00  0.00    -0.014 A 
ATOM     68  C   UNL A   1      37.670  29.642  27.582  1.00  0.00     0.009 A 
ATOM     69  C   UNL A   1      37.765  29.140  29.920  1.00  0.00     0.009 A 
ATOM     70  C   UNL A   1      36.353  30.091  27.726  1.00  0.00     0.001 A 
ATOM     71  C   UNL A   1      36.461  29.626  30.078  1.00  0.00     0.001 A 
ATOM     72  C   UNL A   1      35.760  30.115  28.981  1.00  0.00     0.000 A 
ENDBRANCH  53  67
BRANCH  54  73
ATOM     73  C   UNL A   1      47.493  26.129  28.864  1.00  0.00    -0.014 A 
ATOM     74  C   UNL A   1      47.239  25.934  27.494  1.00  0.00     0.009 A 
ATOM     75  C   UNL A   1      48.684  25.626  29.404  1.00  0.00     0.009 A 
ATOM     76  C   UNL A   1      48.203  25.358  26.662  1.00  0.00     0.001 A 
ATOM     77  C   UNL A   1      49.642  25.036  28.570  1.00  0.00     0.001 A 
ATOM     78  C   UNL A   1      49.416  24.936  27.197  1.00  0.00     0.000 A 
ENDBRANCH  54  73
BRANCH  66  79
ATOM     79  C   UNL A   1      44.166  32.456  27.538  1.00  0.00    -0.014 A 
ATOM     80  C   UNL A   1      44.332  32.617  26.158  1.00  0.00     0.009 A 
ATOM     81  C   UNL A   1      43.792  33.619  28.257  1.00  0.00     0.009 A 
ATOM     82  C   UNL A   1      44.165  33.867  25.538  1.00  0.00     0.001 A 
ATOM     83  C   UNL A   1      43.584  34.855  27.641  1.00  0.00     0.001 A 
ATOM     84  C   UNL A   1      43.781  34.982  26.276  1.00  0.00     0.000 A 
ENDBRANCH  66  79
ENDBRANCH  40  41
ENDBRANCH  32  35
ENDBRANCH  30  31
ENDBRANCH  29  30
ENDBRANCH  28  29
ENDBRANCH   1  28
TORSDOF 16
ENDMDL
