MODEL 1
REMARK VINA RESULT:     -11.6      0.000      0.000
REMARK SMILES O=C(NCCCCCCNC(=O)[C@H](CO)NC(=O)[C@H](Cc1c[nH]c2ccccc12)NC(=O)c1ccc(F)cc1)c1ccc(-c2c3nc(c(-c4ccccc4)c4ccc([nH]4)c(-c4ccccc4)c4nc(c(-c5ccccc5)c5ccc2[nH]5)C=C4)C=C3)cc1
REMARK SMILES IDX 7 1 6 2 5 3 4 4 3 5 1 6 2 7 40 9 41 10 87 11 42 12 86 13
REMARK SMILES IDX 43 14 44 15 45 16 80 17 46 18 85 19 79 20 81 21 47 22 84 23
REMARK SMILES IDX 78 24 77 25 48 27 70 28 55 29 69 30 56 31 59 32 68 33 82 34
REMARK SMILES IDX 57 35 58 36 67 38 83 39 60 40 49 41 50 42 54 43 51 44 53 45
REMARK SMILES IDX 52 46 71 47 72 48 76 49 73 50 75 51 74 52 61 53 62 54 66 55
REMARK SMILES IDX 63 56 65 57 64 58 8 59 9 60 10 61 11 62 12 64 13 65 16 66
REMARK SMILES IDX 17 67 18 69 19 70 30 71 31 72 32 74 33 75 34 76 39 77 35 78
REMARK SMILES IDX 38 79 36 80 37 81 20 82 21 83 22 84 29 85 23 86 24 87 28 88
REMARK SMILES IDX 25 90 27 91 26 92 14 93 15 94
REMARK H PARENT 3 8 81 26 59 37 10 63 16 68 30 73 23 89 15 95
REMARK Flexibility Score: inf
ROOT
ATOM      1  C   UNL A   1      31.702  29.144  26.156  1.00  0.00     0.002 C 
ENDROOT
BRANCH   1   2
ATOM      2  C   UNL A   1      32.313  30.129  27.160  1.00  0.00     0.002 C 
BRANCH   2   3
ATOM      3  C   UNL A   1      31.843  31.576  27.026  1.00  0.00     0.021 C 
BRANCH   3   4
ATOM      4  C   UNL A   1      32.955  32.615  27.027  1.00  0.00     0.116 C 
BRANCH   4   5
ATOM      5  N   UNL A   1      32.550  33.876  27.625  1.00  0.00    -0.352 N 
ATOM      6  O   UNL A   1      32.575  35.546  29.148  1.00  0.00    -0.269 OA
ATOM      7  C   UNL A   1      33.122  34.554  28.674  1.00  0.00     0.251 C 
ATOM      8  H   UNL A   1      31.758  34.301  27.225  1.00  0.00     0.163 HD
BRANCH   7   9
ATOM      9  C   UNL A   1      34.387  34.057  29.255  1.00  0.00     0.039 A 
ATOM     10  C   UNL A   1      35.615  34.422  28.700  1.00  0.00     0.014 A 
ATOM     11  C   UNL A   1      34.337  33.190  30.348  1.00  0.00     0.014 A 
ATOM     12  C   UNL A   1      36.779  33.802  29.138  1.00  0.00     0.010 A 
ATOM     13  C   UNL A   1      35.519  32.632  30.844  1.00  0.00     0.010 A 
ATOM     14  C   UNL A   1      36.745  32.902  30.215  1.00  0.00    -0.014 A 
BRANCH  14  15
ATOM     15  C   UNL A   1      38.009  32.278  30.680  1.00  0.00     0.031 A 
ATOM     16  C   UNL A   1      38.760  32.827  31.863  1.00  0.00     0.074 A 
ATOM     17  C   UNL A   1      38.460  31.178  30.047  1.00  0.00     0.049 A 
ATOM     18  N   UNL A   1      39.847  32.368  32.431  1.00  0.00    -0.248 NA
ATOM     19  C   UNL A   1      38.229  34.049  32.486  1.00  0.00     0.031 C 
ATOM     20  C   UNL A   1      37.823  30.553  28.885  1.00  0.00     0.029 A 
ATOM     21  N   UNL A   1      39.539  30.373  30.309  1.00  0.00    -0.354 N 
ATOM     22  C   UNL A   1      40.147  33.258  33.455  1.00  0.00     0.074 A 
ATOM     23  C   UNL A   1      39.137  34.294  33.421  1.00  0.00     0.031 C 
ATOM     24  C   UNL A   1      38.487  29.429  28.574  1.00  0.00     0.029 A 
ATOM     25  C   UNL A   1      39.626  29.287  29.473  1.00  0.00     0.049 A 
ATOM     26  H   UNL A   1      40.188  30.556  31.027  1.00  0.00     0.167 HD
ATOM     27  C   UNL A   1      41.168  33.215  34.346  1.00  0.00     0.031 A 
ATOM     28  C   UNL A   1      40.522  28.286  29.431  1.00  0.00     0.031 A 
ATOM     29  C   UNL A   1      42.166  32.178  34.388  1.00  0.00     0.049 A 
ATOM     30  C   UNL A   1      41.646  28.267  30.424  1.00  0.00     0.074 A 
ATOM     31  C   UNL A   1      43.218  32.029  35.277  1.00  0.00     0.029 A 
ATOM     32  N   UNL A   1      42.237  31.113  33.503  1.00  0.00    -0.354 N 
ATOM     33  N   UNL A   1      41.892  29.097  31.408  1.00  0.00    -0.248 NA
ATOM     34  C   UNL A   1      42.613  27.168  30.302  1.00  0.00     0.031 C 
ATOM     35  C   UNL A   1      43.951  30.897  34.902  1.00  0.00     0.029 A 
ATOM     36  C   UNL A   1      43.325  30.314  33.811  1.00  0.00     0.049 A 
ATOM     37  H   UNL A   1      41.608  30.950  32.764  1.00  0.00     0.167 HD
ATOM     38  C   UNL A   1      43.029  28.610  32.037  1.00  0.00     0.074 A 
ATOM     39  C   UNL A   1      43.412  27.402  31.334  1.00  0.00     0.031 C 
ATOM     40  C   UNL A   1      43.695  29.117  33.103  1.00  0.00     0.031 A 
BRANCH  27  41
ATOM     41  C   UNL A   1      41.276  34.344  35.333  1.00  0.00    -0.014 A 
ATOM     42  C   UNL A   1      40.801  34.216  36.648  1.00  0.00     0.009 A 
ATOM     43  C   UNL A   1      41.901  35.542  34.951  1.00  0.00     0.009 A 
ATOM     44  C   UNL A   1      40.921  35.277  37.549  1.00  0.00     0.001 A 
ATOM     45  C   UNL A   1      42.042  36.590  35.861  1.00  0.00     0.001 A 
ATOM     46  C   UNL A   1      41.544  36.461  37.156  1.00  0.00     0.000 A 
ENDBRANCH  27  41
BRANCH  28  47
ATOM     47  C   UNL A   1      40.384  27.212  28.414  1.00  0.00    -0.014 A 
ATOM     48  C   UNL A   1      39.638  26.058  28.697  1.00  0.00     0.009 A 
ATOM     49  C   UNL A   1      40.984  27.344  27.153  1.00  0.00     0.009 A 
ATOM     50  C   UNL A   1      39.514  25.048  27.741  1.00  0.00     0.001 A 
ATOM     51  C   UNL A   1      40.835  26.345  26.191  1.00  0.00     0.001 A 
ATOM     52  C   UNL A   1      40.108  25.194  26.488  1.00  0.00     0.000 A 
ENDBRANCH  28  47
BRANCH  40  53
ATOM     53  C   UNL A   1      44.882  28.340  33.593  1.00  0.00    -0.014 A 
ATOM     54  C   UNL A   1      46.169  28.579  33.088  1.00  0.00     0.009 A 
ATOM     55  C   UNL A   1      44.709  27.364  34.586  1.00  0.00     0.009 A 
ATOM     56  C   UNL A   1      47.255  27.827  33.542  1.00  0.00     0.001 A 
ATOM     57  C   UNL A   1      45.800  26.633  35.057  1.00  0.00     0.001 A 
ATOM     58  C   UNL A   1      47.070  26.858  34.527  1.00  0.00     0.000 A 
ENDBRANCH  40  53
ENDBRANCH  14  15
ENDBRANCH   7   9
ENDBRANCH   4   5
ENDBRANCH   3   4
ENDBRANCH   2   3
ENDBRANCH   1   2
BRANCH   1  59
ATOM     59  C   UNL A   1      31.393  27.747  26.708  1.00  0.00     0.021 C 
BRANCH  59  60
ATOM     60  C   UNL A   1      31.238  26.671  25.641  1.00  0.00     0.116 C 
BRANCH  60  61
ATOM     61  N   UNL A   1      30.275  27.067  24.636  1.00  0.00    -0.354 N 
ATOM     62  C   UNL A   1      30.454  27.552  23.378  1.00  0.00     0.244 C 
ATOM     63  H   UNL A   1      29.334  26.970  24.909  1.00  0.00     0.163 HD
ATOM     64  O   UNL A   1      29.445  27.734  22.694  1.00  0.00    -0.273 OA
BRANCH  62  65
ATOM     65  C   UNL A   1      31.855  27.780  22.794  1.00  0.00     0.197 C 
BRANCH  65  66
ATOM     66  N   UNL A   1      32.137  26.920  21.640  1.00  0.00    -0.340 N 
ATOM     67  C   UNL A   1      32.607  25.654  21.508  1.00  0.00     0.243 C 
ATOM     68  H   UNL A   1      31.945  27.354  20.777  1.00  0.00     0.164 HD
ATOM     69  O   UNL A   1      32.893  25.340  20.346  1.00  0.00    -0.273 OA
BRANCH  67  70
ATOM     70  C   UNL A   1      32.977  24.737  22.700  1.00  0.00     0.176 C 
BRANCH  70  71
ATOM     71  N   UNL A   1      33.727  25.317  23.817  1.00  0.00    -0.340 N 
ATOM     72  C   UNL A   1      34.610  24.821  24.738  1.00  0.00     0.251 C 
ATOM     73  H   UNL A   1      33.561  26.281  23.929  1.00  0.00     0.164 HD
ATOM     74  O   UNL A   1      34.811  25.524  25.731  1.00  0.00    -0.269 OA
BRANCH  72  75
ATOM     75  C   UNL A   1      35.361  23.533  24.623  1.00  0.00     0.040 A 
ATOM     76  C   UNL A   1      36.275  23.213  23.614  1.00  0.00     0.017 A 
ATOM     77  C   UNL A   1      35.230  22.634  25.700  1.00  0.00     0.017 A 
ATOM     78  C   UNL A   1      37.038  22.039  23.677  1.00  0.00     0.040 A 
ATOM     79  C   UNL A   1      35.993  21.463  25.769  1.00  0.00     0.040 A 
ATOM     80  C   UNL A   1      36.895  21.179  24.756  1.00  0.00     0.123 A 
ATOM     81  F   UNL A   1      37.655  20.080  24.831  1.00  0.00    -0.207 F 
ENDBRANCH  72  75
ENDBRANCH  70  71
BRANCH  70  82
ATOM     82  C   UNL A   1      31.724  24.002  23.216  1.00  0.00     0.072 C 
BRANCH  82  83
ATOM     83  C   UNL A   1      31.843  22.788  24.109  1.00  0.00    -0.020 A 
ATOM     84  C   UNL A   1      31.719  22.907  25.486  1.00  0.00     0.087 A 
ATOM     85  C   UNL A   1      32.101  21.389  23.854  1.00  0.00     0.003 A 
ATOM     86  N   UNL A   1      31.884  21.683  26.060  1.00  0.00    -0.361 N 
ATOM     87  C   UNL A   1      32.112  20.737  25.093  1.00  0.00     0.046 A 
ATOM     88  C   UNL A   1      32.332  20.584  22.714  1.00  0.00     0.010 A 
ATOM     89  H   UNL A   1      31.845  21.504  27.028  1.00  0.00     0.166 HD
ATOM     90  C   UNL A   1      32.330  19.360  25.244  1.00  0.00     0.026 A 
ATOM     91  C   UNL A   1      32.543  19.204  22.844  1.00  0.00     0.001 A 
ATOM     92  C   UNL A   1      32.541  18.602  24.095  1.00  0.00     0.002 A 
ENDBRANCH  82  83
ENDBRANCH  70  82
ENDBRANCH  67  70
ENDBRANCH  65  66
BRANCH  65  93
ATOM     93  C   UNL A   1      32.047  29.273  22.455  1.00  0.00     0.191 C 
BRANCH  93  94
ATOM     94  O   UNL A   1      30.997  29.771  21.627  1.00  0.00    -0.394 OA
ATOM     95  H   UNL A   1      30.354  29.065  21.462  1.00  0.00     0.210 HD
ENDBRANCH  93  94
ENDBRANCH  65  93
ENDBRANCH  62  65
ENDBRANCH  60  61
ENDBRANCH  59  60
ENDBRANCH   1  59
TORSDOF 21
ENDMDL
MODEL 2
REMARK VINA RESULT:     -11.3      1.436      5.948
REMARK SMILES O=C(NCCCCCCNC(=O)[C@H](CO)NC(=O)[C@H](Cc1c[nH]c2ccccc12)NC(=O)c1ccc(F)cc1)c1ccc(-c2c3nc(c(-c4ccccc4)c4ccc([nH]4)c(-c4ccccc4)c4nc(c(-c5ccccc5)c5ccc2[nH]5)C=C4)C=C3)cc1
REMARK SMILES IDX 7 1 6 2 5 3 4 4 3 5 1 6 2 7 40 9 41 10 87 11 42 12 86 13
REMARK SMILES IDX 43 14 44 15 45 16 80 17 46 18 85 19 79 20 81 21 47 22 84 23
REMARK SMILES IDX 78 24 77 25 48 27 70 28 55 29 69 30 56 31 59 32 68 33 82 34
REMARK SMILES IDX 57 35 58 36 67 38 83 39 60 40 49 41 50 42 54 43 51 44 53 45
REMARK SMILES IDX 52 46 71 47 72 48 76 49 73 50 75 51 74 52 61 53 62 54 66 55
REMARK SMILES IDX 63 56 65 57 64 58 8 59 9 60 10 61 11 62 12 64 13 65 16 66
REMARK SMILES IDX 17 67 18 69 19 70 30 71 31 72 32 74 33 75 34 76 39 77 35 78
REMARK SMILES IDX 38 79 36 80 37 81 20 82 21 83 22 84 29 85 23 86 24 87 28 88
REMARK SMILES IDX 25 90 27 91 26 92 14 93 15 94
REMARK H PARENT 3 8 81 26 59 37 10 63 16 68 30 73 23 89 15 95
REMARK Flexibility Score: inf
ROOT
ATOM      1  C   UNL A   1      32.197  29.227  26.877  1.00  0.00     0.002 C 
ENDROOT
BRANCH   1   2
ATOM      2  C   UNL A   1      31.297  30.447  27.103  1.00  0.00     0.002 C 
BRANCH   2   3
ATOM      3  C   UNL A   1      31.782  31.747  26.463  1.00  0.00     0.021 C 
BRANCH   3   4
ATOM      4  C   UNL A   1      32.942  32.422  27.180  1.00  0.00     0.116 C 
BRANCH   4   5
ATOM      5  N   UNL A   1      32.612  33.753  27.660  1.00  0.00    -0.352 N 
ATOM      6  O   UNL A   1      32.758  35.563  29.006  1.00  0.00    -0.269 OA
ATOM      7  C   UNL A   1      33.245  34.503  28.621  1.00  0.00     0.251 C 
ATOM      8  H   UNL A   1      31.828  34.174  27.239  1.00  0.00     0.163 HD
BRANCH   7   9
ATOM      9  C   UNL A   1      34.503  34.007  29.216  1.00  0.00     0.039 A 
ATOM     10  C   UNL A   1      35.733  34.296  28.621  1.00  0.00     0.014 A 
ATOM     11  C   UNL A   1      34.444  33.215  30.365  1.00  0.00     0.014 A 
ATOM     12  C   UNL A   1      36.884  33.669  29.083  1.00  0.00     0.010 A 
ATOM     13  C   UNL A   1      35.617  32.656  30.881  1.00  0.00     0.010 A 
ATOM     14  C   UNL A   1      36.840  32.844  30.219  1.00  0.00    -0.014 A 
BRANCH  14  15
ATOM     15  C   UNL A   1      38.092  32.213  30.707  1.00  0.00     0.031 A 
ATOM     16  C   UNL A   1      38.626  30.954  30.079  1.00  0.00     0.074 A 
ATOM     17  C   UNL A   1      38.774  32.811  31.703  1.00  0.00     0.049 A 
ATOM     18  N   UNL A   1      39.733  30.307  30.348  1.00  0.00    -0.248 NA
ATOM     19  C   UNL A   1      37.815  30.337  29.018  1.00  0.00     0.031 C 
ATOM     20  C   UNL A   1      38.357  34.033  32.395  1.00  0.00     0.029 A 
ATOM     21  N   UNL A   1      39.974  32.492  32.284  1.00  0.00    -0.354 N 
ATOM     22  C   UNL A   1      39.737  29.195  29.516  1.00  0.00     0.074 A 
ATOM     23  C   UNL A   1      38.513  29.244  28.743  1.00  0.00     0.031 C 
ATOM     24  C   UNL A   1      39.314  34.394  33.263  1.00  0.00     0.029 A 
ATOM     25  C   UNL A   1      40.381  33.400  33.230  1.00  0.00     0.049 A 
ATOM     26  H   UNL A   1      40.493  31.690  32.047  1.00  0.00     0.167 HD
ATOM     27  C   UNL A   1      40.674  28.223  29.402  1.00  0.00     0.031 A 
ATOM     28  C   UNL A   1      41.489  33.432  33.991  1.00  0.00     0.031 A 
ATOM     29  C   UNL A   1      41.896  28.180  30.162  1.00  0.00     0.049 A 
ATOM     30  C   UNL A   1      42.505  32.340  33.850  1.00  0.00     0.074 A 
ATOM     31  C   UNL A   1      42.925  27.255  30.089  1.00  0.00     0.029 A 
ATOM     32  N   UNL A   1      42.255  29.101  31.133  1.00  0.00    -0.354 N 
ATOM     33  N   UNL A   1      42.509  31.316  33.032  1.00  0.00    -0.248 NA
ATOM     34  C   UNL A   1      43.676  32.411  34.736  1.00  0.00     0.031 C 
ATOM     35  C   UNL A   1      43.886  27.593  31.049  1.00  0.00     0.029 A 
ATOM     36  C   UNL A   1      43.479  28.757  31.682  1.00  0.00     0.049 A 
ATOM     37  H   UNL A   1      41.719  29.884  31.395  1.00  0.00     0.167 HD
ATOM     38  C   UNL A   1      43.690  30.633  33.287  1.00  0.00     0.074 A 
ATOM     39  C   UNL A   1      44.385  31.370  34.324  1.00  0.00     0.031 C 
ATOM     40  C   UNL A   1      44.157  29.498  32.713  1.00  0.00     0.031 A 
BRANCH  27  41
ATOM     41  C   UNL A   1      40.399  27.102  28.437  1.00  0.00    -0.014 A 
ATOM     42  C   UNL A   1      39.629  25.988  28.807  1.00  0.00     0.009 A 
ATOM     43  C   UNL A   1      40.884  27.186  27.122  1.00  0.00     0.009 A 
ATOM     44  C   UNL A   1      39.381  24.965  27.889  1.00  0.00     0.001 A 
ATOM     45  C   UNL A   1      40.613  26.173  26.200  1.00  0.00     0.001 A 
ATOM     46  C   UNL A   1      39.869  25.060  26.586  1.00  0.00     0.000 A 
ENDBRANCH  27  41
BRANCH  28  47
ATOM     47  C   UNL A   1      41.694  34.548  34.950  1.00  0.00    -0.014 A 
ATOM     48  C   UNL A   1      42.350  35.720  34.545  1.00  0.00     0.009 A 
ATOM     49  C   UNL A   1      41.223  34.451  36.268  1.00  0.00     0.009 A 
ATOM     50  C   UNL A   1      42.548  36.765  35.450  1.00  0.00     0.001 A 
ATOM     51  C   UNL A   1      41.398  35.508  37.161  1.00  0.00     0.001 A 
ATOM     52  C   UNL A   1      42.067  36.661  36.755  1.00  0.00     0.000 A 
ENDBRANCH  28  47
BRANCH  40  53
ATOM     53  C   UNL A   1      45.502  29.011  33.169  1.00  0.00    -0.014 A 
ATOM     54  C   UNL A   1      46.684  29.444  32.549  1.00  0.00     0.009 A 
ATOM     55  C   UNL A   1      45.585  28.113  34.245  1.00  0.00     0.009 A 
ATOM     56  C   UNL A   1      47.922  28.958  32.975  1.00  0.00     0.001 A 
ATOM     57  C   UNL A   1      46.825  27.651  34.686  1.00  0.00     0.001 A 
ATOM     58  C   UNL A   1      47.992  28.065  34.044  1.00  0.00     0.000 A 
ENDBRANCH  40  53
ENDBRANCH  14  15
ENDBRANCH   7   9
ENDBRANCH   4   5
ENDBRANCH   3   4
ENDBRANCH   2   3
ENDBRANCH   1   2
BRANCH   1  59
ATOM     59  C   UNL A   1      31.634  27.892  27.377  1.00  0.00     0.021 C 
BRANCH  59  60
ATOM     60  C   UNL A   1      31.747  26.749  26.377  1.00  0.00     0.116 C 
BRANCH  60  61
ATOM     61  N   UNL A   1      30.508  26.561  25.655  1.00  0.00    -0.354 N 
ATOM     62  C   UNL A   1      30.139  26.952  24.406  1.00  0.00     0.244 C 
ATOM     63  H   UNL A   1      29.815  26.068  26.152  1.00  0.00     0.163 HD
ATOM     64  O   UNL A   1      29.035  26.585  24.000  1.00  0.00    -0.273 OA
BRANCH  62  65
ATOM     65  C   UNL A   1      31.090  27.742  23.497  1.00  0.00     0.197 C 
BRANCH  65  66
ATOM     66  N   UNL A   1      31.196  27.171  22.150  1.00  0.00    -0.340 N 
ATOM     67  C   UNL A   1      31.675  25.997  21.666  1.00  0.00     0.243 C 
ATOM     68  H   UNL A   1      30.846  27.765  21.447  1.00  0.00     0.164 HD
ATOM     69  O   UNL A   1      31.766  25.958  20.433  1.00  0.00    -0.273 OA
BRANCH  67  70
ATOM     70  C   UNL A   1      32.271  24.873  22.549  1.00  0.00     0.176 C 
BRANCH  70  71
ATOM     71  N   UNL A   1      31.863  23.490  22.283  1.00  0.00    -0.340 N 
ATOM     72  C   UNL A   1      31.958  22.314  22.976  1.00  0.00     0.251 C 
ATOM     73  H   UNL A   1      31.418  23.385  21.411  1.00  0.00     0.164 HD
ATOM     74  O   UNL A   1      31.789  21.283  22.321  1.00  0.00    -0.269 OA
BRANCH  72  75
ATOM     75  C   UNL A   1      32.214  22.182  24.444  1.00  0.00     0.040 A 
ATOM     76  C   UNL A   1      33.193  21.371  25.028  1.00  0.00     0.017 A 
ATOM     77  C   UNL A   1      31.495  23.054  25.285  1.00  0.00     0.017 A 
ATOM     78  C   UNL A   1      33.451  21.430  26.403  1.00  0.00     0.040 A 
ATOM     79  C   UNL A   1      31.754  23.118  26.659  1.00  0.00     0.040 A 
ATOM     80  C   UNL A   1      32.735  22.307  27.205  1.00  0.00     0.123 A 
ATOM     81  F   UNL A   1      33.015  22.387  28.511  1.00  0.00    -0.207 F 
ENDBRANCH  72  75
ENDBRANCH  70  71
BRANCH  70  82
ATOM     82  C   UNL A   1      33.808  24.983  22.586  1.00  0.00     0.072 C 
BRANCH  82  83
ATOM     83  C   UNL A   1      34.587  24.622  23.832  1.00  0.00    -0.020 A 
ATOM     84  C   UNL A   1      34.376  25.306  25.021  1.00  0.00     0.087 A 
ATOM     85  C   UNL A   1      35.618  23.650  24.110  1.00  0.00     0.003 A 
ATOM     86  N   UNL A   1      35.207  24.808  25.978  1.00  0.00    -0.361 N 
ATOM     87  C   UNL A   1      35.972  23.795  25.457  1.00  0.00     0.046 A 
ATOM     88  C   UNL A   1      36.309  22.654  23.379  1.00  0.00     0.010 A 
ATOM     89  H   UNL A   1      35.252  25.128  26.908  1.00  0.00     0.166 HD
ATOM     90  C   UNL A   1      36.946  23.013  26.092  1.00  0.00     0.026 A 
ATOM     91  C   UNL A   1      37.280  21.856  24.000  1.00  0.00     0.001 A 
ATOM     92  C   UNL A   1      37.593  22.035  25.341  1.00  0.00     0.002 A 
ENDBRANCH  82  83
ENDBRANCH  70  82
ENDBRANCH  67  70
ENDBRANCH  65  66
BRANCH  65  93
ATOM     93  C   UNL A   1      30.668  29.226  23.455  1.00  0.00     0.191 C 
BRANCH  93  94
ATOM     94  O   UNL A   1      29.258  29.375  23.290  1.00  0.00    -0.394 OA
ATOM     95  H   UNL A   1      28.816  28.546  23.530  1.00  0.00     0.210 HD
ENDBRANCH  93  94
ENDBRANCH  65  93
ENDBRANCH  62  65
ENDBRANCH  60  61
ENDBRANCH  59  60
ENDBRANCH   1  59
TORSDOF 21
ENDMDL
MODEL 3
REMARK VINA RESULT:     -11.2      1.743      6.216
REMARK SMILES O=C(NCCCCCCNC(=O)[C@H](CO)NC(=O)[C@H](Cc1c[nH]c2ccccc12)NC(=O)c1ccc(F)cc1)c1ccc(-c2c3nc(c(-c4ccccc4)c4ccc([nH]4)c(-c4ccccc4)c4nc(c(-c5ccccc5)c5ccc2[nH]5)C=C4)C=C3)cc1
REMARK SMILES IDX 7 1 6 2 5 3 4 4 3 5 1 6 2 7 40 9 41 10 87 11 42 12 86 13
REMARK SMILES IDX 43 14 44 15 45 16 80 17 46 18 85 19 79 20 81 21 47 22 84 23
REMARK SMILES IDX 78 24 77 25 48 27 70 28 55 29 69 30 56 31 59 32 68 33 82 34
REMARK SMILES IDX 57 35 58 36 67 38 83 39 60 40 49 41 50 42 54 43 51 44 53 45
REMARK SMILES IDX 52 46 71 47 72 48 76 49 73 50 75 51 74 52 61 53 62 54 66 55
REMARK SMILES IDX 63 56 65 57 64 58 8 59 9 60 10 61 11 62 12 64 13 65 16 66
REMARK SMILES IDX 17 67 18 69 19 70 30 71 31 72 32 74 33 75 34 76 39 77 35 78
REMARK SMILES IDX 38 79 36 80 37 81 20 82 21 83 22 84 29 85 23 86 24 87 28 88
REMARK SMILES IDX 25 90 27 91 26 92 14 93 15 94
REMARK H PARENT 3 8 81 26 59 37 10 63 16 68 30 73 23 89 15 95
REMARK Flexibility Score: inf
ROOT
ATOM      1  C   UNL A   1      34.929  30.507  27.761  1.00  0.00     0.002 C 
ENDROOT
BRANCH   1   2
ATOM      2  C   UNL A   1      35.031  32.036  27.727  1.00  0.00     0.002 C 
BRANCH   2   3
ATOM      3  C   UNL A   1      33.734  32.786  28.027  1.00  0.00     0.021 C 
BRANCH   3   4
ATOM      4  C   UNL A   1      33.885  34.292  28.186  1.00  0.00     0.116 C 
BRANCH   4   5
ATOM      5  N   UNL A   1      33.389  34.778  29.462  1.00  0.00    -0.352 N 
ATOM      6  O   UNL A   1      33.210  34.870  31.713  1.00  0.00    -0.269 OA
ATOM      7  C   UNL A   1      33.828  34.475  30.728  1.00  0.00     0.251 C 
ATOM      8  H   UNL A   1      32.635  35.409  29.413  1.00  0.00     0.163 HD
BRANCH   7   9
ATOM      9  C   UNL A   1      35.033  33.638  30.896  1.00  0.00     0.039 A 
ATOM     10  C   UNL A   1      34.949  32.386  31.508  1.00  0.00     0.014 A 
ATOM     11  C   UNL A   1      36.267  34.129  30.463  1.00  0.00     0.014 A 
ATOM     12  C   UNL A   1      36.113  31.696  31.826  1.00  0.00     0.010 A 
ATOM     13  C   UNL A   1      37.430  33.392  30.706  1.00  0.00     0.010 A 
ATOM     14  C   UNL A   1      37.365  32.189  31.427  1.00  0.00    -0.014 A 
BRANCH  14  15
ATOM     15  C   UNL A   1      38.588  31.414  31.754  1.00  0.00     0.031 A 
ATOM     16  C   UNL A   1      39.058  30.290  30.870  1.00  0.00     0.074 A 
ATOM     17  C   UNL A   1      39.304  31.760  32.842  1.00  0.00     0.049 A 
ATOM     18  N   UNL A   1      40.134  29.551  30.982  1.00  0.00    -0.248 NA
ATOM     19  C   UNL A   1      38.212  29.945  29.718  1.00  0.00     0.031 C 
ATOM     20  C   UNL A   1      38.950  32.829  33.779  1.00  0.00     0.029 A 
ATOM     21  N   UNL A   1      40.490  31.272  33.326  1.00  0.00    -0.354 N 
ATOM     22  C   UNL A   1      40.079  28.637  29.937  1.00  0.00     0.074 A 
ATOM     23  C   UNL A   1      38.856  28.902  29.211  1.00  0.00     0.031 C 
ATOM     24  C   UNL A   1      39.929  32.957  34.687  1.00  0.00     0.029 A 
ATOM     25  C   UNL A   1      40.946  31.944  34.433  1.00  0.00     0.049 A 
ATOM     26  H   UNL A   1      40.969  30.514  32.919  1.00  0.00     0.167 HD
ATOM     27  C   UNL A   1      40.968  27.668  29.610  1.00  0.00     0.031 A 
ATOM     28  C   UNL A   1      42.058  31.766  35.167  1.00  0.00     0.031 A 
ATOM     29  C   UNL A   1      42.191  27.412  30.325  1.00  0.00     0.049 A 
ATOM     30  C   UNL A   1      43.020  30.681  34.786  1.00  0.00     0.074 A 
ATOM     31  C   UNL A   1      43.173  26.476  30.046  1.00  0.00     0.029 A 
ATOM     32  N   UNL A   1      42.600  28.093  31.461  1.00  0.00    -0.354 N 
ATOM     33  N   UNL A   1      42.970  29.851  33.773  1.00  0.00    -0.248 NA
ATOM     34  C   UNL A   1      44.198  30.513  35.649  1.00  0.00     0.031 C 
ATOM     35  C   UNL A   1      44.155  26.563  31.041  1.00  0.00     0.029 A 
ATOM     36  C   UNL A   1      43.809  27.587  31.908  1.00  0.00     0.049 A 
ATOM     37  H   UNL A   1      42.103  28.829  31.887  1.00  0.00     0.167 HD
ATOM     38  C   UNL A   1      44.119  29.076  33.863  1.00  0.00     0.074 A 
ATOM     39  C   UNL A   1      44.854  29.549  35.019  1.00  0.00     0.031 C 
ATOM     40  C   UNL A   1      44.527  28.065  33.059  1.00  0.00     0.031 A 
BRANCH  27  41
ATOM     41  C   UNL A   1      40.634  26.787  28.438  1.00  0.00    -0.014 A 
ATOM     42  C   UNL A   1      39.762  25.694  28.567  1.00  0.00     0.009 A 
ATOM     43  C   UNL A   1      41.170  27.082  27.174  1.00  0.00     0.009 A 
ATOM     44  C   UNL A   1      39.461  24.897  27.460  1.00  0.00     0.001 A 
ATOM     45  C   UNL A   1      40.847  26.298  26.065  1.00  0.00     0.001 A 
ATOM     46  C   UNL A   1      40.000  25.201  26.210  1.00  0.00     0.000 A 
ENDBRANCH  27  41
BRANCH  28  47
ATOM     47  C   UNL A   1      42.323  32.647  36.333  1.00  0.00    -0.014 A 
ATOM     48  C   UNL A   1      43.039  33.842  36.171  1.00  0.00     0.009 A 
ATOM     49  C   UNL A   1      41.849  32.304  37.609  1.00  0.00     0.009 A 
ATOM     50  C   UNL A   1      43.291  34.667  37.270  1.00  0.00     0.001 A 
ATOM     51  C   UNL A   1      42.079  33.143  38.698  1.00  0.00     0.001 A 
ATOM     52  C   UNL A   1      42.807  34.319  38.531  1.00  0.00     0.000 A 
ENDBRANCH  28  47
BRANCH  40  53
ATOM     53  C   UNL A   1      45.850  27.432  33.383  1.00  0.00    -0.014 A 
ATOM     54  C   UNL A   1      45.935  26.308  34.219  1.00  0.00     0.009 A 
ATOM     55  C   UNL A   1      47.026  27.964  32.832  1.00  0.00     0.009 A 
ATOM     56  C   UNL A   1      47.178  25.752  34.526  1.00  0.00     0.001 A 
ATOM     57  C   UNL A   1      48.264  27.389  33.120  1.00  0.00     0.001 A 
ATOM     58  C   UNL A   1      48.340  26.290  33.974  1.00  0.00     0.000 A 
ENDBRANCH  40  53
ENDBRANCH  14  15
ENDBRANCH   7   9
ENDBRANCH   4   5
ENDBRANCH   3   4
ENDBRANCH   2   3
ENDBRANCH   1   2
BRANCH   1  59
ATOM     59  C   UNL A   1      33.751  29.907  26.985  1.00  0.00     0.021 C 
BRANCH  59  60
ATOM     60  C   UNL A   1      34.120  28.724  26.100  1.00  0.00     0.116 C 
BRANCH  60  61
ATOM     61  N   UNL A   1      34.075  29.085  24.699  1.00  0.00    -0.354 N 
ATOM     62  C   UNL A   1      33.132  28.844  23.749  1.00  0.00     0.244 C 
ATOM     63  H   UNL A   1      34.859  29.589  24.381  1.00  0.00     0.163 HD
ATOM     64  O   UNL A   1      33.310  29.342  22.636  1.00  0.00    -0.273 OA
BRANCH  62  65
ATOM     65  C   UNL A   1      31.852  28.060  24.067  1.00  0.00     0.197 C 
BRANCH  65  66
ATOM     66  N   UNL A   1      31.523  28.062  25.497  1.00  0.00    -0.340 N 
ATOM     67  C   UNL A   1      31.397  27.084  26.430  1.00  0.00     0.243 C 
ATOM     68  H   UNL A   1      31.360  28.964  25.856  1.00  0.00     0.164 HD
ATOM     69  O   UNL A   1      30.916  27.469  27.503  1.00  0.00    -0.273 OA
BRANCH  67  70
ATOM     70  C   UNL A   1      31.613  25.578  26.144  1.00  0.00     0.176 C 
BRANCH  70  71
ATOM     71  N   UNL A   1      30.754  24.610  26.832  1.00  0.00    -0.340 N 
ATOM     72  C   UNL A   1      30.705  23.244  26.890  1.00  0.00     0.251 C 
ATOM     73  H   UNL A   1      30.056  25.040  27.377  1.00  0.00     0.164 HD
ATOM     74  O   UNL A   1      29.658  22.754  27.318  1.00  0.00    -0.269 OA
BRANCH  72  75
ATOM     75  C   UNL A   1      31.814  22.313  26.512  1.00  0.00     0.040 A 
ATOM     76  C   UNL A   1      31.849  21.516  25.363  1.00  0.00     0.017 A 
ATOM     77  C   UNL A   1      32.969  22.356  27.318  1.00  0.00     0.017 A 
ATOM     78  C   UNL A   1      32.999  20.790  25.024  1.00  0.00     0.040 A 
ATOM     79  C   UNL A   1      34.119  21.635  26.980  1.00  0.00     0.040 A 
ATOM     80  C   UNL A   1      34.124  20.861  25.831  1.00  0.00     0.123 A 
ATOM     81  F   UNL A   1      35.232  20.197  25.480  1.00  0.00    -0.207 F 
ENDBRANCH  72  75
ENDBRANCH  70  71
BRANCH  70  82
ATOM     82  C   UNL A   1      31.609  25.317  24.625  1.00  0.00     0.072 C 
BRANCH  82  83
ATOM     83  C   UNL A   1      32.735  24.557  23.960  1.00  0.00    -0.020 A 
ATOM     84  C   UNL A   1      32.538  23.922  22.742  1.00  0.00     0.087 A 
ATOM     85  C   UNL A   1      34.104  24.285  24.333  1.00  0.00     0.003 A 
ATOM     86  N   UNL A   1      33.689  23.297  22.369  1.00  0.00    -0.361 N 
ATOM     87  C   UNL A   1      34.663  23.504  23.313  1.00  0.00     0.046 A 
ATOM     88  C   UNL A   1      34.951  24.603  25.421  1.00  0.00     0.010 A 
ATOM     89  H   UNL A   1      33.805  22.774  21.543  1.00  0.00     0.166 HD
ATOM     90  C   UNL A   1      35.988  23.046  23.324  1.00  0.00     0.026 A 
ATOM     91  C   UNL A   1      36.281  24.162  25.445  1.00  0.00     0.001 A 
ATOM     92  C   UNL A   1      36.791  23.392  24.408  1.00  0.00     0.002 A 
ENDBRANCH  82  83
ENDBRANCH  70  82
ENDBRANCH  67  70
ENDBRANCH  65  66
BRANCH  65  93
ATOM     93  C   UNL A   1      30.682  28.591  23.212  1.00  0.00     0.191 C 
BRANCH  93  94
ATOM     94  O   UNL A   1      30.776  28.162  21.855  1.00  0.00    -0.394 OA
ATOM     95  H   UNL A   1      31.561  28.558  21.445  1.00  0.00     0.210 HD
ENDBRANCH  93  94
ENDBRANCH  65  93
ENDBRANCH  62  65
ENDBRANCH  60  61
ENDBRANCH  59  60
ENDBRANCH   1  59
TORSDOF 21
ENDMDL
