MODEL 1
REMARK VINA RESULT:      -8.1      0.000      0.000
REMARK SMILES CCc1cccc(CC)c1NC(=O)C[C@@](C)(C(=O)NCCCCCCNC(=O)c1ccc(-c2c3nc(c(-c4ccccc4)c4ccc([nH]4)c(-c4ccccc4)c4nc(c(-c5ccccc5)c5ccc2[nH]5)C=C4)C=C3)cc1)c1ccccc1
REMARK SMILES IDX 21 1 20 2 19 3 17 4 18 5 15 7 16 8 14 9 12 10 11 11 13 13
REMARK SMILES IDX 10 14 3 15 4 16 5 17 7 18 6 19 2 20 1 21 8 22 9 23 77 24
REMARK SMILES IDX 78 25 82 26 79 27 81 28 80 29 22 30 23 31 24 32 25 33 26 34
REMARK SMILES IDX 27 35 28 37 29 38 30 39 76 40 31 41 75 42 32 43 33 44 34 45
REMARK SMILES IDX 69 46 35 47 74 48 68 49 70 50 36 51 73 52 67 53 66 54 37 56
REMARK SMILES IDX 59 57 44 58 58 59 45 60 48 61 57 62 71 63 46 64 47 65 56 67
REMARK SMILES IDX 72 68 49 69 38 70 39 71 43 72 40 73 42 74 41 75 60 76 61 77
REMARK SMILES IDX 65 78 62 79 64 80 63 81 50 82 51 83 55 84 52 85 54 86 53 87
REMARK H PARENT 19 6 11 12 26 36 70 55 48 66
REMARK Flexibility Score: inf
ROOT
ATOM      1  C   UNL A   1      38.825  30.585  28.722  1.00  0.00     0.021 C 
ENDROOT
BRANCH   1   2
ATOM      2  C   UNL A   1      39.202  29.513  27.694  1.00  0.00     0.116 C 
BRANCH   2   3
ATOM      3  N   UNL A   1      39.321  28.132  28.182  1.00  0.00    -0.355 N 
ATOM      4  C   UNL A   1      40.461  27.536  28.701  1.00  0.00     0.230 C 
ATOM      5  O   UNL A   1      40.383  27.318  29.918  1.00  0.00    -0.274 OA
ATOM      6  H   UNL A   1      38.511  27.574  28.136  1.00  0.00     0.163 HD
BRANCH   4   7
ATOM      7  C   UNL A   1      41.740  27.064  27.848  1.00  0.00     0.080 C 
ATOM      8  C   UNL A   1      42.918  28.074  28.004  1.00  0.00     0.027 C 
BRANCH   7   9
ATOM      9  C   UNL A   1      41.367  26.868  26.355  1.00  0.00     0.121 C 
BRANCH   9  10
ATOM     10  C   UNL A   1      42.390  27.193  25.294  1.00  0.00     0.225 C 
ATOM     11  N   UNL A   1      43.540  26.569  24.963  1.00  0.00    -0.326 N 
ATOM     12  H   UNL A   1      43.921  27.095  24.224  1.00  0.00     0.169 HD
ATOM     13  O   UNL A   1      42.210  28.237  24.641  1.00  0.00    -0.275 OA
BRANCH  11  14
ATOM     14  C   UNL A   1      44.461  25.503  25.184  1.00  0.00     0.047 A 
ATOM     15  C   UNL A   1      45.819  25.938  25.376  1.00  0.00    -0.024 A 
ATOM     16  C   UNL A   1      46.858  25.022  25.656  1.00  0.00     0.006 A 
ATOM     17  C   UNL A   1      46.614  23.669  25.737  1.00  0.00     0.001 A 
ATOM     18  C   UNL A   1      44.251  24.103  25.236  1.00  0.00    -0.024 A 
ATOM     19  C   UNL A   1      45.328  23.222  25.524  1.00  0.00     0.006 A 
BRANCH  15  20
ATOM     20  C   UNL A   1      46.294  27.378  25.209  1.00  0.00     0.034 C 
ATOM     21  C   UNL A   1      47.774  27.416  24.845  1.00  0.00     0.009 C 
ENDBRANCH  15  20
BRANCH  18  22
ATOM     22  C   UNL A   1      42.980  23.354  25.005  1.00  0.00     0.034 C 
ATOM     23  C   UNL A   1      42.992  21.887  25.448  1.00  0.00     0.009 C 
ENDBRANCH  18  22
ENDBRANCH  11  14
ENDBRANCH   9  10
ENDBRANCH   7   9
BRANCH   7  24
ATOM     24  C   UNL A   1      42.454  25.817  28.528  1.00  0.00    -0.032 A 
ATOM     25  C   UNL A   1      43.842  25.881  28.815  1.00  0.00     0.005 A 
ATOM     26  C   UNL A   1      41.884  24.529  28.501  1.00  0.00     0.005 A 
ATOM     27  C   UNL A   1      44.631  24.732  28.929  1.00  0.00     0.000 A 
ATOM     28  C   UNL A   1      42.678  23.378  28.616  1.00  0.00     0.000 A 
ATOM     29  C   UNL A   1      44.054  23.478  28.796  1.00  0.00     0.000 A 
ENDBRANCH   7  24
ENDBRANCH   4   7
ENDBRANCH   2   3
ENDBRANCH   1   2
BRANCH   1  30
ATOM     30  C   UNL A   1      37.322  30.866  28.873  1.00  0.00     0.002 C 
BRANCH  30  31
ATOM     31  C   UNL A   1      36.878  32.300  29.206  1.00  0.00     0.002 C 
BRANCH  31  32
ATOM     32  C   UNL A   1      35.911  32.504  30.377  1.00  0.00     0.021 C 
BRANCH  32  33
ATOM     33  C   UNL A   1      36.153  33.713  31.280  1.00  0.00     0.116 C 
BRANCH  33  34
ATOM     34  N   UNL A   1      35.931  33.444  32.692  1.00  0.00    -0.352 N 
ATOM     35  C   UNL A   1      36.693  32.744  33.591  1.00  0.00     0.251 C 
ATOM     36  H   UNL A   1      35.102  33.825  33.061  1.00  0.00     0.163 HD
ATOM     37  O   UNL A   1      36.267  32.578  34.743  1.00  0.00    -0.269 OA
BRANCH  35  38
ATOM     38  C   UNL A   1      37.999  32.155  33.217  1.00  0.00     0.039 A 
ATOM     39  C   UNL A   1      38.011  30.908  32.579  1.00  0.00     0.014 A 
ATOM     40  C   UNL A   1      39.208  32.785  33.522  1.00  0.00     0.014 A 
ATOM     41  C   UNL A   1      39.223  30.328  32.192  1.00  0.00     0.010 A 
ATOM     42  C   UNL A   1      40.414  32.234  33.082  1.00  0.00     0.010 A 
ATOM     43  C   UNL A   1      40.435  31.001  32.411  1.00  0.00    -0.014 A 
BRANCH  43  44
ATOM     44  C   UNL A   1      41.728  30.433  31.944  1.00  0.00     0.031 A 
ATOM     45  C   UNL A   1      42.462  31.059  30.788  1.00  0.00     0.074 A 
ATOM     46  C   UNL A   1      42.213  29.316  32.521  1.00  0.00     0.049 A 
ATOM     47  N   UNL A   1      43.565  30.666  30.200  1.00  0.00    -0.248 NA
ATOM     48  C   UNL A   1      41.869  32.272  30.202  1.00  0.00     0.031 C 
ATOM     49  C   UNL A   1      41.585  28.591  33.627  1.00  0.00     0.029 A 
ATOM     50  N   UNL A   1      43.346  28.589  32.249  1.00  0.00    -0.354 N 
ATOM     51  C   UNL A   1      43.785  31.568  29.167  1.00  0.00     0.074 A 
ATOM     52  C   UNL A   1      42.684  32.506  29.183  1.00  0.00     0.031 C 
ATOM     53  C   UNL A   1      42.349  27.534  33.950  1.00  0.00     0.029 A 
ATOM     54  C   UNL A   1      43.498  27.484  33.053  1.00  0.00     0.049 A 
ATOM     55  H   UNL A   1      43.988  28.835  31.545  1.00  0.00     0.167 HD
ATOM     56  C   UNL A   1      44.817  31.620  28.291  1.00  0.00     0.031 A 
ATOM     57  C   UNL A   1      44.452  26.533  33.063  1.00  0.00     0.031 A 
ATOM     58  C   UNL A   1      45.926  30.702  28.286  1.00  0.00     0.049 A 
ATOM     59  C   UNL A   1      45.585  26.615  32.078  1.00  0.00     0.074 A 
ATOM     60  C   UNL A   1      47.048  30.713  27.476  1.00  0.00     0.029 A 
ATOM     61  N   UNL A   1      46.049  29.610  29.129  1.00  0.00    -0.354 N 
ATOM     62  N   UNL A   1      45.811  27.515  31.152  1.00  0.00    -0.248 NA
ATOM     63  C   UNL A   1      46.600  25.553  32.147  1.00  0.00     0.031 C 
ATOM     64  C   UNL A   1      47.832  29.601  27.801  1.00  0.00     0.029 A 
ATOM     65  C   UNL A   1      47.220  28.927  28.845  1.00  0.00     0.049 A 
ATOM     66  H   UNL A   1      45.401  29.357  29.825  1.00  0.00     0.167 HD
ATOM     67  C   UNL A   1      47.008  27.145  30.551  1.00  0.00     0.074 A 
ATOM     68  C   UNL A   1      47.466  25.950  31.226  1.00  0.00     0.031 C 
ATOM     69  C   UNL A   1      47.667  27.744  29.531  1.00  0.00     0.031 A 
BRANCH  56  70
ATOM     70  C   UNL A   1      44.801  32.710  27.256  1.00  0.00    -0.014 A 
ATOM     71  C   UNL A   1      45.474  33.923  27.467  1.00  0.00     0.009 A 
ATOM     72  C   UNL A   1      44.154  32.496  26.028  1.00  0.00     0.009 A 
ATOM     73  C   UNL A   1      45.476  34.912  26.480  1.00  0.00     0.001 A 
ATOM     74  C   UNL A   1      44.180  33.476  25.034  1.00  0.00     0.001 A 
ATOM     75  C   UNL A   1      44.835  34.685  25.263  1.00  0.00     0.000 A 
ENDBRANCH  56  70
BRANCH  57  76
ATOM     76  C   UNL A   1      44.389  25.417  34.043  1.00  0.00    -0.014 A 
ATOM     77  C   UNL A   1      45.005  25.534  35.299  1.00  0.00     0.009 A 
ATOM     78  C   UNL A   1      43.738  24.216  33.718  1.00  0.00     0.009 A 
ATOM     79  C   UNL A   1      45.002  24.462  36.193  1.00  0.00     0.001 A 
ATOM     80  C   UNL A   1      43.710  23.156  34.627  1.00  0.00     0.001 A 
ATOM     81  C   UNL A   1      44.351  23.276  35.859  1.00  0.00     0.000 A 
ENDBRANCH  57  76
BRANCH  69  82
ATOM     82  C   UNL A   1      48.977  27.140  29.110  1.00  0.00    -0.014 A 
ATOM     83  C   UNL A   1      50.189  27.556  29.682  1.00  0.00     0.009 A 
ATOM     84  C   UNL A   1      48.990  26.111  28.156  1.00  0.00     0.009 A 
ATOM     85  C   UNL A   1      51.393  26.974  29.280  1.00  0.00     0.001 A 
ATOM     86  C   UNL A   1      50.192  25.513  27.776  1.00  0.00     0.001 A 
ATOM     87  C   UNL A   1      51.394  25.951  28.333  1.00  0.00     0.000 A 
ENDBRANCH  69  82
ENDBRANCH  43  44
ENDBRANCH  35  38
ENDBRANCH  33  34
ENDBRANCH  32  33
ENDBRANCH  31  32
ENDBRANCH  30  31
ENDBRANCH   1  30
TORSDOF 19
ENDMDL
MODEL 2
REMARK VINA RESULT:      -8.1      5.602      9.018
REMARK SMILES CCc1cccc(CC)c1NC(=O)C[C@@](C)(C(=O)NCCCCCCNC(=O)c1ccc(-c2c3nc(c(-c4ccccc4)c4ccc([nH]4)c(-c4ccccc4)c4nc(c(-c5ccccc5)c5ccc2[nH]5)C=C4)C=C3)cc1)c1ccccc1
REMARK SMILES IDX 21 1 20 2 19 3 17 4 18 5 15 7 16 8 14 9 12 10 11 11 13 13
REMARK SMILES IDX 10 14 3 15 4 16 5 17 7 18 6 19 2 20 1 21 8 22 9 23 77 24
REMARK SMILES IDX 78 25 82 26 79 27 81 28 80 29 22 30 23 31 24 32 25 33 26 34
REMARK SMILES IDX 27 35 28 37 29 38 30 39 76 40 31 41 75 42 32 43 33 44 34 45
REMARK SMILES IDX 69 46 35 47 74 48 68 49 70 50 36 51 73 52 67 53 66 54 37 56
REMARK SMILES IDX 59 57 44 58 58 59 45 60 48 61 57 62 71 63 46 64 47 65 56 67
REMARK SMILES IDX 72 68 49 69 38 70 39 71 43 72 40 73 42 74 41 75 60 76 61 77
REMARK SMILES IDX 65 78 62 79 64 80 63 81 50 82 51 83 55 84 52 85 54 86 53 87
REMARK H PARENT 19 6 11 12 26 36 70 55 48 66
REMARK Flexibility Score: inf
ROOT
ATOM      1  C   UNL A   1      31.473  28.738  26.982  1.00  0.00     0.021 C 
ENDROOT
BRANCH   1   2
ATOM      2  C   UNL A   1      32.090  27.337  26.918  1.00  0.00     0.116 C 
BRANCH   2   3
ATOM      3  N   UNL A   1      31.185  26.222  26.603  1.00  0.00    -0.355 N 
ATOM      4  C   UNL A   1      31.355  25.281  25.598  1.00  0.00     0.230 C 
ATOM      5  O   UNL A   1      31.617  24.150  26.032  1.00  0.00    -0.274 OA
ATOM      6  H   UNL A   1      30.378  26.135  27.160  1.00  0.00     0.163 HD
BRANCH   4   7
ATOM      7  C   UNL A   1      31.149  25.545  24.026  1.00  0.00     0.080 C 
ATOM      8  C   UNL A   1      29.961  24.701  23.469  1.00  0.00     0.027 C 
BRANCH   7   9
ATOM      9  C   UNL A   1      32.455  25.255  23.241  1.00  0.00     0.121 C 
BRANCH   9  10
ATOM     10  C   UNL A   1      33.771  25.260  23.978  1.00  0.00     0.225 C 
ATOM     11  N   UNL A   1      34.538  24.239  24.414  1.00  0.00    -0.326 N 
ATOM     12  H   UNL A   1      35.313  24.659  24.852  1.00  0.00     0.169 HD
ATOM     13  O   UNL A   1      34.223  26.371  24.314  1.00  0.00    -0.275 OA
BRANCH  11  14
ATOM     14  C   UNL A   1      34.750  22.833  24.537  1.00  0.00     0.047 A 
ATOM     15  C   UNL A   1      36.109  22.475  24.843  1.00  0.00    -0.024 A 
ATOM     16  C   UNL A   1      36.491  21.129  25.047  1.00  0.00     0.006 A 
ATOM     17  C   UNL A   1      35.578  20.103  24.943  1.00  0.00     0.001 A 
ATOM     18  C   UNL A   1      33.845  21.753  24.398  1.00  0.00    -0.024 A 
ATOM     19  C   UNL A   1      34.276  20.417  24.617  1.00  0.00     0.006 A 
BRANCH  15  20
ATOM     20  C   UNL A   1      37.272  23.460  24.884  1.00  0.00     0.034 C 
ATOM     21  C   UNL A   1      37.845  23.556  26.293  1.00  0.00     0.009 C 
ENDBRANCH  15  20
BRANCH  18  22
ATOM     22  C   UNL A   1      32.401  21.804  24.017  1.00  0.00     0.034 C 
ATOM     23  C   UNL A   1      32.108  21.604  22.527  1.00  0.00     0.009 C 
ENDBRANCH  18  22
ENDBRANCH  11  14
ENDBRANCH   9  10
ENDBRANCH   7   9
BRANCH   7  24
ATOM     24  C   UNL A   1      30.515  26.980  23.763  1.00  0.00    -0.032 A 
ATOM     25  C   UNL A   1      29.105  27.131  23.782  1.00  0.00     0.005 A 
ATOM     26  C   UNL A   1      31.243  28.009  23.134  1.00  0.00     0.005 A 
ATOM     27  C   UNL A   1      28.460  28.167  23.099  1.00  0.00     0.000 A 
ATOM     28  C   UNL A   1      30.594  29.047  22.450  1.00  0.00     0.000 A 
ATOM     29  C   UNL A   1      29.205  29.109  22.404  1.00  0.00     0.000 A 
ENDBRANCH   7  24
ENDBRANCH   4   7
ENDBRANCH   2   3
ENDBRANCH   1   2
BRANCH   1  30
ATOM     30  C   UNL A   1      32.078  29.777  26.024  1.00  0.00     0.002 C 
BRANCH  30  31
ATOM     31  C   UNL A   1      31.264  31.045  25.716  1.00  0.00     0.002 C 
BRANCH  31  32
ATOM     32  C   UNL A   1      31.285  32.185  26.739  1.00  0.00     0.021 C 
BRANCH  32  33
ATOM     33  C   UNL A   1      32.650  32.760  27.117  1.00  0.00     0.116 C 
BRANCH  33  34
ATOM     34  N   UNL A   1      32.587  34.096  27.686  1.00  0.00    -0.352 N 
ATOM     35  C   UNL A   1      33.379  34.695  28.631  1.00  0.00     0.251 C 
ATOM     36  H   UNL A   1      31.859  34.660  27.338  1.00  0.00     0.163 HD
ATOM     37  O   UNL A   1      33.091  35.834  29.025  1.00  0.00    -0.269 OA
BRANCH  35  38
ATOM     38  C   UNL A   1      34.552  34.008  29.216  1.00  0.00     0.039 A 
ATOM     39  C   UNL A   1      34.332  32.958  30.116  1.00  0.00     0.014 A 
ATOM     40  C   UNL A   1      35.860  34.407  28.930  1.00  0.00     0.014 A 
ATOM     41  C   UNL A   1      35.414  32.271  30.675  1.00  0.00     0.010 A 
ATOM     42  C   UNL A   1      36.940  33.683  29.442  1.00  0.00     0.010 A 
ATOM     43  C   UNL A   1      36.729  32.606  30.317  1.00  0.00    -0.014 A 
BRANCH  43  44
ATOM     44  C   UNL A   1      37.891  31.842  30.846  1.00  0.00     0.031 A 
ATOM     45  C   UNL A   1      38.450  32.151  32.209  1.00  0.00     0.074 A 
ATOM     46  C   UNL A   1      38.482  30.910  30.073  1.00  0.00     0.049 A 
ATOM     47  N   UNL A   1      39.496  31.638  32.808  1.00  0.00    -0.248 NA
ATOM     48  C   UNL A   1      37.757  33.186  32.993  1.00  0.00     0.031 C 
ATOM     49  C   UNL A   1      38.062  30.537  28.721  1.00  0.00     0.029 A 
ATOM     50  N   UNL A   1      39.574  30.111  30.313  1.00  0.00    -0.354 N 
ATOM     51  C   UNL A   1      39.597  32.300  34.025  1.00  0.00     0.074 A 
ATOM     52  C   UNL A   1      38.532  33.277  34.065  1.00  0.00     0.031 C 
ATOM     53  C   UNL A   1      38.874  29.570  28.259  1.00  0.00     0.029 A 
ATOM     54  C   UNL A   1      39.892  29.283  29.263  1.00  0.00     0.049 A 
ATOM     55  H   UNL A   1      40.080  30.130  31.157  1.00  0.00     0.167 HD
ATOM     56  C   UNL A   1      40.489  32.104  35.026  1.00  0.00     0.031 A 
ATOM     57  C   UNL A   1      40.896  28.396  29.121  1.00  0.00     0.031 A 
ATOM     58  C   UNL A   1      41.537  31.118  35.000  1.00  0.00     0.049 A 
ATOM     59  C   UNL A   1      41.873  28.200  30.248  1.00  0.00     0.074 A 
ATOM     60  C   UNL A   1      42.449  30.804  35.993  1.00  0.00     0.029 A 
ATOM     61  N   UNL A   1      41.812  30.288  33.925  1.00  0.00    -0.354 N 
ATOM     62  N   UNL A   1      41.911  28.788  31.419  1.00  0.00    -0.248 NA
ATOM     63  C   UNL A   1      42.939  27.210  30.036  1.00  0.00     0.031 C 
ATOM     64  C   UNL A   1      43.305  29.813  35.502  1.00  0.00     0.029 A 
ATOM     65  C   UNL A   1      42.894  29.476  34.223  1.00  0.00     0.049 A 
ATOM     66  H   UNL A   1      41.313  30.277  33.077  1.00  0.00     0.167 HD
ATOM     67  C   UNL A   1      42.984  28.218  32.092  1.00  0.00     0.074 A 
ATOM     68  C   UNL A   1      43.559  27.228  31.207  1.00  0.00     0.031 C 
ATOM     69  C   UNL A   1      43.449  28.490  33.335  1.00  0.00     0.031 A 
BRANCH  56  70
ATOM     70  C   UNL A   1      40.375  32.977  36.244  1.00  0.00    -0.014 A 
ATOM     71  C   UNL A   1      39.528  32.633  37.309  1.00  0.00     0.009 A 
ATOM     72  C   UNL A   1      41.172  34.128  36.355  1.00  0.00     0.009 A 
ATOM     73  C   UNL A   1      39.459  33.438  38.448  1.00  0.00     0.001 A 
ATOM     74  C   UNL A   1      41.120  34.917  37.506  1.00  0.00     0.001 A 
ATOM     75  C   UNL A   1      40.259  34.576  38.548  1.00  0.00     0.000 A 
ENDBRANCH  56  70
BRANCH  57  76
ATOM     76  C   UNL A   1      41.033  27.612  27.865  1.00  0.00    -0.014 A 
ATOM     77  C   UNL A   1      40.481  26.326  27.762  1.00  0.00     0.009 A 
ATOM     78  C   UNL A   1      41.743  28.134  26.771  1.00  0.00     0.009 A 
ATOM     79  C   UNL A   1      40.666  25.566  26.606  1.00  0.00     0.001 A 
ATOM     80  C   UNL A   1      41.900  27.382  25.605  1.00  0.00     0.001 A 
ATOM     81  C   UNL A   1      41.372  26.095  25.528  1.00  0.00     0.000 A 
ENDBRANCH  57  76
BRANCH  69  82
ATOM     82  C   UNL A   1      44.614  27.678  33.826  1.00  0.00    -0.014 A 
ATOM     83  C   UNL A   1      44.422  26.458  34.492  1.00  0.00     0.009 A 
ATOM     84  C   UNL A   1      45.922  28.123  33.581  1.00  0.00     0.009 A 
ATOM     85  C   UNL A   1      45.520  25.716  34.932  1.00  0.00     0.001 A 
ATOM     86  C   UNL A   1      47.018  27.366  33.998  1.00  0.00     0.001 A 
ATOM     87  C   UNL A   1      46.815  26.167  34.681  1.00  0.00     0.000 A 
ENDBRANCH  69  82
ENDBRANCH  43  44
ENDBRANCH  35  38
ENDBRANCH  33  34
ENDBRANCH  32  33
ENDBRANCH  31  32
ENDBRANCH  30  31
ENDBRANCH   1  30
TORSDOF 19
ENDMDL
MODEL 3
REMARK VINA RESULT:      -8.0      5.734      9.109
REMARK SMILES CCc1cccc(CC)c1NC(=O)C[C@@](C)(C(=O)NCCCCCCNC(=O)c1ccc(-c2c3nc(c(-c4ccccc4)c4ccc([nH]4)c(-c4ccccc4)c4nc(c(-c5ccccc5)c5ccc2[nH]5)C=C4)C=C3)cc1)c1ccccc1
REMARK SMILES IDX 21 1 20 2 19 3 17 4 18 5 15 7 16 8 14 9 12 10 11 11 13 13
REMARK SMILES IDX 10 14 3 15 4 16 5 17 7 18 6 19 2 20 1 21 8 22 9 23 77 24
REMARK SMILES IDX 78 25 82 26 79 27 81 28 80 29 22 30 23 31 24 32 25 33 26 34
REMARK SMILES IDX 27 35 28 37 29 38 30 39 76 40 31 41 75 42 32 43 33 44 34 45
REMARK SMILES IDX 69 46 35 47 74 48 68 49 70 50 36 51 73 52 67 53 66 54 37 56
REMARK SMILES IDX 59 57 44 58 58 59 45 60 48 61 57 62 71 63 46 64 47 65 56 67
REMARK SMILES IDX 72 68 49 69 38 70 39 71 43 72 40 73 42 74 41 75 60 76 61 77
REMARK SMILES IDX 65 78 62 79 64 80 63 81 50 82 51 83 55 84 52 85 54 86 53 87
REMARK H PARENT 19 6 11 12 26 36 70 55 48 66
REMARK Flexibility Score: inf
ROOT
ATOM      1  C   UNL A   1      31.456  28.721  26.984  1.00  0.00     0.021 C 
ENDROOT
BRANCH   1   2
ATOM      2  C   UNL A   1      32.086  27.325  26.938  1.00  0.00     0.116 C 
BRANCH   2   3
ATOM      3  N   UNL A   1      31.196  26.201  26.613  1.00  0.00    -0.355 N 
ATOM      4  C   UNL A   1      31.381  25.268  25.603  1.00  0.00     0.230 C 
ATOM      5  O   UNL A   1      31.655  24.137  26.031  1.00  0.00    -0.274 OA
ATOM      6  H   UNL A   1      30.388  26.100  27.167  1.00  0.00     0.163 HD
BRANCH   4   7
ATOM      7  C   UNL A   1      31.177  25.539  24.032  1.00  0.00     0.080 C 
ATOM      8  C   UNL A   1      29.998  24.686  23.467  1.00  0.00     0.027 C 
BRANCH   7   9
ATOM      9  C   UNL A   1      32.487  25.266  23.249  1.00  0.00     0.121 C 
BRANCH   9  10
ATOM     10  C   UNL A   1      33.803  25.289  23.988  1.00  0.00     0.225 C 
ATOM     11  N   UNL A   1      34.582  24.278  24.427  1.00  0.00    -0.326 N 
ATOM     12  H   UNL A   1      35.350  24.709  24.866  1.00  0.00     0.169 HD
ATOM     13  O   UNL A   1      34.240  26.406  24.321  1.00  0.00    -0.275 OA
BRANCH  11  14
ATOM     14  C   UNL A   1      34.810  22.876  24.554  1.00  0.00     0.047 A 
ATOM     15  C   UNL A   1      36.177  22.534  24.845  1.00  0.00    -0.024 A 
ATOM     16  C   UNL A   1      36.577  21.193  25.051  1.00  0.00     0.006 A 
ATOM     17  C   UNL A   1      35.674  20.157  24.962  1.00  0.00     0.001 A 
ATOM     18  C   UNL A   1      33.915  21.784  24.431  1.00  0.00    -0.024 A 
ATOM     19  C   UNL A   1      34.365  20.455  24.651  1.00  0.00     0.006 A 
BRANCH  15  20
ATOM     20  C   UNL A   1      37.329  23.532  24.867  1.00  0.00     0.034 C 
ATOM     21  C   UNL A   1      37.939  23.616  26.261  1.00  0.00     0.009 C 
ENDBRANCH  15  20
BRANCH  18  22
ATOM     22  C   UNL A   1      32.467  21.818  24.068  1.00  0.00     0.034 C 
ATOM     23  C   UNL A   1      32.159  21.631  22.578  1.00  0.00     0.009 C 
ENDBRANCH  18  22
ENDBRANCH  11  14
ENDBRANCH   9  10
ENDBRANCH   7   9
BRANCH   7  24
ATOM     24  C   UNL A   1      30.530  26.969  23.775  1.00  0.00    -0.032 A 
ATOM     25  C   UNL A   1      29.119  27.108  23.798  1.00  0.00     0.005 A 
ATOM     26  C   UNL A   1      31.247  28.006  23.149  1.00  0.00     0.005 A 
ATOM     27  C   UNL A   1      28.463  28.140  23.120  1.00  0.00     0.000 A 
ATOM     28  C   UNL A   1      30.587  29.041  22.469  1.00  0.00     0.000 A 
ATOM     29  C   UNL A   1      29.197  29.090  22.426  1.00  0.00     0.000 A 
ENDBRANCH   7  24
ENDBRANCH   4   7
ENDBRANCH   2   3
ENDBRANCH   1   2
BRANCH   1  30
ATOM     30  C   UNL A   1      32.091  29.770  26.056  1.00  0.00     0.002 C 
BRANCH  30  31
ATOM     31  C   UNL A   1      31.276  31.028  25.714  1.00  0.00     0.002 C 
BRANCH  31  32
ATOM     32  C   UNL A   1      31.227  32.161  26.745  1.00  0.00     0.021 C 
BRANCH  32  33
ATOM     33  C   UNL A   1      32.556  32.803  27.142  1.00  0.00     0.116 C 
BRANCH  33  34
ATOM     34  N   UNL A   1      32.422  34.150  27.671  1.00  0.00    -0.352 N 
ATOM     35  C   UNL A   1      33.157  34.805  28.624  1.00  0.00     0.251 C 
ATOM     36  H   UNL A   1      31.686  34.676  27.283  1.00  0.00     0.163 HD
ATOM     37  O   UNL A   1      32.812  35.942  28.977  1.00  0.00    -0.269 OA
BRANCH  35  38
ATOM     38  C   UNL A   1      34.334  34.181  29.268  1.00  0.00     0.039 A 
ATOM     39  C   UNL A   1      35.608  34.485  28.772  1.00  0.00     0.014 A 
ATOM     40  C   UNL A   1      34.205  33.271  30.321  1.00  0.00     0.014 A 
ATOM     41  C   UNL A   1      36.746  33.931  29.367  1.00  0.00     0.010 A 
ATOM     42  C   UNL A   1      35.344  32.766  30.953  1.00  0.00     0.010 A 
ATOM     43  C   UNL A   1      36.626  33.092  30.484  1.00  0.00    -0.014 A 
BRANCH  43  44
ATOM     44  C   UNL A   1      37.827  32.549  31.174  1.00  0.00     0.031 A 
ATOM     45  C   UNL A   1      38.571  31.374  30.599  1.00  0.00     0.074 A 
ATOM     46  C   UNL A   1      38.214  33.078  32.352  1.00  0.00     0.049 A 
ATOM     47  N   UNL A   1      39.596  30.724  31.093  1.00  0.00    -0.248 NA
ATOM     48  C   UNL A   1      38.087  30.845  29.314  1.00  0.00     0.031 C 
ATOM     49  C   UNL A   1      37.562  34.196  33.036  1.00  0.00     0.029 A 
ATOM     50  N   UNL A   1      39.248  32.735  33.190  1.00  0.00    -0.354 N 
ATOM     51  C   UNL A   1      39.866  29.702  30.191  1.00  0.00     0.074 A 
ATOM     52  C   UNL A   1      38.875  29.793  29.141  1.00  0.00     0.031 C 
ATOM     53  C   UNL A   1      38.221  34.459  34.177  1.00  0.00     0.029 A 
ATOM     54  C   UNL A   1      39.316  33.506  34.326  1.00  0.00     0.049 A 
ATOM     55  H   UNL A   1      39.880  32.005  32.995  1.00  0.00     0.167 HD
ATOM     56  C   UNL A   1      40.856  28.778  30.227  1.00  0.00     0.031 A 
ATOM     57  C   UNL A   1      40.160  33.448  35.373  1.00  0.00     0.031 A 
ATOM     58  C   UNL A   1      41.857  28.699  31.258  1.00  0.00     0.049 A 
ATOM     59  C   UNL A   1      41.249  32.411  35.387  1.00  0.00     0.074 A 
ATOM     60  C   UNL A   1      42.936  27.836  31.345  1.00  0.00     0.029 A 
ATOM     61  N   UNL A   1      41.900  29.510  32.380  1.00  0.00    -0.354 N 
ATOM     62  N   UNL A   1      41.529  31.496  34.492  1.00  0.00    -0.248 NA
ATOM     63  C   UNL A   1      42.145  32.407  36.553  1.00  0.00     0.031 C 
ATOM     64  C   UNL A   1      43.608  28.097  32.543  1.00  0.00     0.029 A 
ATOM     65  C   UNL A   1      42.975  29.155  33.176  1.00  0.00     0.049 A 
ATOM     66  H   UNL A   1      41.261  30.232  32.580  1.00  0.00     0.167 HD
ATOM     67  C   UNL A   1      42.649  30.829  34.971  1.00  0.00     0.074 A 
ATOM     68  C   UNL A   1      43.006  31.454  36.227  1.00  0.00     0.031 C 
ATOM     69  C   UNL A   1      43.322  29.792  34.418  1.00  0.00     0.031 A 
BRANCH  56  70
ATOM     70  C   UNL A   1      40.910  27.769  29.113  1.00  0.00    -0.014 A 
ATOM     71  C   UNL A   1      41.753  27.954  28.006  1.00  0.00     0.009 A 
ATOM     72  C   UNL A   1      40.155  26.590  29.203  1.00  0.00     0.009 A 
ATOM     73  C   UNL A   1      41.816  26.990  26.997  1.00  0.00     0.001 A 
ATOM     74  C   UNL A   1      40.239  25.616  28.206  1.00  0.00     0.001 A 
ATOM     75  C   UNL A   1      41.064  25.820  27.101  1.00  0.00     0.000 A 
ENDBRANCH  56  70
BRANCH  57  76
ATOM     76  C   UNL A   1      40.022  34.405  36.503  1.00  0.00    -0.014 A 
ATOM     77  C   UNL A   1      40.725  35.619  36.500  1.00  0.00     0.009 A 
ATOM     78  C   UNL A   1      39.208  34.097  37.605  1.00  0.00     0.009 A 
ATOM     79  C   UNL A   1      40.645  36.488  37.590  1.00  0.00     0.001 A 
ATOM     80  C   UNL A   1      39.107  34.981  38.681  1.00  0.00     0.001 A 
ATOM     81  C   UNL A   1      39.834  36.171  38.677  1.00  0.00     0.000 A 
ENDBRANCH  57  76
BRANCH  69  82
ATOM     82  C   UNL A   1      44.538  29.294  35.148  1.00  0.00    -0.014 A 
ATOM     83  C   UNL A   1      45.808  29.839  34.906  1.00  0.00     0.009 A 
ATOM     84  C   UNL A   1      44.400  28.292  36.121  1.00  0.00     0.009 A 
ATOM     85  C   UNL A   1      46.922  29.366  35.601  1.00  0.00     0.001 A 
ATOM     86  C   UNL A   1      45.511  27.840  36.835  1.00  0.00     0.001 A 
ATOM     87  C   UNL A   1      46.772  28.372  36.568  1.00  0.00     0.000 A 
ENDBRANCH  69  82
ENDBRANCH  43  44
ENDBRANCH  35  38
ENDBRANCH  33  34
ENDBRANCH  32  33
ENDBRANCH  31  32
ENDBRANCH  30  31
ENDBRANCH   1  30
TORSDOF 19
ENDMDL
