MODEL 1
REMARK VINA RESULT:      -9.7      0.000      0.000
REMARK SMILES CO[C@@H]1C[C@@H](C(=O)NCCCCCCNC(=O)c2ccc(-c3c4nc(c(-c5ccccc5)c5ccc([nH]5)c(-c5ccccc5)c5nc(c(-c6ccccc6)c6ccc3[nH]6)C=C5)C=C4)cc2)N(C(=O)CSc2cccs2)C1
REMARK SMILES IDX 10 1 9 2 8 3 6 4 7 5 5 7 3 8 4 9 76 10 66 11 2 12 1 13 67 14
REMARK SMILES IDX 68 15 69 16 70 17 71 18 72 19 75 20 73 21 74 22 11 23 12 24
REMARK SMILES IDX 13 25 14 26 15 27 16 28 17 30 18 31 19 32 65 33 20 34 64 35
REMARK SMILES IDX 21 36 22 37 23 38 58 39 24 40 63 41 57 42 59 43 25 44 62 45
REMARK SMILES IDX 56 46 55 47 26 49 48 50 33 51 47 52 34 53 37 54 46 55 60 56
REMARK SMILES IDX 35 57 36 58 45 60 61 61 38 62 27 63 28 64 32 65 29 66 31 67
REMARK SMILES IDX 30 68 49 69 50 70 54 71 51 72 53 73 52 74 39 75 40 76 44 77
REMARK SMILES IDX 41 78 43 79 42 80
REMARK H PARENT 8 6 15 29 59 48 37 59
REMARK Flexibility Score: inf
ROOT
ATOM      1  C   UNL A   1      34.009  28.924  27.010  1.00  0.00     0.021 C 
ENDROOT
BRANCH   1   2
ATOM      2  C   UNL A   1      33.334  28.292  25.791  1.00  0.00     0.116 C 
BRANCH   2   3
ATOM      3  N   UNL A   1      34.074  28.569  24.575  1.00  0.00    -0.354 N 
ATOM      4  C   UNL A   1      33.760  28.459  23.256  1.00  0.00     0.242 C 
ATOM      5  O   UNL A   1      34.645  28.794  22.460  1.00  0.00    -0.273 OA
ATOM      6  H   UNL A   1      34.985  28.904  24.735  1.00  0.00     0.163 HD
BRANCH   4   7
ATOM      7  C   UNL A   1      32.349  28.125  22.729  1.00  0.00     0.177 C 
ATOM      8  C   UNL A   1      30.028  28.325  23.357  1.00  0.00     0.139 C 
ATOM      9  C   UNL A   1      31.365  29.043  23.473  1.00  0.00     0.069 C 
ATOM     10  C   UNL A   1      30.437  26.854  23.464  1.00  0.00     0.152 C 
ATOM     11  N   UNL A   1      31.778  26.784  22.888  1.00  0.00    -0.327 N 
BRANCH   8  12
ATOM     12  O   UNL A   1      29.469  28.648  22.081  1.00  0.00    -0.380 OA
ATOM     13  C   UNL A   1      29.491  30.042  21.799  1.00  0.00     0.195 C 
ENDBRANCH   8  12
BRANCH  11  14
ATOM     14  C   UNL A   1      32.216  25.608  22.313  1.00  0.00     0.233 C 
ATOM     15  O   UNL A   1      32.286  25.493  21.085  1.00  0.00    -0.274 OA
BRANCH  14  16
ATOM     16  C   UNL A   1      32.538  24.426  23.213  1.00  0.00     0.175 C 
BRANCH  16  17
ATOM     17  S   UNL A   1      33.877  24.816  24.365  1.00  0.00    -0.105 SA
BRANCH  17  18
ATOM     18  C   UNL A   1      33.869  23.358  25.336  1.00  0.00     0.060 A 
ATOM     19  C   UNL A   1      34.514  23.184  26.543  1.00  0.00     0.027 A 
ATOM     20  S   UNL A   1      33.034  21.953  24.847  1.00  0.00    -0.137 S 
ATOM     21  C   UNL A   1      34.293  21.884  27.084  1.00  0.00     0.013 A 
ATOM     22  C   UNL A   1      33.497  21.115  26.264  1.00  0.00     0.066 A 
ENDBRANCH  17  18
ENDBRANCH  16  17
ENDBRANCH  14  16
ENDBRANCH  11  14
ENDBRANCH   4   7
ENDBRANCH   2   3
ENDBRANCH   1   2
BRANCH   1  23
ATOM     23  C   UNL A   1      33.313  30.184  27.542  1.00  0.00     0.002 C 
BRANCH  23  24
ATOM     24  C   UNL A   1      31.932  30.465  26.944  1.00  0.00     0.002 C 
BRANCH  24  25
ATOM     25  C   UNL A   1      31.499  31.933  26.956  1.00  0.00     0.021 C 
BRANCH  25  26
ATOM     26  C   UNL A   1      32.635  32.948  26.853  1.00  0.00     0.116 C 
BRANCH  26  27
ATOM     27  N   UNL A   1      32.414  34.111  27.694  1.00  0.00    -0.352 N 
ATOM     28  C   UNL A   1      33.113  34.538  28.792  1.00  0.00     0.251 C 
ATOM     29  H   UNL A   1      31.650  34.676  27.437  1.00  0.00     0.163 HD
ATOM     30  O   UNL A   1      32.667  35.450  29.489  1.00  0.00    -0.269 OA
BRANCH  28  31
ATOM     31  C   UNL A   1      34.395  33.900  29.157  1.00  0.00     0.039 A 
ATOM     32  C   UNL A   1      35.550  34.271  28.461  1.00  0.00     0.014 A 
ATOM     33  C   UNL A   1      34.459  32.915  30.148  1.00  0.00     0.014 A 
ATOM     34  C   UNL A   1      36.773  33.683  28.786  1.00  0.00     0.010 A 
ATOM     35  C   UNL A   1      35.691  32.376  30.514  1.00  0.00     0.010 A 
ATOM     36  C   UNL A   1      36.856  32.743  29.827  1.00  0.00    -0.014 A 
BRANCH  36  37
ATOM     37  C   UNL A   1      38.159  32.127  30.183  1.00  0.00     0.031 A 
ATOM     38  C   UNL A   1      39.087  32.813  31.147  1.00  0.00     0.074 A 
ATOM     39  C   UNL A   1      38.518  30.956  29.621  1.00  0.00     0.049 A 
ATOM     40  N   UNL A   1      40.251  32.417  31.596  1.00  0.00    -0.248 NA
ATOM     41  C   UNL A   1      38.662  34.127  31.659  1.00  0.00     0.031 C 
ATOM     42  C   UNL A   1      37.729  30.211  28.638  1.00  0.00     0.029 A 
ATOM     43  N   UNL A   1      39.640  30.187  29.801  1.00  0.00    -0.354 N 
ATOM     44  C   UNL A   1      40.700  33.433  32.429  1.00  0.00     0.074 A 
ATOM     45  C   UNL A   1      39.709  34.486  32.386  1.00  0.00     0.031 C 
ATOM     46  C   UNL A   1      38.376  29.074  28.329  1.00  0.00     0.029 A 
ATOM     47  C   UNL A   1      39.632  29.024  29.070  1.00  0.00     0.049 A 
ATOM     48  H   UNL A   1      40.380  30.444  30.398  1.00  0.00     0.167 HD
ATOM     49  C   UNL A   1      41.827  33.481  33.181  1.00  0.00     0.031 A 
ATOM     50  C   UNL A   1      40.531  28.025  29.011  1.00  0.00     0.031 A 
ATOM     51  C   UNL A   1      42.810  32.431  33.236  1.00  0.00     0.049 A 
ATOM     52  C   UNL A   1      41.764  28.091  29.867  1.00  0.00     0.074 A 
ATOM     53  C   UNL A   1      43.959  32.363  34.004  1.00  0.00     0.029 A 
ATOM     54  N   UNL A   1      42.756  31.264  32.490  1.00  0.00    -0.354 N 
ATOM     55  N   UNL A   1      42.139  29.028  30.703  1.00  0.00    -0.248 NA
ATOM     56  C   UNL A   1      42.687  26.950  29.784  1.00  0.00     0.031 C 
ATOM     57  C   UNL A   1      44.621  31.171  33.695  1.00  0.00     0.029 A 
ATOM     58  C   UNL A   1      43.859  30.475  32.771  1.00  0.00     0.049 A 
ATOM     59  H   UNL A   1      42.040  31.030  31.857  1.00  0.00     0.167 HD
ATOM     60  C   UNL A   1      43.325  28.577  31.268  1.00  0.00     0.074 A 
ATOM     61  C   UNL A   1      43.598  27.277  30.690  1.00  0.00     0.031 C 
ATOM     62  C   UNL A   1      44.115  29.184  32.187  1.00  0.00     0.031 A 
BRANCH  49  63
ATOM     63  C   UNL A   1      42.055  34.717  34.005  1.00  0.00    -0.014 A 
ATOM     64  C   UNL A   1      41.586  34.805  35.326  1.00  0.00     0.009 A 
ATOM     65  C   UNL A   1      42.771  35.796  33.466  1.00  0.00     0.009 A 
ATOM     66  C   UNL A   1      41.796  35.964  36.076  1.00  0.00     0.001 A 
ATOM     67  C   UNL A   1      43.005  36.942  34.228  1.00  0.00     0.001 A 
ATOM     68  C   UNL A   1      42.509  37.029  35.528  1.00  0.00     0.000 A 
ENDBRANCH  49  63
BRANCH  50  69
ATOM     69  C   UNL A   1      40.277  26.849  28.139  1.00  0.00    -0.014 A 
ATOM     70  C   UNL A   1      40.781  26.812  26.830  1.00  0.00     0.009 A 
ATOM     71  C   UNL A   1      39.528  25.760  28.610  1.00  0.00     0.009 A 
ATOM     72  C   UNL A   1      40.519  25.720  26.001  1.00  0.00     0.001 A 
ATOM     73  C   UNL A   1      39.290  24.657  27.787  1.00  0.00     0.001 A 
ATOM     74  C   UNL A   1      39.777  24.642  26.481  1.00  0.00     0.000 A 
ENDBRANCH  50  69
BRANCH  62  75
ATOM     75  C   UNL A   1      45.329  28.429  32.650  1.00  0.00    -0.014 A 
ATOM     76  C   UNL A   1      46.571  28.584  32.016  1.00  0.00     0.009 A 
ATOM     77  C   UNL A   1      45.229  27.569  33.754  1.00  0.00     0.009 A 
ATOM     78  C   UNL A   1      47.681  27.861  32.456  1.00  0.00     0.001 A 
ATOM     79  C   UNL A   1      46.347  26.869  34.210  1.00  0.00     0.001 A 
ATOM     80  C   UNL A   1      47.570  27.009  33.555  1.00  0.00     0.000 A 
ENDBRANCH  62  75
ENDBRANCH  36  37
ENDBRANCH  28  31
ENDBRANCH  26  27
ENDBRANCH  25  26
ENDBRANCH  24  25
ENDBRANCH  23  24
ENDBRANCH   1  23
TORSDOF 18
ENDMDL
MODEL 2
REMARK VINA RESULT:      -9.6      5.319     10.153
REMARK SMILES CO[C@@H]1C[C@@H](C(=O)NCCCCCCNC(=O)c2ccc(-c3c4nc(c(-c5ccccc5)c5ccc([nH]5)c(-c5ccccc5)c5nc(c(-c6ccccc6)c6ccc3[nH]6)C=C5)C=C4)cc2)N(C(=O)CSc2cccs2)C1
REMARK SMILES IDX 10 1 9 2 8 3 6 4 7 5 5 7 3 8 4 9 76 10 66 11 2 12 1 13 67 14
REMARK SMILES IDX 68 15 69 16 70 17 71 18 72 19 75 20 73 21 74 22 11 23 12 24
REMARK SMILES IDX 13 25 14 26 15 27 16 28 17 30 18 31 19 32 65 33 20 34 64 35
REMARK SMILES IDX 21 36 22 37 23 38 58 39 24 40 63 41 57 42 59 43 25 44 62 45
REMARK SMILES IDX 56 46 55 47 26 49 48 50 33 51 47 52 34 53 37 54 46 55 60 56
REMARK SMILES IDX 35 57 36 58 45 60 61 61 38 62 27 63 28 64 32 65 29 66 31 67
REMARK SMILES IDX 30 68 49 69 50 70 54 71 51 72 53 73 52 74 39 75 40 76 44 77
REMARK SMILES IDX 41 78 43 79 42 80
REMARK H PARENT 8 6 15 29 59 48 37 59
REMARK Flexibility Score: inf
ROOT
ATOM      1  C   UNL A   1      39.811  23.024  27.007  1.00  0.00     0.021 C 
ENDROOT
BRANCH   1   2
ATOM      2  C   UNL A   1      38.528  22.916  26.179  1.00  0.00     0.116 C 
BRANCH   2   3
ATOM      3  N   UNL A   1      38.313  21.560  25.713  1.00  0.00    -0.354 N 
ATOM      4  C   UNL A   1      37.276  20.956  25.072  1.00  0.00     0.242 C 
ATOM      5  O   UNL A   1      37.428  19.757  24.810  1.00  0.00    -0.273 OA
ATOM      6  H   UNL A   1      39.068  20.956  25.896  1.00  0.00     0.163 HD
BRANCH   4   7
ATOM      7  C   UNL A   1      36.049  21.707  24.516  1.00  0.00     0.177 C 
ATOM      8  C   UNL A   1      35.475  23.754  23.374  1.00  0.00     0.139 C 
ATOM      9  C   UNL A   1      36.572  22.703  23.467  1.00  0.00     0.069 C 
ATOM     10  C   UNL A   1      34.993  23.852  24.824  1.00  0.00     0.152 C 
ATOM     11  N   UNL A   1      35.197  22.521  25.389  1.00  0.00    -0.327 N 
BRANCH   8  12
ATOM     12  O   UNL A   1      34.465  23.254  22.494  1.00  0.00    -0.380 OA
ATOM     13  C   UNL A   1      33.182  23.816  22.740  1.00  0.00     0.195 C 
ENDBRANCH   8  12
BRANCH  11  14
ATOM     14  C   UNL A   1      34.398  22.087  26.427  1.00  0.00     0.233 C 
ATOM     15  O   UNL A   1      34.312  22.736  27.474  1.00  0.00    -0.274 OA
BRANCH  14  16
ATOM     16  C   UNL A   1      33.681  20.753  26.292  1.00  0.00     0.175 C 
BRANCH  16  17
ATOM     17  S   UNL A   1      32.392  20.818  25.025  1.00  0.00    -0.105 SA
BRANCH  17  18
ATOM     18  C   UNL A   1      32.790  19.372  24.119  1.00  0.00     0.060 A 
ATOM     19  C   UNL A   1      32.162  18.935  22.972  1.00  0.00     0.027 A 
ATOM     20  S   UNL A   1      34.040  18.318  24.607  1.00  0.00    -0.137 S 
ATOM     21  C   UNL A   1      32.739  17.730  22.473  1.00  0.00     0.013 A 
ATOM     22  C   UNL A   1      33.777  17.292  23.265  1.00  0.00     0.066 A 
ENDBRANCH  17  18
ENDBRANCH  16  17
ENDBRANCH  14  16
ENDBRANCH  11  14
ENDBRANCH   4   7
ENDBRANCH   2   3
ENDBRANCH   1   2
BRANCH   1  23
ATOM     23  C   UNL A   1      41.033  22.340  26.379  1.00  0.00     0.002 C 
BRANCH  23  24
ATOM     24  C   UNL A   1      41.435  21.011  27.023  1.00  0.00     0.002 C 
BRANCH  24  25
ATOM     25  C   UNL A   1      41.700  19.863  26.045  1.00  0.00     0.021 C 
BRANCH  25  26
ATOM     26  C   UNL A   1      43.018  19.120  26.256  1.00  0.00     0.116 C 
BRANCH  26  27
ATOM     27  N   UNL A   1      43.766  18.965  25.021  1.00  0.00    -0.352 N 
ATOM     28  C   UNL A   1      44.413  19.911  24.269  1.00  0.00     0.251 C 
ATOM     29  H   UNL A   1      43.818  18.045  24.674  1.00  0.00     0.163 HD
ATOM     30  O   UNL A   1      44.841  19.621  23.152  1.00  0.00    -0.269 OA
BRANCH  28  31
ATOM     31  C   UNL A   1      44.585  21.285  24.784  1.00  0.00     0.039 A 
ATOM     32  C   UNL A   1      45.276  21.469  25.985  1.00  0.00     0.014 A 
ATOM     33  C   UNL A   1      44.039  22.385  24.114  1.00  0.00     0.014 A 
ATOM     34  C   UNL A   1      45.452  22.756  26.494  1.00  0.00     0.010 A 
ATOM     35  C   UNL A   1      44.271  23.674  24.589  1.00  0.00     0.010 A 
ATOM     36  C   UNL A   1      44.966  23.871  25.790  1.00  0.00    -0.014 A 
BRANCH  36  37
ATOM     37  C   UNL A   1      45.165  25.243  26.321  1.00  0.00     0.031 A 
ATOM     38  C   UNL A   1      46.517  25.897  26.250  1.00  0.00     0.074 A 
ATOM     39  C   UNL A   1      44.131  25.894  26.889  1.00  0.00     0.049 A 
ATOM     40  N   UNL A   1      46.876  27.095  26.639  1.00  0.00    -0.248 NA
ATOM     41  C   UNL A   1      47.617  25.095  25.689  1.00  0.00     0.031 C 
ATOM     42  C   UNL A   1      42.781  25.353  27.060  1.00  0.00     0.029 A 
ATOM     43  N   UNL A   1      44.056  27.155  27.424  1.00  0.00    -0.354 N 
ATOM     44  C   UNL A   1      48.237  27.185  26.381  1.00  0.00     0.074 A 
ATOM     45  C   UNL A   1      48.652  25.905  25.849  1.00  0.00     0.031 C 
ATOM     46  C   UNL A   1      42.003  26.291  27.627  1.00  0.00     0.029 A 
ATOM     47  C   UNL A   1      42.804  27.484  27.881  1.00  0.00     0.049 A 
ATOM     48  H   UNL A   1      44.827  27.766  27.475  1.00  0.00     0.167 HD
ATOM     49  C   UNL A   1      49.067  28.242  26.551  1.00  0.00     0.031 A 
ATOM     50  C   UNL A   1      42.349  28.623  28.434  1.00  0.00     0.031 A 
ATOM     51  C   UNL A   1      48.656  29.520  27.068  1.00  0.00     0.049 A 
ATOM     52  C   UNL A   1      43.283  29.789  28.596  1.00  0.00     0.074 A 
ATOM     53  C   UNL A   1      49.410  30.669  27.230  1.00  0.00     0.029 A 
ATOM     54  N   UNL A   1      47.375  29.816  27.506  1.00  0.00    -0.354 N 
ATOM     55  N   UNL A   1      44.552  29.879  28.281  1.00  0.00    -0.248 NA
ATOM     56  C   UNL A   1      42.714  31.016  29.171  1.00  0.00     0.031 C 
ATOM     57  C   UNL A   1      48.594  31.650  27.803  1.00  0.00     0.029 A 
ATOM     58  C   UNL A   1      47.320  31.127  27.951  1.00  0.00     0.049 A 
ATOM     59  H   UNL A   1      46.616  29.189  27.500  1.00  0.00     0.167 HD
ATOM     60  C   UNL A   1      44.926  31.181  28.591  1.00  0.00     0.074 A 
ATOM     61  C   UNL A   1      43.746  31.845  29.105  1.00  0.00     0.031 C 
ATOM     62  C   UNL A   1      46.138  31.773  28.459  1.00  0.00     0.031 A 
BRANCH  49  63
ATOM     63  C   UNL A   1      50.510  28.055  26.172  1.00  0.00    -0.014 A 
ATOM     64  C   UNL A   1      51.455  27.612  27.112  1.00  0.00     0.009 A 
ATOM     65  C   UNL A   1      50.926  28.296  24.854  1.00  0.00     0.009 A 
ATOM     66  C   UNL A   1      52.794  27.452  26.748  1.00  0.00     0.001 A 
ATOM     67  C   UNL A   1      52.258  28.108  24.486  1.00  0.00     0.001 A 
ATOM     68  C   UNL A   1      53.193  27.696  25.435  1.00  0.00     0.000 A 
ENDBRANCH  49  63
BRANCH  50  69
ATOM     69  C   UNL A   1      40.922  28.735  28.836  1.00  0.00    -0.014 A 
ATOM     70  C   UNL A   1      39.955  29.165  27.916  1.00  0.00     0.009 A 
ATOM     71  C   UNL A   1      40.522  28.412  30.142  1.00  0.00     0.009 A 
ATOM     72  C   UNL A   1      38.620  29.297  28.301  1.00  0.00     0.001 A 
ATOM     73  C   UNL A   1      39.181  28.520  30.517  1.00  0.00     0.001 A 
ATOM     74  C   UNL A   1      38.233  28.970  29.600  1.00  0.00     0.000 A 
ENDBRANCH  50  69
BRANCH  62  75
ATOM     75  C   UNL A   1      46.236  33.222  28.841  1.00  0.00    -0.014 A 
ATOM     76  C   UNL A   1      46.586  33.612  30.143  1.00  0.00     0.009 A 
ATOM     77  C   UNL A   1      45.997  34.210  27.874  1.00  0.00     0.009 A 
ATOM     78  C   UNL A   1      46.658  34.966  30.477  1.00  0.00     0.001 A 
ATOM     79  C   UNL A   1      46.096  35.562  28.204  1.00  0.00     0.001 A 
ATOM     80  C   UNL A   1      46.417  35.939  29.507  1.00  0.00     0.000 A 
ENDBRANCH  62  75
ENDBRANCH  36  37
ENDBRANCH  28  31
ENDBRANCH  26  27
ENDBRANCH  25  26
ENDBRANCH  24  25
ENDBRANCH  23  24
ENDBRANCH   1  23
TORSDOF 18
ENDMDL
MODEL 3
REMARK VINA RESULT:      -9.6      2.341      2.957
REMARK SMILES CO[C@@H]1C[C@@H](C(=O)NCCCCCCNC(=O)c2ccc(-c3c4nc(c(-c5ccccc5)c5ccc([nH]5)c(-c5ccccc5)c5nc(c(-c6ccccc6)c6ccc3[nH]6)C=C5)C=C4)cc2)N(C(=O)CSc2cccs2)C1
REMARK SMILES IDX 10 1 9 2 8 3 6 4 7 5 5 7 3 8 4 9 76 10 66 11 2 12 1 13 67 14
REMARK SMILES IDX 68 15 69 16 70 17 71 18 72 19 75 20 73 21 74 22 11 23 12 24
REMARK SMILES IDX 13 25 14 26 15 27 16 28 17 30 18 31 19 32 65 33 20 34 64 35
REMARK SMILES IDX 21 36 22 37 23 38 58 39 24 40 63 41 57 42 59 43 25 44 62 45
REMARK SMILES IDX 56 46 55 47 26 49 48 50 33 51 47 52 34 53 37 54 46 55 60 56
REMARK SMILES IDX 35 57 36 58 45 60 61 61 38 62 27 63 28 64 32 65 29 66 31 67
REMARK SMILES IDX 30 68 49 69 50 70 54 71 51 72 53 73 52 74 39 75 40 76 44 77
REMARK SMILES IDX 41 78 43 79 42 80
REMARK H PARENT 8 6 15 29 59 48 37 59
REMARK Flexibility Score: inf
ROOT
ATOM      1  C   UNL A   1      34.941  30.314  27.613  1.00  0.00     0.021 C 
ENDROOT
BRANCH   1   2
ATOM      2  C   UNL A   1      34.449  28.951  27.119  1.00  0.00     0.116 C 
BRANCH   2   3
ATOM      3  N   UNL A   1      33.170  28.607  27.709  1.00  0.00    -0.354 N 
ATOM      4  C   UNL A   1      32.036  28.054  27.199  1.00  0.00     0.242 C 
ATOM      5  O   UNL A   1      31.109  27.888  28.000  1.00  0.00    -0.273 OA
ATOM      6  H   UNL A   1      33.109  28.814  28.668  1.00  0.00     0.163 HD
BRANCH   4   7
ATOM      7  C   UNL A   1      31.921  27.479  25.772  1.00  0.00     0.177 C 
ATOM      8  C   UNL A   1      30.746  27.857  23.699  1.00  0.00     0.139 C 
ATOM      9  C   UNL A   1      31.348  28.597  24.885  1.00  0.00     0.069 C 
ATOM     10  C   UNL A   1      30.187  26.591  24.352  1.00  0.00     0.152 C 
ATOM     11  N   UNL A   1      31.067  26.322  25.487  1.00  0.00    -0.327 N 
BRANCH   8  12
ATOM     12  O   UNL A   1      31.804  27.577  22.778  1.00  0.00    -0.380 OA
ATOM     13  C   UNL A   1      31.587  26.391  22.022  1.00  0.00     0.195 C 
ENDBRANCH   8  12
BRANCH  11  14
ATOM     14  C   UNL A   1      31.224  25.028  25.940  1.00  0.00     0.233 C 
ATOM     15  O   UNL A   1      31.402  24.795  27.139  1.00  0.00    -0.274 OA
BRANCH  14  16
ATOM     16  C   UNL A   1      31.252  23.894  24.928  1.00  0.00     0.175 C 
BRANCH  16  17
ATOM     17  S   UNL A   1      31.335  22.281  25.741  1.00  0.00    -0.105 SA
BRANCH  17  18
ATOM     18  C   UNL A   1      33.049  21.953  25.583  1.00  0.00     0.060 A 
ATOM     19  C   UNL A   1      33.767  21.942  24.405  1.00  0.00     0.027 A 
ATOM     20  S   UNL A   1      34.025  21.588  26.933  1.00  0.00    -0.137 S 
ATOM     21  C   UNL A   1      35.147  21.658  24.624  1.00  0.00     0.013 A 
ATOM     22  C   UNL A   1      35.423  21.453  25.958  1.00  0.00     0.066 A 
ENDBRANCH  17  18
ENDBRANCH  16  17
ENDBRANCH  14  16
ENDBRANCH  11  14
ENDBRANCH   4   7
ENDBRANCH   2   3
ENDBRANCH   1   2
BRANCH   1  23
ATOM     23  C   UNL A   1      33.844  31.380  27.738  1.00  0.00     0.002 C 
BRANCH  23  24
ATOM     24  C   UNL A   1      34.333  32.771  28.149  1.00  0.00     0.002 C 
BRANCH  24  25
ATOM     25  C   UNL A   1      33.274  33.876  28.110  1.00  0.00     0.021 C 
BRANCH  25  26
ATOM     26  C   UNL A   1      33.696  35.203  28.737  1.00  0.00     0.116 C 
BRANCH  26  27
ATOM     27  N   UNL A   1      32.972  35.489  29.962  1.00  0.00    -0.352 N 
ATOM     28  C   UNL A   1      33.214  35.053  31.239  1.00  0.00     0.251 C 
ATOM     29  H   UNL A   1      32.195  36.084  29.863  1.00  0.00     0.163 HD
ATOM     30  O   UNL A   1      32.383  35.253  32.125  1.00  0.00    -0.269 OA
BRANCH  28  31
ATOM     31  C   UNL A   1      34.461  34.327  31.557  1.00  0.00     0.039 A 
ATOM     32  C   UNL A   1      34.379  32.977  31.910  1.00  0.00     0.014 A 
ATOM     33  C   UNL A   1      35.700  34.977  31.551  1.00  0.00     0.014 A 
ATOM     34  C   UNL A   1      35.542  32.269  32.216  1.00  0.00     0.010 A 
ATOM     35  C   UNL A   1      36.866  34.252  31.795  1.00  0.00     0.010 A 
ATOM     36  C   UNL A   1      36.797  32.897  32.144  1.00  0.00    -0.014 A 
BRANCH  36  37
ATOM     37  C   UNL A   1      38.036  32.142  32.455  1.00  0.00     0.031 A 
ATOM     38  C   UNL A   1      38.784  32.402  33.734  1.00  0.00     0.074 A 
ATOM     39  C   UNL A   1      38.503  31.235  31.575  1.00  0.00     0.049 A 
ATOM     40  N   UNL A   1      39.868  31.825  34.188  1.00  0.00    -0.248 NA
ATOM     41  C   UNL A   1      38.258  33.463  34.609  1.00  0.00     0.031 C 
ATOM     42  C   UNL A   1      37.896  30.921  30.280  1.00  0.00     0.029 A 
ATOM     43  N   UNL A   1      39.595  30.407  31.641  1.00  0.00    -0.354 N 
ATOM     44  C   UNL A   1      40.159  32.458  35.389  1.00  0.00     0.074 A 
ATOM     45  C   UNL A   1      39.168  33.497  35.571  1.00  0.00     0.031 C 
ATOM     46  C   UNL A   1      38.605  29.945  29.689  1.00  0.00     0.029 A 
ATOM     47  C   UNL A   1      39.726  29.583  30.550  1.00  0.00     0.049 A 
ATOM     48  H   UNL A   1      40.224  30.404  32.398  1.00  0.00     0.167 HD
ATOM     49  C   UNL A   1      41.149  32.189  36.274  1.00  0.00     0.031 A 
ATOM     50  C   UNL A   1      40.641  28.634  30.279  1.00  0.00     0.031 A 
ATOM     51  C   UNL A   1      42.130  31.150  36.102  1.00  0.00     0.049 A 
ATOM     52  C   UNL A   1      41.720  28.342  31.283  1.00  0.00     0.074 A 
ATOM     53  C   UNL A   1      43.141  30.766  36.965  1.00  0.00     0.029 A 
ATOM     54  N   UNL A   1      42.218  30.328  34.990  1.00  0.00    -0.354 N 
ATOM     55  N   UNL A   1      41.938  28.904  32.447  1.00  0.00    -0.248 NA
ATOM     56  C   UNL A   1      42.665  27.269  30.943  1.00  0.00     0.031 C 
ATOM     57  C   UNL A   1      43.867  29.737  36.357  1.00  0.00     0.029 A 
ATOM     58  C   UNL A   1      43.276  29.447  35.138  1.00  0.00     0.049 A 
ATOM     59  H   UNL A   1      41.618  30.365  34.211  1.00  0.00     0.167 HD
ATOM     60  C   UNL A   1      43.026  28.233  32.992  1.00  0.00     0.074 A 
ATOM     61  C   UNL A   1      43.412  27.214  32.037  1.00  0.00     0.031 C 
ATOM     62  C   UNL A   1      43.647  28.440  34.178  1.00  0.00     0.031 A 
BRANCH  49  63
ATOM     63  C   UNL A   1      41.219  33.040  37.511  1.00  0.00    -0.014 A 
ATOM     64  C   UNL A   1      40.491  32.704  38.665  1.00  0.00     0.009 A 
ATOM     65  C   UNL A   1      42.042  34.176  37.535  1.00  0.00     0.009 A 
ATOM     66  C   UNL A   1      40.558  33.510  39.803  1.00  0.00     0.001 A 
ATOM     67  C   UNL A   1      42.128  34.964  38.684  1.00  0.00     0.001 A 
ATOM     68  C   UNL A   1      41.380  34.636  39.813  1.00  0.00     0.000 A 
ENDBRANCH  49  63
BRANCH  50  69
ATOM     69  C   UNL A   1      40.553  27.858  29.015  1.00  0.00    -0.014 A 
ATOM     70  C   UNL A   1      39.807  26.671  28.961  1.00  0.00     0.009 A 
ATOM     71  C   UNL A   1      41.213  28.299  27.859  1.00  0.00     0.009 A 
ATOM     72  C   UNL A   1      39.746  25.926  27.781  1.00  0.00     0.001 A 
ATOM     73  C   UNL A   1      41.130  27.565  26.673  1.00  0.00     0.001 A 
ATOM     74  C   UNL A   1      40.404  26.376  26.638  1.00  0.00     0.000 A 
ENDBRANCH  50  69
BRANCH  62  75
ATOM     75  C   UNL A   1      44.784  27.521  34.525  1.00  0.00    -0.014 A 
ATOM     76  C   UNL A   1      46.108  27.836  34.180  1.00  0.00     0.009 A 
ATOM     77  C   UNL A   1      44.525  26.335  35.228  1.00  0.00     0.009 A 
ATOM     78  C   UNL A   1      47.146  26.959  34.501  1.00  0.00     0.001 A 
ATOM     79  C   UNL A   1      45.568  25.474  35.571  1.00  0.00     0.001 A 
ATOM     80  C   UNL A   1      46.876  25.782  35.200  1.00  0.00     0.000 A 
ENDBRANCH  62  75
ENDBRANCH  36  37
ENDBRANCH  28  31
ENDBRANCH  26  27
ENDBRANCH  25  26
ENDBRANCH  24  25
ENDBRANCH  23  24
ENDBRANCH   1  23
TORSDOF 18
ENDMDL
