MODEL 1
REMARK VINA RESULT:     -10.7      0.000      0.000
REMARK SMILES CO[C@H]1C[C@@H](C(=O)NCCCCCCNC(=O)c2ccc(-c3c4nc(c(-c5ccccc5)c5ccc([nH]5)c(-c5ccccc5)c5nc(c(-c6ccccc6)c6ccc3[nH]6)C=C5)C=C4)cc2)N(C(=O)c2cc(SC)ccc2C)C1
REMARK SMILES IDX 11 1 10 2 9 3 8 4 6 5 7 6 5 8 3 9 4 10 78 11 66 12 2 13 1 14
REMARK SMILES IDX 67 15 68 16 69 17 70 18 76 19 71 20 75 21 77 22 74 23 72 24
REMARK SMILES IDX 73 25 12 26 13 27 14 28 15 29 16 30 17 32 18 33 19 34 65 35
REMARK SMILES IDX 20 36 64 37 21 38 22 39 23 40 58 41 24 42 63 43 57 44 59 45
REMARK SMILES IDX 25 46 62 47 56 48 55 49 26 51 48 52 33 53 47 54 34 55 37 56
REMARK SMILES IDX 46 57 60 58 35 59 36 60 45 62 61 63 38 64 27 65 28 66 32 67
REMARK SMILES IDX 29 68 31 69 30 70 49 71 50 72 54 73 51 74 53 75 52 76 39 77
REMARK SMILES IDX 40 78 44 79 41 80 43 81 42 82
REMARK H PARENT 8 7 15 31 59 50 37 61
REMARK Flexibility Score: inf
ROOT
ATOM      1  C   UNL A   1      33.591  29.466  27.060  1.00  0.00     0.002 C 
ENDROOT
BRANCH   1   2
ATOM      2  C   UNL A   1      34.083  28.607  25.896  1.00  0.00     0.021 C 
BRANCH   2   3
ATOM      3  C   UNL A   1      33.555  28.909  24.497  1.00  0.00     0.116 C 
BRANCH   3   4
ATOM      4  N   UNL A   1      33.943  28.034  23.412  1.00  0.00    -0.354 N 
ATOM      5  C   UNL A   1      33.309  27.027  22.762  1.00  0.00     0.242 C 
ATOM      6  O   UNL A   1      33.801  26.698  21.672  1.00  0.00    -0.273 OA
ATOM      7  H   UNL A   1      34.852  28.205  23.078  1.00  0.00     0.163 HD
BRANCH   5   8
ATOM      8  C   UNL A   1      32.022  26.319  23.234  1.00  0.00     0.177 C 
ATOM      9  C   UNL A   1      30.022  27.738  23.210  1.00  0.00     0.139 C 
ATOM     10  C   UNL A   1      30.886  26.845  22.329  1.00  0.00     0.069 C 
ATOM     11  C   UNL A   1      30.261  27.182  24.613  1.00  0.00     0.152 C 
ATOM     12  N   UNL A   1      31.516  26.412  24.601  1.00  0.00    -0.324 N 
BRANCH   9  13
ATOM     13  O   UNL A   1      30.362  29.123  23.204  1.00  0.00    -0.380 OA
ATOM     14  C   UNL A   1      30.244  29.783  21.955  1.00  0.00     0.195 C 
ENDBRANCH   9  13
BRANCH  12  15
ATOM     15  C   UNL A   1      31.811  25.747  25.803  1.00  0.00     0.254 C 
ATOM     16  O   UNL A   1      31.453  26.337  26.838  1.00  0.00    -0.269 OA
BRANCH  15  17
ATOM     17  C   UNL A   1      32.503  24.414  26.074  1.00  0.00     0.044 A 
ATOM     18  C   UNL A   1      33.913  24.485  25.839  1.00  0.00     0.029 A 
ATOM     19  C   UNL A   1      32.004  23.128  26.361  1.00  0.00    -0.038 A 
ATOM     20  C   UNL A   1      34.773  23.374  25.825  1.00  0.00     0.008 A 
ATOM     21  C   UNL A   1      32.888  22.018  26.397  1.00  0.00     0.005 A 
ATOM     22  C   UNL A   1      30.588  22.752  26.606  1.00  0.00     0.045 C 
ATOM     23  C   UNL A   1      34.242  22.132  26.121  1.00  0.00     0.015 A 
BRANCH  20  24
ATOM     24  S   UNL A   1      36.497  23.626  25.419  1.00  0.00    -0.130 SA
ATOM     25  C   UNL A   1      36.624  22.866  23.772  1.00  0.00     0.091 C 
ENDBRANCH  20  24
ENDBRANCH  15  17
ENDBRANCH  12  15
ENDBRANCH   5   8
ENDBRANCH   3   4
ENDBRANCH   2   3
ENDBRANCH   1   2
BRANCH   1  26
ATOM     26  C   UNL A   1      32.102  29.789  27.069  1.00  0.00     0.002 C 
BRANCH  26  27
ATOM     27  C   UNL A   1      31.776  31.259  26.834  1.00  0.00     0.021 C 
BRANCH  27  28
ATOM     28  C   UNL A   1      32.948  32.206  27.058  1.00  0.00     0.116 C 
BRANCH  28  29
ATOM     29  N   UNL A   1      32.529  33.528  27.501  1.00  0.00    -0.352 N 
ATOM     30  C   UNL A   1      33.133  34.331  28.440  1.00  0.00     0.251 C 
ATOM     31  H   UNL A   1      31.716  33.890  27.079  1.00  0.00     0.163 HD
ATOM     32  O   UNL A   1      32.610  35.370  28.824  1.00  0.00    -0.269 OA
BRANCH  30  33
ATOM     33  C   UNL A   1      34.421  33.889  29.006  1.00  0.00     0.039 A 
ATOM     34  C   UNL A   1      34.424  33.109  30.163  1.00  0.00     0.014 A 
ATOM     35  C   UNL A   1      35.610  34.171  28.327  1.00  0.00     0.014 A 
ATOM     36  C   UNL A   1      35.623  32.548  30.605  1.00  0.00     0.010 A 
ATOM     37  C   UNL A   1      36.789  33.555  28.731  1.00  0.00     0.010 A 
ATOM     38  C   UNL A   1      36.806  32.737  29.871  1.00  0.00    -0.014 A 
BRANCH  38  39
ATOM     39  C   UNL A   1      38.075  32.085  30.277  1.00  0.00     0.031 A 
ATOM     40  C   UNL A   1      38.993  32.774  31.248  1.00  0.00     0.074 A 
ATOM     41  C   UNL A   1      38.436  30.913  29.719  1.00  0.00     0.049 A 
ATOM     42  N   UNL A   1      40.170  32.399  31.678  1.00  0.00    -0.248 NA
ATOM     43  C   UNL A   1      38.539  34.068  31.783  1.00  0.00     0.031 C 
ATOM     44  C   UNL A   1      37.658  30.168  28.728  1.00  0.00     0.029 A 
ATOM     45  N   UNL A   1      39.559  30.147  29.903  1.00  0.00    -0.354 N 
ATOM     46  C   UNL A   1      40.606  33.418  32.514  1.00  0.00     0.074 A 
ATOM     47  C   UNL A   1      39.590  34.448  32.495  1.00  0.00     0.031 C 
ATOM     48  C   UNL A   1      38.315  29.041  28.409  1.00  0.00     0.029 A 
ATOM     49  C   UNL A   1      39.574  29.001  29.147  1.00  0.00     0.049 A 
ATOM     50  H   UNL A   1      40.286  30.396  30.519  1.00  0.00     0.167 HD
ATOM     51  C   UNL A   1      41.740  33.485  33.249  1.00  0.00     0.031 A 
ATOM     52  C   UNL A   1      40.499  28.025  29.057  1.00  0.00     0.031 A 
ATOM     53  C   UNL A   1      42.743  32.454  33.284  1.00  0.00     0.049 A 
ATOM     54  C   UNL A   1      41.746  28.119  29.890  1.00  0.00     0.074 A 
ATOM     55  C   UNL A   1      43.896  32.398  34.046  1.00  0.00     0.029 A 
ATOM     56  N   UNL A   1      42.708  31.298  32.521  1.00  0.00    -0.354 N 
ATOM     57  N   UNL A   1      42.109  29.053  30.733  1.00  0.00    -0.248 NA
ATOM     58  C   UNL A   1      42.707  27.012  29.767  1.00  0.00     0.031 C 
ATOM     59  C   UNL A   1      44.582  31.225  33.714  1.00  0.00     0.029 A 
ATOM     60  C   UNL A   1      43.830  30.529  32.780  1.00  0.00     0.049 A 
ATOM     61  H   UNL A   1      41.993  31.059  31.889  1.00  0.00     0.167 HD
ATOM     62  C   UNL A   1      43.325  28.638  31.259  1.00  0.00     0.074 A 
ATOM     63  C   UNL A   1      43.631  27.359  30.652  1.00  0.00     0.031 C 
ATOM     64  C   UNL A   1      44.117  29.260  32.166  1.00  0.00     0.031 A 
BRANCH  51  65
ATOM     65  C   UNL A   1      41.955  34.722  34.073  1.00  0.00    -0.014 A 
ATOM     66  C   UNL A   1      42.611  35.843  33.542  1.00  0.00     0.009 A 
ATOM     67  C   UNL A   1      41.476  34.776  35.391  1.00  0.00     0.009 A 
ATOM     68  C   UNL A   1      42.816  36.981  34.325  1.00  0.00     0.001 A 
ATOM     69  C   UNL A   1      41.658  35.924  36.163  1.00  0.00     0.001 A 
ATOM     70  C   UNL A   1      42.337  37.021  35.634  1.00  0.00     0.000 A 
ENDBRANCH  51  65
BRANCH  52  71
ATOM     71  C   UNL A   1      40.272  26.864  28.161  1.00  0.00    -0.014 A 
ATOM     72  C   UNL A   1      39.573  25.738  28.621  1.00  0.00     0.009 A 
ATOM     73  C   UNL A   1      40.755  26.871  26.843  1.00  0.00     0.009 A 
ATOM     74  C   UNL A   1      39.385  24.631  27.790  1.00  0.00     0.001 A 
ATOM     75  C   UNL A   1      40.544  25.773  26.006  1.00  0.00     0.001 A 
ATOM     76  C   UNL A   1      39.867  24.651  26.482  1.00  0.00     0.000 A 
ENDBRANCH  52  71
BRANCH  64  77
ATOM     77  C   UNL A   1      45.375  28.551  32.580  1.00  0.00    -0.014 A 
ATOM     78  C   UNL A   1      46.590  28.784  31.919  1.00  0.00     0.009 A 
ATOM     79  C   UNL A   1      45.349  27.674  33.674  1.00  0.00     0.009 A 
ATOM     80  C   UNL A   1      47.752  28.128  32.332  1.00  0.00     0.001 A 
ATOM     81  C   UNL A   1      46.516  27.039  34.101  1.00  0.00     0.001 A 
ATOM     82  C   UNL A   1      47.715  27.261  33.424  1.00  0.00     0.000 A 
ENDBRANCH  64  77
ENDBRANCH  38  39
ENDBRANCH  30  33
ENDBRANCH  28  29
ENDBRANCH  27  28
ENDBRANCH  26  27
ENDBRANCH   1  26
TORSDOF 17
ENDMDL
MODEL 2
REMARK VINA RESULT:     -10.5      3.241      8.091
REMARK SMILES CO[C@H]1C[C@@H](C(=O)NCCCCCCNC(=O)c2ccc(-c3c4nc(c(-c5ccccc5)c5ccc([nH]5)c(-c5ccccc5)c5nc(c(-c6ccccc6)c6ccc3[nH]6)C=C5)C=C4)cc2)N(C(=O)c2cc(SC)ccc2C)C1
REMARK SMILES IDX 11 1 10 2 9 3 8 4 6 5 7 6 5 8 3 9 4 10 78 11 66 12 2 13 1 14
REMARK SMILES IDX 67 15 68 16 69 17 70 18 76 19 71 20 75 21 77 22 74 23 72 24
REMARK SMILES IDX 73 25 12 26 13 27 14 28 15 29 16 30 17 32 18 33 19 34 65 35
REMARK SMILES IDX 20 36 64 37 21 38 22 39 23 40 58 41 24 42 63 43 57 44 59 45
REMARK SMILES IDX 25 46 62 47 56 48 55 49 26 51 48 52 33 53 47 54 34 55 37 56
REMARK SMILES IDX 46 57 60 58 35 59 36 60 45 62 61 63 38 64 27 65 28 66 32 67
REMARK SMILES IDX 29 68 31 69 30 70 49 71 50 72 54 73 51 74 53 75 52 76 39 77
REMARK SMILES IDX 40 78 44 79 41 80 43 81 42 82
REMARK H PARENT 8 7 15 31 59 50 37 61
REMARK Flexibility Score: inf
ROOT
ATOM      1  C   UNL A   1      36.399  22.960  23.141  1.00  0.00     0.002 C 
ENDROOT
BRANCH   1   2
ATOM      2  C   UNL A   1      34.883  23.126  23.054  1.00  0.00     0.021 C 
BRANCH   2   3
ATOM      3  C   UNL A   1      34.288  24.505  23.326  1.00  0.00     0.116 C 
BRANCH   3   4
ATOM      4  N   UNL A   1      33.254  24.994  22.440  1.00  0.00    -0.354 N 
ATOM      5  C   UNL A   1      32.006  25.481  22.652  1.00  0.00     0.242 C 
ATOM      6  O   UNL A   1      31.507  26.108  21.706  1.00  0.00    -0.273 OA
ATOM      7  H   UNL A   1      33.508  24.967  21.490  1.00  0.00     0.163 HD
BRANCH   5   8
ATOM      8  C   UNL A   1      31.206  25.368  23.967  1.00  0.00     0.177 C 
ATOM      9  C   UNL A   1      31.975  26.869  25.748  1.00  0.00     0.139 C 
ATOM     10  C   UNL A   1      31.080  26.807  24.516  1.00  0.00     0.069 C 
ATOM     11  C   UNL A   1      32.021  25.417  26.221  1.00  0.00     0.152 C 
ATOM     12  N   UNL A   1      31.638  24.548  25.095  1.00  0.00    -0.324 N 
BRANCH   9  13
ATOM     13  O   UNL A   1      33.309  27.316  25.517  1.00  0.00    -0.380 OA
ATOM     14  C   UNL A   1      33.575  28.668  25.851  1.00  0.00     0.195 C 
ENDBRANCH   9  13
BRANCH  12  15
ATOM     15  C   UNL A   1      31.530  23.184  25.414  1.00  0.00     0.254 C 
ATOM     16  O   UNL A   1      30.411  22.821  25.820  1.00  0.00    -0.269 OA
BRANCH  15  17
ATOM     17  C   UNL A   1      32.550  22.051  25.354  1.00  0.00     0.044 A 
ATOM     18  C   UNL A   1      32.205  21.073  24.366  1.00  0.00     0.029 A 
ATOM     19  C   UNL A   1      33.653  21.723  26.165  1.00  0.00    -0.038 A 
ATOM     20  C   UNL A   1      32.850  19.834  24.216  1.00  0.00     0.008 A 
ATOM     21  C   UNL A   1      34.333  20.493  25.973  1.00  0.00     0.005 A 
ATOM     22  C   UNL A   1      34.206  22.524  27.288  1.00  0.00     0.045 C 
ATOM     23  C   UNL A   1      33.934  19.559  25.027  1.00  0.00     0.015 A 
BRANCH  20  24
ATOM     24  S   UNL A   1      32.231  18.685  22.992  1.00  0.00    -0.130 SA
ATOM     25  C   UNL A   1      33.427  17.320  23.101  1.00  0.00     0.091 C 
ENDBRANCH  20  24
ENDBRANCH  15  17
ENDBRANCH  12  15
ENDBRANCH   5   8
ENDBRANCH   3   4
ENDBRANCH   2   3
ENDBRANCH   1   2
BRANCH   1  26
ATOM     26  C   UNL A   1      36.960  22.641  24.521  1.00  0.00     0.002 C 
BRANCH  26  27
ATOM     27  C   UNL A   1      37.603  21.263  24.635  1.00  0.00     0.021 C 
BRANCH  27  28
ATOM     28  C   UNL A   1      38.513  21.093  25.843  1.00  0.00     0.116 C 
BRANCH  28  29
ATOM     29  N   UNL A   1      39.404  19.947  25.722  1.00  0.00    -0.352 N 
ATOM     30  C   UNL A   1      40.752  19.898  25.987  1.00  0.00     0.251 C 
ATOM     31  H   UNL A   1      38.992  19.108  25.412  1.00  0.00     0.163 HD
ATOM     32  O   UNL A   1      41.421  18.907  25.720  1.00  0.00    -0.269 OA
BRANCH  30  33
ATOM     33  C   UNL A   1      41.388  21.093  26.573  1.00  0.00     0.039 A 
ATOM     34  C   UNL A   1      41.929  22.060  25.725  1.00  0.00     0.014 A 
ATOM     35  C   UNL A   1      41.354  21.288  27.957  1.00  0.00     0.014 A 
ATOM     36  C   UNL A   1      42.378  23.266  26.264  1.00  0.00     0.010 A 
ATOM     37  C   UNL A   1      41.738  22.517  28.482  1.00  0.00     0.010 A 
ATOM     38  C   UNL A   1      42.251  23.517  27.642  1.00  0.00    -0.014 A 
BRANCH  38  39
ATOM     39  C   UNL A   1      42.646  24.822  28.225  1.00  0.00     0.031 A 
ATOM     40  C   UNL A   1      41.611  25.891  28.437  1.00  0.00     0.074 A 
ATOM     41  C   UNL A   1      43.943  25.073  28.492  1.00  0.00     0.049 A 
ATOM     42  N   UNL A   1      41.766  27.114  28.874  1.00  0.00    -0.248 NA
ATOM     43  C   UNL A   1      40.223  25.547  28.086  1.00  0.00     0.031 C 
ATOM     44  C   UNL A   1      45.050  24.138  28.284  1.00  0.00     0.029 A 
ATOM     45  N   UNL A   1      44.548  26.198  28.991  1.00  0.00    -0.354 N 
ATOM     46  C   UNL A   1      40.503  27.691  28.829  1.00  0.00     0.074 A 
ATOM     47  C   UNL A   1      39.603  26.701  28.279  1.00  0.00     0.031 C 
ATOM     48  C   UNL A   1      46.196  24.720  28.674  1.00  0.00     0.029 A 
ATOM     49  C   UNL A   1      45.909  26.077  29.130  1.00  0.00     0.049 A 
ATOM     50  H   UNL A   1      44.053  27.016  29.229  1.00  0.00     0.167 HD
ATOM     51  C   UNL A   1      40.122  28.926  29.227  1.00  0.00     0.031 A 
ATOM     52  C   UNL A   1      46.825  26.960  29.571  1.00  0.00     0.031 A 
ATOM     53  C   UNL A   1      41.011  29.905  29.792  1.00  0.00     0.049 A 
ATOM     54  C   UNL A   1      46.374  28.323  30.017  1.00  0.00     0.074 A 
ATOM     55  C   UNL A   1      40.710  31.161  30.287  1.00  0.00     0.029 A 
ATOM     56  N   UNL A   1      42.379  29.734  29.935  1.00  0.00    -0.354 N 
ATOM     57  N   UNL A   1      45.165  28.828  30.038  1.00  0.00    -0.248 NA
ATOM     58  C   UNL A   1      47.416  29.235  30.512  1.00  0.00     0.031 C 
ATOM     59  C   UNL A   1      41.903  31.768  30.693  1.00  0.00     0.029 A 
ATOM     60  C   UNL A   1      42.939  30.869  30.495  1.00  0.00     0.049 A 
ATOM     61  H   UNL A   1      42.878  28.925  29.678  1.00  0.00     0.167 HD
ATOM     62  C   UNL A   1      45.296  30.103  30.570  1.00  0.00     0.074 A 
ATOM     63  C   UNL A   1      46.700  30.291  30.873  1.00  0.00     0.031 C 
ATOM     64  C   UNL A   1      44.338  31.036  30.790  1.00  0.00     0.031 A 
BRANCH  51  65
ATOM     65  C   UNL A   1      38.673  29.287  29.060  1.00  0.00    -0.014 A 
ATOM     66  C   UNL A   1      37.775  29.201  30.136  1.00  0.00     0.009 A 
ATOM     67  C   UNL A   1      38.204  29.739  27.817  1.00  0.00     0.009 A 
ATOM     68  C   UNL A   1      36.428  29.525  29.961  1.00  0.00     0.001 A 
ATOM     69  C   UNL A   1      36.863  30.088  27.652  1.00  0.00     0.001 A 
ATOM     70  C   UNL A   1      35.974  29.972  28.720  1.00  0.00     0.000 A 
ENDBRANCH  51  65
BRANCH  52  71
ATOM     71  C   UNL A   1      48.258  26.578  29.637  1.00  0.00    -0.014 A 
ATOM     72  C   UNL A   1      49.103  26.801  28.540  1.00  0.00     0.009 A 
ATOM     73  C   UNL A   1      48.788  25.983  30.793  1.00  0.00     0.009 A 
ATOM     74  C   UNL A   1      50.444  26.414  28.587  1.00  0.00     0.001 A 
ATOM     75  C   UNL A   1      50.136  25.620  30.847  1.00  0.00     0.001 A 
ATOM     76  C   UNL A   1      50.961  25.828  29.742  1.00  0.00     0.000 A 
ENDBRANCH  52  71
BRANCH  64  77
ATOM     77  C   UNL A   1      44.771  32.332  31.415  1.00  0.00    -0.014 A 
ATOM     78  C   UNL A   1      45.186  33.416  30.627  1.00  0.00     0.009 A 
ATOM     79  C   UNL A   1      44.719  32.480  32.809  1.00  0.00     0.009 A 
ATOM     80  C   UNL A   1      45.568  34.617  31.228  1.00  0.00     0.001 A 
ATOM     81  C   UNL A   1      45.076  33.690  33.405  1.00  0.00     0.001 A 
ATOM     82  C   UNL A   1      45.507  34.754  32.615  1.00  0.00     0.000 A 
ENDBRANCH  64  77
ENDBRANCH  38  39
ENDBRANCH  30  33
ENDBRANCH  28  29
ENDBRANCH  27  28
ENDBRANCH  26  27
ENDBRANCH   1  26
TORSDOF 17
ENDMDL
MODEL 3
REMARK VINA RESULT:     -10.5      3.306      8.577
REMARK SMILES CO[C@H]1C[C@@H](C(=O)NCCCCCCNC(=O)c2ccc(-c3c4nc(c(-c5ccccc5)c5ccc([nH]5)c(-c5ccccc5)c5nc(c(-c6ccccc6)c6ccc3[nH]6)C=C5)C=C4)cc2)N(C(=O)c2cc(SC)ccc2C)C1
REMARK SMILES IDX 11 1 10 2 9 3 8 4 6 5 7 6 5 8 3 9 4 10 78 11 66 12 2 13 1 14
REMARK SMILES IDX 67 15 68 16 69 17 70 18 76 19 71 20 75 21 77 22 74 23 72 24
REMARK SMILES IDX 73 25 12 26 13 27 14 28 15 29 16 30 17 32 18 33 19 34 65 35
REMARK SMILES IDX 20 36 64 37 21 38 22 39 23 40 58 41 24 42 63 43 57 44 59 45
REMARK SMILES IDX 25 46 62 47 56 48 55 49 26 51 48 52 33 53 47 54 34 55 37 56
REMARK SMILES IDX 46 57 60 58 35 59 36 60 45 62 61 63 38 64 27 65 28 66 32 67
REMARK SMILES IDX 29 68 31 69 30 70 49 71 50 72 54 73 51 74 53 75 52 76 39 77
REMARK SMILES IDX 40 78 44 79 41 80 43 81 42 82
REMARK H PARENT 8 7 15 31 59 50 37 61
REMARK Flexibility Score: inf
ROOT
ATOM      1  C   UNL A   1      37.458  23.117  25.254  1.00  0.00     0.002 C 
ENDROOT
BRANCH   1   2
ATOM      2  C   UNL A   1      36.352  24.049  25.745  1.00  0.00     0.021 C 
BRANCH   2   3
ATOM      3  C   UNL A   1      34.901  23.619  25.548  1.00  0.00     0.116 C 
BRANCH   3   4
ATOM      4  N   UNL A   1      34.077  23.417  26.720  1.00  0.00    -0.354 N 
ATOM      5  C   UNL A   1      32.798  23.004  26.894  1.00  0.00     0.242 C 
ATOM      6  O   UNL A   1      32.504  22.635  28.041  1.00  0.00    -0.273 OA
ATOM      7  H   UNL A   1      34.541  23.623  27.563  1.00  0.00     0.163 HD
BRANCH   5   8
ATOM      8  C   UNL A   1      31.725  22.903  25.789  1.00  0.00     0.177 C 
ATOM      9  C   UNL A   1      32.221  21.247  24.049  1.00  0.00     0.139 C 
ATOM     10  C   UNL A   1      31.612  21.403  25.437  1.00  0.00     0.069 C 
ATOM     11  C   UNL A   1      32.034  22.630  23.427  1.00  0.00     0.152 C 
ATOM     12  N   UNL A   1      31.828  23.604  24.512  1.00  0.00    -0.324 N 
BRANCH   9  13
ATOM     13  O   UNL A   1      33.608  20.917  24.019  1.00  0.00    -0.380 OA
ATOM     14  C   UNL A   1      34.017  19.880  24.895  1.00  0.00     0.195 C 
ENDBRANCH   9  13
BRANCH  12  15
ATOM     15  C   UNL A   1      31.532  24.909  24.084  1.00  0.00     0.254 C 
ATOM     16  O   UNL A   1      30.321  25.193  24.046  1.00  0.00    -0.269 OA
BRANCH  15  17
ATOM     17  C   UNL A   1      32.438  26.058  23.650  1.00  0.00     0.044 A 
ATOM     18  C   UNL A   1      32.719  26.954  24.730  1.00  0.00     0.029 A 
ATOM     19  C   UNL A   1      32.913  26.466  22.389  1.00  0.00    -0.038 A 
ATOM     20  C   UNL A   1      33.366  28.194  24.585  1.00  0.00     0.008 A 
ATOM     21  C   UNL A   1      33.611  27.695  22.259  1.00  0.00     0.005 A 
ATOM     22  C   UNL A   1      32.733  25.760  21.094  1.00  0.00     0.045 C 
ATOM     23  C   UNL A   1      33.824  28.550  23.331  1.00  0.00     0.015 A 
BRANCH  20  24
ATOM     24  S   UNL A   1      33.554  29.239  26.025  1.00  0.00    -0.130 SA
ATOM     25  C   UNL A   1      32.197  28.674  27.095  1.00  0.00     0.091 C 
ENDBRANCH  20  24
ENDBRANCH  15  17
ENDBRANCH  12  15
ENDBRANCH   5   8
ENDBRANCH   3   4
ENDBRANCH   2   3
ENDBRANCH   1   2
BRANCH   1  26
ATOM     26  C   UNL A   1      37.004  21.910  24.443  1.00  0.00     0.002 C 
BRANCH  26  27
ATOM     27  C   UNL A   1      37.675  20.599  24.839  1.00  0.00     0.021 C 
BRANCH  27  28
ATOM     28  C   UNL A   1      38.813  20.753  25.840  1.00  0.00     0.116 C 
BRANCH  28  29
ATOM     29  N   UNL A   1      39.785  19.672  25.759  1.00  0.00    -0.352 N 
ATOM     30  C   UNL A   1      41.133  19.732  26.026  1.00  0.00     0.251 C 
ATOM     31  H   UNL A   1      39.437  18.795  25.478  1.00  0.00     0.163 HD
ATOM     32  O   UNL A   1      41.873  18.784  25.794  1.00  0.00    -0.269 OA
BRANCH  30  33
ATOM     33  C   UNL A   1      41.678  20.989  26.571  1.00  0.00     0.039 A 
ATOM     34  C   UNL A   1      42.164  21.957  25.691  1.00  0.00     0.014 A 
ATOM     35  C   UNL A   1      41.611  21.236  27.945  1.00  0.00     0.014 A 
ATOM     36  C   UNL A   1      42.521  23.212  26.186  1.00  0.00     0.010 A 
ATOM     37  C   UNL A   1      41.903  22.508  28.425  1.00  0.00     0.010 A 
ATOM     38  C   UNL A   1      42.358  23.507  27.550  1.00  0.00    -0.014 A 
BRANCH  38  39
ATOM     39  C   UNL A   1      42.655  24.858  28.085  1.00  0.00     0.031 A 
ATOM     40  C   UNL A   1      44.054  25.202  28.514  1.00  0.00     0.074 A 
ATOM     41  C   UNL A   1      41.658  25.748  28.254  1.00  0.00     0.049 A 
ATOM     42  N   UNL A   1      44.502  26.302  29.062  1.00  0.00    -0.248 NA
ATOM     43  C   UNL A   1      45.078  24.161  28.328  1.00  0.00     0.031 C 
ATOM     44  C   UNL A   1      40.249  25.519  27.924  1.00  0.00     0.029 A 
ATOM     45  N   UNL A   1      41.677  27.025  28.755  1.00  0.00    -0.354 N 
ATOM     46  C   UNL A   1      45.850  26.078  29.306  1.00  0.00     0.074 A 
ATOM     47  C   UNL A   1      46.138  24.722  28.891  1.00  0.00     0.031 C 
ATOM     48  C   UNL A   1      39.545  26.627  28.209  1.00  0.00     0.029 A 
ATOM     49  C   UNL A   1      40.445  27.630  28.771  1.00  0.00     0.049 A 
ATOM     50  H   UNL A   1      42.499  27.466  29.074  1.00  0.00     0.167 HD
ATOM     51  C   UNL A   1      46.773  26.929  29.812  1.00  0.00     0.031 A 
ATOM     52  C   UNL A   1      40.078  28.856  29.193  1.00  0.00     0.031 A 
ATOM     53  C   UNL A   1      46.494  28.283  30.208  1.00  0.00     0.049 A 
ATOM     54  C   UNL A   1      41.124  29.785  29.743  1.00  0.00     0.074 A 
ATOM     55  C   UNL A   1      47.374  29.245  30.670  1.00  0.00     0.029 A 
ATOM     56  N   UNL A   1      45.236  28.864  30.186  1.00  0.00    -0.354 N 
ATOM     57  N   UNL A   1      42.409  29.584  29.898  1.00  0.00    -0.248 NA
ATOM     58  C   UNL A   1      40.668  31.118  30.164  1.00  0.00     0.031 C 
ATOM     59  C   UNL A   1      46.641  30.399  30.968  1.00  0.00     0.029 A 
ATOM     60  C   UNL A   1      45.312  30.168  30.645  1.00  0.00     0.049 A 
ATOM     61  H   UNL A   1      44.411  28.417  29.889  1.00  0.00     0.167 HD
ATOM     62  C   UNL A   1      42.919  30.769  30.410  1.00  0.00     0.074 A 
ATOM     63  C   UNL A   1      41.807  31.690  30.525  1.00  0.00     0.031 C 
ATOM     64  C   UNL A   1      44.196  31.069  30.752  1.00  0.00     0.031 A 
BRANCH  51  65
ATOM     65  C   UNL A   1      48.175  26.411  29.967  1.00  0.00    -0.014 A 
ATOM     66  C   UNL A   1      49.114  26.538  28.933  1.00  0.00     0.009 A 
ATOM     67  C   UNL A   1      48.568  25.809  31.173  1.00  0.00     0.009 A 
ATOM     68  C   UNL A   1      50.409  26.038  29.087  1.00  0.00     0.001 A 
ATOM     69  C   UNL A   1      49.870  25.335  31.334  1.00  0.00     0.001 A 
ATOM     70  C   UNL A   1      50.787  25.440  30.289  1.00  0.00     0.000 A 
ENDBRANCH  51  65
BRANCH  52  71
ATOM     71  C   UNL A   1      38.661  29.285  29.093  1.00  0.00    -0.014 A 
ATOM     72  C   UNL A   1      37.808  29.185  30.203  1.00  0.00     0.009 A 
ATOM     73  C   UNL A   1      38.150  29.792  27.888  1.00  0.00     0.009 A 
ATOM     74  C   UNL A   1      36.467  29.559  30.102  1.00  0.00     0.001 A 
ATOM     75  C   UNL A   1      36.814  30.189  27.797  1.00  0.00     0.001 A 
ATOM     76  C   UNL A   1      35.971  30.065  28.901  1.00  0.00     0.000 A 
ENDBRANCH  52  71
BRANCH  64  77
ATOM     77  C   UNL A   1      44.463  32.459  31.255  1.00  0.00    -0.014 A 
ATOM     78  C   UNL A   1      44.726  33.514  30.369  1.00  0.00     0.009 A 
ATOM     79  C   UNL A   1      44.407  32.721  32.632  1.00  0.00     0.009 A 
ATOM     80  C   UNL A   1      44.954  34.802  30.856  1.00  0.00     0.001 A 
ATOM     81  C   UNL A   1      44.610  34.014  33.116  1.00  0.00     0.001 A 
ATOM     82  C   UNL A   1      44.891  35.052  32.228  1.00  0.00     0.000 A 
ENDBRANCH  64  77
ENDBRANCH  38  39
ENDBRANCH  30  33
ENDBRANCH  28  29
ENDBRANCH  27  28
ENDBRANCH  26  27
ENDBRANCH   1  26
TORSDOF 17
ENDMDL
