MODEL 1
REMARK VINA RESULT:      -9.8      0.000      0.000
REMARK SMILES C[C@@H](NC(=O)NCCC(=O)NC1CC1)C(=O)NCCCCCCNC(=O)c1ccc(-c2c3nc(c(-c4ccccc4)c4ccc([nH]4)c(-c4ccccc4)c4nc(c(-c5ccccc5)c5ccc2[nH]5)C=C4)C=C3)cc1
REMARK SMILES IDX 19 1 18 2 17 3 15 4 16 5 2 7 1 8 3 9 4 10 5 12 6 13 7 15
REMARK SMILES IDX 8 16 9 17 10 18 11 19 12 21 13 22 14 23 20 24 21 25 22 26
REMARK SMILES IDX 23 27 24 28 25 29 26 31 27 32 28 33 74 34 29 35 73 36 30 37
REMARK SMILES IDX 31 38 32 39 67 40 33 41 72 42 66 43 68 44 34 45 71 46 65 47
REMARK SMILES IDX 64 48 35 50 57 51 42 52 56 53 43 54 46 55 55 56 69 57 44 58
REMARK SMILES IDX 45 59 54 61 70 62 47 63 36 64 37 65 41 66 38 67 40 68 39 69
REMARK SMILES IDX 58 70 59 71 63 72 60 73 62 74 61 75 48 76 49 77 53 78 50 79
REMARK SMILES IDX 52 80 51 81
REMARK H PARENT 17 6 3 11 6 14 11 20 24 30 68 49 46 60
REMARK Flexibility Score: inf
ROOT
ATOM      1  C   UNL A   1      33.076  26.825  22.368  1.00  0.00     0.021 C 
ENDROOT
BRANCH   1   2
ATOM      2  C   UNL A   1      33.237  25.383  22.831  1.00  0.00     0.116 C 
BRANCH   2   3
ATOM      3  N   UNL A   1      31.991  24.660  22.667  1.00  0.00    -0.354 N 
ATOM      4  C   UNL A   1      30.931  24.547  23.509  1.00  0.00     0.242 C 
ATOM      5  O   UNL A   1      30.001  23.817  23.149  1.00  0.00    -0.273 OA
ATOM      6  H   UNL A   1      31.899  24.178  21.814  1.00  0.00     0.163 HD
BRANCH   4   7
ATOM      7  C   UNL A   1      30.929  25.163  24.917  1.00  0.00     0.170 C 
ATOM      8  C   UNL A   1      30.237  26.527  24.794  1.00  0.00     0.041 C 
BRANCH   7   9
ATOM      9  N   UNL A   1      30.278  24.421  25.991  1.00  0.00    -0.327 N 
ATOM     10  C   UNL A   1      30.489  23.246  26.575  1.00  0.00     0.315 C 
ATOM     11  H   UNL A   1      29.506  24.899  26.368  1.00  0.00     0.166 HD
ATOM     12  O   UNL A   1      29.759  22.945  27.522  1.00  0.00    -0.249 OA
ATOM     13  N   UNL A   1      31.341  22.325  26.139  1.00  0.00    -0.338 N 
ATOM     14  H   UNL A   1      31.128  21.438  26.510  1.00  0.00     0.165 HD
BRANCH  13  15
ATOM     15  C   UNL A   1      32.500  22.262  25.266  1.00  0.00     0.127 C 
BRANCH  15  16
ATOM     16  C   UNL A   1      33.666  23.082  25.816  1.00  0.00     0.121 C 
BRANCH  16  17
ATOM     17  C   UNL A   1      34.441  22.378  26.913  1.00  0.00     0.221 C 
ATOM     18  O   UNL A   1      33.905  22.100  27.988  1.00  0.00    -0.275 OA
ATOM     19  N   UNL A   1      35.753  22.031  26.723  1.00  0.00    -0.353 N 
ATOM     20  H   UNL A   1      36.145  21.466  27.427  1.00  0.00     0.163 HD
BRANCH  19  21
ATOM     21  C   UNL A   1      36.636  22.367  25.653  1.00  0.00     0.082 C 
ATOM     22  C   UNL A   1      37.568  23.541  25.866  1.00  0.00     0.027 C 
ATOM     23  C   UNL A   1      38.120  22.157  25.727  1.00  0.00     0.027 C 
ENDBRANCH  19  21
ENDBRANCH  16  17
ENDBRANCH  15  16
ENDBRANCH  13  15
ENDBRANCH   7   9
ENDBRANCH   4   7
ENDBRANCH   2   3
ENDBRANCH   1   2
BRANCH   1  24
ATOM     24  C   UNL A   1      33.881  27.821  23.214  1.00  0.00     0.002 C 
BRANCH  24  25
ATOM     25  C   UNL A   1      33.632  27.739  24.724  1.00  0.00     0.002 C 
BRANCH  25  26
ATOM     26  C   UNL A   1      33.998  28.995  25.517  1.00  0.00     0.021 C 
BRANCH  26  27
ATOM     27  C   UNL A   1      33.700  28.925  27.010  1.00  0.00     0.116 C 
BRANCH  27  28
ATOM     28  N   UNL A   1      33.641  30.234  27.638  1.00  0.00    -0.352 N 
ATOM     29  C   UNL A   1      34.602  30.859  28.393  1.00  0.00     0.251 C 
ATOM     30  H   UNL A   1      32.806  30.738  27.504  1.00  0.00     0.163 HD
ATOM     31  O   UNL A   1      34.361  31.915  28.969  1.00  0.00    -0.269 OA
BRANCH  29  32
ATOM     32  C   UNL A   1      35.927  30.222  28.535  1.00  0.00     0.039 A 
ATOM     33  C   UNL A   1      36.859  30.370  27.505  1.00  0.00     0.014 A 
ATOM     34  C   UNL A   1      36.260  29.520  29.696  1.00  0.00     0.014 A 
ATOM     35  C   UNL A   1      38.150  29.864  27.668  1.00  0.00     0.010 A 
ATOM     36  C   UNL A   1      37.567  29.082  29.887  1.00  0.00     0.010 A 
ATOM     37  C   UNL A   1      38.524  29.248  28.874  1.00  0.00    -0.014 A 
BRANCH  37  38
ATOM     38  C   UNL A   1      39.914  28.771  29.095  1.00  0.00     0.031 A 
ATOM     39  C   UNL A   1      40.941  29.694  29.690  1.00  0.00     0.074 A 
ATOM     40  C   UNL A   1      40.265  27.530  28.701  1.00  0.00     0.049 A 
ATOM     41  N   UNL A   1      42.215  29.481  29.907  1.00  0.00    -0.248 NA
ATOM     42  C   UNL A   1      40.487  31.041  30.071  1.00  0.00     0.031 C 
ATOM     43  C   UNL A   1      39.371  26.551  28.077  1.00  0.00     0.029 A 
ATOM     44  N   UNL A   1      41.473  26.883  28.760  1.00  0.00    -0.354 N 
ATOM     45  C   UNL A   1      42.714  30.670  30.422  1.00  0.00     0.074 A 
ATOM     46  C   UNL A   1      41.620  31.614  30.449  1.00  0.00     0.031 C 
ATOM     47  C   UNL A   1      40.056  25.420  27.839  1.00  0.00     0.029 A 
ATOM     48  C   UNL A   1      41.443  25.607  28.249  1.00  0.00     0.049 A 
ATOM     49  H   UNL A   1      42.287  27.293  29.135  1.00  0.00     0.167 HD
ATOM     50  C   UNL A   1      43.969  30.946  30.847  1.00  0.00     0.031 A 
ATOM     51  C   UNL A   1      42.425  24.696  28.115  1.00  0.00     0.031 A 
ATOM     52  C   UNL A   1      45.052  29.999  30.842  1.00  0.00     0.049 A 
ATOM     53  C   UNL A   1      43.814  25.039  28.583  1.00  0.00     0.074 A 
ATOM     54  C   UNL A   1      46.338  30.161  31.327  1.00  0.00     0.029 A 
ATOM     55  N   UNL A   1      44.978  28.718  30.321  1.00  0.00    -0.354 N 
ATOM     56  N   UNL A   1      44.247  26.138  29.151  1.00  0.00    -0.248 NA
ATOM     57  C   UNL A   1      44.847  24.010  28.398  1.00  0.00     0.031 C 
ATOM     58  C   UNL A   1      47.061  29.000  31.041  1.00  0.00     0.029 A 
ATOM     59  C   UNL A   1      46.206  28.090  30.439  1.00  0.00     0.049 A 
ATOM     60  H   UNL A   1      44.172  28.313  29.926  1.00  0.00     0.167 HD
ATOM     61  C   UNL A   1      45.591  25.917  29.424  1.00  0.00     0.074 A 
ATOM     62  C   UNL A   1      45.897  24.576  28.974  1.00  0.00     0.031 C 
ATOM     63  C   UNL A   1      46.493  26.751  29.997  1.00  0.00     0.031 A 
BRANCH  50  64
ATOM     64  C   UNL A   1      44.252  32.336  31.347  1.00  0.00    -0.014 A 
ATOM     65  C   UNL A   1      44.215  32.645  32.715  1.00  0.00     0.009 A 
ATOM     66  C   UNL A   1      44.625  33.337  30.435  1.00  0.00     0.009 A 
ATOM     67  C   UNL A   1      44.520  33.934  33.157  1.00  0.00     0.001 A 
ATOM     68  C   UNL A   1      44.959  34.616  30.882  1.00  0.00     0.001 A 
ATOM     69  C   UNL A   1      44.899  34.915  32.242  1.00  0.00     0.000 A 
ENDBRANCH  50  64
BRANCH  51  70
ATOM     70  C   UNL A   1      42.145  23.363  27.512  1.00  0.00    -0.014 A 
ATOM     71  C   UNL A   1      41.609  22.326  28.293  1.00  0.00     0.009 A 
ATOM     72  C   UNL A   1      42.452  23.108  26.167  1.00  0.00     0.009 A 
ATOM     73  C   UNL A   1      41.428  21.052  27.750  1.00  0.00     0.001 A 
ATOM     74  C   UNL A   1      42.237  21.842  25.617  1.00  0.00     0.001 A 
ATOM     75  C   UNL A   1      41.739  20.812  26.413  1.00  0.00     0.000 A 
ENDBRANCH  51  70
BRANCH  63  76
ATOM     76  C   UNL A   1      47.882  26.223  30.216  1.00  0.00    -0.014 A 
ATOM     77  C   UNL A   1      48.850  26.259  29.201  1.00  0.00     0.009 A 
ATOM     78  C   UNL A   1      48.239  25.721  31.479  1.00  0.00     0.009 A 
ATOM     79  C   UNL A   1      50.137  25.773  29.436  1.00  0.00     0.001 A 
ATOM     80  C   UNL A   1      49.536  25.268  31.721  1.00  0.00     0.001 A 
ATOM     81  C   UNL A   1      50.480  25.284  30.697  1.00  0.00     0.000 A 
ENDBRANCH  63  76
ENDBRANCH  37  38
ENDBRANCH  29  32
ENDBRANCH  27  28
ENDBRANCH  26  27
ENDBRANCH  25  26
ENDBRANCH  24  25
ENDBRANCH   1  24
TORSDOF 18
ENDMDL
MODEL 2
REMARK VINA RESULT:      -9.6      0.364      5.973
REMARK SMILES C[C@@H](NC(=O)NCCC(=O)NC1CC1)C(=O)NCCCCCCNC(=O)c1ccc(-c2c3nc(c(-c4ccccc4)c4ccc([nH]4)c(-c4ccccc4)c4nc(c(-c5ccccc5)c5ccc2[nH]5)C=C4)C=C3)cc1
REMARK SMILES IDX 19 1 18 2 17 3 15 4 16 5 2 7 1 8 3 9 4 10 5 12 6 13 7 15
REMARK SMILES IDX 8 16 9 17 10 18 11 19 12 21 13 22 14 23 20 24 21 25 22 26
REMARK SMILES IDX 23 27 24 28 25 29 26 31 27 32 28 33 74 34 29 35 73 36 30 37
REMARK SMILES IDX 31 38 32 39 67 40 33 41 72 42 66 43 68 44 34 45 71 46 65 47
REMARK SMILES IDX 64 48 35 50 57 51 42 52 56 53 43 54 46 55 55 56 69 57 44 58
REMARK SMILES IDX 45 59 54 61 70 62 47 63 36 64 37 65 41 66 38 67 40 68 39 69
REMARK SMILES IDX 58 70 59 71 63 72 60 73 62 74 61 75 48 76 49 77 53 78 50 79
REMARK SMILES IDX 52 80 51 81
REMARK H PARENT 17 6 3 11 6 14 11 20 24 30 68 49 46 60
REMARK Flexibility Score: inf
ROOT
ATOM      1  C   UNL A   1      33.062  27.060  22.519  1.00  0.00     0.021 C 
ENDROOT
BRANCH   1   2
ATOM      2  C   UNL A   1      33.290  25.632  22.994  1.00  0.00     0.116 C 
BRANCH   2   3
ATOM      3  N   UNL A   1      32.092  24.839  22.795  1.00  0.00    -0.354 N 
ATOM      4  C   UNL A   1      31.023  24.656  23.612  1.00  0.00     0.242 C 
ATOM      5  O   UNL A   1      30.145  23.877  23.225  1.00  0.00    -0.273 OA
ATOM      6  H   UNL A   1      32.048  24.360  21.936  1.00  0.00     0.163 HD
BRANCH   4   7
ATOM      7  C   UNL A   1      30.952  25.258  25.025  1.00  0.00     0.170 C 
ATOM      8  C   UNL A   1      30.232  26.605  24.888  1.00  0.00     0.041 C 
BRANCH   7   9
ATOM      9  N   UNL A   1      30.281  24.489  26.066  1.00  0.00    -0.327 N 
ATOM     10  C   UNL A   1      30.463  23.287  26.604  1.00  0.00     0.315 C 
ATOM     11  H   UNL A   1      29.519  24.970  26.460  1.00  0.00     0.166 HD
ATOM     12  O   UNL A   1      29.723  22.966  27.536  1.00  0.00    -0.249 OA
ATOM     13  N   UNL A   1      31.296  22.365  26.134  1.00  0.00    -0.338 N 
ATOM     14  H   UNL A   1      31.061  21.470  26.470  1.00  0.00     0.165 HD
BRANCH  13  15
ATOM     15  C   UNL A   1      32.456  22.310  25.262  1.00  0.00     0.127 C 
BRANCH  15  16
ATOM     16  C   UNL A   1      33.688  22.926  25.924  1.00  0.00     0.121 C 
BRANCH  16  17
ATOM     17  C   UNL A   1      34.431  21.969  26.837  1.00  0.00     0.221 C 
ATOM     18  O   UNL A   1      33.942  21.611  27.911  1.00  0.00    -0.275 OA
ATOM     19  N   UNL A   1      35.659  21.479  26.478  1.00  0.00    -0.353 N 
ATOM     20  H   UNL A   1      36.015  20.769  27.059  1.00  0.00     0.163 HD
BRANCH  19  21
ATOM     21  C   UNL A   1      36.499  21.846  25.384  1.00  0.00     0.082 C 
ATOM     22  C   UNL A   1      37.715  22.692  25.696  1.00  0.00     0.027 C 
ATOM     23  C   UNL A   1      37.881  21.290  25.197  1.00  0.00     0.027 C 
ENDBRANCH  19  21
ENDBRANCH  16  17
ENDBRANCH  15  16
ENDBRANCH  13  15
ENDBRANCH   7   9
ENDBRANCH   4   7
ENDBRANCH   2   3
ENDBRANCH   1   2
BRANCH   1  24
ATOM     24  C   UNL A   1      33.804  28.101  23.368  1.00  0.00     0.002 C 
BRANCH  24  25
ATOM     25  C   UNL A   1      33.699  27.896  24.883  1.00  0.00     0.002 C 
BRANCH  25  26
ATOM     26  C   UNL A   1      34.120  29.095  25.737  1.00  0.00     0.021 C 
BRANCH  26  27
ATOM     27  C   UNL A   1      33.812  28.967  27.224  1.00  0.00     0.116 C 
BRANCH  27  28
ATOM     28  N   UNL A   1      33.731  30.252  27.897  1.00  0.00    -0.352 N 
ATOM     29  C   UNL A   1      34.694  30.883  28.645  1.00  0.00     0.251 C 
ATOM     30  H   UNL A   1      32.876  30.733  27.804  1.00  0.00     0.163 HD
ATOM     31  O   UNL A   1      34.438  31.910  29.264  1.00  0.00    -0.269 OA
BRANCH  29  32
ATOM     32  C   UNL A   1      36.042  30.285  28.727  1.00  0.00     0.039 A 
ATOM     33  C   UNL A   1      36.921  30.457  27.655  1.00  0.00     0.014 A 
ATOM     34  C   UNL A   1      36.448  29.596  29.873  1.00  0.00     0.014 A 
ATOM     35  C   UNL A   1      38.233  29.988  27.759  1.00  0.00     0.010 A 
ATOM     36  C   UNL A   1      37.775  29.197  30.004  1.00  0.00     0.010 A 
ATOM     37  C   UNL A   1      38.679  29.387  28.948  1.00  0.00    -0.014 A 
BRANCH  37  38
ATOM     38  C   UNL A   1      40.091  28.951  29.105  1.00  0.00     0.031 A 
ATOM     39  C   UNL A   1      40.507  27.573  28.669  1.00  0.00     0.074 A 
ATOM     40  C   UNL A   1      40.981  29.772  29.698  1.00  0.00     0.049 A 
ATOM     41  N   UNL A   1      41.675  26.992  28.775  1.00  0.00    -0.248 NA
ATOM     42  C   UNL A   1      39.472  26.727  28.054  1.00  0.00     0.031 C 
ATOM     43  C   UNL A   1      40.695  31.119  30.198  1.00  0.00     0.029 A 
ATOM     44  N   UNL A   1      42.310  29.589  29.987  1.00  0.00    -0.354 N 
ATOM     45  C   UNL A   1      41.507  25.711  28.267  1.00  0.00     0.074 A 
ATOM     46  C   UNL A   1      40.117  25.583  27.889  1.00  0.00     0.031 C 
ATOM     47  C   UNL A   1      41.820  31.649  30.705  1.00  0.00     0.029 A 
ATOM     48  C   UNL A   1      42.894  30.666  30.609  1.00  0.00     0.049 A 
ATOM     49  H   UNL A   1      42.800  28.762  29.769  1.00  0.00     0.167 HD
ATOM     50  C   UNL A   1      42.431  24.733  28.115  1.00  0.00     0.031 A 
ATOM     51  C   UNL A   1      44.151  30.839  31.061  1.00  0.00     0.031 A 
ATOM     52  C   UNL A   1      43.818  24.870  28.470  1.00  0.00     0.049 A 
ATOM     53  C   UNL A   1      45.151  29.726  30.893  1.00  0.00     0.074 A 
ATOM     54  C   UNL A   1      44.847  23.963  28.280  1.00  0.00     0.029 A 
ATOM     55  N   UNL A   1      44.369  25.977  29.091  1.00  0.00    -0.354 N 
ATOM     56  N   UNL A   1      44.996  28.554  30.327  1.00  0.00    -0.248 NA
ATOM     57  C   UNL A   1      46.502  29.967  31.418  1.00  0.00     0.031 C 
ATOM     58  C   UNL A   1      46.008  24.496  28.846  1.00  0.00     0.029 A 
ATOM     59  C   UNL A   1      45.717  25.763  29.326  1.00  0.00     0.049 A 
ATOM     60  H   UNL A   1      43.877  26.796  29.331  1.00  0.00     0.167 HD
ATOM     61  C   UNL A   1      46.238  27.935  30.396  1.00  0.00     0.074 A 
ATOM     62  C   UNL A   1      47.137  28.866  31.043  1.00  0.00     0.031 C 
ATOM     63  C   UNL A   1      46.602  26.703  29.962  1.00  0.00     0.031 A 
BRANCH  50  64
ATOM     64  C   UNL A   1      41.974  23.417  27.551  1.00  0.00    -0.014 A 
ATOM     65  C   UNL A   1      42.123  23.112  26.189  1.00  0.00     0.009 A 
ATOM     66  C   UNL A   1      41.446  22.440  28.411  1.00  0.00     0.009 A 
ATOM     67  C   UNL A   1      41.727  21.866  25.697  1.00  0.00     0.001 A 
ATOM     68  C   UNL A   1      41.079  21.186  27.922  1.00  0.00     0.001 A 
ATOM     69  C   UNL A   1      41.213  20.903  26.564  1.00  0.00     0.000 A 
ENDBRANCH  50  64
BRANCH  51  70
ATOM     70  C   UNL A   1      44.551  32.113  31.720  1.00  0.00    -0.014 A 
ATOM     71  C   UNL A   1      44.488  32.244  33.117  1.00  0.00     0.009 A 
ATOM     72  C   UNL A   1      44.955  33.218  30.954  1.00  0.00     0.009 A 
ATOM     73  C   UNL A   1      44.779  33.466  33.728  1.00  0.00     0.001 A 
ATOM     74  C   UNL A   1      45.279  34.428  31.571  1.00  0.00     0.001 A 
ATOM     75  C   UNL A   1      45.177  34.555  32.956  1.00  0.00     0.000 A 
ENDBRANCH  51  70
BRANCH  63  76
ATOM     76  C   UNL A   1      48.042  26.311  30.125  1.00  0.00    -0.014 A 
ATOM     77  C   UNL A   1      48.507  25.696  31.298  1.00  0.00     0.009 A 
ATOM     78  C   UNL A   1      48.940  26.519  29.066  1.00  0.00     0.009 A 
ATOM     79  C   UNL A   1      49.848  25.329  31.419  1.00  0.00     0.001 A 
ATOM     80  C   UNL A   1      50.272  26.121  29.175  1.00  0.00     0.001 A 
ATOM     81  C   UNL A   1      50.727  25.535  30.356  1.00  0.00     0.000 A 
ENDBRANCH  63  76
ENDBRANCH  37  38
ENDBRANCH  29  32
ENDBRANCH  27  28
ENDBRANCH  26  27
ENDBRANCH  25  26
ENDBRANCH  24  25
ENDBRANCH   1  24
TORSDOF 18
ENDMDL
MODEL 3
REMARK VINA RESULT:      -9.5      2.477      7.634
REMARK SMILES C[C@@H](NC(=O)NCCC(=O)NC1CC1)C(=O)NCCCCCCNC(=O)c1ccc(-c2c3nc(c(-c4ccccc4)c4ccc([nH]4)c(-c4ccccc4)c4nc(c(-c5ccccc5)c5ccc2[nH]5)C=C4)C=C3)cc1
REMARK SMILES IDX 19 1 18 2 17 3 15 4 16 5 2 7 1 8 3 9 4 10 5 12 6 13 7 15
REMARK SMILES IDX 8 16 9 17 10 18 11 19 12 21 13 22 14 23 20 24 21 25 22 26
REMARK SMILES IDX 23 27 24 28 25 29 26 31 27 32 28 33 74 34 29 35 73 36 30 37
REMARK SMILES IDX 31 38 32 39 67 40 33 41 72 42 66 43 68 44 34 45 71 46 65 47
REMARK SMILES IDX 64 48 35 50 57 51 42 52 56 53 43 54 46 55 55 56 69 57 44 58
REMARK SMILES IDX 45 59 54 61 70 62 47 63 36 64 37 65 41 66 38 67 40 68 39 69
REMARK SMILES IDX 58 70 59 71 63 72 60 73 62 74 61 75 48 76 49 77 53 78 50 79
REMARK SMILES IDX 52 80 51 81
REMARK H PARENT 17 6 3 11 6 14 11 20 24 30 68 49 46 60
REMARK Flexibility Score: inf
ROOT
ATOM      1  C   UNL A   1      32.442  22.720  23.957  1.00  0.00     0.021 C 
ENDROOT
BRANCH   1   2
ATOM      2  C   UNL A   1      31.621  23.764  23.212  1.00  0.00     0.116 C 
BRANCH   2   3
ATOM      3  N   UNL A   1      32.281  24.134  21.976  1.00  0.00    -0.354 N 
ATOM      4  C   UNL A   1      32.689  25.352  21.536  1.00  0.00     0.242 C 
ATOM      5  O   UNL A   1      33.185  25.406  20.405  1.00  0.00    -0.273 OA
ATOM      6  H   UNL A   1      32.460  23.387  21.360  1.00  0.00     0.163 HD
BRANCH   4   7
ATOM      7  C   UNL A   1      32.422  26.645  22.324  1.00  0.00     0.170 C 
ATOM      8  C   UNL A   1      33.676  27.515  22.171  1.00  0.00     0.041 C 
BRANCH   7   9
ATOM      9  N   UNL A   1      31.265  27.449  21.951  1.00  0.00    -0.327 N 
ATOM     10  C   UNL A   1      30.245  27.983  22.615  1.00  0.00     0.315 C 
ATOM     11  H   UNL A   1      31.231  27.641  20.986  1.00  0.00     0.166 HD
ATOM     12  O   UNL A   1      29.452  28.677  21.975  1.00  0.00    -0.249 OA
ATOM     13  N   UNL A   1      29.950  27.726  23.885  1.00  0.00    -0.338 N 
ATOM     14  H   UNL A   1      29.016  27.962  24.088  1.00  0.00     0.165 HD
BRANCH  13  15
ATOM     15  C   UNL A   1      30.622  27.191  25.056  1.00  0.00     0.127 C 
BRANCH  15  16
ATOM     16  C   UNL A   1      31.699  28.143  25.572  1.00  0.00     0.121 C 
BRANCH  16  17
ATOM     17  C   UNL A   1      31.828  28.156  27.083  1.00  0.00     0.221 C 
ATOM     18  O   UNL A   1      31.006  27.571  27.793  1.00  0.00    -0.275 OA
ATOM     19  N   UNL A   1      32.867  28.814  27.686  1.00  0.00    -0.353 N 
ATOM     20  H   UNL A   1      32.953  28.667  28.655  1.00  0.00     0.163 HD
BRANCH  19  21
ATOM     21  C   UNL A   1      33.848  29.680  27.115  1.00  0.00     0.082 C 
ATOM     22  C   UNL A   1      33.841  31.126  27.562  1.00  0.00     0.027 C 
ATOM     23  C   UNL A   1      34.997  30.239  27.902  1.00  0.00     0.027 C 
ENDBRANCH  19  21
ENDBRANCH  16  17
ENDBRANCH  15  16
ENDBRANCH  13  15
ENDBRANCH   7   9
ENDBRANCH   4   7
ENDBRANCH   2   3
ENDBRANCH   1   2
BRANCH   1  24
ATOM     24  C   UNL A   1      33.555  23.334  24.818  1.00  0.00     0.002 C 
BRANCH  24  25
ATOM     25  C   UNL A   1      34.967  22.821  24.516  1.00  0.00     0.002 C 
BRANCH  25  26
ATOM     26  C   UNL A   1      36.092  23.836  24.728  1.00  0.00     0.021 C 
BRANCH  26  27
ATOM     27  C   UNL A   1      36.845  23.698  26.046  1.00  0.00     0.116 C 
BRANCH  27  28
ATOM     28  N   UNL A   1      37.804  22.606  26.039  1.00  0.00    -0.352 N 
ATOM     29  C   UNL A   1      39.148  22.654  26.316  1.00  0.00     0.251 C 
ATOM     30  H   UNL A   1      37.444  21.720  25.807  1.00  0.00     0.163 HD
ATOM     31  O   UNL A   1      39.860  21.670  26.142  1.00  0.00    -0.269 OA
BRANCH  29  32
ATOM     32  C   UNL A   1      39.736  23.921  26.793  1.00  0.00     0.039 A 
ATOM     33  C   UNL A   1      40.108  24.886  25.854  1.00  0.00     0.014 A 
ATOM     34  C   UNL A   1      39.880  24.170  28.160  1.00  0.00     0.014 A 
ATOM     35  C   UNL A   1      40.569  26.130  26.292  1.00  0.00     0.010 A 
ATOM     36  C   UNL A   1      40.268  25.434  28.594  1.00  0.00     0.010 A 
ATOM     37  C   UNL A   1      40.619  26.425  27.665  1.00  0.00    -0.014 A 
BRANCH  37  38
ATOM     38  C   UNL A   1      41.033  27.767  28.147  1.00  0.00     0.031 A 
ATOM     39  C   UNL A   1      42.493  28.124  28.221  1.00  0.00     0.074 A 
ATOM     40  C   UNL A   1      40.100  28.640  28.577  1.00  0.00     0.049 A 
ATOM     41  N   UNL A   1      43.052  29.221  28.666  1.00  0.00    -0.248 NA
ATOM     42  C   UNL A   1      43.451  27.108  27.757  1.00  0.00     0.031 C 
ATOM     43  C   UNL A   1      38.654  28.402  28.591  1.00  0.00     0.029 A 
ATOM     44  N   UNL A   1      40.231  29.905  29.094  1.00  0.00    -0.354 N 
ATOM     45  C   UNL A   1      44.421  29.015  28.560  1.00  0.00     0.074 A 
ATOM     46  C   UNL A   1      44.612  27.677  28.047  1.00  0.00     0.031 C 
ATOM     47  C   UNL A   1      38.033  29.495  29.064  1.00  0.00     0.029 A 
ATOM     48  C   UNL A   1      39.034  30.492  29.429  1.00  0.00     0.049 A 
ATOM     49  H   UNL A   1      41.101  30.351  29.213  1.00  0.00     0.167 HD
ATOM     50  C   UNL A   1      45.430  29.871  28.850  1.00  0.00     0.031 A 
ATOM     51  C   UNL A   1      38.772  31.693  29.979  1.00  0.00     0.031 A 
ATOM     52  C   UNL A   1      45.239  31.210  29.338  1.00  0.00     0.049 A 
ATOM     53  C   UNL A   1      39.917  32.615  30.306  1.00  0.00     0.074 A 
ATOM     54  C   UNL A   1      46.196  32.179  29.584  1.00  0.00     0.029 A 
ATOM     55  N   UNL A   1      44.012  31.766  29.658  1.00  0.00    -0.354 N 
ATOM     56  N   UNL A   1      41.202  32.438  30.113  1.00  0.00    -0.248 NA
ATOM     57  C   UNL A   1      39.572  33.906  30.917  1.00  0.00     0.031 C 
ATOM     58  C   UNL A   1      45.554  33.300  30.116  1.00  0.00     0.029 A 
ATOM     59  C   UNL A   1      44.190  33.054  30.136  1.00  0.00     0.049 A 
ATOM     60  H   UNL A   1      43.143  31.315  29.561  1.00  0.00     0.167 HD
ATOM     61  C   UNL A   1      41.812  33.609  30.545  1.00  0.00     0.074 A 
ATOM     62  C   UNL A   1      40.757  34.493  30.994  1.00  0.00     0.031 C 
ATOM     63  C   UNL A   1      43.130  33.925  30.569  1.00  0.00     0.031 A 
BRANCH  50  64
ATOM     64  C   UNL A   1      46.840  29.384  28.661  1.00  0.00    -0.014 A 
ATOM     65  C   UNL A   1      47.550  29.635  27.477  1.00  0.00     0.009 A 
ATOM     66  C   UNL A   1      47.490  28.719  29.714  1.00  0.00     0.009 A 
ATOM     67  C   UNL A   1      48.873  29.207  27.341  1.00  0.00     0.001 A 
ATOM     68  C   UNL A   1      48.821  28.319  29.586  1.00  0.00     0.001 A 
ATOM     69  C   UNL A   1      49.508  28.556  28.397  1.00  0.00     0.000 A 
ENDBRANCH  50  64
BRANCH  51  70
ATOM     70  C   UNL A   1      37.371  32.108  30.261  1.00  0.00    -0.014 A 
ATOM     71  C   UNL A   1      36.727  33.050  29.442  1.00  0.00     0.009 A 
ATOM     72  C   UNL A   1      36.685  31.599  31.376  1.00  0.00     0.009 A 
ATOM     73  C   UNL A   1      35.445  33.505  29.758  1.00  0.00     0.001 A 
ATOM     74  C   UNL A   1      35.389  32.030  31.669  1.00  0.00     0.001 A 
ATOM     75  C   UNL A   1      34.776  32.993  30.869  1.00  0.00     0.000 A 
ENDBRANCH  51  70
BRANCH  63  76
ATOM     76  C   UNL A   1      43.503  35.299  31.048  1.00  0.00    -0.014 A 
ATOM     77  C   UNL A   1      43.672  35.580  32.413  1.00  0.00     0.009 A 
ATOM     78  C   UNL A   1      43.734  36.319  30.110  1.00  0.00     0.009 A 
ATOM     79  C   UNL A   1      44.033  36.863  32.830  1.00  0.00     0.001 A 
ATOM     80  C   UNL A   1      44.127  37.591  30.527  1.00  0.00     0.001 A 
ATOM     81  C   UNL A   1      44.266  37.864  31.887  1.00  0.00     0.000 A 
ENDBRANCH  63  76
ENDBRANCH  37  38
ENDBRANCH  29  32
ENDBRANCH  27  28
ENDBRANCH  26  27
ENDBRANCH  25  26
ENDBRANCH  24  25
ENDBRANCH   1  24
TORSDOF 18
ENDMDL
