MODEL 1
REMARK VINA RESULT:     -12.1      0.000      0.000
REMARK SMILES O=C(COc1ccccc1/C=N/NC(=O)c1cc(-c2ccc(F)cc2)nc2ccccc12)NCCCCCCNC(=O)c1ccc(-c2c3nc(c(-c4ccccc4)c4ccc([nH]4)c(-c4ccccc4)c4nc(c(-c5ccccc5)c5ccc2[nH]5)C=C4)C=C3)cc1
REMARK SMILES IDX 34 1 33 2 1 3 2 4 3 6 4 7 5 8 6 9 10 10 7 11 9 12 8 13 11 14
REMARK SMILES IDX 12 15 13 16 14 17 15 19 16 20 17 21 32 22 18 23 27 24 31 25
REMARK SMILES IDX 26 26 28 27 30 28 29 29 19 30 20 31 25 32 21 33 24 34 22 35
REMARK SMILES IDX 23 36 35 37 36 38 37 39 38 40 39 41 40 42 41 43 42 45 43 46
REMARK SMILES IDX 44 47 90 48 45 49 89 50 46 51 47 52 48 53 83 54 49 55 88 56
REMARK SMILES IDX 82 57 84 58 50 59 87 60 81 61 80 62 51 64 73 65 58 66 72 67
REMARK SMILES IDX 59 68 62 69 71 70 85 71 60 72 61 73 70 75 86 76 63 77 52 78
REMARK SMILES IDX 53 79 57 80 54 81 56 82 55 83 74 84 75 85 79 86 76 87 78 88
REMARK SMILES IDX 77 89 64 90 65 91 69 92 66 93 68 94 67 95
REMARK H PARENT 33 5 13 18 40 44 84 63 62 74
REMARK Flexibility Score: inf
ROOT
ATOM      1  C   UNL A   1      34.952  31.103  28.159  1.00  0.00     0.116 C 
ENDROOT
BRANCH   1   2
ATOM      2  N   UNL A   1      34.781  30.472  26.881  1.00  0.00    -0.353 N 
ATOM      3  O   UNL A   1      33.510  28.625  27.444  1.00  0.00    -0.271 OA
ATOM      4  C   UNL A   1      33.800  29.503  26.669  1.00  0.00     0.257 C 
ATOM      5  H   UNL A   1      35.369  30.730  26.136  1.00  0.00     0.163 HD
BRANCH   4   6
ATOM      6  C   UNL A   1      33.078  29.687  25.343  1.00  0.00     0.329 C 
BRANCH   6   7
ATOM      7  O   UNL A   1      31.689  29.528  25.618  1.00  0.00    -0.483 OA
BRANCH   7   8
ATOM      8  C   UNL A   1      30.985  28.855  24.669  1.00  0.00     0.128 A 
ATOM      9  C   UNL A   1      30.293  29.735  23.816  1.00  0.00     0.047 A 
ATOM     10  C   UNL A   1      30.699  27.482  24.657  1.00  0.00     0.037 A 
ATOM     11  C   UNL A   1      29.295  29.280  22.961  1.00  0.00     0.004 A 
ATOM     12  C   UNL A   1      29.668  27.050  23.789  1.00  0.00     0.013 A 
ATOM     13  C   UNL A   1      28.971  27.934  22.959  1.00  0.00     0.001 A 
BRANCH  10  14
ATOM     14  C   UNL A   1      31.224  26.352  25.487  1.00  0.00     0.145 C 
ATOM     15  N   UNL A   1      30.677  25.222  25.869  1.00  0.00    -0.180 NA
BRANCH  15  16
ATOM     16  N   UNL A   1      31.412  24.668  26.917  1.00  0.00    -0.243 N 
ATOM     17  C   UNL A   1      32.142  23.500  27.104  1.00  0.00     0.272 C 
ATOM     18  H   UNL A   1      31.413  25.243  27.716  1.00  0.00     0.194 HD
ATOM     19  O   UNL A   1      32.469  23.304  28.280  1.00  0.00    -0.267 OA
BRANCH  17  20
ATOM     20  C   UNL A   1      32.680  22.588  26.043  1.00  0.00     0.053 A 
ATOM     21  C   UNL A   1      32.087  21.355  25.753  1.00  0.00     0.043 A 
ATOM     22  C   UNL A   1      33.891  22.952  25.326  1.00  0.00     0.013 A 
ATOM     23  C   UNL A   1      32.501  20.709  24.598  1.00  0.00     0.072 A 
ATOM     24  C   UNL A   1      34.124  22.255  24.133  1.00  0.00     0.072 A 
ATOM     25  C   UNL A   1      34.930  23.860  25.688  1.00  0.00     0.011 A 
ATOM     26  N   UNL A   1      33.358  21.277  23.725  1.00  0.00    -0.248 NA
ATOM     27  C   UNL A   1      35.245  22.447  23.347  1.00  0.00     0.029 A 
ATOM     28  C   UNL A   1      36.112  23.988  24.938  1.00  0.00     0.001 A 
ATOM     29  C   UNL A   1      36.267  23.284  23.755  1.00  0.00     0.002 A 
BRANCH  23  30
ATOM     30  C   UNL A   1      32.383  19.298  24.197  1.00  0.00     0.000 A 
ATOM     31  C   UNL A   1      32.993  18.364  25.067  1.00  0.00     0.013 A 
ATOM     32  C   UNL A   1      32.291  18.970  22.832  1.00  0.00     0.013 A 
ATOM     33  C   UNL A   1      33.661  17.250  24.557  1.00  0.00     0.040 A 
ATOM     34  C   UNL A   1      32.951  17.847  22.325  1.00  0.00     0.040 A 
ATOM     35  C   UNL A   1      33.667  17.027  23.188  1.00  0.00     0.123 A 
ATOM     36  F   UNL A   1      34.425  16.043  22.685  1.00  0.00    -0.207 F 
ENDBRANCH  23  30
ENDBRANCH  17  20
ENDBRANCH  15  16
ENDBRANCH  10  14
ENDBRANCH   7   8
ENDBRANCH   6   7
ENDBRANCH   4   6
ENDBRANCH   1   2
BRANCH   1  37
ATOM     37  C   UNL A   1      35.791  32.355  28.146  1.00  0.00     0.021 C 
BRANCH  37  38
ATOM     38  C   UNL A   1      35.266  33.448  29.062  1.00  0.00     0.002 C 
BRANCH  38  39
ATOM     39  C   UNL A   1      35.059  34.808  28.390  1.00  0.00     0.002 C 
BRANCH  39  40
ATOM     40  C   UNL A   1      33.845  35.613  28.863  1.00  0.00     0.021 C 
BRANCH  40  41
ATOM     41  C   UNL A   1      32.839  34.847  29.718  1.00  0.00     0.116 C 
BRANCH  41  42
ATOM     42  N   UNL A   1      32.426  35.602  30.888  1.00  0.00    -0.352 N 
ATOM     43  C   UNL A   1      32.918  35.605  32.162  1.00  0.00     0.251 C 
ATOM     44  H   UNL A   1      31.667  36.210  30.739  1.00  0.00     0.163 HD
ATOM     45  O   UNL A   1      32.302  36.180  33.056  1.00  0.00    -0.269 OA
BRANCH  43  46
ATOM     46  C   UNL A   1      34.178  34.904  32.475  1.00  0.00     0.039 A 
ATOM     47  C   UNL A   1      34.101  33.606  32.986  1.00  0.00     0.014 A 
ATOM     48  C   UNL A   1      35.419  35.527  32.309  1.00  0.00     0.014 A 
ATOM     49  C   UNL A   1      35.273  32.916  33.291  1.00  0.00     0.010 A 
ATOM     50  C   UNL A   1      36.589  34.812  32.546  1.00  0.00     0.010 A 
ATOM     51  C   UNL A   1      36.526  33.505  33.051  1.00  0.00    -0.014 A 
BRANCH  51  52
ATOM     52  C   UNL A   1      37.772  32.753  33.327  1.00  0.00     0.031 A 
ATOM     53  C   UNL A   1      38.533  32.978  34.601  1.00  0.00     0.074 A 
ATOM     54  C   UNL A   1      38.231  31.884  32.407  1.00  0.00     0.049 A 
ATOM     55  N   UNL A   1      39.621  32.386  35.026  1.00  0.00    -0.248 NA
ATOM     56  C   UNL A   1      38.021  34.018  35.507  1.00  0.00     0.031 C 
ATOM     57  C   UNL A   1      37.604  31.611  31.111  1.00  0.00     0.029 A 
ATOM     58  N   UNL A   1      39.329  31.062  32.425  1.00  0.00    -0.354 N 
ATOM     59  C   UNL A   1      39.932  32.992  36.237  1.00  0.00     0.074 A 
ATOM     60  C   UNL A   1      38.947  34.028  36.456  1.00  0.00     0.031 C 
ATOM     61  C   UNL A   1      38.300  30.651  30.481  1.00  0.00     0.029 A 
ATOM     62  C   UNL A   1      39.437  30.267  31.310  1.00  0.00     0.049 A 
ATOM     63  H   UNL A   1      39.976  31.043  33.166  1.00  0.00     0.167 HD
ATOM     64  C   UNL A   1      40.937  32.701  37.097  1.00  0.00     0.031 A 
ATOM     65  C   UNL A   1      40.345  29.326  30.997  1.00  0.00     0.031 A 
ATOM     66  C   UNL A   1      41.911  31.664  36.881  1.00  0.00     0.049 A 
ATOM     67  C   UNL A   1      41.451  29.023  31.967  1.00  0.00     0.074 A 
ATOM     68  C   UNL A   1      42.924  31.241  37.725  1.00  0.00     0.029 A 
ATOM     69  N   UNL A   1      41.997  30.892  35.733  1.00  0.00    -0.354 N 
ATOM     70  N   UNL A   1      41.681  29.545  33.148  1.00  0.00    -0.248 NA
ATOM     71  C   UNL A   1      42.414  27.990  31.563  1.00  0.00     0.031 C 
ATOM     72  C   UNL A   1      43.657  30.250  37.062  1.00  0.00     0.029 A 
ATOM     73  C   UNL A   1      43.066  30.017  35.830  1.00  0.00     0.049 A 
ATOM     74  H   UNL A   1      41.389  30.956  34.961  1.00  0.00     0.167 HD
ATOM     75  C   UNL A   1      42.800  28.887  33.639  1.00  0.00     0.074 A 
ATOM     76  C   UNL A   1      43.189  27.916  32.636  1.00  0.00     0.031 C 
ATOM     77  C   UNL A   1      43.449  29.069  34.816  1.00  0.00     0.031 A 
BRANCH  64  78
ATOM     78  C   UNL A   1      41.039  33.535  38.345  1.00  0.00    -0.014 A 
ATOM     79  C   UNL A   1      40.376  33.169  39.527  1.00  0.00     0.009 A 
ATOM     80  C   UNL A   1      41.822  34.701  38.340  1.00  0.00     0.009 A 
ATOM     81  C   UNL A   1      40.461  33.974  40.666  1.00  0.00     0.001 A 
ATOM     82  C   UNL A   1      41.930  35.487  39.489  1.00  0.00     0.001 A 
ATOM     83  C   UNL A   1      41.240  35.131  40.646  1.00  0.00     0.000 A 
ENDBRANCH  64  78
BRANCH  65  84
ATOM     84  C   UNL A   1      40.222  28.570  29.725  1.00  0.00    -0.014 A 
ATOM     85  C   UNL A   1      39.491  27.373  29.683  1.00  0.00     0.009 A 
ATOM     86  C   UNL A   1      40.827  29.040  28.548  1.00  0.00     0.009 A 
ATOM     87  C   UNL A   1      39.387  26.649  28.494  1.00  0.00     0.001 A 
ATOM     88  C   UNL A   1      40.699  28.326  27.354  1.00  0.00     0.001 A 
ATOM     89  C   UNL A   1      39.986  27.128  27.330  1.00  0.00     0.000 A 
ENDBRANCH  65  84
BRANCH  77  90
ATOM     90  C   UNL A   1      44.630  28.179  35.082  1.00  0.00    -0.014 A 
ATOM     91  C   UNL A   1      45.924  28.545  34.676  1.00  0.00     0.009 A 
ATOM     92  C   UNL A   1      44.447  26.963  35.759  1.00  0.00     0.009 A 
ATOM     93  C   UNL A   1      47.003  27.688  34.903  1.00  0.00     0.001 A 
ATOM     94  C   UNL A   1      45.533  26.124  36.013  1.00  0.00     0.001 A 
ATOM     95  C   UNL A   1      46.807  26.482  35.574  1.00  0.00     0.000 A 
ENDBRANCH  77  90
ENDBRANCH  51  52
ENDBRANCH  43  46
ENDBRANCH  41  42
ENDBRANCH  40  41
ENDBRANCH  39  40
ENDBRANCH  38  39
ENDBRANCH  37  38
ENDBRANCH   1  37
TORSDOF 19
ENDMDL
MODEL 2
REMARK VINA RESULT:     -12.0      0.671      5.484
REMARK SMILES O=C(COc1ccccc1/C=N/NC(=O)c1cc(-c2ccc(F)cc2)nc2ccccc12)NCCCCCCNC(=O)c1ccc(-c2c3nc(c(-c4ccccc4)c4ccc([nH]4)c(-c4ccccc4)c4nc(c(-c5ccccc5)c5ccc2[nH]5)C=C4)C=C3)cc1
REMARK SMILES IDX 34 1 33 2 1 3 2 4 3 6 4 7 5 8 6 9 10 10 7 11 9 12 8 13 11 14
REMARK SMILES IDX 12 15 13 16 14 17 15 19 16 20 17 21 32 22 18 23 27 24 31 25
REMARK SMILES IDX 26 26 28 27 30 28 29 29 19 30 20 31 25 32 21 33 24 34 22 35
REMARK SMILES IDX 23 36 35 37 36 38 37 39 38 40 39 41 40 42 41 43 42 45 43 46
REMARK SMILES IDX 44 47 90 48 45 49 89 50 46 51 47 52 48 53 83 54 49 55 88 56
REMARK SMILES IDX 82 57 84 58 50 59 87 60 81 61 80 62 51 64 73 65 58 66 72 67
REMARK SMILES IDX 59 68 62 69 71 70 85 71 60 72 61 73 70 75 86 76 63 77 52 78
REMARK SMILES IDX 53 79 57 80 54 81 56 82 55 83 74 84 75 85 79 86 76 87 78 88
REMARK SMILES IDX 77 89 64 90 65 91 69 92 66 93 68 94 67 95
REMARK H PARENT 33 5 13 18 40 44 84 63 62 74
REMARK Flexibility Score: inf
ROOT
ATOM      1  C   UNL A   1      34.789  31.235  28.112  1.00  0.00     0.116 C 
ENDROOT
BRANCH   1   2
ATOM      2  N   UNL A   1      34.736  30.479  26.893  1.00  0.00    -0.353 N 
ATOM      3  O   UNL A   1      33.660  28.554  27.589  1.00  0.00    -0.271 OA
ATOM      4  C   UNL A   1      33.878  29.389  26.745  1.00  0.00     0.257 C 
ATOM      5  H   UNL A   1      35.319  30.736  26.144  1.00  0.00     0.163 HD
BRANCH   4   6
ATOM      6  C   UNL A   1      33.189  29.371  25.390  1.00  0.00     0.329 C 
BRANCH   6   7
ATOM      7  O   UNL A   1      31.789  29.328  25.652  1.00  0.00    -0.483 OA
BRANCH   7   8
ATOM      8  C   UNL A   1      31.044  28.679  24.717  1.00  0.00     0.128 A 
ATOM      9  C   UNL A   1      30.360  29.583  23.883  1.00  0.00     0.047 A 
ATOM     10  C   UNL A   1      30.718  27.316  24.707  1.00  0.00     0.037 A 
ATOM     11  C   UNL A   1      29.330  29.161  23.049  1.00  0.00     0.004 A 
ATOM     12  C   UNL A   1      29.656  26.917  23.862  1.00  0.00     0.013 A 
ATOM     13  C   UNL A   1      28.967  27.825  23.050  1.00  0.00     0.001 A 
BRANCH  10  14
ATOM     14  C   UNL A   1      31.228  26.167  25.522  1.00  0.00     0.145 C 
ATOM     15  N   UNL A   1      30.962  24.883  25.482  1.00  0.00    -0.180 NA
BRANCH  15  16
ATOM     16  N   UNL A   1      31.394  24.271  26.657  1.00  0.00    -0.243 N 
ATOM     17  C   UNL A   1      32.057  23.089  26.971  1.00  0.00     0.272 C 
ATOM     18  H   UNL A   1      31.179  24.803  27.457  1.00  0.00     0.194 HD
ATOM     19  O   UNL A   1      32.061  22.831  28.181  1.00  0.00    -0.267 OA
BRANCH  17  20
ATOM     20  C   UNL A   1      32.865  22.230  26.046  1.00  0.00     0.053 A 
ATOM     21  C   UNL A   1      32.467  20.935  25.700  1.00  0.00     0.043 A 
ATOM     22  C   UNL A   1      34.134  22.718  25.533  1.00  0.00     0.013 A 
ATOM     23  C   UNL A   1      33.141  20.324  24.653  1.00  0.00     0.072 A 
ATOM     24  C   UNL A   1      34.643  22.037  24.420  1.00  0.00     0.072 A 
ATOM     25  C   UNL A   1      34.991  23.741  26.037  1.00  0.00     0.011 A 
ATOM     26  N   UNL A   1      34.069  20.974  23.920  1.00  0.00    -0.248 NA
ATOM     27  C   UNL A   1      35.854  22.342  23.829  1.00  0.00     0.029 A 
ATOM     28  C   UNL A   1      36.264  23.992  25.493  1.00  0.00     0.001 A 
ATOM     29  C   UNL A   1      36.695  23.294  24.377  1.00  0.00     0.002 A 
BRANCH  23  30
ATOM     30  C   UNL A   1      33.247  18.904  24.283  1.00  0.00     0.000 A 
ATOM     31  C   UNL A   1      32.237  18.061  24.801  1.00  0.00     0.013 A 
ATOM     32  C   UNL A   1      34.515  18.344  24.036  1.00  0.00     0.013 A 
ATOM     33  C   UNL A   1      32.543  16.773  25.243  1.00  0.00     0.040 A 
ATOM     34  C   UNL A   1      34.816  17.050  24.469  1.00  0.00     0.040 A 
ATOM     35  C   UNL A   1      33.839  16.298  25.109  1.00  0.00     0.123 A 
ATOM     36  F   UNL A   1      34.169  15.122  25.661  1.00  0.00    -0.207 F 
ENDBRANCH  23  30
ENDBRANCH  17  20
ENDBRANCH  15  16
ENDBRANCH  10  14
ENDBRANCH   7   8
ENDBRANCH   6   7
ENDBRANCH   4   6
ENDBRANCH   1   2
BRANCH   1  37
ATOM     37  C   UNL A   1      35.599  32.504  28.042  1.00  0.00     0.021 C 
BRANCH  37  38
ATOM     38  C   UNL A   1      35.162  33.560  29.044  1.00  0.00     0.002 C 
BRANCH  38  39
ATOM     39  C   UNL A   1      35.139  34.992  28.502  1.00  0.00     0.002 C 
BRANCH  39  40
ATOM     40  C   UNL A   1      33.870  35.800  28.792  1.00  0.00     0.021 C 
BRANCH  40  41
ATOM     41  C   UNL A   1      32.832  35.103  29.668  1.00  0.00     0.116 C 
BRANCH  41  42
ATOM     42  N   UNL A   1      32.473  35.897  30.830  1.00  0.00    -0.352 N 
ATOM     43  C   UNL A   1      32.947  35.864  32.111  1.00  0.00     0.251 C 
ATOM     44  H   UNL A   1      31.773  36.570  30.668  1.00  0.00     0.163 HD
ATOM     45  O   UNL A   1      32.373  36.495  32.994  1.00  0.00    -0.269 OA
BRANCH  43  46
ATOM     46  C   UNL A   1      34.136  35.055  32.443  1.00  0.00     0.039 A 
ATOM     47  C   UNL A   1      35.396  35.618  32.229  1.00  0.00     0.014 A 
ATOM     48  C   UNL A   1      34.017  33.747  32.920  1.00  0.00     0.014 A 
ATOM     49  C   UNL A   1      36.539  34.881  32.533  1.00  0.00     0.010 A 
ATOM     50  C   UNL A   1      35.157  33.040  33.292  1.00  0.00     0.010 A 
ATOM     51  C   UNL A   1      36.428  33.595  33.089  1.00  0.00    -0.014 A 
BRANCH  51  52
ATOM     52  C   UNL A   1      37.642  32.832  33.461  1.00  0.00     0.031 A 
ATOM     53  C   UNL A   1      38.214  31.806  32.526  1.00  0.00     0.074 A 
ATOM     54  C   UNL A   1      38.211  33.049  34.662  1.00  0.00     0.049 A 
ATOM     55  N   UNL A   1      39.288  31.070  32.669  1.00  0.00    -0.248 NA
ATOM     56  C   UNL A   1      37.475  31.555  31.279  1.00  0.00     0.031 C 
ATOM     57  C   UNL A   1      37.723  33.988  35.674  1.00  0.00     0.029 A 
ATOM     58  N   UNL A   1      39.332  32.501  35.230  1.00  0.00    -0.354 N 
ATOM     59  C   UNL A   1      39.343  30.259  31.542  1.00  0.00     0.074 A 
ATOM     60  C   UNL A   1      38.171  30.560  30.749  1.00  0.00     0.031 C 
ATOM     61  C   UNL A   1      38.567  33.985  36.718  1.00  0.00     0.029 A 
ATOM     62  C   UNL A   1      39.633  33.022  36.464  1.00  0.00     0.049 A 
ATOM     63  H   UNL A   1      39.870  31.800  34.794  1.00  0.00     0.167 HD
ATOM     64  C   UNL A   1      40.290  29.358  31.191  1.00  0.00     0.031 A 
ATOM     65  C   UNL A   1      40.660  32.762  37.292  1.00  0.00     0.031 A 
ATOM     66  C   UNL A   1      41.460  29.068  31.978  1.00  0.00     0.049 A 
ATOM     67  C   UNL A   1      41.697  31.758  36.881  1.00  0.00     0.074 A 
ATOM     68  C   UNL A   1      42.516  28.226  31.675  1.00  0.00     0.029 A 
ATOM     69  N   UNL A   1      41.721  29.605  33.228  1.00  0.00    -0.354 N 
ATOM     70  N   UNL A   1      41.781  31.063  35.771  1.00  0.00    -0.248 NA
ATOM     71  C   UNL A   1      42.789  31.514  37.832  1.00  0.00     0.031 C 
ATOM     72  C   UNL A   1      43.390  28.213  32.769  1.00  0.00     0.029 A 
ATOM     73  C   UNL A   1      42.905  29.089  33.728  1.00  0.00     0.049 A 
ATOM     74  H   UNL A   1      41.148  30.256  33.695  1.00  0.00     0.167 HD
ATOM     75  C   UNL A   1      42.947  30.318  35.881  1.00  0.00     0.074 A 
ATOM     76  C   UNL A   1      43.545  30.661  37.156  1.00  0.00     0.031 C 
ATOM     77  C   UNL A   1      43.477  29.429  35.005  1.00  0.00     0.031 A 
BRANCH  64  78
ATOM     78  C   UNL A   1      40.086  28.610  29.902  1.00  0.00    -0.014 A 
ATOM     79  C   UNL A   1      40.473  29.157  28.668  1.00  0.00     0.009 A 
ATOM     80  C   UNL A   1      39.508  27.331  29.925  1.00  0.00     0.009 A 
ATOM     81  C   UNL A   1      40.246  28.456  27.480  1.00  0.00     0.001 A 
ATOM     82  C   UNL A   1      39.311  26.620  28.739  1.00  0.00     0.001 A 
ATOM     83  C   UNL A   1      39.669  27.188  27.517  1.00  0.00     0.000 A 
ENDBRANCH  64  78
BRANCH  65  84
ATOM     84  C   UNL A   1      40.781  33.497  38.577  1.00  0.00    -0.014 A 
ATOM     85  C   UNL A   1      40.181  32.992  39.740  1.00  0.00     0.009 A 
ATOM     86  C   UNL A   1      41.499  34.702  38.649  1.00  0.00     0.009 A 
ATOM     87  C   UNL A   1      40.277  33.689  40.946  1.00  0.00     0.001 A 
ATOM     88  C   UNL A   1      41.615  35.383  39.863  1.00  0.00     0.001 A 
ATOM     89  C   UNL A   1      40.998  34.880  41.008  1.00  0.00     0.000 A 
ENDBRANCH  65  84
BRANCH  77  90
ATOM     90  C   UNL A   1      44.779  28.788  35.394  1.00  0.00    -0.014 A 
ATOM     91  C   UNL A   1      44.812  27.581  36.111  1.00  0.00     0.009 A 
ATOM     92  C   UNL A   1      45.991  29.396  35.029  1.00  0.00     0.009 A 
ATOM     93  C   UNL A   1      46.032  27.020  36.493  1.00  0.00     0.001 A 
ATOM     94  C   UNL A   1      47.209  28.816  35.385  1.00  0.00     0.001 A 
ATOM     95  C   UNL A   1      47.228  27.635  36.127  1.00  0.00     0.000 A 
ENDBRANCH  77  90
ENDBRANCH  51  52
ENDBRANCH  43  46
ENDBRANCH  41  42
ENDBRANCH  40  41
ENDBRANCH  39  40
ENDBRANCH  38  39
ENDBRANCH  37  38
ENDBRANCH   1  37
TORSDOF 19
ENDMDL
MODEL 3
REMARK VINA RESULT:     -11.6      1.755      6.019
REMARK SMILES O=C(COc1ccccc1/C=N/NC(=O)c1cc(-c2ccc(F)cc2)nc2ccccc12)NCCCCCCNC(=O)c1ccc(-c2c3nc(c(-c4ccccc4)c4ccc([nH]4)c(-c4ccccc4)c4nc(c(-c5ccccc5)c5ccc2[nH]5)C=C4)C=C3)cc1
REMARK SMILES IDX 34 1 33 2 1 3 2 4 3 6 4 7 5 8 6 9 10 10 7 11 9 12 8 13 11 14
REMARK SMILES IDX 12 15 13 16 14 17 15 19 16 20 17 21 32 22 18 23 27 24 31 25
REMARK SMILES IDX 26 26 28 27 30 28 29 29 19 30 20 31 25 32 21 33 24 34 22 35
REMARK SMILES IDX 23 36 35 37 36 38 37 39 38 40 39 41 40 42 41 43 42 45 43 46
REMARK SMILES IDX 44 47 90 48 45 49 89 50 46 51 47 52 48 53 83 54 49 55 88 56
REMARK SMILES IDX 82 57 84 58 50 59 87 60 81 61 80 62 51 64 73 65 58 66 72 67
REMARK SMILES IDX 59 68 62 69 71 70 85 71 60 72 61 73 70 75 86 76 63 77 52 78
REMARK SMILES IDX 53 79 57 80 54 81 56 82 55 83 74 84 75 85 79 86 76 87 78 88
REMARK SMILES IDX 77 89 64 90 65 91 69 92 66 93 68 94 67 95
REMARK H PARENT 33 5 13 18 40 44 84 63 62 74
REMARK Flexibility Score: inf
ROOT
ATOM      1  C   UNL A   1      34.296  31.335  28.164  1.00  0.00     0.116 C 
ENDROOT
BRANCH   1   2
ATOM      2  N   UNL A   1      33.675  31.042  26.903  1.00  0.00    -0.353 N 
ATOM      3  O   UNL A   1      32.193  29.370  27.496  1.00  0.00    -0.271 OA
ATOM      4  C   UNL A   1      32.477  30.332  26.826  1.00  0.00     0.257 C 
ATOM      5  H   UNL A   1      34.106  31.349  26.074  1.00  0.00     0.163 HD
BRANCH   4   6
ATOM      6  C   UNL A   1      31.513  30.927  25.811  1.00  0.00     0.329 C 
BRANCH   6   7
ATOM      7  O   UNL A   1      30.921  29.827  25.127  1.00  0.00    -0.483 OA
BRANCH   7   8
ATOM      8  C   UNL A   1      30.289  30.140  23.964  1.00  0.00     0.128 A 
ATOM      9  C   UNL A   1      29.401  31.220  24.132  1.00  0.00     0.047 A 
ATOM     10  C   UNL A   1      30.248  29.362  22.799  1.00  0.00     0.037 A 
ATOM     11  C   UNL A   1      28.448  31.530  23.168  1.00  0.00     0.004 A 
ATOM     12  C   UNL A   1      29.259  29.690  21.843  1.00  0.00     0.013 A 
ATOM     13  C   UNL A   1      28.367  30.752  22.026  1.00  0.00     0.001 A 
BRANCH  10  14
ATOM     14  C   UNL A   1      31.015  28.140  22.394  1.00  0.00     0.145 C 
ATOM     15  N   UNL A   1      32.302  27.893  22.350  1.00  0.00    -0.180 NA
BRANCH  15  16
ATOM     16  N   UNL A   1      32.543  26.762  21.572  1.00  0.00    -0.243 N 
ATOM     17  C   UNL A   1      33.093  25.505  21.797  1.00  0.00     0.272 C 
ATOM     18  H   UNL A   1      32.254  26.882  20.639  1.00  0.00     0.194 HD
ATOM     19  O   UNL A   1      33.309  24.866  20.760  1.00  0.00    -0.267 OA
BRANCH  17  20
ATOM     20  C   UNL A   1      33.287  24.823  23.118  1.00  0.00     0.053 A 
ATOM     21  C   UNL A   1      34.431  24.072  23.404  1.00  0.00     0.043 A 
ATOM     22  C   UNL A   1      32.238  24.884  24.121  1.00  0.00     0.013 A 
ATOM     23  C   UNL A   1      34.630  23.699  24.725  1.00  0.00     0.072 A 
ATOM     24  C   UNL A   1      32.623  24.549  25.426  1.00  0.00     0.072 A 
ATOM     25  C   UNL A   1      30.845  25.157  23.972  1.00  0.00     0.011 A 
ATOM     26  N   UNL A   1      33.823  24.122  25.720  1.00  0.00    -0.248 NA
ATOM     27  C   UNL A   1      31.746  24.516  26.493  1.00  0.00     0.029 A 
ATOM     28  C   UNL A   1      29.937  25.034  25.039  1.00  0.00     0.001 A 
ATOM     29  C   UNL A   1      30.390  24.720  26.309  1.00  0.00     0.002 A 
BRANCH  23  30
ATOM     30  C   UNL A   1      35.473  22.641  25.304  1.00  0.00     0.000 A 
ATOM     31  C   UNL A   1      36.864  22.893  25.288  1.00  0.00     0.013 A 
ATOM     32  C   UNL A   1      35.042  21.302  25.249  1.00  0.00     0.013 A 
ATOM     33  C   UNL A   1      37.770  21.865  25.024  1.00  0.00     0.040 A 
ATOM     34  C   UNL A   1      35.952  20.273  24.995  1.00  0.00     0.040 A 
ATOM     35  C   UNL A   1      37.299  20.573  24.839  1.00  0.00     0.123 A 
ATOM     36  F   UNL A   1      38.147  19.614  24.443  1.00  0.00    -0.207 F 
ENDBRANCH  23  30
ENDBRANCH  17  20
ENDBRANCH  15  16
ENDBRANCH  10  14
ENDBRANCH   7   8
ENDBRANCH   6   7
ENDBRANCH   4   6
ENDBRANCH   1   2
BRANCH   1  37
ATOM     37  C   UNL A   1      35.432  32.324  28.102  1.00  0.00     0.021 C 
BRANCH  37  38
ATOM     38  C   UNL A   1      35.304  33.461  29.102  1.00  0.00     0.002 C 
BRANCH  38  39
ATOM     39  C   UNL A   1      35.216  34.858  28.482  1.00  0.00     0.002 C 
BRANCH  39  40
ATOM     40  C   UNL A   1      34.009  35.703  28.899  1.00  0.00     0.021 C 
BRANCH  40  41
ATOM     41  C   UNL A   1      32.899  34.952  29.628  1.00  0.00     0.116 C 
BRANCH  41  42
ATOM     42  N   UNL A   1      32.401  35.688  30.777  1.00  0.00    -0.352 N 
ATOM     43  C   UNL A   1      32.804  35.677  32.083  1.00  0.00     0.251 C 
ATOM     44  H   UNL A   1      31.651  36.294  30.584  1.00  0.00     0.163 HD
ATOM     45  O   UNL A   1      32.124  36.236  32.938  1.00  0.00    -0.269 OA
BRANCH  43  46
ATOM     46  C   UNL A   1      34.044  34.980  32.473  1.00  0.00     0.039 A 
ATOM     47  C   UNL A   1      33.938  33.688  32.995  1.00  0.00     0.014 A 
ATOM     48  C   UNL A   1      35.293  35.599  32.367  1.00  0.00     0.014 A 
ATOM     49  C   UNL A   1      35.090  33.002  33.373  1.00  0.00     0.010 A 
ATOM     50  C   UNL A   1      36.447  34.886  32.676  1.00  0.00     0.010 A 
ATOM     51  C   UNL A   1      36.355  33.586  33.194  1.00  0.00    -0.014 A 
BRANCH  51  52
ATOM     52  C   UNL A   1      37.584  32.837  33.547  1.00  0.00     0.031 A 
ATOM     53  C   UNL A   1      38.163  31.830  32.595  1.00  0.00     0.074 A 
ATOM     54  C   UNL A   1      38.161  33.049  34.744  1.00  0.00     0.049 A 
ATOM     55  N   UNL A   1      39.248  31.109  32.719  1.00  0.00    -0.248 NA
ATOM     56  C   UNL A   1      37.416  31.584  31.351  1.00  0.00     0.031 C 
ATOM     57  C   UNL A   1      37.667  33.968  35.772  1.00  0.00     0.029 A 
ATOM     58  N   UNL A   1      39.295  32.511  35.296  1.00  0.00    -0.354 N 
ATOM     59  C   UNL A   1      39.305  30.313  31.582  1.00  0.00     0.074 A 
ATOM     60  C   UNL A   1      38.122  30.605  30.803  1.00  0.00     0.031 C 
ATOM     61  C   UNL A   1      38.520  33.966  36.808  1.00  0.00     0.029 A 
ATOM     62  C   UNL A   1      39.599  33.022  36.534  1.00  0.00     0.049 A 
ATOM     63  H   UNL A   1      39.839  31.823  34.847  1.00  0.00     0.167 HD
ATOM     64  C   UNL A   1      40.263  29.430  31.212  1.00  0.00     0.031 A 
ATOM     65  C   UNL A   1      40.636  32.768  37.350  1.00  0.00     0.031 A 
ATOM     66  C   UNL A   1      41.444  29.148  31.985  1.00  0.00     0.049 A 
ATOM     67  C   UNL A   1      41.685  31.784  36.917  1.00  0.00     0.074 A 
ATOM     68  C   UNL A   1      42.510  28.327  31.663  1.00  0.00     0.029 A 
ATOM     69  N   UNL A   1      41.708  29.674  33.240  1.00  0.00    -0.354 N 
ATOM     70  N   UNL A   1      41.769  31.103  35.799  1.00  0.00    -0.248 NA
ATOM     71  C   UNL A   1      42.789  31.546  37.856  1.00  0.00     0.031 C 
ATOM     72  C   UNL A   1      43.394  28.313  32.749  1.00  0.00     0.029 A 
ATOM     73  C   UNL A   1      42.904  29.171  33.722  1.00  0.00     0.049 A 
ATOM     74  H   UNL A   1      41.130  30.312  33.719  1.00  0.00     0.167 HD
ATOM     75  C   UNL A   1      42.947  30.375  35.889  1.00  0.00     0.074 A 
ATOM     76  C   UNL A   1      43.552  30.712  37.163  1.00  0.00     0.031 C 
ATOM     77  C   UNL A   1      43.482  29.504  34.999  1.00  0.00     0.031 A 
BRANCH  64  78
ATOM     78  C   UNL A   1      40.058  28.694  29.916  1.00  0.00    -0.014 A 
ATOM     79  C   UNL A   1      39.474  27.418  29.883  1.00  0.00     0.009 A 
ATOM     80  C   UNL A   1      40.445  29.295  28.707  1.00  0.00     0.009 A 
ATOM     81  C   UNL A   1      39.320  26.741  28.670  1.00  0.00     0.001 A 
ATOM     82  C   UNL A   1      40.263  28.628  27.494  1.00  0.00     0.001 A 
ATOM     83  C   UNL A   1      39.712  27.348  27.477  1.00  0.00     0.000 A 
ENDBRANCH  64  78
BRANCH  65  84
ATOM     84  C   UNL A   1      40.758  33.490  38.642  1.00  0.00    -0.014 A 
ATOM     85  C   UNL A   1      41.466  34.699  38.711  1.00  0.00     0.009 A 
ATOM     86  C   UNL A   1      40.167  32.979  39.808  1.00  0.00     0.009 A 
ATOM     87  C   UNL A   1      41.599  35.372  39.928  1.00  0.00     0.001 A 
ATOM     88  C   UNL A   1      40.279  33.668  41.018  1.00  0.00     0.001 A 
ATOM     89  C   UNL A   1      41.002  34.859  41.078  1.00  0.00     0.000 A 
ENDBRANCH  65  84
BRANCH  77  90
ATOM     90  C   UNL A   1      44.798  28.879  35.369  1.00  0.00    -0.014 A 
ATOM     91  C   UNL A   1      44.867  27.564  35.859  1.00  0.00     0.009 A 
ATOM     92  C   UNL A   1      45.985  29.612  35.215  1.00  0.00     0.009 A 
ATOM     93  C   UNL A   1      46.095  27.013  36.230  1.00  0.00     0.001 A 
ATOM     94  C   UNL A   1      47.214  29.047  35.557  1.00  0.00     0.001 A 
ATOM     95  C   UNL A   1      47.267  27.753  36.075  1.00  0.00     0.000 A 
ENDBRANCH  77  90
ENDBRANCH  51  52
ENDBRANCH  43  46
ENDBRANCH  41  42
ENDBRANCH  40  41
ENDBRANCH  39  40
ENDBRANCH  38  39
ENDBRANCH  37  38
ENDBRANCH   1  37
TORSDOF 19
ENDMDL
