MODEL 1
REMARK VINA RESULT:      -9.9      0.000      0.000
REMARK SMILES C[NH2+][C@@]1(C(=O)NCCCCCCNC(=O)c2ccc(-c3c4nc(c(-c5ccccc5)c5ccc([nH]5)c(-c5ccccc5)c5nc(c(-c6ccccc6)c6ccc3[nH]6)C=C5)C=C4)cc2)CC[C@H](Oc2cccc(C)c2)C1
REMARK SMILES IDX 9 1 8 2 7 3 6 4 4 5 5 6 3 8 64 9 75 10 65 11 66 12 2 13 1 14
REMARK SMILES IDX 67 17 68 18 69 19 74 20 70 21 72 22 71 23 73 24 10 25 11 26
REMARK SMILES IDX 12 27 13 28 14 29 15 31 16 32 17 33 63 34 18 35 62 36 19 37
REMARK SMILES IDX 20 38 21 39 56 40 22 41 61 42 55 43 57 44 23 45 60 46 54 47
REMARK SMILES IDX 53 48 24 50 46 51 31 52 45 53 32 54 35 55 44 56 58 57 33 58
REMARK SMILES IDX 34 59 43 61 59 62 36 63 25 64 26 65 30 66 27 67 29 68 28 69
REMARK SMILES IDX 47 70 48 71 52 72 49 73 51 74 50 75 37 76 38 77 42 78 39 79
REMARK SMILES IDX 41 80 40 81
REMARK H PARENT 6 7 2 15 2 16 13 30 57 49 35 60
REMARK Flexibility Score: inf
ROOT
ATOM      1  C   UNL A   1      37.178  23.716  25.607  1.00  0.00     0.002 C 
ENDROOT
BRANCH   1   2
ATOM      2  C   UNL A   1      36.474  23.438  24.280  1.00  0.00     0.021 C 
BRANCH   2   3
ATOM      3  C   UNL A   1      35.110  24.095  24.081  1.00  0.00     0.116 C 
BRANCH   3   4
ATOM      4  N   UNL A   1      34.797  25.084  25.080  1.00  0.00    -0.351 N 
ATOM      5  C   UNL A   1      33.729  25.902  25.274  1.00  0.00     0.281 C 
ATOM      6  O   UNL A   1      33.892  26.692  26.219  1.00  0.00    -0.268 OA
ATOM      7  H   UNL A   1      35.499  25.188  25.762  1.00  0.00     0.163 HD
BRANCH   5   8
ATOM      8  C   UNL A   1      32.380  25.934  24.400  1.00  0.00     0.179 C 
ATOM      9  C   UNL A   1      31.178  26.528  25.147  1.00  0.00     0.083 C 
ATOM     10  C   UNL A   1      31.937  24.528  23.964  1.00  0.00     0.124 C 
ATOM     11  C   UNL A   1      30.291  25.368  25.586  1.00  0.00     0.052 C 
ATOM     12  C   UNL A   1      30.621  24.173  24.689  1.00  0.00     0.180 C 
BRANCH   8  13
ATOM     13  N   UNL A   1      32.777  26.715  23.197  1.00  0.00    -0.336 N 
ATOM     14  C   UNL A   1      32.872  26.093  21.901  1.00  0.00     0.331 C 
ATOM     15  H   UNL A   1      32.098  27.471  23.105  1.00  0.00     0.346 HD
ATOM     16  H   UNL A   1      33.746  26.957  23.398  1.00  0.00     0.346 HD
ENDBRANCH   8  13
BRANCH  12  17
ATOM     17  O   UNL A   1      30.871  22.897  25.275  1.00  0.00    -0.490 OA
BRANCH  17  18
ATOM     18  C   UNL A   1      31.988  22.513  25.935  1.00  0.00     0.119 A 
ATOM     19  C   UNL A   1      32.484  22.998  27.135  1.00  0.00     0.046 A 
ATOM     20  C   UNL A   1      32.710  21.533  25.245  1.00  0.00     0.049 A 
ATOM     21  C   UNL A   1      33.736  22.566  27.593  1.00  0.00     0.004 A 
ATOM     22  C   UNL A   1      33.953  21.083  25.697  1.00  0.00    -0.047 A 
ATOM     23  C   UNL A   1      34.474  21.622  26.874  1.00  0.00     0.003 A 
ATOM     24  C   UNL A   1      34.704  20.051  24.916  1.00  0.00     0.044 C 
ENDBRANCH  17  18
ENDBRANCH  12  17
ENDBRANCH   5   8
ENDBRANCH   3   4
ENDBRANCH   2   3
ENDBRANCH   1   2
BRANCH   1  25
ATOM     25  C   UNL A   1      38.305  22.750  25.995  1.00  0.00     0.002 C 
BRANCH  25  26
ATOM     26  C   UNL A   1      38.429  21.451  25.186  1.00  0.00     0.021 C 
BRANCH  26  27
ATOM     27  C   UNL A   1      38.438  20.142  25.981  1.00  0.00     0.116 C 
BRANCH  27  28
ATOM     28  N   UNL A   1      39.615  19.326  25.731  1.00  0.00    -0.352 N 
ATOM     29  C   UNL A   1      40.948  19.607  25.925  1.00  0.00     0.251 C 
ATOM     30  H   UNL A   1      39.429  18.430  25.367  1.00  0.00     0.163 HD
ATOM     31  O   UNL A   1      41.801  18.801  25.563  1.00  0.00    -0.269 OA
BRANCH  29  32
ATOM     32  C   UNL A   1      41.380  20.884  26.542  1.00  0.00     0.039 A 
ATOM     33  C   UNL A   1      41.960  21.866  25.737  1.00  0.00     0.014 A 
ATOM     34  C   UNL A   1      41.282  21.100  27.915  1.00  0.00     0.014 A 
ATOM     35  C   UNL A   1      42.371  23.081  26.300  1.00  0.00     0.010 A 
ATOM     36  C   UNL A   1      41.623  22.342  28.467  1.00  0.00     0.010 A 
ATOM     37  C   UNL A   1      42.169  23.355  27.665  1.00  0.00    -0.014 A 
BRANCH  37  38
ATOM     38  C   UNL A   1      42.499  24.701  28.227  1.00  0.00     0.031 A 
ATOM     39  C   UNL A   1      43.903  25.073  28.640  1.00  0.00     0.074 A 
ATOM     40  C   UNL A   1      41.515  25.609  28.401  1.00  0.00     0.049 A 
ATOM     41  N   UNL A   1      44.346  26.209  29.124  1.00  0.00    -0.248 NA
ATOM     42  C   UNL A   1      44.936  24.034  28.518  1.00  0.00     0.031 C 
ATOM     43  C   UNL A   1      40.097  25.388  28.109  1.00  0.00     0.029 A 
ATOM     44  N   UNL A   1      41.560  26.906  28.854  1.00  0.00    -0.354 N 
ATOM     45  C   UNL A   1      45.698  26.014  29.387  1.00  0.00     0.074 A 
ATOM     46  C   UNL A   1      45.993  24.639  29.043  1.00  0.00     0.031 C 
ATOM     47  C   UNL A   1      39.418  26.522  28.342  1.00  0.00     0.029 A 
ATOM     48  C   UNL A   1      40.340  27.540  28.836  1.00  0.00     0.049 A 
ATOM     49  H   UNL A   1      42.388  27.341  29.163  1.00  0.00     0.167 HD
ATOM     50  C   UNL A   1      46.617  26.897  29.850  1.00  0.00     0.031 A 
ATOM     51  C   UNL A   1      39.991  28.797  29.170  1.00  0.00     0.031 A 
ATOM     52  C   UNL A   1      46.353  28.277  30.164  1.00  0.00     0.049 A 
ATOM     53  C   UNL A   1      41.033  29.767  29.652  1.00  0.00     0.074 A 
ATOM     54  C   UNL A   1      47.250  29.257  30.559  1.00  0.00     0.029 A 
ATOM     55  N   UNL A   1      45.106  28.876  30.121  1.00  0.00    -0.354 N 
ATOM     56  N   UNL A   1      42.319  29.581  29.814  1.00  0.00    -0.248 NA
ATOM     57  C   UNL A   1      40.572  31.122  29.987  1.00  0.00     0.031 C 
ATOM     58  C   UNL A   1      46.539  30.438  30.795  1.00  0.00     0.029 A 
ATOM     59  C   UNL A   1      45.207  30.205  30.503  1.00  0.00     0.049 A 
ATOM     60  H   UNL A   1      44.271  28.426  29.859  1.00  0.00     0.167 HD
ATOM     61  C   UNL A   1      42.823  30.800  30.249  1.00  0.00     0.074 A 
ATOM     62  C   UNL A   1      41.709  31.722  30.310  1.00  0.00     0.031 C 
ATOM     63  C   UNL A   1      44.099  31.122  30.569  1.00  0.00     0.031 A 
BRANCH  50  64
ATOM     64  C   UNL A   1      48.022  26.395  30.049  1.00  0.00    -0.014 A 
ATOM     65  C   UNL A   1      48.439  25.871  31.283  1.00  0.00     0.009 A 
ATOM     66  C   UNL A   1      48.920  26.389  28.970  1.00  0.00     0.009 A 
ATOM     67  C   UNL A   1      49.739  25.386  31.441  1.00  0.00     0.001 A 
ATOM     68  C   UNL A   1      50.211  25.879  29.123  1.00  0.00     0.001 A 
ATOM     69  C   UNL A   1      50.621  25.386  30.362  1.00  0.00     0.000 A 
ENDBRANCH  50  64
BRANCH  51  70
ATOM     70  C   UNL A   1      38.576  29.230  29.038  1.00  0.00    -0.014 A 
ATOM     71  C   UNL A   1      37.710  29.170  30.140  1.00  0.00     0.009 A 
ATOM     72  C   UNL A   1      38.085  29.697  27.810  1.00  0.00     0.009 A 
ATOM     73  C   UNL A   1      36.373  29.550  30.007  1.00  0.00     0.001 A 
ATOM     74  C   UNL A   1      36.755  30.101  27.688  1.00  0.00     0.001 A 
ATOM     75  C   UNL A   1      35.898  30.019  28.784  1.00  0.00     0.000 A 
ENDBRANCH  51  70
BRANCH  63  76
ATOM     76  C   UNL A   1      44.370  32.539  30.991  1.00  0.00    -0.014 A 
ATOM     77  C   UNL A   1      44.378  32.905  32.346  1.00  0.00     0.009 A 
ATOM     78  C   UNL A   1      44.652  33.513  30.022  1.00  0.00     0.009 A 
ATOM     79  C   UNL A   1      44.633  34.227  32.719  1.00  0.00     0.001 A 
ATOM     80  C   UNL A   1      44.930  34.829  30.399  1.00  0.00     0.001 A 
ATOM     81  C   UNL A   1      44.912  35.186  31.746  1.00  0.00     0.000 A 
ENDBRANCH  63  76
ENDBRANCH  37  38
ENDBRANCH  29  32
ENDBRANCH  27  28
ENDBRANCH  26  27
ENDBRANCH  25  26
ENDBRANCH   1  25
TORSDOF 16
ENDMDL
MODEL 2
REMARK VINA RESULT:      -9.9      1.373      2.947
REMARK SMILES C[NH2+][C@@]1(C(=O)NCCCCCCNC(=O)c2ccc(-c3c4nc(c(-c5ccccc5)c5ccc([nH]5)c(-c5ccccc5)c5nc(c(-c6ccccc6)c6ccc3[nH]6)C=C5)C=C4)cc2)CC[C@H](Oc2cccc(C)c2)C1
REMARK SMILES IDX 9 1 8 2 7 3 6 4 4 5 5 6 3 8 64 9 75 10 65 11 66 12 2 13 1 14
REMARK SMILES IDX 67 17 68 18 69 19 74 20 70 21 72 22 71 23 73 24 10 25 11 26
REMARK SMILES IDX 12 27 13 28 14 29 15 31 16 32 17 33 63 34 18 35 62 36 19 37
REMARK SMILES IDX 20 38 21 39 56 40 22 41 61 42 55 43 57 44 23 45 60 46 54 47
REMARK SMILES IDX 53 48 24 50 46 51 31 52 45 53 32 54 35 55 44 56 58 57 33 58
REMARK SMILES IDX 34 59 43 61 59 62 36 63 25 64 26 65 30 66 27 67 29 68 28 69
REMARK SMILES IDX 47 70 48 71 52 72 49 73 51 74 50 75 37 76 38 77 42 78 39 79
REMARK SMILES IDX 41 80 40 81
REMARK H PARENT 6 7 2 15 2 16 13 30 57 49 35 60
REMARK Flexibility Score: inf
ROOT
ATOM      1  C   UNL A   1      36.920  21.883  24.280  1.00  0.00     0.002 C 
ENDROOT
BRANCH   1   2
ATOM      2  C   UNL A   1      37.295  23.000  25.253  1.00  0.00     0.021 C 
BRANCH   2   3
ATOM      3  C   UNL A   1      36.139  23.732  25.929  1.00  0.00     0.116 C 
BRANCH   3   4
ATOM      4  N   UNL A   1      35.396  22.909  26.848  1.00  0.00    -0.351 N 
ATOM      5  C   UNL A   1      34.089  22.545  26.920  1.00  0.00     0.281 C 
ATOM      6  O   UNL A   1      33.826  21.887  27.941  1.00  0.00    -0.268 OA
ATOM      7  H   UNL A   1      35.948  22.532  27.571  1.00  0.00     0.163 HD
BRANCH   5   8
ATOM      8  C   UNL A   1      32.936  22.913  25.861  1.00  0.00     0.179 C 
ATOM      9  C   UNL A   1      33.293  22.555  24.413  1.00  0.00     0.083 C 
ATOM     10  C   UNL A   1      32.621  24.418  25.846  1.00  0.00     0.124 C 
ATOM     11  C   UNL A   1      33.684  23.847  23.704  1.00  0.00     0.052 C 
ATOM     12  C   UNL A   1      33.071  25.007  24.492  1.00  0.00     0.180 C 
BRANCH   8  13
ATOM     13  N   UNL A   1      31.753  22.174  26.382  1.00  0.00    -0.336 N 
ATOM     14  C   UNL A   1      30.433  22.750  26.335  1.00  0.00     0.331 C 
ATOM     15  H   UNL A   1      31.706  21.299  25.860  1.00  0.00     0.346 HD
ATOM     16  H   UNL A   1      31.941  22.131  27.383  1.00  0.00     0.346 HD
ENDBRANCH   8  13
BRANCH  12  17
ATOM     17  O   UNL A   1      33.880  26.128  24.842  1.00  0.00    -0.490 OA
BRANCH  17  18
ATOM     18  C   UNL A   1      33.447  27.340  25.260  1.00  0.00     0.119 A 
ATOM     19  C   UNL A   1      33.903  28.090  26.332  1.00  0.00     0.046 A 
ATOM     20  C   UNL A   1      32.375  27.820  24.499  1.00  0.00     0.049 A 
ATOM     21  C   UNL A   1      33.234  29.268  26.691  1.00  0.00     0.004 A 
ATOM     22  C   UNL A   1      31.706  29.000  24.837  1.00  0.00    -0.047 A 
ATOM     23  C   UNL A   1      32.133  29.716  25.956  1.00  0.00     0.003 A 
ATOM     24  C   UNL A   1      30.548  29.465  24.011  1.00  0.00     0.044 C 
ENDBRANCH  17  18
ENDBRANCH  12  17
ENDBRANCH   5   8
ENDBRANCH   3   4
ENDBRANCH   2   3
ENDBRANCH   1   2
BRANCH   1  25
ATOM     25  C   UNL A   1      36.751  20.482  24.883  1.00  0.00     0.002 C 
BRANCH  25  26
ATOM     26  C   UNL A   1      38.000  19.590  24.951  1.00  0.00     0.021 C 
BRANCH  26  27
ATOM     27  C   UNL A   1      39.153  20.084  25.829  1.00  0.00     0.116 C 
BRANCH  27  28
ATOM     28  N   UNL A   1      40.337  19.245  25.747  1.00  0.00    -0.352 N 
ATOM     29  C   UNL A   1      41.653  19.534  26.034  1.00  0.00     0.251 C 
ATOM     30  H   UNL A   1      40.173  18.325  25.439  1.00  0.00     0.163 HD
ATOM     31  O   UNL A   1      42.523  18.698  25.813  1.00  0.00    -0.269 OA
BRANCH  29  32
ATOM     32  C   UNL A   1      42.044  20.854  26.585  1.00  0.00     0.039 A 
ATOM     33  C   UNL A   1      42.381  21.884  25.705  1.00  0.00     0.014 A 
ATOM     34  C   UNL A   1      42.149  21.069  27.958  1.00  0.00     0.014 A 
ATOM     35  C   UNL A   1      42.749  23.140  26.205  1.00  0.00     0.010 A 
ATOM     36  C   UNL A   1      42.445  22.343  28.459  1.00  0.00     0.010 A 
ATOM     37  C   UNL A   1      42.745  23.402  27.588  1.00  0.00    -0.014 A 
BRANCH  37  38
ATOM     38  C   UNL A   1      43.021  24.779  28.101  1.00  0.00     0.031 A 
ATOM     39  C   UNL A   1      44.419  25.245  28.428  1.00  0.00     0.074 A 
ATOM     40  C   UNL A   1      41.993  25.630  28.309  1.00  0.00     0.049 A 
ATOM     41  N   UNL A   1      44.816  26.418  28.863  1.00  0.00    -0.248 NA
ATOM     42  C   UNL A   1      45.507  24.268  28.273  1.00  0.00     0.031 C 
ATOM     43  C   UNL A   1      40.578  25.317  28.100  1.00  0.00     0.029 A 
ATOM     44  N   UNL A   1      41.982  26.938  28.730  1.00  0.00    -0.354 N 
ATOM     45  C   UNL A   1      46.190  26.312  29.055  1.00  0.00     0.074 A 
ATOM     46  C   UNL A   1      46.550  24.949  28.726  1.00  0.00     0.031 C 
ATOM     47  C   UNL A   1      39.844  26.413  28.345  1.00  0.00     0.029 A 
ATOM     48  C   UNL A   1      40.726  27.497  28.765  1.00  0.00     0.049 A 
ATOM     49  H   UNL A   1      42.797  27.430  28.984  1.00  0.00     0.167 HD
ATOM     50  C   UNL A   1      47.076  27.260  29.448  1.00  0.00     0.031 A 
ATOM     51  C   UNL A   1      40.319  28.739  29.090  1.00  0.00     0.031 A 
ATOM     52  C   UNL A   1      46.744  28.630  29.745  1.00  0.00     0.049 A 
ATOM     53  C   UNL A   1      41.323  29.781  29.493  1.00  0.00     0.074 A 
ATOM     54  C   UNL A   1      47.599  29.672  30.069  1.00  0.00     0.029 A 
ATOM     55  N   UNL A   1      45.462  29.151  29.758  1.00  0.00    -0.354 N 
ATOM     56  N   UNL A   1      42.625  29.678  29.588  1.00  0.00    -0.248 NA
ATOM     57  C   UNL A   1      40.798  31.115  29.823  1.00  0.00     0.031 C 
ATOM     58  C   UNL A   1      46.831  30.813  30.318  1.00  0.00     0.029 A 
ATOM     59  C   UNL A   1      45.501  30.493  30.104  1.00  0.00     0.049 A 
ATOM     60  H   UNL A   1      44.644  28.644  29.551  1.00  0.00     0.167 HD
ATOM     61  C   UNL A   1      43.075  30.936  29.968  1.00  0.00     0.074 A 
ATOM     62  C   UNL A   1      41.911  31.790  30.070  1.00  0.00     0.031 C 
ATOM     63  C   UNL A   1      44.344  31.342  30.211  1.00  0.00     0.031 A 
BRANCH  50  64
ATOM     64  C   UNL A   1      48.518  26.849  29.580  1.00  0.00    -0.014 A 
ATOM     65  C   UNL A   1      49.007  26.286  30.769  1.00  0.00     0.009 A 
ATOM     66  C   UNL A   1      49.382  26.970  28.480  1.00  0.00     0.009 A 
ATOM     67  C   UNL A   1      50.342  25.887  30.865  1.00  0.00     0.001 A 
ATOM     68  C   UNL A   1      50.709  26.546  28.570  1.00  0.00     0.001 A 
ATOM     69  C   UNL A   1      51.190  26.013  29.766  1.00  0.00     0.000 A 
ENDBRANCH  50  64
BRANCH  51  70
ATOM     70  C   UNL A   1      38.874  29.081  29.026  1.00  0.00    -0.014 A 
ATOM     71  C   UNL A   1      38.064  28.952  30.164  1.00  0.00     0.009 A 
ATOM     72  C   UNL A   1      38.301  29.532  27.828  1.00  0.00     0.009 A 
ATOM     73  C   UNL A   1      36.700  29.247  30.095  1.00  0.00     0.001 A 
ATOM     74  C   UNL A   1      36.945  29.851  27.770  1.00  0.00     0.001 A 
ATOM     75  C   UNL A   1      36.143  29.701  28.901  1.00  0.00     0.000 A 
ENDBRANCH  51  70
BRANCH  63  76
ATOM     76  C   UNL A   1      44.550  32.783  30.585  1.00  0.00    -0.014 A 
ATOM     77  C   UNL A   1      44.726  33.772  29.604  1.00  0.00     0.009 A 
ATOM     78  C   UNL A   1      44.536  33.161  31.936  1.00  0.00     0.009 A 
ATOM     79  C   UNL A   1      44.914  35.106  29.972  1.00  0.00     0.001 A 
ATOM     80  C   UNL A   1      44.701  34.499  32.300  1.00  0.00     0.001 A 
ATOM     81  C   UNL A   1      44.899  35.469  31.318  1.00  0.00     0.000 A 
ENDBRANCH  63  76
ENDBRANCH  37  38
ENDBRANCH  29  32
ENDBRANCH  27  28
ENDBRANCH  26  27
ENDBRANCH  25  26
ENDBRANCH   1  25
TORSDOF 16
ENDMDL
MODEL 3
REMARK VINA RESULT:      -9.9      2.152      6.863
REMARK SMILES C[NH2+][C@@]1(C(=O)NCCCCCCNC(=O)c2ccc(-c3c4nc(c(-c5ccccc5)c5ccc([nH]5)c(-c5ccccc5)c5nc(c(-c6ccccc6)c6ccc3[nH]6)C=C5)C=C4)cc2)CC[C@H](Oc2cccc(C)c2)C1
REMARK SMILES IDX 9 1 8 2 7 3 6 4 4 5 5 6 3 8 64 9 75 10 65 11 66 12 2 13 1 14
REMARK SMILES IDX 67 17 68 18 69 19 74 20 70 21 72 22 71 23 73 24 10 25 11 26
REMARK SMILES IDX 12 27 13 28 14 29 15 31 16 32 17 33 63 34 18 35 62 36 19 37
REMARK SMILES IDX 20 38 21 39 56 40 22 41 61 42 55 43 57 44 23 45 60 46 54 47
REMARK SMILES IDX 53 48 24 50 46 51 31 52 45 53 32 54 35 55 44 56 58 57 33 58
REMARK SMILES IDX 34 59 43 61 59 62 36 63 25 64 26 65 30 66 27 67 29 68 28 69
REMARK SMILES IDX 47 70 48 71 52 72 49 73 51 74 50 75 37 76 38 77 42 78 39 79
REMARK SMILES IDX 41 80 40 81
REMARK H PARENT 6 7 2 15 2 16 13 30 57 49 35 60
REMARK Flexibility Score: inf
ROOT
ATOM      1  C   UNL A   1      34.418  24.331  23.515  1.00  0.00     0.002 C 
ENDROOT
BRANCH   1   2
ATOM      2  C   UNL A   1      33.356  24.674  22.472  1.00  0.00     0.021 C 
BRANCH   2   3
ATOM      3  C   UNL A   1      33.227  26.146  22.089  1.00  0.00     0.116 C 
BRANCH   3   4
ATOM      4  N   UNL A   1      31.892  26.665  22.242  1.00  0.00    -0.351 N 
ATOM      5  C   UNL A   1      31.312  27.477  23.165  1.00  0.00     0.281 C 
ATOM      6  O   UNL A   1      30.090  27.612  22.988  1.00  0.00    -0.268 OA
ATOM      7  H   UNL A   1      31.275  26.374  21.533  1.00  0.00     0.163 HD
BRANCH   5   8
ATOM      8  C   UNL A   1      32.047  28.194  24.403  1.00  0.00     0.179 C 
ATOM      9  C   UNL A   1      33.543  27.867  24.503  1.00  0.00     0.083 C 
ATOM     10  C   UNL A   1      31.445  27.778  25.755  1.00  0.00     0.124 C 
ATOM     11  C   UNL A   1      33.714  26.843  25.620  1.00  0.00     0.052 C 
ATOM     12  C   UNL A   1      32.489  26.946  26.530  1.00  0.00     0.180 C 
BRANCH   8  13
ATOM     13  N   UNL A   1      31.769  29.637  24.169  1.00  0.00    -0.336 N 
ATOM     14  C   UNL A   1      31.117  30.444  25.170  1.00  0.00     0.331 C 
ATOM     15  H   UNL A   1      32.669  30.079  23.983  1.00  0.00     0.346 HD
ATOM     16  H   UNL A   1      31.078  29.612  23.420  1.00  0.00     0.346 HD
ENDBRANCH   8  13
BRANCH  12  17
ATOM     17  O   UNL A   1      31.790  25.764  26.911  1.00  0.00    -0.490 OA
BRANCH  17  18
ATOM     18  C   UNL A   1      31.838  24.559  26.295  1.00  0.00     0.119 A 
ATOM     19  C   UNL A   1      31.040  24.093  25.262  1.00  0.00     0.046 A 
ATOM     20  C   UNL A   1      32.807  23.712  26.845  1.00  0.00     0.049 A 
ATOM     21  C   UNL A   1      31.153  22.759  24.846  1.00  0.00     0.004 A 
ATOM     22  C   UNL A   1      32.941  22.384  26.430  1.00  0.00    -0.047 A 
ATOM     23  C   UNL A   1      32.090  21.905  25.433  1.00  0.00     0.003 A 
ATOM     24  C   UNL A   1      33.973  21.504  27.062  1.00  0.00     0.044 C 
ENDBRANCH  17  18
ENDBRANCH  12  17
ENDBRANCH   5   8
ENDBRANCH   3   4
ENDBRANCH   2   3
ENDBRANCH   1   2
BRANCH   1  25
ATOM     25  C   UNL A   1      35.159  23.001  23.322  1.00  0.00     0.002 C 
BRANCH  25  26
ATOM     26  C   UNL A   1      36.676  23.000  23.561  1.00  0.00     0.021 C 
BRANCH  26  27
ATOM     27  C   UNL A   1      37.151  23.310  24.984  1.00  0.00     0.116 C 
BRANCH  27  28
ATOM     28  N   UNL A   1      38.154  22.378  25.471  1.00  0.00    -0.352 N 
ATOM     29  C   UNL A   1      39.277  22.601  26.236  1.00  0.00     0.251 C 
ATOM     30  H   UNL A   1      38.007  21.439  25.215  1.00  0.00     0.163 HD
ATOM     31  O   UNL A   1      40.049  21.676  26.469  1.00  0.00    -0.269 OA
BRANCH  29  32
ATOM     32  C   UNL A   1      39.587  23.950  26.766  1.00  0.00     0.039 A 
ATOM     33  C   UNL A   1      39.129  24.303  28.036  1.00  0.00     0.014 A 
ATOM     34  C   UNL A   1      40.264  24.896  25.998  1.00  0.00     0.014 A 
ATOM     35  C   UNL A   1      39.415  25.572  28.556  1.00  0.00     0.010 A 
ATOM     36  C   UNL A   1      40.615  26.138  26.545  1.00  0.00     0.010 A 
ATOM     37  C   UNL A   1      40.199  26.493  27.837  1.00  0.00    -0.014 A 
BRANCH  37  38
ATOM     38  C   UNL A   1      40.598  27.795  28.454  1.00  0.00     0.031 A 
ATOM     39  C   UNL A   1      39.606  28.908  28.689  1.00  0.00     0.074 A 
ATOM     40  C   UNL A   1      41.890  28.003  28.790  1.00  0.00     0.049 A 
ATOM     41  N   UNL A   1      39.801  30.085  29.234  1.00  0.00    -0.248 NA
ATOM     42  C   UNL A   1      38.225  28.683  28.235  1.00  0.00     0.031 C 
ATOM     43  C   UNL A   1      42.986  27.055  28.575  1.00  0.00     0.029 A 
ATOM     44  N   UNL A   1      42.499  29.078  29.395  1.00  0.00    -0.354 N 
ATOM     45  C   UNL A   1      38.580  30.748  29.165  1.00  0.00     0.074 A 
ATOM     46  C   UNL A   1      37.660  29.854  28.492  1.00  0.00     0.031 C 
ATOM     47  C   UNL A   1      44.117  27.567  29.085  1.00  0.00     0.029 A 
ATOM     48  C   UNL A   1      43.841  28.893  29.628  1.00  0.00     0.049 A 
ATOM     49  H   UNL A   1      42.018  29.902  29.639  1.00  0.00     0.167 HD
ATOM     50  C   UNL A   1      38.242  31.975  29.634  1.00  0.00     0.031 A 
ATOM     51  C   UNL A   1      44.755  29.690  30.215  1.00  0.00     0.031 A 
ATOM     52  C   UNL A   1      39.130  32.864  30.336  1.00  0.00     0.049 A 
ATOM     53  C   UNL A   1      44.351  31.032  30.754  1.00  0.00     0.074 A 
ATOM     54  C   UNL A   1      38.840  34.089  30.917  1.00  0.00     0.029 A 
ATOM     55  N   UNL A   1      40.477  32.631  30.556  1.00  0.00    -0.354 N 
ATOM     56  N   UNL A   1      43.171  31.601  30.749  1.00  0.00    -0.248 NA
ATOM     57  C   UNL A   1      45.406  31.836  31.389  1.00  0.00     0.031 C 
ATOM     58  C   UNL A   1      40.020  34.616  31.451  1.00  0.00     0.029 A 
ATOM     59  C   UNL A   1      41.035  33.698  31.244  1.00  0.00     0.049 A 
ATOM     60  H   UNL A   1      40.966  31.827  30.268  1.00  0.00     0.167 HD
ATOM     61  C   UNL A   1      43.338  32.819  31.397  1.00  0.00     0.074 A 
ATOM     62  C   UNL A   1      44.727  32.900  31.796  1.00  0.00     0.031 C 
ATOM     63  C   UNL A   1      42.417  33.782  31.637  1.00  0.00     0.031 A 
BRANCH  50  64
ATOM     64  C   UNL A   1      36.830  32.441  29.403  1.00  0.00    -0.014 A 
ATOM     65  C   UNL A   1      35.839  32.272  30.383  1.00  0.00     0.009 A 
ATOM     66  C   UNL A   1      36.502  33.113  28.215  1.00  0.00     0.009 A 
ATOM     67  C   UNL A   1      34.540  32.734  30.162  1.00  0.00     0.001 A 
ATOM     68  C   UNL A   1      35.209  33.598  28.007  1.00  0.00     0.001 A 
ATOM     69  C   UNL A   1      34.227  33.399  28.978  1.00  0.00     0.000 A 
ENDBRANCH  50  64
BRANCH  51  70
ATOM     70  C   UNL A   1      46.160  29.225  30.349  1.00  0.00    -0.014 A 
ATOM     71  C   UNL A   1      46.566  28.516  31.489  1.00  0.00     0.009 A 
ATOM     72  C   UNL A   1      47.099  29.494  29.342  1.00  0.00     0.009 A 
ATOM     73  C   UNL A   1      47.894  28.104  31.627  1.00  0.00     0.001 A 
ATOM     74  C   UNL A   1      48.418  29.057  29.471  1.00  0.00     0.001 A 
ATOM     75  C   UNL A   1      48.816  28.370  30.617  1.00  0.00     0.000 A 
ENDBRANCH  51  70
BRANCH  63  76
ATOM     76  C   UNL A   1      42.871  35.001  32.390  1.00  0.00    -0.014 A 
ATOM     77  C   UNL A   1      43.438  36.099  31.722  1.00  0.00     0.009 A 
ATOM     78  C   UNL A   1      42.702  35.065  33.781  1.00  0.00     0.009 A 
ATOM     79  C   UNL A   1      43.853  37.223  32.439  1.00  0.00     0.001 A 
ATOM     80  C   UNL A   1      43.096  36.201  34.491  1.00  0.00     0.001 A 
ATOM     81  C   UNL A   1      43.679  37.275  33.821  1.00  0.00     0.000 A 
ENDBRANCH  63  76
ENDBRANCH  37  38
ENDBRANCH  29  32
ENDBRANCH  27  28
ENDBRANCH  26  27
ENDBRANCH  25  26
ENDBRANCH   1  25
TORSDOF 16
ENDMDL
