MODEL 1
REMARK VINA RESULT:     -10.5      0.000      0.000
REMARK SMILES C[C@H](NC(=O)OCc1ccccc1)C(=O)NCC(=O)N1CCC[C@H]1C(=O)NCCCCCCNC(=O)c1ccc(-c2c3nc(c(-c4ccccc4)c4ccc([nH]4)c(-c4ccccc4)c4nc(c(-c5ccccc5)c5ccc2[nH]5)C=C4)C=C3)cc1
REMARK SMILES IDX 25 1 26 2 27 3 24 5 20 6 21 7 22 8 23 9 18 10 19 11 17 12
REMARK SMILES IDX 16 13 14 14 15 15 2 17 1 18 3 19 4 20 5 22 6 23 7 24 8 25
REMARK SMILES IDX 9 26 13 27 10 28 12 29 11 30 28 31 29 32 30 33 31 34 32 35
REMARK SMILES IDX 33 36 34 37 35 38 36 40 37 41 38 42 84 43 39 44 83 45 40 46
REMARK SMILES IDX 41 47 42 48 77 49 43 50 82 51 76 52 78 53 44 54 81 55 75 56
REMARK SMILES IDX 74 57 45 59 67 60 52 61 66 62 53 63 56 64 65 65 79 66 54 67
REMARK SMILES IDX 55 68 64 70 80 71 57 72 46 73 47 74 51 75 48 76 50 77 49 78
REMARK SMILES IDX 68 79 69 80 73 81 70 82 72 83 71 84 58 85 59 86 63 87 60 88
REMARK SMILES IDX 62 89 61 90
REMARK H PARENT 27 4 16 16 3 21 34 39 78 58 56 69
REMARK Flexibility Score: inf
ROOT
ATOM      1  C   UNL A   1      32.589  28.634  27.168  1.00  0.00     0.242 C 
ATOM      2  O   UNL A   1      31.701  28.003  27.747  1.00  0.00    -0.273 OA
ATOM      3  N   UNL A   1      33.585  29.193  27.921  1.00  0.00    -0.354 N 
ATOM      4  H   UNL A   1      33.566  28.974  28.881  1.00  0.00     0.163 HD
ENDROOT
BRANCH   1   5
ATOM      5  C   UNL A   1      32.581  28.898  25.648  1.00  0.00     0.174 C 
ATOM      6  N   UNL A   1      32.240  27.700  24.880  1.00  0.00    -0.329 N 
ATOM      7  C   UNL A   1      30.878  27.795  24.397  1.00  0.00     0.120 C 
ATOM      8  C   UNL A   1      30.686  29.285  24.195  1.00  0.00     0.024 C 
ATOM      9  C   UNL A   1      31.494  29.925  25.312  1.00  0.00     0.037 C 
BRANCH   6  10
ATOM     10  C   UNL A   1      33.190  26.726  24.721  1.00  0.00     0.242 C 
ATOM     11  O   UNL A   1      33.840  26.661  23.667  1.00  0.00    -0.273 OA
BRANCH  10  12
ATOM     12  C   UNL A   1      33.412  25.605  25.747  1.00  0.00     0.216 C 
BRANCH  12  13
ATOM     13  N   UNL A   1      32.350  25.048  26.558  1.00  0.00    -0.345 N 
ATOM     14  C   UNL A   1      31.652  23.883  26.426  1.00  0.00     0.242 C 
ATOM     15  O   UNL A   1      30.906  23.571  27.360  1.00  0.00    -0.273 OA
ATOM     16  H   UNL A   1      32.088  25.601  27.329  1.00  0.00     0.164 HD
BRANCH  14  17
ATOM     17  C   UNL A   1      31.875  22.910  25.250  1.00  0.00     0.171 C 
ATOM     18  C   UNL A   1      30.990  23.261  24.057  1.00  0.00     0.042 C 
BRANCH  17  19
ATOM     19  N   UNL A   1      31.735  21.495  25.586  1.00  0.00    -0.310 N 
ATOM     20  C   UNL A   1      32.486  20.482  25.071  1.00  0.00     0.408 C 
ATOM     21  H   UNL A   1      31.039  21.254  26.239  1.00  0.00     0.167 HD
ATOM     22  O   UNL A   1      32.111  19.318  25.176  1.00  0.00    -0.225 OA
BRANCH  20  23
ATOM     23  O   UNL A   1      33.610  20.895  24.438  1.00  0.00    -0.445 OA
BRANCH  23  24
ATOM     24  C   UNL A   1      34.844  20.315  24.894  1.00  0.00     0.270 C 
BRANCH  24  25
ATOM     25  C   UNL A   1      35.901  21.332  25.256  1.00  0.00    -0.011 A 
ATOM     26  C   UNL A   1      37.261  20.996  25.175  1.00  0.00     0.007 A 
ATOM     27  C   UNL A   1      35.552  22.628  25.659  1.00  0.00     0.007 A 
ATOM     28  C   UNL A   1      38.249  21.928  25.496  1.00  0.00     0.000 A 
ATOM     29  C   UNL A   1      36.543  23.565  25.967  1.00  0.00     0.000 A 
ATOM     30  C   UNL A   1      37.890  23.214  25.890  1.00  0.00     0.000 A 
ENDBRANCH  24  25
ENDBRANCH  23  24
ENDBRANCH  20  23
ENDBRANCH  17  19
ENDBRANCH  14  17
ENDBRANCH  12  13
ENDBRANCH  10  12
ENDBRANCH   6  10
ENDBRANCH   1   5
BRANCH   3  31
ATOM     31  C   UNL A   1      34.665  30.065  27.500  1.00  0.00     0.116 C 
BRANCH  31  32
ATOM     32  C   UNL A   1      34.262  31.537  27.582  1.00  0.00     0.021 C 
BRANCH  32  33
ATOM     33  C   UNL A   1      34.959  32.324  28.699  1.00  0.00     0.002 C 
BRANCH  33  34
ATOM     34  C   UNL A   1      35.466  33.714  28.300  1.00  0.00     0.002 C 
BRANCH  34  35
ATOM     35  C   UNL A   1      34.557  34.879  28.698  1.00  0.00     0.021 C 
BRANCH  35  36
ATOM     36  C   UNL A   1      33.184  34.477  29.228  1.00  0.00     0.116 C 
BRANCH  36  37
ATOM     37  N   UNL A   1      32.793  35.245  30.398  1.00  0.00    -0.352 N 
ATOM     38  C   UNL A   1      33.325  35.246  31.663  1.00  0.00     0.251 C 
ATOM     39  H   UNL A   1      32.033  35.855  30.263  1.00  0.00     0.163 HD
ATOM     40  O   UNL A   1      32.757  35.861  32.562  1.00  0.00    -0.269 OA
BRANCH  38  41
ATOM     41  C   UNL A   1      34.566  34.497  31.961  1.00  0.00     0.039 A 
ATOM     42  C   UNL A   1      34.460  33.158  32.348  1.00  0.00     0.014 A 
ATOM     43  C   UNL A   1      35.822  35.110  31.904  1.00  0.00     0.014 A 
ATOM     44  C   UNL A   1      35.611  32.423  32.636  1.00  0.00     0.010 A 
ATOM     45  C   UNL A   1      36.974  34.358  32.129  1.00  0.00     0.010 A 
ATOM     46  C   UNL A   1      36.879  33.012  32.508  1.00  0.00    -0.014 A 
BRANCH  46  47
ATOM     47  C   UNL A   1      38.111  32.233  32.789  1.00  0.00     0.031 A 
ATOM     48  C   UNL A   1      38.892  32.475  34.051  1.00  0.00     0.074 A 
ATOM     49  C   UNL A   1      38.548  31.329  31.892  1.00  0.00     0.049 A 
ATOM     50  N   UNL A   1      39.991  31.896  34.464  1.00  0.00    -0.248 NA
ATOM     51  C   UNL A   1      38.384  33.517  34.956  1.00  0.00     0.031 C 
ATOM     52  C   UNL A   1      37.901  31.020  30.615  1.00  0.00     0.029 A 
ATOM     53  N   UNL A   1      39.639  30.498  31.923  1.00  0.00    -0.354 N 
ATOM     54  C   UNL A   1      40.312  32.511  35.667  1.00  0.00     0.074 A 
ATOM     55  C   UNL A   1      39.320  33.542  35.892  1.00  0.00     0.031 C 
ATOM     56  C   UNL A   1      38.587  30.042  30.003  1.00  0.00     0.029 A 
ATOM     57  C   UNL A   1      39.734  29.677  30.826  1.00  0.00     0.049 A 
ATOM     58  H   UNL A   1      40.291  30.490  32.660  1.00  0.00     0.167 HD
ATOM     59  C   UNL A   1      41.326  32.234  36.521  1.00  0.00     0.031 A 
ATOM     60  C   UNL A   1      40.639  28.728  30.522  1.00  0.00     0.031 A 
ATOM     61  C   UNL A   1      42.309  31.205  36.308  1.00  0.00     0.049 A 
ATOM     62  C   UNL A   1      41.762  28.444  31.479  1.00  0.00     0.074 A 
ATOM     63  C   UNL A   1      43.345  30.815  37.138  1.00  0.00     0.029 A 
ATOM     64  N   UNL A   1      42.374  30.402  35.180  1.00  0.00    -0.354 N 
ATOM     65  N   UNL A   1      42.017  28.996  32.639  1.00  0.00    -0.248 NA
ATOM     66  C   UNL A   1      42.714  27.395  31.086  1.00  0.00     0.031 C 
ATOM     67  C   UNL A   1      44.063  29.800  36.495  1.00  0.00     0.029 A 
ATOM     68  C   UNL A   1      43.444  29.528  35.284  1.00  0.00     0.049 A 
ATOM     69  H   UNL A   1      41.752  30.444  34.419  1.00  0.00     0.167 HD
ATOM     70  C   UNL A   1      43.141  28.343  33.130  1.00  0.00     0.074 A 
ATOM     71  C   UNL A   1      43.512  27.349  32.143  1.00  0.00     0.031 C 
ATOM     72  C   UNL A   1      43.802  28.547  34.295  1.00  0.00     0.031 A 
BRANCH  59  73
ATOM     73  C   UNL A   1      41.422  33.071  37.766  1.00  0.00    -0.014 A 
ATOM     74  C   UNL A   1      40.726  32.715  38.934  1.00  0.00     0.009 A 
ATOM     75  C   UNL A   1      42.225  34.222  37.778  1.00  0.00     0.009 A 
ATOM     76  C   UNL A   1      40.798  33.520  40.072  1.00  0.00     0.001 A 
ATOM     77  C   UNL A   1      42.316  35.009  38.927  1.00  0.00     0.001 A 
ATOM     78  C   UNL A   1      41.594  34.665  40.069  1.00  0.00     0.000 A 
ENDBRANCH  59  73
BRANCH  60  79
ATOM     79  C   UNL A   1      40.495  27.944  29.270  1.00  0.00    -0.014 A 
ATOM     80  C   UNL A   1      39.730  26.768  29.259  1.00  0.00     0.009 A 
ATOM     81  C   UNL A   1      41.106  28.369  28.082  1.00  0.00     0.009 A 
ATOM     82  C   UNL A   1      39.596  26.022  28.087  1.00  0.00     0.001 A 
ATOM     83  C   UNL A   1      40.951  27.634  26.904  1.00  0.00     0.001 A 
ATOM     84  C   UNL A   1      40.202  26.457  26.910  1.00  0.00     0.000 A 
ENDBRANCH  60  79
BRANCH  72  85
ATOM     85  C   UNL A   1      44.975  27.655  34.581  1.00  0.00    -0.014 A 
ATOM     86  C   UNL A   1      44.811  26.421  35.229  1.00  0.00     0.009 A 
ATOM     87  C   UNL A   1      46.259  28.040  34.164  1.00  0.00     0.009 A 
ATOM     88  C   UNL A   1      45.915  25.603  35.478  1.00  0.00     0.001 A 
ATOM     89  C   UNL A   1      47.357  27.210  34.395  1.00  0.00     0.001 A 
ATOM     90  C   UNL A   1      47.185  25.997  35.058  1.00  0.00     0.000 A 
ENDBRANCH  72  85
ENDBRANCH  46  47
ENDBRANCH  38  41
ENDBRANCH  36  37
ENDBRANCH  35  36
ENDBRANCH  34  35
ENDBRANCH  33  34
ENDBRANCH  32  33
ENDBRANCH  31  32
ENDBRANCH   3  31
TORSDOF 21
ENDMDL
MODEL 2
REMARK VINA RESULT:     -10.4      0.524      5.618
REMARK SMILES C[C@H](NC(=O)OCc1ccccc1)C(=O)NCC(=O)N1CCC[C@H]1C(=O)NCCCCCCNC(=O)c1ccc(-c2c3nc(c(-c4ccccc4)c4ccc([nH]4)c(-c4ccccc4)c4nc(c(-c5ccccc5)c5ccc2[nH]5)C=C4)C=C3)cc1
REMARK SMILES IDX 25 1 26 2 27 3 24 5 20 6 21 7 22 8 23 9 18 10 19 11 17 12
REMARK SMILES IDX 16 13 14 14 15 15 2 17 1 18 3 19 4 20 5 22 6 23 7 24 8 25
REMARK SMILES IDX 9 26 13 27 10 28 12 29 11 30 28 31 29 32 30 33 31 34 32 35
REMARK SMILES IDX 33 36 34 37 35 38 36 40 37 41 38 42 84 43 39 44 83 45 40 46
REMARK SMILES IDX 41 47 42 48 77 49 43 50 82 51 76 52 78 53 44 54 81 55 75 56
REMARK SMILES IDX 74 57 45 59 67 60 52 61 66 62 53 63 56 64 65 65 79 66 54 67
REMARK SMILES IDX 55 68 64 70 80 71 57 72 46 73 47 74 51 75 48 76 50 77 49 78
REMARK SMILES IDX 68 79 69 80 73 81 70 82 72 83 71 84 58 85 59 86 63 87 60 88
REMARK SMILES IDX 62 89 61 90
REMARK H PARENT 27 4 16 16 3 21 34 39 78 58 56 69
REMARK Flexibility Score: inf
ROOT
ATOM      1  C   UNL A   1      32.713  28.687  27.186  1.00  0.00     0.242 C 
ATOM      2  O   UNL A   1      31.862  27.982  27.732  1.00  0.00    -0.273 OA
ATOM      3  N   UNL A   1      33.696  29.238  27.962  1.00  0.00    -0.354 N 
ATOM      4  H   UNL A   1      33.700  28.955  28.906  1.00  0.00     0.163 HD
ENDROOT
BRANCH   1   5
ATOM      5  C   UNL A   1      32.671  29.051  25.687  1.00  0.00     0.174 C 
ATOM      6  N   UNL A   1      32.330  27.902  24.848  1.00  0.00    -0.329 N 
ATOM      7  C   UNL A   1      30.956  28.011  24.399  1.00  0.00     0.120 C 
ATOM      8  C   UNL A   1      30.742  29.507  24.299  1.00  0.00     0.024 C 
ATOM      9  C   UNL A   1      31.565  30.083  25.441  1.00  0.00     0.037 C 
BRANCH   6  10
ATOM     10  C   UNL A   1      33.288  26.953  24.607  1.00  0.00     0.242 C 
ATOM     11  O   UNL A   1      33.990  27.027  23.587  1.00  0.00    -0.273 OA
BRANCH  10  12
ATOM     12  C   UNL A   1      33.460  25.703  25.482  1.00  0.00     0.216 C 
BRANCH  12  13
ATOM     13  N   UNL A   1      32.421  25.192  26.351  1.00  0.00    -0.345 N 
ATOM     14  C   UNL A   1      31.698  24.037  26.283  1.00  0.00     0.242 C 
ATOM     15  O   UNL A   1      30.984  23.768  27.254  1.00  0.00    -0.273 OA
ATOM     16  H   UNL A   1      32.201  25.773  27.114  1.00  0.00     0.164 HD
BRANCH  14  17
ATOM     17  C   UNL A   1      31.856  23.025  25.130  1.00  0.00     0.171 C 
ATOM     18  C   UNL A   1      30.945  23.368  23.954  1.00  0.00     0.042 C 
BRANCH  17  19
ATOM     19  N   UNL A   1      31.685  21.625  25.511  1.00  0.00    -0.310 N 
ATOM     20  C   UNL A   1      32.435  20.583  25.053  1.00  0.00     0.408 C 
ATOM     21  H   UNL A   1      30.968  21.417  26.153  1.00  0.00     0.167 HD
ATOM     22  O   UNL A   1      32.040  19.429  25.189  1.00  0.00    -0.225 OA
BRANCH  20  23
ATOM     23  O   UNL A   1      33.582  20.958  24.439  1.00  0.00    -0.445 OA
BRANCH  23  24
ATOM     24  C   UNL A   1      34.794  20.374  24.948  1.00  0.00     0.270 C 
BRANCH  24  25
ATOM     25  C   UNL A   1      35.862  21.385  25.291  1.00  0.00    -0.011 A 
ATOM     26  C   UNL A   1      37.219  21.041  25.188  1.00  0.00     0.007 A 
ATOM     27  C   UNL A   1      35.527  22.684  25.698  1.00  0.00     0.007 A 
ATOM     28  C   UNL A   1      38.217  21.968  25.493  1.00  0.00     0.000 A 
ATOM     29  C   UNL A   1      36.528  23.616  25.989  1.00  0.00     0.000 A 
ATOM     30  C   UNL A   1      37.872  23.257  25.890  1.00  0.00     0.000 A 
ENDBRANCH  24  25
ENDBRANCH  23  24
ENDBRANCH  20  23
ENDBRANCH  17  19
ENDBRANCH  14  17
ENDBRANCH  12  13
ENDBRANCH  10  12
ENDBRANCH   6  10
ENDBRANCH   1   5
BRANCH   3  31
ATOM     31  C   UNL A   1      34.731  30.182  27.588  1.00  0.00     0.116 C 
BRANCH  31  32
ATOM     32  C   UNL A   1      34.249  31.626  27.723  1.00  0.00     0.021 C 
BRANCH  32  33
ATOM     33  C   UNL A   1      34.907  32.411  28.864  1.00  0.00     0.002 C 
BRANCH  33  34
ATOM     34  C   UNL A   1      35.420  33.805  28.488  1.00  0.00     0.002 C 
BRANCH  34  35
ATOM     35  C   UNL A   1      34.421  34.946  28.695  1.00  0.00     0.021 C 
BRANCH  35  36
ATOM     36  C   UNL A   1      33.083  34.533  29.302  1.00  0.00     0.116 C 
BRANCH  36  37
ATOM     37  N   UNL A   1      32.693  35.379  30.418  1.00  0.00    -0.352 N 
ATOM     38  C   UNL A   1      33.194  35.432  31.693  1.00  0.00     0.251 C 
ATOM     39  H   UNL A   1      31.961  36.008  30.229  1.00  0.00     0.163 HD
ATOM     40  O   UNL A   1      32.629  36.117  32.542  1.00  0.00    -0.269 OA
BRANCH  38  41
ATOM     41  C   UNL A   1      34.398  34.655  32.065  1.00  0.00     0.039 A 
ATOM     42  C   UNL A   1      35.650  35.264  31.937  1.00  0.00     0.014 A 
ATOM     43  C   UNL A   1      34.308  33.327  32.494  1.00  0.00     0.014 A 
ATOM     44  C   UNL A   1      36.805  34.560  32.279  1.00  0.00     0.010 A 
ATOM     45  C   UNL A   1      35.457  32.647  32.897  1.00  0.00     0.010 A 
ATOM     46  C   UNL A   1      36.716  33.252  32.782  1.00  0.00    -0.014 A 
BRANCH  46  47
ATOM     47  C   UNL A   1      37.936  32.502  33.172  1.00  0.00     0.031 A 
ATOM     48  C   UNL A   1      38.493  31.435  32.270  1.00  0.00     0.074 A 
ATOM     49  C   UNL A   1      38.527  32.756  34.355  1.00  0.00     0.049 A 
ATOM     50  N   UNL A   1      39.545  30.675  32.443  1.00  0.00    -0.248 NA
ATOM     51  C   UNL A   1      37.761  31.175  31.021  1.00  0.00     0.031 C 
ATOM     52  C   UNL A   1      38.070  33.743  35.335  1.00  0.00     0.029 A 
ATOM     53  N   UNL A   1      39.646  32.208  34.929  1.00  0.00    -0.354 N 
ATOM     54  C   UNL A   1      39.593  29.840  31.335  1.00  0.00     0.074 A 
ATOM     55  C   UNL A   1      38.437  30.152  30.520  1.00  0.00     0.031 C 
ATOM     56  C   UNL A   1      38.923  33.756  36.372  1.00  0.00     0.029 A 
ATOM     57  C   UNL A   1      39.965  32.760  36.145  1.00  0.00     0.049 A 
ATOM     58  H   UNL A   1      40.170  31.487  34.509  1.00  0.00     0.167 HD
ATOM     59  C   UNL A   1      40.522  28.910  31.009  1.00  0.00     0.031 A 
ATOM     60  C   UNL A   1      40.989  32.502  36.979  1.00  0.00     0.031 A 
ATOM     61  C   UNL A   1      41.678  28.602  31.809  1.00  0.00     0.049 A 
ATOM     62  C   UNL A   1      42.004  31.459  36.603  1.00  0.00     0.074 A 
ATOM     63  C   UNL A   1      42.703  27.713  31.541  1.00  0.00     0.029 A 
ATOM     64  N   UNL A   1      41.959  29.180  33.038  1.00  0.00    -0.354 N 
ATOM     65  N   UNL A   1      42.066  30.720  35.523  1.00  0.00    -0.248 NA
ATOM     66  C   UNL A   1      43.097  31.228  37.558  1.00  0.00     0.031 C 
ATOM     67  C   UNL A   1      43.586  27.722  32.626  1.00  0.00     0.029 A 
ATOM     68  C   UNL A   1      43.134  28.652  33.549  1.00  0.00     0.049 A 
ATOM     69  H   UNL A   1      41.408  29.863  33.482  1.00  0.00     0.167 HD
ATOM     70  C   UNL A   1      43.218  29.955  35.654  1.00  0.00     0.074 A 
ATOM     71  C   UNL A   1      43.828  30.328  36.915  1.00  0.00     0.031 C 
ATOM     72  C   UNL A   1      43.727  29.031  34.804  1.00  0.00     0.031 A 
BRANCH  59  73
ATOM     73  C   UNL A   1      40.316  28.153  29.727  1.00  0.00    -0.014 A 
ATOM     74  C   UNL A   1      39.614  26.936  29.709  1.00  0.00     0.009 A 
ATOM     75  C   UNL A   1      40.816  28.667  28.521  1.00  0.00     0.009 A 
ATOM     76  C   UNL A   1      39.459  26.228  28.516  1.00  0.00     0.001 A 
ATOM     77  C   UNL A   1      40.635  27.970  27.326  1.00  0.00     0.001 A 
ATOM     78  C   UNL A   1      39.967  26.746  27.325  1.00  0.00     0.000 A 
ENDBRANCH  59  73
BRANCH  60  79
ATOM     79  C   UNL A   1      41.131  33.277  38.237  1.00  0.00    -0.014 A 
ATOM     80  C   UNL A   1      40.546  32.807  39.423  1.00  0.00     0.009 A 
ATOM     81  C   UNL A   1      41.857  34.475  38.264  1.00  0.00     0.009 A 
ATOM     82  C   UNL A   1      40.670  33.534  40.609  1.00  0.00     0.001 A 
ATOM     83  C   UNL A   1      41.999  35.189  39.457  1.00  0.00     0.001 A 
ATOM     84  C   UNL A   1      41.399  34.721  40.626  1.00  0.00     0.000 A 
ENDBRANCH  60  79
BRANCH  72  85
ATOM     85  C   UNL A   1      45.024  28.383  35.193  1.00  0.00    -0.014 A 
ATOM     86  C   UNL A   1      46.257  28.950  34.838  1.00  0.00     0.009 A 
ATOM     87  C   UNL A   1      45.010  27.206  35.959  1.00  0.00     0.009 A 
ATOM     88  C   UNL A   1      47.452  28.335  35.217  1.00  0.00     0.001 A 
ATOM     89  C   UNL A   1      46.206  26.606  36.356  1.00  0.00     0.001 A 
ATOM     90  C   UNL A   1      47.425  27.166  35.978  1.00  0.00     0.000 A 
ENDBRANCH  72  85
ENDBRANCH  46  47
ENDBRANCH  38  41
ENDBRANCH  36  37
ENDBRANCH  35  36
ENDBRANCH  34  35
ENDBRANCH  33  34
ENDBRANCH  32  33
ENDBRANCH  31  32
ENDBRANCH   3  31
TORSDOF 21
ENDMDL
MODEL 3
REMARK VINA RESULT:     -10.3      4.086      8.817
REMARK SMILES C[C@H](NC(=O)OCc1ccccc1)C(=O)NCC(=O)N1CCC[C@H]1C(=O)NCCCCCCNC(=O)c1ccc(-c2c3nc(c(-c4ccccc4)c4ccc([nH]4)c(-c4ccccc4)c4nc(c(-c5ccccc5)c5ccc2[nH]5)C=C4)C=C3)cc1
REMARK SMILES IDX 25 1 26 2 27 3 24 5 20 6 21 7 22 8 23 9 18 10 19 11 17 12
REMARK SMILES IDX 16 13 14 14 15 15 2 17 1 18 3 19 4 20 5 22 6 23 7 24 8 25
REMARK SMILES IDX 9 26 13 27 10 28 12 29 11 30 28 31 29 32 30 33 31 34 32 35
REMARK SMILES IDX 33 36 34 37 35 38 36 40 37 41 38 42 84 43 39 44 83 45 40 46
REMARK SMILES IDX 41 47 42 48 77 49 43 50 82 51 76 52 78 53 44 54 81 55 75 56
REMARK SMILES IDX 74 57 45 59 67 60 52 61 66 62 53 63 56 64 65 65 79 66 54 67
REMARK SMILES IDX 55 68 64 70 80 71 57 72 46 73 47 74 51 75 48 76 50 77 49 78
REMARK SMILES IDX 68 79 69 80 73 81 70 82 72 83 71 84 58 85 59 86 63 87 60 88
REMARK SMILES IDX 62 89 61 90
REMARK H PARENT 27 4 16 16 3 21 34 39 78 58 56 69
REMARK Flexibility Score: inf
ROOT
ATOM      1  C   UNL A   1      33.744  26.433  24.344  1.00  0.00     0.242 C 
ATOM      2  O   UNL A   1      33.940  27.633  24.138  1.00  0.00    -0.273 OA
ATOM      3  N   UNL A   1      34.493  25.808  25.302  1.00  0.00    -0.354 N 
ATOM      4  H   UNL A   1      35.087  26.394  25.826  1.00  0.00     0.163 HD
ENDROOT
BRANCH   1   5
ATOM      5  C   UNL A   1      32.759  25.586  23.513  1.00  0.00     0.174 C 
ATOM      6  N   UNL A   1      31.443  26.216  23.401  1.00  0.00    -0.329 N 
ATOM      7  C   UNL A   1      31.282  26.789  22.079  1.00  0.00     0.120 C 
ATOM      8  C   UNL A   1      32.104  25.869  21.200  1.00  0.00     0.024 C 
ATOM      9  C   UNL A   1      33.278  25.459  22.076  1.00  0.00     0.037 C 
BRANCH   6  10
ATOM     10  C   UNL A   1      30.597  26.172  24.477  1.00  0.00     0.242 C 
ATOM     11  O   UNL A   1      29.524  26.794  24.446  1.00  0.00    -0.273 OA
BRANCH  10  12
ATOM     12  C   UNL A   1      30.968  25.486  25.800  1.00  0.00     0.216 C 
BRANCH  12  13
ATOM     13  N   UNL A   1      30.058  24.637  26.537  1.00  0.00    -0.345 N 
ATOM     14  C   UNL A   1      30.138  23.311  26.849  1.00  0.00     0.242 C 
ATOM     15  O   UNL A   1      29.295  22.872  27.638  1.00  0.00    -0.273 OA
ATOM     16  H   UNL A   1      29.249  25.090  26.867  1.00  0.00     0.164 HD
BRANCH  14  17
ATOM     17  C   UNL A   1      31.300  22.416  26.373  1.00  0.00     0.171 C 
ATOM     18  C   UNL A   1      32.487  22.482  27.331  1.00  0.00     0.042 C 
BRANCH  17  19
ATOM     19  N   UNL A   1      31.743  22.658  25.001  1.00  0.00    -0.310 N 
ATOM     20  C   UNL A   1      32.304  21.731  24.176  1.00  0.00     0.408 C 
ATOM     21  H   UNL A   1      31.624  23.568  24.644  1.00  0.00     0.167 HD
ATOM     22  O   UNL A   1      32.910  22.085  23.168  1.00  0.00    -0.225 OA
BRANCH  20  23
ATOM     23  O   UNL A   1      32.151  20.453  24.597  1.00  0.00    -0.445 OA
BRANCH  23  24
ATOM     24  C   UNL A   1      32.300  19.433  23.594  1.00  0.00     0.270 C 
BRANCH  24  25
ATOM     25  C   UNL A   1      32.886  18.143  24.117  1.00  0.00    -0.011 A 
ATOM     26  C   UNL A   1      32.456  17.618  25.345  1.00  0.00     0.007 A 
ATOM     27  C   UNL A   1      33.851  17.436  23.385  1.00  0.00     0.007 A 
ATOM     28  C   UNL A   1      32.981  16.422  25.836  1.00  0.00     0.000 A 
ATOM     29  C   UNL A   1      34.366  16.231  23.872  1.00  0.00     0.000 A 
ATOM     30  C   UNL A   1      33.934  15.726  25.098  1.00  0.00     0.000 A 
ENDBRANCH  24  25
ENDBRANCH  23  24
ENDBRANCH  20  23
ENDBRANCH  17  19
ENDBRANCH  14  17
ENDBRANCH  12  13
ENDBRANCH  10  12
ENDBRANCH   6  10
ENDBRANCH   1   5
BRANCH   3  31
ATOM     31  C   UNL A   1      34.536  24.401  25.650  1.00  0.00     0.116 C 
BRANCH  31  32
ATOM     32  C   UNL A   1      35.621  23.661  24.868  1.00  0.00     0.021 C 
BRANCH  32  33
ATOM     33  C   UNL A   1      36.174  22.417  25.572  1.00  0.00     0.002 C 
BRANCH  33  34
ATOM     34  C   UNL A   1      35.989  21.099  24.813  1.00  0.00     0.002 C 
BRANCH  34  35
ATOM     35  C   UNL A   1      37.214  20.180  24.791  1.00  0.00     0.021 C 
BRANCH  35  36
ATOM     36  C   UNL A   1      38.401  20.664  25.619  1.00  0.00     0.116 C 
BRANCH  36  37
ATOM     37  N   UNL A   1      39.493  19.706  25.639  1.00  0.00    -0.352 N 
ATOM     38  C   UNL A   1      40.805  19.881  26.000  1.00  0.00     0.251 C 
ATOM     39  H   UNL A   1      39.257  18.796  25.350  1.00  0.00     0.163 HD
ATOM     40  O   UNL A   1      41.616  18.979  25.807  1.00  0.00    -0.269 OA
BRANCH  38  41
ATOM     41  C   UNL A   1      41.259  21.154  26.603  1.00  0.00     0.039 A 
ATOM     42  C   UNL A   1      41.774  22.144  25.761  1.00  0.00     0.014 A 
ATOM     43  C   UNL A   1      41.222  21.363  27.985  1.00  0.00     0.014 A 
ATOM     44  C   UNL A   1      42.211  23.357  26.298  1.00  0.00     0.010 A 
ATOM     45  C   UNL A   1      41.598  22.597  28.513  1.00  0.00     0.010 A 
ATOM     46  C   UNL A   1      42.107  23.601  27.676  1.00  0.00    -0.014 A 
BRANCH  46  47
ATOM     47  C   UNL A   1      42.546  24.895  28.255  1.00  0.00     0.031 A 
ATOM     48  C   UNL A   1      41.549  25.991  28.512  1.00  0.00     0.074 A 
ATOM     49  C   UNL A   1      43.851  25.099  28.521  1.00  0.00     0.049 A 
ATOM     50  N   UNL A   1      41.747  27.186  29.008  1.00  0.00    -0.248 NA
ATOM     51  C   UNL A   1      40.152  25.715  28.145  1.00  0.00     0.031 C 
ATOM     52  C   UNL A   1      44.924  24.130  28.289  1.00  0.00     0.029 A 
ATOM     53  N   UNL A   1      44.493  26.189  29.051  1.00  0.00    -0.354 N 
ATOM     54  C   UNL A   1      40.505  27.808  28.999  1.00  0.00     0.074 A 
ATOM     55  C   UNL A   1      39.571  26.877  28.404  1.00  0.00     0.031 C 
ATOM     56  C   UNL A   1      46.086  24.656  28.710  1.00  0.00     0.029 A 
ATOM     57  C   UNL A   1      45.845  26.005  29.210  1.00  0.00     0.049 A 
ATOM     58  H   UNL A   1      44.030  27.023  29.293  1.00  0.00     0.167 HD
ATOM     59  C   UNL A   1      40.164  29.034  29.463  1.00  0.00     0.031 A 
ATOM     60  C   UNL A   1      46.784  26.827  29.714  1.00  0.00     0.031 A 
ATOM     61  C   UNL A   1      41.086  29.960  30.066  1.00  0.00     0.049 A 
ATOM     62  C   UNL A   1      46.385  28.186  30.213  1.00  0.00     0.074 A 
ATOM     63  C   UNL A   1      40.828  31.205  30.611  1.00  0.00     0.029 A 
ATOM     64  N   UNL A   1      42.448  29.737  30.201  1.00  0.00    -0.354 N 
ATOM     65  N   UNL A   1      45.196  28.736  30.251  1.00  0.00    -0.248 NA
ATOM     66  C   UNL A   1      47.460  29.033  30.751  1.00  0.00     0.031 C 
ATOM     67  C   UNL A   1      42.041  31.755  31.042  1.00  0.00     0.029 A 
ATOM     68  C   UNL A   1      43.046  30.830  30.806  1.00  0.00     0.049 A 
ATOM     69  H   UNL A   1      42.920  28.924  29.912  1.00  0.00     0.167 HD
ATOM     70  C   UNL A   1      45.373  29.980  30.842  1.00  0.00     0.074 A 
ATOM     71  C   UNL A   1      46.784  30.099  31.154  1.00  0.00     0.031 C 
ATOM     72  C   UNL A   1      44.449  30.935  31.107  1.00  0.00     0.031 A 
BRANCH  59  73
ATOM     73  C   UNL A   1      38.724  29.443  29.326  1.00  0.00    -0.014 A 
ATOM     74  C   UNL A   1      38.252  30.049  28.150  1.00  0.00     0.009 A 
ATOM     75  C   UNL A   1      37.826  29.209  30.378  1.00  0.00     0.009 A 
ATOM     76  C   UNL A   1      36.919  30.453  28.049  1.00  0.00     0.001 A 
ATOM     77  C   UNL A   1      36.488  29.590  30.263  1.00  0.00     0.001 A 
ATOM     78  C   UNL A   1      36.038  30.222  29.105  1.00  0.00     0.000 A 
ENDBRANCH  59  73
BRANCH  60  79
ATOM     79  C   UNL A   1      48.192  26.368  29.811  1.00  0.00    -0.014 A 
ATOM     80  C   UNL A   1      49.084  26.601  28.752  1.00  0.00     0.009 A 
ATOM     81  C   UNL A   1      48.656  25.710  30.959  1.00  0.00     0.009 A 
ATOM     82  C   UNL A   1      50.408  26.166  28.835  1.00  0.00     0.001 A 
ATOM     83  C   UNL A   1      49.987  25.297  31.048  1.00  0.00     0.001 A 
ATOM     84  C   UNL A   1      50.860  25.519  29.983  1.00  0.00     0.000 A 
ENDBRANCH  60  79
BRANCH  72  85
ATOM     85  C   UNL A   1      44.929  32.179  31.797  1.00  0.00    -0.014 A 
ATOM     86  C   UNL A   1      44.972  32.266  33.197  1.00  0.00     0.009 A 
ATOM     87  C   UNL A   1      45.379  33.268  31.033  1.00  0.00     0.009 A 
ATOM     88  C   UNL A   1      45.429  33.430  33.818  1.00  0.00     0.001 A 
ATOM     89  C   UNL A   1      45.857  34.421  31.657  1.00  0.00     0.001 A 
ATOM     90  C   UNL A   1      45.874  34.504  33.048  1.00  0.00     0.000 A 
ENDBRANCH  72  85
ENDBRANCH  46  47
ENDBRANCH  38  41
ENDBRANCH  36  37
ENDBRANCH  35  36
ENDBRANCH  34  35
ENDBRANCH  33  34
ENDBRANCH  32  33
ENDBRANCH  31  32
ENDBRANCH   3  31
TORSDOF 21
ENDMDL
