MODEL 1
REMARK VINA RESULT:     -10.3      0.000      0.000
REMARK SMILES CC[C@@](C)([NH2+]CC(=O)N[C@@H](C)c1ccc(F)cc1)C(=O)NCCCCCCNC(=O)c1ccc(-c2c3nc(c(-c4ccccc4)c4ccc([nH]4)c(-c4ccccc4)c4nc(c(-c5ccccc5)c5ccc2[nH]5)C=C4)C=C3)cc1
REMARK SMILES IDX 23 1 22 2 21 3 19 4 20 5 3 7 4 8 2 9 1 10 5 11 6 14 7 15
REMARK SMILES IDX 8 16 9 17 10 19 11 20 12 21 13 22 18 23 14 24 17 25 15 26
REMARK SMILES IDX 16 27 24 28 25 29 26 30 27 31 28 32 29 33 30 35 31 36 32 37
REMARK SMILES IDX 78 38 33 39 77 40 34 41 35 42 36 43 71 44 37 45 76 46 70 47
REMARK SMILES IDX 72 48 38 49 75 50 69 51 68 52 39 54 61 55 46 56 60 57 47 58
REMARK SMILES IDX 50 59 59 60 73 61 48 62 49 63 58 65 74 66 51 67 40 68 41 69
REMARK SMILES IDX 45 70 42 71 44 72 43 73 62 74 63 75 67 76 64 77 66 78 65 79
REMARK SMILES IDX 52 80 53 81 57 82 54 83 56 84 55 85
REMARK H PARENT 21 6 5 12 5 13 9 18 28 34 72 53 50 64
REMARK Flexibility Score: inf
ROOT
ATOM      1  C   UNL A   1      32.095  28.974  23.060  1.00  0.00     0.021 C 
ENDROOT
BRANCH   1   2
ATOM      2  C   UNL A   1      33.575  28.798  23.418  1.00  0.00     0.116 C 
BRANCH   2   3
ATOM      3  N   UNL A   1      34.026  27.403  23.389  1.00  0.00    -0.351 N 
ATOM      4  C   UNL A   1      33.284  26.355  22.875  1.00  0.00     0.281 C 
ATOM      5  O   UNL A   1      33.533  26.055  21.701  1.00  0.00    -0.268 OA
ATOM      6  H   UNL A   1      34.914  27.199  23.762  1.00  0.00     0.163 HD
BRANCH   4   7
ATOM      7  C   UNL A   1      32.307  25.448  23.794  1.00  0.00     0.172 C 
ATOM      8  C   UNL A   1      30.865  25.831  24.197  1.00  0.00     0.090 C 
BRANCH   7   9
ATOM      9  C   UNL A   1      32.049  24.191  22.867  1.00  0.00     0.075 C 
ATOM     10  C   UNL A   1      30.654  23.541  23.083  1.00  0.00     0.011 C 
ENDBRANCH   7   9
BRANCH   7  11
ATOM     11  N   UNL A   1      32.965  25.104  25.058  1.00  0.00    -0.326 N 
ATOM     12  H   UNL A   1      33.576  25.886  25.291  1.00  0.00     0.347 HD
ATOM     13  H   UNL A   1      33.400  24.205  24.851  1.00  0.00     0.347 HD
BRANCH  11  14
ATOM     14  C   UNL A   1      32.163  24.814  26.271  1.00  0.00     0.362 C 
BRANCH  14  15
ATOM     15  C   UNL A   1      31.499  23.454  26.667  1.00  0.00     0.275 C 
ATOM     16  O   UNL A   1      30.446  23.532  27.330  1.00  0.00    -0.268 OA
ATOM     17  N   UNL A   1      31.766  22.169  26.288  1.00  0.00    -0.345 N 
ATOM     18  H   UNL A   1      30.968  21.603  26.389  1.00  0.00     0.164 HD
BRANCH  17  19
ATOM     19  C   UNL A   1      32.901  21.382  25.773  1.00  0.00     0.109 C 
ATOM     20  C   UNL A   1      32.495  20.608  24.507  1.00  0.00     0.036 C 
BRANCH  19  21
ATOM     21  C   UNL A   1      34.185  22.138  25.475  1.00  0.00    -0.026 A 
ATOM     22  C   UNL A   1      34.682  22.317  24.179  1.00  0.00     0.009 A 
ATOM     23  C   UNL A   1      34.935  22.646  26.562  1.00  0.00     0.009 A 
ATOM     24  C   UNL A   1      35.902  22.970  23.978  1.00  0.00     0.039 A 
ATOM     25  C   UNL A   1      36.155  23.291  26.360  1.00  0.00     0.039 A 
ATOM     26  C   UNL A   1      36.628  23.445  25.067  1.00  0.00     0.123 A 
ATOM     27  F   UNL A   1      37.799  24.060  24.861  1.00  0.00    -0.207 F 
ENDBRANCH  19  21
ENDBRANCH  17  19
ENDBRANCH  14  15
ENDBRANCH  11  14
ENDBRANCH   7  11
ENDBRANCH   4   7
ENDBRANCH   2   3
ENDBRANCH   1   2
BRANCH   1  28
ATOM     28  C   UNL A   1      31.178  29.061  24.283  1.00  0.00     0.002 C 
BRANCH  28  29
ATOM     29  C   UNL A   1      31.825  29.613  25.557  1.00  0.00     0.002 C 
BRANCH  29  30
ATOM     30  C   UNL A   1      32.297  28.571  26.575  1.00  0.00     0.021 C 
BRANCH  30  31
ATOM     31  C   UNL A   1      33.616  28.902  27.269  1.00  0.00     0.116 C 
BRANCH  31  32
ATOM     32  N   UNL A   1      33.659  30.279  27.743  1.00  0.00    -0.352 N 
ATOM     33  C   UNL A   1      34.633  30.938  28.438  1.00  0.00     0.251 C 
ATOM     34  H   UNL A   1      32.862  30.818  27.530  1.00  0.00     0.163 HD
ATOM     35  O   UNL A   1      34.394  32.047  28.936  1.00  0.00    -0.269 OA
BRANCH  33  36
ATOM     36  C   UNL A   1      35.966  30.336  28.609  1.00  0.00     0.039 A 
ATOM     37  C   UNL A   1      36.863  30.359  27.539  1.00  0.00     0.014 A 
ATOM     38  C   UNL A   1      36.324  29.731  29.817  1.00  0.00     0.014 A 
ATOM     39  C   UNL A   1      38.143  29.828  27.701  1.00  0.00     0.010 A 
ATOM     40  C   UNL A   1      37.623  29.271  30.002  1.00  0.00     0.010 A 
ATOM     41  C   UNL A   1      38.543  29.312  28.944  1.00  0.00    -0.014 A 
BRANCH  41  42
ATOM     42  C   UNL A   1      39.927  28.829  29.161  1.00  0.00     0.031 A 
ATOM     43  C   UNL A   1      40.973  29.746  29.727  1.00  0.00     0.074 A 
ATOM     44  C   UNL A   1      40.256  27.581  28.779  1.00  0.00     0.049 A 
ATOM     45  N   UNL A   1      42.243  29.513  29.946  1.00  0.00    -0.248 NA
ATOM     46  C   UNL A   1      40.543  31.110  30.070  1.00  0.00     0.031 C 
ATOM     47  C   UNL A   1      39.341  26.614  28.168  1.00  0.00     0.029 A 
ATOM     48  N   UNL A   1      41.453  26.914  28.839  1.00  0.00    -0.354 N 
ATOM     49  C   UNL A   1      42.762  30.703  30.440  1.00  0.00     0.074 A 
ATOM     50  C   UNL A   1      41.687  31.670  30.432  1.00  0.00     0.031 C 
ATOM     51  C   UNL A   1      40.003  25.471  27.933  1.00  0.00     0.029 A 
ATOM     52  C   UNL A   1      41.395  25.639  28.335  1.00  0.00     0.049 A 
ATOM     53  H   UNL A   1      42.275  27.313  29.207  1.00  0.00     0.167 HD
ATOM     54  C   UNL A   1      44.018  30.963  30.878  1.00  0.00     0.031 A 
ATOM     55  C   UNL A   1      42.359  24.708  28.200  1.00  0.00     0.031 A 
ATOM     56  C   UNL A   1      45.088  30.000  30.872  1.00  0.00     0.049 A 
ATOM     57  C   UNL A   1      43.749  25.022  28.671  1.00  0.00     0.074 A 
ATOM     58  C   UNL A   1      46.381  30.144  31.342  1.00  0.00     0.029 A 
ATOM     59  N   UNL A   1      44.991  28.715  30.355  1.00  0.00    -0.354 N 
ATOM     60  N   UNL A   1      44.208  26.126  29.211  1.00  0.00    -0.248 NA
ATOM     61  C   UNL A   1      44.753  23.960  28.523  1.00  0.00     0.031 C 
ATOM     62  C   UNL A   1      47.084  28.968  31.054  1.00  0.00     0.029 A 
ATOM     63  C   UNL A   1      46.210  28.068  30.463  1.00  0.00     0.049 A 
ATOM     64  H   UNL A   1      44.174  28.323  29.969  1.00  0.00     0.167 HD
ATOM     65  C   UNL A   1      45.548  25.886  29.483  1.00  0.00     0.074 A 
ATOM     66  C   UNL A   1      45.821  24.524  29.070  1.00  0.00     0.031 C 
ATOM     67  C   UNL A   1      46.470  26.718  30.028  1.00  0.00     0.031 A 
BRANCH  54  68
ATOM     68  C   UNL A   1      44.296  32.353  31.382  1.00  0.00    -0.014 A 
ATOM     69  C   UNL A   1      44.758  33.364  30.522  1.00  0.00     0.009 A 
ATOM     70  C   UNL A   1      44.092  32.661  32.736  1.00  0.00     0.009 A 
ATOM     71  C   UNL A   1      45.061  34.634  31.017  1.00  0.00     0.001 A 
ATOM     72  C   UNL A   1      44.362  33.941  33.222  1.00  0.00     0.001 A 
ATOM     73  C   UNL A   1      44.860  34.923  32.366  1.00  0.00     0.000 A 
ENDBRANCH  54  68
BRANCH  55  74
ATOM     74  C   UNL A   1      42.026  23.390  27.600  1.00  0.00    -0.014 A 
ATOM     75  C   UNL A   1      41.431  22.382  28.373  1.00  0.00     0.009 A 
ATOM     76  C   UNL A   1      42.273  23.147  26.239  1.00  0.00     0.009 A 
ATOM     77  C   UNL A   1      41.104  21.152  27.798  1.00  0.00     0.001 A 
ATOM     78  C   UNL A   1      41.917  21.927  25.661  1.00  0.00     0.001 A 
ATOM     79  C   UNL A   1      41.340  20.928  26.443  1.00  0.00     0.000 A 
ENDBRANCH  55  74
BRANCH  67  80
ATOM     80  C   UNL A   1      47.858  26.172  30.218  1.00  0.00    -0.014 A 
ATOM     81  C   UNL A   1      48.781  26.141  29.160  1.00  0.00     0.009 A 
ATOM     82  C   UNL A   1      48.259  25.714  31.484  1.00  0.00     0.009 A 
ATOM     83  C   UNL A   1      50.066  25.632  29.360  1.00  0.00     0.001 A 
ATOM     84  C   UNL A   1      49.554  25.236  31.687  1.00  0.00     0.001 A 
ATOM     85  C   UNL A   1      50.453  25.186  30.622  1.00  0.00     0.000 A 
ENDBRANCH  67  80
ENDBRANCH  41  42
ENDBRANCH  33  36
ENDBRANCH  31  32
ENDBRANCH  30  31
ENDBRANCH  29  30
ENDBRANCH  28  29
ENDBRANCH   1  28
TORSDOF 19
ENDMDL
MODEL 2
REMARK VINA RESULT:     -10.1      2.538      7.190
REMARK SMILES CC[C@@](C)([NH2+]CC(=O)N[C@@H](C)c1ccc(F)cc1)C(=O)NCCCCCCNC(=O)c1ccc(-c2c3nc(c(-c4ccccc4)c4ccc([nH]4)c(-c4ccccc4)c4nc(c(-c5ccccc5)c5ccc2[nH]5)C=C4)C=C3)cc1
REMARK SMILES IDX 23 1 22 2 21 3 19 4 20 5 3 7 4 8 2 9 1 10 5 11 6 14 7 15
REMARK SMILES IDX 8 16 9 17 10 19 11 20 12 21 13 22 18 23 14 24 17 25 15 26
REMARK SMILES IDX 16 27 24 28 25 29 26 30 27 31 28 32 29 33 30 35 31 36 32 37
REMARK SMILES IDX 78 38 33 39 77 40 34 41 35 42 36 43 71 44 37 45 76 46 70 47
REMARK SMILES IDX 72 48 38 49 75 50 69 51 68 52 39 54 61 55 46 56 60 57 47 58
REMARK SMILES IDX 50 59 59 60 73 61 48 62 49 63 58 65 74 66 51 67 40 68 41 69
REMARK SMILES IDX 45 70 42 71 44 72 43 73 62 74 63 75 67 76 64 77 66 78 65 79
REMARK SMILES IDX 52 80 53 81 57 82 54 83 56 84 55 85
REMARK H PARENT 21 6 5 12 5 13 9 18 28 34 72 53 50 64
REMARK Flexibility Score: inf
ROOT
ATOM      1  C   UNL A   1      36.425  23.042  23.740  1.00  0.00     0.021 C 
ENDROOT
BRANCH   1   2
ATOM      2  C   UNL A   1      34.961  23.283  24.127  1.00  0.00     0.116 C 
BRANCH   2   3
ATOM      3  N   UNL A   1      34.569  24.696  24.091  1.00  0.00    -0.351 N 
ATOM      4  C   UNL A   1      33.552  25.242  24.853  1.00  0.00     0.281 C 
ATOM      5  O   UNL A   1      33.908  25.767  25.915  1.00  0.00    -0.268 OA
ATOM      6  H   UNL A   1      35.062  25.294  23.484  1.00  0.00     0.163 HD
BRANCH   4   7
ATOM      7  C   UNL A   1      32.032  25.371  24.309  1.00  0.00     0.172 C 
ATOM      8  C   UNL A   1      31.311  26.704  24.008  1.00  0.00     0.090 C 
BRANCH   7   9
ATOM      9  C   UNL A   1      32.143  24.741  22.861  1.00  0.00     0.075 C 
ATOM     10  C   UNL A   1      32.097  25.798  21.723  1.00  0.00     0.011 C 
ENDBRANCH   7   9
BRANCH   7  11
ATOM     11  N   UNL A   1      31.110  24.641  25.184  1.00  0.00    -0.326 N 
ATOM     12  H   UNL A   1      30.172  24.966  24.955  1.00  0.00     0.347 HD
ATOM     13  H   UNL A   1      31.471  24.844  26.117  1.00  0.00     0.347 HD
BRANCH  11  14
ATOM     14  C   UNL A   1      31.065  23.159  25.162  1.00  0.00     0.362 C 
BRANCH  14  15
ATOM     15  C   UNL A   1      31.993  22.168  25.939  1.00  0.00     0.275 C 
ATOM     16  O   UNL A   1      32.511  22.607  26.984  1.00  0.00    -0.268 OA
ATOM     17  N   UNL A   1      32.229  20.832  25.778  1.00  0.00    -0.345 N 
ATOM     18  H   UNL A   1      32.537  20.429  26.621  1.00  0.00     0.164 HD
BRANCH  17  19
ATOM     19  C   UNL A   1      32.159  19.817  24.711  1.00  0.00     0.109 C 
ATOM     20  C   UNL A   1      32.469  20.445  23.342  1.00  0.00     0.036 C 
BRANCH  19  21
ATOM     21  C   UNL A   1      33.033  18.584  24.876  1.00  0.00    -0.026 A 
ATOM     22  C   UNL A   1      34.283  18.448  24.262  1.00  0.00     0.009 A 
ATOM     23  C   UNL A   1      32.539  17.507  25.649  1.00  0.00     0.009 A 
ATOM     24  C   UNL A   1      35.010  17.262  24.405  1.00  0.00     0.039 A 
ATOM     25  C   UNL A   1      33.262  16.322  25.784  1.00  0.00     0.039 A 
ATOM     26  C   UNL A   1      34.493  16.211  25.157  1.00  0.00     0.123 A 
ATOM     27  F   UNL A   1      35.195  15.078  25.277  1.00  0.00    -0.207 F 
ENDBRANCH  19  21
ENDBRANCH  17  19
ENDBRANCH  14  15
ENDBRANCH  11  14
ENDBRANCH   7  11
ENDBRANCH   4   7
ENDBRANCH   2   3
ENDBRANCH   1   2
BRANCH   1  28
ATOM     28  C   UNL A   1      37.171  22.129  24.717  1.00  0.00     0.002 C 
BRANCH  28  29
ATOM     29  C   UNL A   1      36.832  20.638  24.620  1.00  0.00     0.002 C 
BRANCH  29  30
ATOM     30  C   UNL A   1      38.007  19.671  24.786  1.00  0.00     0.021 C 
BRANCH  30  31
ATOM     31  C   UNL A   1      38.925  19.971  25.967  1.00  0.00     0.116 C 
BRANCH  31  32
ATOM     32  N   UNL A   1      40.178  19.230  25.893  1.00  0.00    -0.352 N 
ATOM     33  C   UNL A   1      41.464  19.664  26.045  1.00  0.00     0.251 C 
ATOM     34  H   UNL A   1      40.082  18.268  25.705  1.00  0.00     0.163 HD
ATOM     35  O   UNL A   1      42.407  18.922  25.736  1.00  0.00    -0.269 OA
BRANCH  33  36
ATOM     36  C   UNL A   1      41.741  21.012  26.568  1.00  0.00     0.039 A 
ATOM     37  C   UNL A   1      41.767  21.213  27.950  1.00  0.00     0.014 A 
ATOM     38  C   UNL A   1      41.956  22.083  25.695  1.00  0.00     0.014 A 
ATOM     39  C   UNL A   1      42.068  22.477  28.458  1.00  0.00     0.010 A 
ATOM     40  C   UNL A   1      42.330  23.323  26.201  1.00  0.00     0.010 A 
ATOM     41  C   UNL A   1      42.386  23.532  27.587  1.00  0.00    -0.014 A 
BRANCH  41  42
ATOM     42  C   UNL A   1      42.798  24.856  28.110  1.00  0.00     0.031 A 
ATOM     43  C   UNL A   1      41.775  25.926  28.363  1.00  0.00     0.074 A 
ATOM     44  C   UNL A   1      44.106  25.114  28.291  1.00  0.00     0.049 A 
ATOM     45  N   UNL A   1      41.952  27.156  28.778  1.00  0.00    -0.248 NA
ATOM     46  C   UNL A   1      40.371  25.579  28.091  1.00  0.00     0.031 C 
ATOM     47  C   UNL A   1      45.198  24.173  28.030  1.00  0.00     0.029 A 
ATOM     48  N   UNL A   1      44.741  26.249  28.726  1.00  0.00    -0.354 N 
ATOM     49  C   UNL A   1      40.687  27.728  28.804  1.00  0.00     0.074 A 
ATOM     50  C   UNL A   1      39.761  26.734  28.309  1.00  0.00     0.031 C 
ATOM     51  C   UNL A   1      46.365  24.761  28.335  1.00  0.00     0.029 A 
ATOM     52  C   UNL A   1      46.108  26.129  28.768  1.00  0.00     0.049 A 
ATOM     53  H   UNL A   1      44.263  27.071  28.983  1.00  0.00     0.167 HD
ATOM     54  C   UNL A   1      40.325  28.966  29.222  1.00  0.00     0.031 A 
ATOM     55  C   UNL A   1      47.053  27.026  29.109  1.00  0.00     0.031 A 
ATOM     56  C   UNL A   1      41.253  29.956  29.703  1.00  0.00     0.049 A 
ATOM     57  C   UNL A   1      46.634  28.399  29.547  1.00  0.00     0.074 A 
ATOM     58  C   UNL A   1      40.985  31.220  30.199  1.00  0.00     0.029 A 
ATOM     59  N   UNL A   1      42.631  29.798  29.733  1.00  0.00    -0.354 N 
ATOM     60  N   UNL A   1      45.427  28.902  29.645  1.00  0.00    -0.248 NA
ATOM     61  C   UNL A   1      47.707  29.326  29.932  1.00  0.00     0.031 C 
ATOM     62  C   UNL A   1      42.206  31.849  30.472  1.00  0.00     0.029 A 
ATOM     63  C   UNL A   1      43.231  30.952  30.207  1.00  0.00     0.049 A 
ATOM     64  H   UNL A   1      43.111  28.983  29.458  1.00  0.00     0.167 HD
ATOM     65  C   UNL A   1      45.592  30.197  30.118  1.00  0.00     0.074 A 
ATOM     66  C   UNL A   1      47.015  30.392  30.309  1.00  0.00     0.031 C 
ATOM     67  C   UNL A   1      44.650  31.138  30.372  1.00  0.00     0.031 A 
BRANCH  54  68
ATOM     68  C   UNL A   1      38.863  29.313  29.155  1.00  0.00    -0.014 A 
ATOM     69  C   UNL A   1      38.299  29.883  28.001  1.00  0.00     0.009 A 
ATOM     70  C   UNL A   1      38.034  29.067  30.261  1.00  0.00     0.009 A 
ATOM     71  C   UNL A   1      36.951  30.247  27.975  1.00  0.00     0.001 A 
ATOM     72  C   UNL A   1      36.678  29.400  30.220  1.00  0.00     0.001 A 
ATOM     73  C   UNL A   1      36.141  30.003  29.083  1.00  0.00     0.000 A 
ENDBRANCH  54  68
BRANCH  55  74
ATOM     74  C   UNL A   1      48.486  26.637  29.053  1.00  0.00    -0.014 A 
ATOM     75  C   UNL A   1      49.104  26.024  30.154  1.00  0.00     0.009 A 
ATOM     76  C   UNL A   1      49.236  26.847  27.885  1.00  0.00     0.009 A 
ATOM     77  C   UNL A   1      50.446  25.643  30.090  1.00  0.00     0.001 A 
ATOM     78  C   UNL A   1      50.568  26.438  27.813  1.00  0.00     0.001 A 
ATOM     79  C   UNL A   1      51.175  25.844  28.919  1.00  0.00     0.000 A 
ENDBRANCH  55  74
BRANCH  67  80
ATOM     80  C   UNL A   1      45.131  32.463  30.897  1.00  0.00    -0.014 A 
ATOM     81  C   UNL A   1      45.361  33.548  30.037  1.00  0.00     0.009 A 
ATOM     82  C   UNL A   1      45.323  32.637  32.277  1.00  0.00     0.009 A 
ATOM     83  C   UNL A   1      45.804  34.771  30.545  1.00  0.00     0.001 A 
ATOM     84  C   UNL A   1      45.735  33.869  32.785  1.00  0.00     0.001 A 
ATOM     85  C   UNL A   1      45.986  34.932  31.918  1.00  0.00     0.000 A 
ENDBRANCH  67  80
ENDBRANCH  41  42
ENDBRANCH  33  36
ENDBRANCH  31  32
ENDBRANCH  30  31
ENDBRANCH  29  30
ENDBRANCH  28  29
ENDBRANCH   1  28
TORSDOF 19
ENDMDL
MODEL 3
REMARK VINA RESULT:     -10.1      2.650      7.679
REMARK SMILES CC[C@@](C)([NH2+]CC(=O)N[C@@H](C)c1ccc(F)cc1)C(=O)NCCCCCCNC(=O)c1ccc(-c2c3nc(c(-c4ccccc4)c4ccc([nH]4)c(-c4ccccc4)c4nc(c(-c5ccccc5)c5ccc2[nH]5)C=C4)C=C3)cc1
REMARK SMILES IDX 23 1 22 2 21 3 19 4 20 5 3 7 4 8 2 9 1 10 5 11 6 14 7 15
REMARK SMILES IDX 8 16 9 17 10 19 11 20 12 21 13 22 18 23 14 24 17 25 15 26
REMARK SMILES IDX 16 27 24 28 25 29 26 30 27 31 28 32 29 33 30 35 31 36 32 37
REMARK SMILES IDX 78 38 33 39 77 40 34 41 35 42 36 43 71 44 37 45 76 46 70 47
REMARK SMILES IDX 72 48 38 49 75 50 69 51 68 52 39 54 61 55 46 56 60 57 47 58
REMARK SMILES IDX 50 59 59 60 73 61 48 62 49 63 58 65 74 66 51 67 40 68 41 69
REMARK SMILES IDX 45 70 42 71 44 72 43 73 62 74 63 75 67 76 64 77 66 78 65 79
REMARK SMILES IDX 52 80 53 81 57 82 54 83 56 84 55 85
REMARK H PARENT 21 6 5 12 5 13 9 18 28 34 72 53 50 64
REMARK Flexibility Score: inf
ROOT
ATOM      1  C   UNL A   1      36.826  23.020  24.544  1.00  0.00     0.021 C 
ENDROOT
BRANCH   1   2
ATOM      2  C   UNL A   1      36.378  23.898  25.717  1.00  0.00     0.116 C 
BRANCH   2   3
ATOM      3  N   UNL A   1      35.177  24.691  25.433  1.00  0.00    -0.351 N 
ATOM      4  C   UNL A   1      33.884  24.211  25.533  1.00  0.00     0.281 C 
ATOM      5  O   UNL A   1      33.313  24.444  26.605  1.00  0.00    -0.268 OA
ATOM      6  H   UNL A   1      35.301  25.627  25.152  1.00  0.00     0.163 HD
BRANCH   4   7
ATOM      7  C   UNL A   1      33.095  23.572  24.272  1.00  0.00     0.172 C 
ATOM      8  C   UNL A   1      33.755  23.133  22.945  1.00  0.00     0.090 C 
BRANCH   7   9
ATOM      9  C   UNL A   1      32.609  22.182  24.853  1.00  0.00     0.075 C 
ATOM     10  C   UNL A   1      33.616  21.024  24.607  1.00  0.00     0.011 C 
ENDBRANCH   7   9
BRANCH   7  11
ATOM     11  N   UNL A   1      31.988  24.442  23.864  1.00  0.00    -0.326 N 
ATOM     12  H   UNL A   1      31.789  24.223  22.888  1.00  0.00     0.347 HD
ATOM     13  H   UNL A   1      32.339  25.375  24.081  1.00  0.00     0.347 HD
BRANCH  11  14
ATOM     14  C   UNL A   1      30.692  24.399  24.583  1.00  0.00     0.362 C 
BRANCH  14  15
ATOM     15  C   UNL A   1      30.395  24.894  26.037  1.00  0.00     0.275 C 
ATOM     16  O   UNL A   1      29.924  24.046  26.819  1.00  0.00    -0.268 OA
ATOM     17  N   UNL A   1      30.704  26.060  26.678  1.00  0.00    -0.345 N 
ATOM     18  H   UNL A   1      30.733  25.924  27.653  1.00  0.00     0.164 HD
BRANCH  17  19
ATOM     19  C   UNL A   1      31.005  27.463  26.340  1.00  0.00     0.109 C 
ATOM     20  C   UNL A   1      31.642  28.187  27.538  1.00  0.00     0.036 C 
BRANCH  19  21
ATOM     21  C   UNL A   1      31.880  27.704  25.121  1.00  0.00    -0.026 A 
ATOM     22  C   UNL A   1      33.278  27.726  25.178  1.00  0.00     0.009 A 
ATOM     23  C   UNL A   1      31.250  27.962  23.880  1.00  0.00     0.009 A 
ATOM     24  C   UNL A   1      34.023  28.014  24.030  1.00  0.00     0.039 A 
ATOM     25  C   UNL A   1      31.995  28.256  22.739  1.00  0.00     0.039 A 
ATOM     26  C   UNL A   1      33.378  28.282  22.827  1.00  0.00     0.123 A 
ATOM     27  F   UNL A   1      34.103  28.565  21.738  1.00  0.00    -0.207 F 
ENDBRANCH  19  21
ENDBRANCH  17  19
ENDBRANCH  14  15
ENDBRANCH  11  14
ENDBRANCH   7  11
ENDBRANCH   4   7
ENDBRANCH   2   3
ENDBRANCH   1   2
BRANCH   1  28
ATOM     28  C   UNL A   1      37.805  21.915  24.948  1.00  0.00     0.002 C 
BRANCH  28  29
ATOM     29  C   UNL A   1      37.354  20.484  24.635  1.00  0.00     0.002 C 
BRANCH  29  30
ATOM     30  C   UNL A   1      38.318  19.371  25.052  1.00  0.00     0.021 C 
BRANCH  30  31
ATOM     31  C   UNL A   1      39.428  19.804  26.006  1.00  0.00     0.116 C 
BRANCH  31  32
ATOM     32  N   UNL A   1      40.560  18.886  25.989  1.00  0.00    -0.352 N 
ATOM     33  C   UNL A   1      41.899  19.144  26.050  1.00  0.00     0.251 C 
ATOM     34  H   UNL A   1      40.321  17.933  25.922  1.00  0.00     0.163 HD
ATOM     35  O   UNL A   1      42.714  18.243  25.808  1.00  0.00    -0.269 OA
BRANCH  33  36
ATOM     36  C   UNL A   1      42.386  20.490  26.396  1.00  0.00     0.039 A 
ATOM     37  C   UNL A   1      42.868  21.319  25.380  1.00  0.00     0.014 A 
ATOM     38  C   UNL A   1      42.386  20.928  27.723  1.00  0.00     0.014 A 
ATOM     39  C   UNL A   1      43.295  22.611  25.689  1.00  0.00     0.010 A 
ATOM     40  C   UNL A   1      42.740  22.240  28.019  1.00  0.00     0.010 A 
ATOM     41  C   UNL A   1      43.201  23.092  27.005  1.00  0.00    -0.014 A 
BRANCH  41  42
ATOM     42  C   UNL A   1      43.562  24.491  27.334  1.00  0.00     0.031 A 
ATOM     43  C   UNL A   1      44.996  24.936  27.294  1.00  0.00     0.074 A 
ATOM     44  C   UNL A   1      42.600  25.341  27.737  1.00  0.00     0.049 A 
ATOM     45  N   UNL A   1      45.506  26.105  27.591  1.00  0.00    -0.248 NA
ATOM     46  C   UNL A   1      45.991  23.929  26.893  1.00  0.00     0.031 C 
ATOM     47  C   UNL A   1      41.179  25.012  27.866  1.00  0.00     0.029 A 
ATOM     48  N   UNL A   1      42.673  26.656  28.122  1.00  0.00    -0.354 N 
ATOM     49  C   UNL A   1      46.878  25.969  27.423  1.00  0.00     0.074 A 
ATOM     50  C   UNL A   1      47.125  24.593  27.058  1.00  0.00     0.031 C 
ATOM     51  C   UNL A   1      40.512  26.101  28.276  1.00  0.00     0.029 A 
ATOM     52  C   UNL A   1      41.460  27.190  28.480  1.00  0.00     0.049 A 
ATOM     53  H   UNL A   1      43.516  27.166  28.142  1.00  0.00     0.167 HD
ATOM     54  C   UNL A   1      47.843  26.912  27.545  1.00  0.00     0.031 A 
ATOM     55  C   UNL A   1      41.146  28.418  28.933  1.00  0.00     0.031 A 
ATOM     56  C   UNL A   1      47.592  28.279  27.921  1.00  0.00     0.049 A 
ATOM     57  C   UNL A   1      42.234  29.442  29.082  1.00  0.00     0.074 A 
ATOM     58  C   UNL A   1      48.491  29.326  28.021  1.00  0.00     0.029 A 
ATOM     59  N   UNL A   1      46.349  28.784  28.274  1.00  0.00    -0.354 N 
ATOM     60  N   UNL A   1      43.518  29.324  28.842  1.00  0.00    -0.248 NA
ATOM     61  C   UNL A   1      41.828  30.773  29.555  1.00  0.00     0.031 C 
ATOM     62  C   UNL A   1      47.802  30.449  28.494  1.00  0.00     0.029 A 
ATOM     63  C   UNL A   1      46.462  30.119  28.626  1.00  0.00     0.049 A 
ATOM     64  H   UNL A   1      45.510  28.269  28.274  1.00  0.00     0.167 HD
ATOM     65  C   UNL A   1      44.071  30.567  29.118  1.00  0.00     0.074 A 
ATOM     66  C   UNL A   1      42.979  31.430  29.521  1.00  0.00     0.031 C 
ATOM     67  C   UNL A   1      45.367  30.958  29.044  1.00  0.00     0.031 A 
BRANCH  54  68
ATOM     68  C   UNL A   1      49.261  26.481  27.283  1.00  0.00    -0.014 A 
ATOM     69  C   UNL A   1      49.786  26.449  25.979  1.00  0.00     0.009 A 
ATOM     70  C   UNL A   1      50.086  26.101  28.352  1.00  0.00     0.009 A 
ATOM     71  C   UNL A   1      51.087  25.996  25.748  1.00  0.00     0.001 A 
ATOM     72  C   UNL A   1      51.398  25.681  28.123  1.00  0.00     0.001 A 
ATOM     73  C   UNL A   1      51.893  25.615  26.820  1.00  0.00     0.000 A 
ENDBRANCH  54  68
BRANCH  55  74
ATOM     74  C   UNL A   1      39.734  28.738  29.266  1.00  0.00    -0.014 A 
ATOM     75  C   UNL A   1      38.870  29.258  28.291  1.00  0.00     0.009 A 
ATOM     76  C   UNL A   1      39.234  28.491  30.554  1.00  0.00     0.009 A 
ATOM     77  C   UNL A   1      37.538  29.539  28.604  1.00  0.00     0.001 A 
ATOM     78  C   UNL A   1      37.895  28.745  30.856  1.00  0.00     0.001 A 
ATOM     79  C   UNL A   1      37.050  29.276  29.883  1.00  0.00     0.000 A 
ENDBRANCH  55  74
BRANCH  67  80
ATOM     80  C   UNL A   1      45.671  32.389  29.395  1.00  0.00    -0.014 A 
ATOM     81  C   UNL A   1      45.613  33.405  28.428  1.00  0.00     0.009 A 
ATOM     82  C   UNL A   1      45.986  32.729  30.720  1.00  0.00     0.009 A 
ATOM     83  C   UNL A   1      45.896  34.727  28.776  1.00  0.00     0.001 A 
ATOM     84  C   UNL A   1      46.237  34.056  31.071  1.00  0.00     0.001 A 
ATOM     85  C   UNL A   1      46.202  35.052  30.097  1.00  0.00     0.000 A 
ENDBRANCH  67  80
ENDBRANCH  41  42
ENDBRANCH  33  36
ENDBRANCH  31  32
ENDBRANCH  30  31
ENDBRANCH  29  30
ENDBRANCH  28  29
ENDBRANCH   1  28
TORSDOF 19
ENDMDL
