MODEL 1
REMARK VINA RESULT:     -12.5      0.000      0.000
REMARK SMILES Cc1cnc2nc(-c3cc(F)c(F)cc3C(=O)NCCCCCCNC(=O)c3ccc(-c4c5nc(c(-c6ccccc6)c6ccc([nH]6)c(-c6ccccc6)c6nc(c(-c7ccccc7)c7ccc4[nH]7)C=C6)C=C5)cc3)[nH]c2c1
REMARK SMILES IDX 22 1 21 2 20 3 19 4 18 5 16 6 17 7 15 9 8 10 9 11 10 12
REMARK SMILES IDX 14 13 11 14 12 15 13 16 7 17 1 18 2 19 3 20 78 21 4 22 77 23
REMARK SMILES IDX 5 24 76 25 6 26 23 28 24 29 25 30 26 31 27 33 28 34 29 35
REMARK SMILES IDX 75 36 30 37 74 38 31 39 32 40 33 41 68 42 34 43 73 44 67 45
REMARK SMILES IDX 69 46 35 47 72 48 66 49 65 50 36 52 58 53 43 54 57 55 44 56
REMARK SMILES IDX 47 57 56 58 70 59 45 60 46 61 55 63 71 64 48 65 37 66 38 67
REMARK SMILES IDX 42 68 39 69 41 70 40 71 59 72 60 73 64 74 61 75 63 76 62 77
REMARK SMILES IDX 49 78 50 79 54 80 51 81 53 82 52 83
REMARK H PARENT 18 8 76 27 25 32 69 51 47 62
REMARK Flexibility Score: inf
ROOT
ATOM      1  C   UNL A   1      41.018  20.486  26.954  1.00  0.00     0.002 C 
ENDROOT
BRANCH   1   2
ATOM      2  C   UNL A   1      40.133  21.539  26.264  1.00  0.00     0.002 C 
BRANCH   2   3
ATOM      3  C   UNL A   1      38.834  21.081  25.604  1.00  0.00     0.021 C 
BRANCH   3   4
ATOM      4  C   UNL A   1      37.687  22.073  25.524  1.00  0.00     0.116 C 
BRANCH   4   5
ATOM      5  N   UNL A   1      37.182  22.407  24.227  1.00  0.00    -0.352 N 
ATOM      6  C   UNL A   1      36.014  23.035  23.872  1.00  0.00     0.252 C 
ATOM      7  O   UNL A   1      35.928  23.360  22.683  1.00  0.00    -0.269 OA
ATOM      8  H   UNL A   1      37.762  22.147  23.475  1.00  0.00     0.163 HD
BRANCH   6   9
ATOM      9  C   UNL A   1      34.792  23.242  24.740  1.00  0.00     0.053 A 
ATOM     10  C   UNL A   1      33.910  22.317  25.356  1.00  0.00     0.033 A 
ATOM     11  C   UNL A   1      32.841  22.806  26.152  1.00  0.00     0.055 A 
ATOM     12  C   UNL A   1      32.642  24.165  26.344  1.00  0.00     0.159 A 
ATOM     13  C   UNL A   1      34.554  24.624  24.974  1.00  0.00     0.057 A 
ATOM     14  F   UNL A   1      31.614  24.579  27.096  1.00  0.00    -0.204 F 
ATOM     15  C   UNL A   1      33.499  25.073  25.760  1.00  0.00     0.159 A 
ATOM     16  F   UNL A   1      33.318  26.388  25.942  1.00  0.00    -0.204 F 
BRANCH  10  17
ATOM     17  C   UNL A   1      33.962  20.857  25.280  1.00  0.00     0.141 A 
ATOM     18  C   UNL A   1      32.462  15.093  25.405  1.00  0.00     0.046 C 
ATOM     19  C   UNL A   1      33.115  16.434  25.252  1.00  0.00    -0.031 A 
ATOM     20  C   UNL A   1      34.278  16.565  24.486  1.00  0.00     0.117 A 
ATOM     21  C   UNL A   1      32.592  17.572  25.876  1.00  0.00     0.035 A 
ATOM     22  N   UNL A   1      34.938  17.717  24.229  1.00  0.00    -0.235 NA
ATOM     23  C   UNL A   1      33.279  18.757  25.625  1.00  0.00     0.085 A 
ATOM     24  C   UNL A   1      34.401  18.811  24.808  1.00  0.00     0.178 A 
ATOM     25  N   UNL A   1      33.089  20.059  26.003  1.00  0.00    -0.337 N 
ATOM     26  N   UNL A   1      34.805  20.107  24.600  1.00  0.00    -0.209 NA
ATOM     27  H   UNL A   1      32.443  20.374  26.675  1.00  0.00     0.168 HD
ENDBRANCH  10  17
ENDBRANCH   6   9
ENDBRANCH   4   5
ENDBRANCH   3   4
ENDBRANCH   2   3
ENDBRANCH   1   2
BRANCH   1  28
ATOM     28  C   UNL A   1      41.606  19.363  26.094  1.00  0.00     0.021 C 
BRANCH  28  29
ATOM     29  C   UNL A   1      43.035  18.992  26.433  1.00  0.00     0.116 C 
BRANCH  29  30
ATOM     30  N   UNL A   1      43.950  18.923  25.300  1.00  0.00    -0.352 N 
ATOM     31  C   UNL A   1      44.426  19.978  24.539  1.00  0.00     0.251 C 
ATOM     32  H   UNL A   1      44.267  18.025  25.047  1.00  0.00     0.163 HD
ATOM     33  O   UNL A   1      44.969  19.778  23.452  1.00  0.00    -0.269 OA
BRANCH  31  34
ATOM     34  C   UNL A   1      44.260  21.363  25.035  1.00  0.00     0.039 A 
ATOM     35  C   UNL A   1      43.326  22.243  24.482  1.00  0.00     0.014 A 
ATOM     36  C   UNL A   1      45.051  21.779  26.099  1.00  0.00     0.014 A 
ATOM     37  C   UNL A   1      43.160  23.504  25.060  1.00  0.00     0.010 A 
ATOM     38  C   UNL A   1      44.746  22.924  26.787  1.00  0.00     0.010 A 
ATOM     39  C   UNL A   1      43.864  23.835  26.231  1.00  0.00    -0.014 A 
BRANCH  39  40
ATOM     40  C   UNL A   1      43.661  25.104  26.924  1.00  0.00     0.031 A 
ATOM     41  C   UNL A   1      44.653  26.161  26.603  1.00  0.00     0.074 A 
ATOM     42  C   UNL A   1      42.576  25.384  27.684  1.00  0.00     0.049 A 
ATOM     43  N   UNL A   1      45.609  26.578  27.363  1.00  0.00    -0.248 NA
ATOM     44  C   UNL A   1      44.679  26.731  25.248  1.00  0.00     0.031 C 
ATOM     45  C   UNL A   1      41.367  24.580  27.918  1.00  0.00     0.029 A 
ATOM     46  N   UNL A   1      42.289  26.532  28.354  1.00  0.00    -0.354 N 
ATOM     47  C   UNL A   1      46.240  27.606  26.671  1.00  0.00     0.074 A 
ATOM     48  C   UNL A   1      45.739  27.541  25.320  1.00  0.00     0.031 C 
ATOM     49  C   UNL A   1      40.396  25.352  28.453  1.00  0.00     0.029 A 
ATOM     50  C   UNL A   1      40.975  26.636  28.795  1.00  0.00     0.049 A 
ATOM     51  H   UNL A   1      42.960  27.234  28.515  1.00  0.00     0.167 HD
ATOM     52  C   UNL A   1      46.936  28.571  27.337  1.00  0.00     0.031 A 
ATOM     53  C   UNL A   1      40.408  27.695  29.420  1.00  0.00     0.031 A 
ATOM     54  C   UNL A   1      47.165  28.195  28.711  1.00  0.00     0.049 A 
ATOM     55  C   UNL A   1      41.510  28.468  30.034  1.00  0.00     0.074 A 
ATOM     56  C   UNL A   1      47.817  27.161  29.351  1.00  0.00     0.029 A 
ATOM     57  N   UNL A   1      46.321  28.745  29.648  1.00  0.00    -0.354 N 
ATOM     58  N   UNL A   1      42.238  28.010  31.011  1.00  0.00    -0.248 NA
ATOM     59  C   UNL A   1      42.097  29.551  29.264  1.00  0.00     0.031 C 
ATOM     60  C   UNL A   1      46.983  26.838  30.463  1.00  0.00     0.029 A 
ATOM     61  C   UNL A   1      45.917  27.739  30.483  1.00  0.00     0.049 A 
ATOM     62  H   UNL A   1      46.055  29.691  29.707  1.00  0.00     0.167 HD
ATOM     63  C   UNL A   1      43.528  28.414  30.701  1.00  0.00     0.074 A 
ATOM     64  C   UNL A   1      43.364  29.445  29.676  1.00  0.00     0.031 C 
ATOM     65  C   UNL A   1      44.608  27.677  31.096  1.00  0.00     0.031 A 
BRANCH  52  66
ATOM     66  C   UNL A   1      47.012  30.018  26.908  1.00  0.00    -0.014 A 
ATOM     67  C   UNL A   1      48.200  30.726  27.177  1.00  0.00     0.009 A 
ATOM     68  C   UNL A   1      45.892  30.785  26.544  1.00  0.00     0.009 A 
ATOM     69  C   UNL A   1      48.229  32.125  27.206  1.00  0.00     0.001 A 
ATOM     70  C   UNL A   1      45.929  32.184  26.531  1.00  0.00     0.001 A 
ATOM     71  C   UNL A   1      47.087  32.853  26.899  1.00  0.00     0.000 A 
ENDBRANCH  52  66
BRANCH  53  72
ATOM     72  C   UNL A   1      39.041  28.242  29.293  1.00  0.00    -0.014 A 
ATOM     73  C   UNL A   1      38.238  28.421  30.431  1.00  0.00     0.009 A 
ATOM     74  C   UNL A   1      38.646  28.884  28.105  1.00  0.00     0.009 A 
ATOM     75  C   UNL A   1      37.116  29.260  30.398  1.00  0.00     0.001 A 
ATOM     76  C   UNL A   1      37.524  29.722  28.073  1.00  0.00     0.001 A 
ATOM     77  C   UNL A   1      36.772  29.926  29.225  1.00  0.00     0.000 A 
ENDBRANCH  53  72
BRANCH  65  78
ATOM     78  C   UNL A   1      44.384  26.542  32.065  1.00  0.00    -0.014 A 
ATOM     79  C   UNL A   1      44.337  25.191  31.673  1.00  0.00     0.009 A 
ATOM     80  C   UNL A   1      44.405  26.836  33.436  1.00  0.00     0.009 A 
ATOM     81  C   UNL A   1      44.300  24.171  32.629  1.00  0.00     0.001 A 
ATOM     82  C   UNL A   1      44.389  25.816  34.389  1.00  0.00     0.001 A 
ATOM     83  C   UNL A   1      44.334  24.484  33.987  1.00  0.00     0.000 A 
ENDBRANCH  65  78
ENDBRANCH  39  40
ENDBRANCH  31  34
ENDBRANCH  29  30
ENDBRANCH  28  29
ENDBRANCH   1  28
TORSDOF 14
ENDMDL
MODEL 2
REMARK VINA RESULT:     -12.1      5.286     10.446
REMARK SMILES Cc1cnc2nc(-c3cc(F)c(F)cc3C(=O)NCCCCCCNC(=O)c3ccc(-c4c5nc(c(-c6ccccc6)c6ccc([nH]6)c(-c6ccccc6)c6nc(c(-c7ccccc7)c7ccc4[nH]7)C=C6)C=C5)cc3)[nH]c2c1
REMARK SMILES IDX 22 1 21 2 20 3 19 4 18 5 16 6 17 7 15 9 8 10 9 11 10 12
REMARK SMILES IDX 14 13 11 14 12 15 13 16 7 17 1 18 2 19 3 20 78 21 4 22 77 23
REMARK SMILES IDX 5 24 76 25 6 26 23 28 24 29 25 30 26 31 27 33 28 34 29 35
REMARK SMILES IDX 75 36 30 37 74 38 31 39 32 40 33 41 68 42 34 43 73 44 67 45
REMARK SMILES IDX 69 46 35 47 72 48 66 49 65 50 36 52 58 53 43 54 57 55 44 56
REMARK SMILES IDX 47 57 56 58 70 59 45 60 46 61 55 63 71 64 48 65 37 66 38 67
REMARK SMILES IDX 42 68 39 69 41 70 40 71 59 72 60 73 64 74 61 75 63 76 62 77
REMARK SMILES IDX 49 78 50 79 54 80 51 81 53 82 52 83
REMARK H PARENT 18 8 76 27 25 32 69 51 47 62
REMARK Flexibility Score: inf
ROOT
ATOM      1  C   UNL A   1      35.013  33.501  28.247  1.00  0.00     0.002 C 
ENDROOT
BRANCH   1   2
ATOM      2  C   UNL A   1      34.036  32.338  27.997  1.00  0.00     0.002 C 
BRANCH   2   3
ATOM      3  C   UNL A   1      34.599  30.921  27.901  1.00  0.00     0.021 C 
BRANCH   3   4
ATOM      4  C   UNL A   1      33.939  29.958  26.930  1.00  0.00     0.116 C 
BRANCH   4   5
ATOM      5  N   UNL A   1      32.750  29.288  27.359  1.00  0.00    -0.352 N 
ATOM      6  C   UNL A   1      32.259  28.054  27.008  1.00  0.00     0.252 C 
ATOM      7  O   UNL A   1      31.304  27.653  27.682  1.00  0.00    -0.269 OA
ATOM      8  H   UNL A   1      32.200  29.788  28.004  1.00  0.00     0.163 HD
BRANCH   6   9
ATOM      9  C   UNL A   1      32.674  27.214  25.820  1.00  0.00     0.053 A 
ATOM     10  C   UNL A   1      32.180  27.158  24.491  1.00  0.00     0.033 A 
ATOM     11  C   UNL A   1      32.792  26.274  23.564  1.00  0.00     0.055 A 
ATOM     12  C   UNL A   1      33.862  25.469  23.924  1.00  0.00     0.159 A 
ATOM     13  C   UNL A   1      33.777  26.376  26.141  1.00  0.00     0.057 A 
ATOM     14  F   UNL A   1      34.399  24.644  23.017  1.00  0.00    -0.204 F 
ATOM     15  C   UNL A   1      34.356  25.522  25.209  1.00  0.00     0.159 A 
ATOM     16  F   UNL A   1      35.391  24.751  25.568  1.00  0.00    -0.204 F 
BRANCH  10  17
ATOM     17  C   UNL A   1      31.076  27.931  23.923  1.00  0.00     0.141 A 
ATOM     18  C   UNL A   1      27.895  31.713  20.595  1.00  0.00     0.046 C 
ATOM     19  C   UNL A   1      28.409  30.665  21.539  1.00  0.00    -0.031 A 
ATOM     20  C   UNL A   1      27.532  29.722  22.085  1.00  0.00     0.117 A 
ATOM     21  C   UNL A   1      29.758  30.615  21.903  1.00  0.00     0.035 A 
ATOM     22  N   UNL A   1      27.869  28.702  22.905  1.00  0.00    -0.235 NA
ATOM     23  C   UNL A   1      30.105  29.574  22.760  1.00  0.00     0.085 A 
ATOM     24  C   UNL A   1      29.180  28.646  23.219  1.00  0.00     0.178 A 
ATOM     25  N   UNL A   1      31.285  29.160  23.317  1.00  0.00    -0.337 N 
ATOM     26  N   UNL A   1      29.792  27.639  23.925  1.00  0.00    -0.209 NA
ATOM     27  H   UNL A   1      32.137  29.653  23.291  1.00  0.00     0.168 HD
ENDBRANCH  10  17
ENDBRANCH   6   9
ENDBRANCH   4   5
ENDBRANCH   3   4
ENDBRANCH   2   3
ENDBRANCH   1   2
BRANCH   1  28
ATOM     28  C   UNL A   1      34.436  34.835  28.732  1.00  0.00     0.021 C 
BRANCH  28  29
ATOM     29  C   UNL A   1      33.100  34.725  29.436  1.00  0.00     0.116 C 
BRANCH  29  30
ATOM     30  N   UNL A   1      32.988  35.465  30.687  1.00  0.00    -0.352 N 
ATOM     31  C   UNL A   1      33.612  35.182  31.890  1.00  0.00     0.251 C 
ATOM     32  H   UNL A   1      32.402  36.257  30.676  1.00  0.00     0.163 HD
ATOM     33  O   UNL A   1      33.235  35.708  32.937  1.00  0.00    -0.269 OA
BRANCH  31  34
ATOM     34  C   UNL A   1      34.736  34.218  31.914  1.00  0.00     0.039 A 
ATOM     35  C   UNL A   1      34.531  32.836  31.866  1.00  0.00     0.014 A 
ATOM     36  C   UNL A   1      36.031  34.719  31.965  1.00  0.00     0.014 A 
ATOM     37  C   UNL A   1      35.639  31.989  31.799  1.00  0.00     0.010 A 
ATOM     38  C   UNL A   1      37.102  33.909  31.693  1.00  0.00     0.010 A 
ATOM     39  C   UNL A   1      36.930  32.535  31.694  1.00  0.00    -0.014 A 
BRANCH  39  40
ATOM     40  C   UNL A   1      38.115  31.696  31.533  1.00  0.00     0.031 A 
ATOM     41  C   UNL A   1      38.798  31.322  32.799  1.00  0.00     0.074 A 
ATOM     42  C   UNL A   1      38.500  31.151  30.355  1.00  0.00     0.049 A 
ATOM     43  N   UNL A   1      39.917  31.790  33.239  1.00  0.00    -0.248 NA
ATOM     44  C   UNL A   1      38.111  30.434  33.747  1.00  0.00     0.031 C 
ATOM     45  C   UNL A   1      37.827  31.183  29.048  1.00  0.00     0.029 A 
ATOM     46  N   UNL A   1      39.570  30.350  30.106  1.00  0.00    -0.354 N 
ATOM     47  C   UNL A   1      40.187  31.113  34.423  1.00  0.00     0.074 A 
ATOM     48  C   UNL A   1      38.970  30.422  34.770  1.00  0.00     0.031 C 
ATOM     49  C   UNL A   1      38.360  30.247  28.232  1.00  0.00     0.029 A 
ATOM     50  C   UNL A   1      39.539  29.704  28.875  1.00  0.00     0.049 A 
ATOM     51  H   UNL A   1      40.310  30.238  30.746  1.00  0.00     0.167 HD
ATOM     52  C   UNL A   1      41.465  30.989  34.879  1.00  0.00     0.031 A 
ATOM     53  C   UNL A   1      40.435  28.802  28.408  1.00  0.00     0.031 A 
ATOM     54  C   UNL A   1      42.360  31.875  34.174  1.00  0.00     0.049 A 
ATOM     55  C   UNL A   1      41.695  29.029  29.150  1.00  0.00     0.074 A 
ATOM     56  C   UNL A   1      42.460  33.242  34.009  1.00  0.00     0.029 A 
ATOM     57  N   UNL A   1      43.110  31.318  33.165  1.00  0.00    -0.354 N 
ATOM     58  N   UNL A   1      42.403  30.114  29.028  1.00  0.00    -0.248 NA
ATOM     59  C   UNL A   1      41.924  28.259  30.359  1.00  0.00     0.031 C 
ATOM     60  C   UNL A   1      42.845  33.416  32.646  1.00  0.00     0.029 A 
ATOM     61  C   UNL A   1      43.033  32.152  32.083  1.00  0.00     0.049 A 
ATOM     62  H   UNL A   1      43.611  30.472  33.212  1.00  0.00     0.167 HD
ATOM     63  C   UNL A   1      42.816  30.405  30.319  1.00  0.00     0.074 A 
ATOM     64  C   UNL A   1      42.581  29.175  31.076  1.00  0.00     0.031 C 
ATOM     65  C   UNL A   1      43.039  31.694  30.711  1.00  0.00     0.031 A 
BRANCH  52  66
ATOM     66  C   UNL A   1      41.995  29.779  35.614  1.00  0.00    -0.014 A 
ATOM     67  C   UNL A   1      43.052  29.971  36.527  1.00  0.00     0.009 A 
ATOM     68  C   UNL A   1      41.726  28.454  35.233  1.00  0.00     0.009 A 
ATOM     69  C   UNL A   1      43.870  28.911  36.932  1.00  0.00     0.001 A 
ATOM     70  C   UNL A   1      42.516  27.385  35.671  1.00  0.00     0.001 A 
ATOM     71  C   UNL A   1      43.611  27.620  36.490  1.00  0.00     0.000 A 
ENDBRANCH  52  66
BRANCH  53  72
ATOM     72  C   UNL A   1      40.214  27.593  27.588  1.00  0.00    -0.014 A 
ATOM     73  C   UNL A   1      41.018  27.337  26.466  1.00  0.00     0.009 A 
ATOM     74  C   UNL A   1      39.431  26.536  28.088  1.00  0.00     0.009 A 
ATOM     75  C   UNL A   1      41.084  26.056  25.902  1.00  0.00     0.001 A 
ATOM     76  C   UNL A   1      39.498  25.255  27.524  1.00  0.00     0.001 A 
ATOM     77  C   UNL A   1      40.340  25.011  26.444  1.00  0.00     0.000 A 
ENDBRANCH  53  72
BRANCH  65  78
ATOM     78  C   UNL A   1      43.047  32.771  29.654  1.00  0.00    -0.014 A 
ATOM     79  C   UNL A   1      42.058  33.768  29.560  1.00  0.00     0.009 A 
ATOM     80  C   UNL A   1      44.188  32.889  28.846  1.00  0.00     0.009 A 
ATOM     81  C   UNL A   1      42.205  34.840  28.673  1.00  0.00     0.001 A 
ATOM     82  C   UNL A   1      44.343  33.970  27.977  1.00  0.00     0.001 A 
ATOM     83  C   UNL A   1      43.352  34.944  27.888  1.00  0.00     0.000 A 
ENDBRANCH  65  78
ENDBRANCH  39  40
ENDBRANCH  31  34
ENDBRANCH  29  30
ENDBRANCH  28  29
ENDBRANCH   1  28
TORSDOF 14
ENDMDL
MODEL 3
REMARK VINA RESULT:     -11.9      4.909     10.384
REMARK SMILES Cc1cnc2nc(-c3cc(F)c(F)cc3C(=O)NCCCCCCNC(=O)c3ccc(-c4c5nc(c(-c6ccccc6)c6ccc([nH]6)c(-c6ccccc6)c6nc(c(-c7ccccc7)c7ccc4[nH]7)C=C6)C=C5)cc3)[nH]c2c1
REMARK SMILES IDX 22 1 21 2 20 3 19 4 18 5 16 6 17 7 15 9 8 10 9 11 10 12
REMARK SMILES IDX 14 13 11 14 12 15 13 16 7 17 1 18 2 19 3 20 78 21 4 22 77 23
REMARK SMILES IDX 5 24 76 25 6 26 23 28 24 29 25 30 26 31 27 33 28 34 29 35
REMARK SMILES IDX 75 36 30 37 74 38 31 39 32 40 33 41 68 42 34 43 73 44 67 45
REMARK SMILES IDX 69 46 35 47 72 48 66 49 65 50 36 52 58 53 43 54 57 55 44 56
REMARK SMILES IDX 47 57 56 58 70 59 45 60 46 61 55 63 71 64 48 65 37 66 38 67
REMARK SMILES IDX 42 68 39 69 41 70 40 71 59 72 60 73 64 74 61 75 63 76 62 77
REMARK SMILES IDX 49 78 50 79 54 80 51 81 53 82 52 83
REMARK H PARENT 18 8 76 27 25 32 69 51 47 62
REMARK Flexibility Score: inf
ROOT
ATOM      1  C   UNL A   1      39.291  33.009  35.064  1.00  0.00     0.002 C 
ENDROOT
BRANCH   1   2
ATOM      2  C   UNL A   1      37.884  32.682  35.594  1.00  0.00     0.002 C 
BRANCH   2   3
ATOM      3  C   UNL A   1      36.842  33.798  35.638  1.00  0.00     0.021 C 
BRANCH   3   4
ATOM      4  C   UNL A   1      36.112  34.142  34.352  1.00  0.00     0.116 C 
BRANCH   4   5
ATOM      5  N   UNL A   1      34.710  33.867  34.286  1.00  0.00    -0.352 N 
ATOM      6  C   UNL A   1      33.921  33.565  33.203  1.00  0.00     0.252 C 
ATOM      7  O   UNL A   1      32.775  33.189  33.471  1.00  0.00    -0.269 OA
ATOM      8  H   UNL A   1      34.238  33.898  35.150  1.00  0.00     0.163 HD
BRANCH   6   9
ATOM      9  C   UNL A   1      34.262  33.772  31.744  1.00  0.00     0.053 A 
ATOM     10  C   UNL A   1      35.035  32.996  30.840  1.00  0.00     0.033 A 
ATOM     11  C   UNL A   1      35.166  33.430  29.496  1.00  0.00     0.055 A 
ATOM     12  C   UNL A   1      34.554  34.589  29.043  1.00  0.00     0.159 A 
ATOM     13  C   UNL A   1      33.647  34.947  31.232  1.00  0.00     0.057 A 
ATOM     14  F   UNL A   1      34.715  34.963  27.767  1.00  0.00    -0.204 F 
ATOM     15  C   UNL A   1      33.792  35.344  29.908  1.00  0.00     0.159 A 
ATOM     16  F   UNL A   1      33.195  36.465  29.480  1.00  0.00    -0.204 F 
BRANCH  10  17
ATOM     17  C   UNL A   1      35.743  31.749  31.126  1.00  0.00     0.141 A 
ATOM     18  C   UNL A   1      38.992  26.788  30.551  1.00  0.00     0.046 C 
ATOM     19  C   UNL A   1      38.191  27.971  31.009  1.00  0.00    -0.031 A 
ATOM     20  C   UNL A   1      38.183  28.332  32.360  1.00  0.00     0.117 A 
ATOM     21  C   UNL A   1      37.431  28.725  30.109  1.00  0.00     0.035 A 
ATOM     22  N   UNL A   1      37.546  29.398  32.897  1.00  0.00    -0.235 NA
ATOM     23  C   UNL A   1      36.761  29.814  30.663  1.00  0.00     0.085 A 
ATOM     24  C   UNL A   1      36.846  30.136  32.010  1.00  0.00     0.178 A 
ATOM     25  N   UNL A   1      35.960  30.795  30.144  1.00  0.00    -0.337 N 
ATOM     26  N   UNL A   1      36.222  31.330  32.279  1.00  0.00    -0.209 NA
ATOM     27  H   UNL A   1      35.598  30.817  29.228  1.00  0.00     0.168 HD
ENDBRANCH  10  17
ENDBRANCH   6   9
ENDBRANCH   4   5
ENDBRANCH   3   4
ENDBRANCH   2   3
ENDBRANCH   1   2
BRANCH   1  28
ATOM     28  C   UNL A   1      39.540  32.888  33.557  1.00  0.00     0.021 C 
BRANCH  28  29
ATOM     29  C   UNL A   1      40.781  33.604  33.065  1.00  0.00     0.116 C 
BRANCH  29  30
ATOM     30  N   UNL A   1      40.604  34.411  31.863  1.00  0.00    -0.352 N 
ATOM     31  C   UNL A   1      40.984  34.089  30.571  1.00  0.00     0.251 C 
ATOM     32  H   UNL A   1      40.162  35.283  31.983  1.00  0.00     0.163 HD
ATOM     33  O   UNL A   1      41.031  34.950  29.693  1.00  0.00    -0.269 OA
BRANCH  31  34
ATOM     34  C   UNL A   1      41.357  32.691  30.253  1.00  0.00     0.039 A 
ATOM     35  C   UNL A   1      42.683  32.310  30.026  1.00  0.00     0.014 A 
ATOM     36  C   UNL A   1      40.349  31.737  30.201  1.00  0.00     0.014 A 
ATOM     37  C   UNL A   1      42.972  30.958  29.821  1.00  0.00     0.010 A 
ATOM     38  C   UNL A   1      40.654  30.401  30.207  1.00  0.00     0.010 A 
ATOM     39  C   UNL A   1      41.950  30.000  29.931  1.00  0.00    -0.014 A 
BRANCH  39  40
ATOM     40  C   UNL A   1      42.214  28.568  29.814  1.00  0.00     0.031 A 
ATOM     41  C   UNL A   1      42.892  27.957  30.986  1.00  0.00     0.074 A 
ATOM     42  C   UNL A   1      41.753  27.796  28.804  1.00  0.00     0.049 A 
ATOM     43  N   UNL A   1      44.123  27.577  31.054  1.00  0.00    -0.248 NA
ATOM     44  C   UNL A   1      42.173  27.874  32.266  1.00  0.00     0.031 C 
ATOM     45  C   UNL A   1      40.856  28.149  27.693  1.00  0.00     0.029 A 
ATOM     46  N   UNL A   1      41.931  26.461  28.613  1.00  0.00    -0.354 N 
ATOM     47  C   UNL A   1      44.292  27.019  32.316  1.00  0.00     0.074 A 
ATOM     48  C   UNL A   1      43.118  27.381  33.071  1.00  0.00     0.031 C 
ATOM     49  C   UNL A   1      40.379  27.026  27.110  1.00  0.00     0.029 A 
ATOM     50  C   UNL A   1      41.094  25.892  27.660  1.00  0.00     0.049 A 
ATOM     51  H   UNL A   1      42.600  25.938  29.112  1.00  0.00     0.167 HD
ATOM     52  C   UNL A   1      45.275  26.102  32.547  1.00  0.00     0.031 A 
ATOM     53  C   UNL A   1      41.012  24.581  27.328  1.00  0.00     0.031 A 
ATOM     54  C   UNL A   1      46.222  26.065  31.459  1.00  0.00     0.049 A 
ATOM     55  C   UNL A   1      42.295  23.960  27.725  1.00  0.00     0.074 A 
ATOM     56  C   UNL A   1      47.085  26.972  30.877  1.00  0.00     0.029 A 
ATOM     57  N   UNL A   1      46.068  25.051  30.543  1.00  0.00    -0.354 N 
ATOM     58  N   UNL A   1      43.429  24.252  27.157  1.00  0.00    -0.248 NA
ATOM     59  C   UNL A   1      42.386  23.365  29.046  1.00  0.00     0.031 C 
ATOM     60  C   UNL A   1      47.007  26.701  29.478  1.00  0.00     0.029 A 
ATOM     61  C   UNL A   1      46.167  25.601  29.294  1.00  0.00     0.049 A 
ATOM     62  H   UNL A   1      45.913  24.100  30.748  1.00  0.00     0.167 HD
ATOM     63  C   UNL A   1      44.336  24.309  28.204  1.00  0.00     0.074 A 
ATOM     64  C   UNL A   1      43.661  23.652  29.324  1.00  0.00     0.031 C 
ATOM     65  C   UNL A   1      45.426  25.130  28.145  1.00  0.00     0.031 A 
BRANCH  52  66
ATOM     66  C   UNL A   1      45.147  24.936  33.501  1.00  0.00    -0.014 A 
ATOM     67  C   UNL A   1      44.263  23.893  33.155  1.00  0.00     0.009 A 
ATOM     68  C   UNL A   1      45.600  24.960  34.830  1.00  0.00     0.009 A 
ATOM     69  C   UNL A   1      43.765  23.007  34.115  1.00  0.00     0.001 A 
ATOM     70  C   UNL A   1      45.137  24.048  35.785  1.00  0.00     0.001 A 
ATOM     71  C   UNL A   1      44.190  23.096  35.434  1.00  0.00     0.000 A 
ENDBRANCH  52  66
BRANCH  53  72
ATOM     72  C   UNL A   1      39.829  23.775  26.962  1.00  0.00    -0.014 A 
ATOM     73  C   UNL A   1      38.602  24.399  26.682  1.00  0.00     0.009 A 
ATOM     74  C   UNL A   1      39.983  22.431  26.577  1.00  0.00     0.009 A 
ATOM     75  C   UNL A   1      37.590  23.723  25.988  1.00  0.00     0.001 A 
ATOM     76  C   UNL A   1      38.971  21.755  25.884  1.00  0.00     0.001 A 
ATOM     77  C   UNL A   1      37.783  22.408  25.571  1.00  0.00     0.000 A 
ENDBRANCH  53  72
BRANCH  65  78
ATOM     78  C   UNL A   1      45.744  25.801  26.831  1.00  0.00    -0.014 A 
ATOM     79  C   UNL A   1      45.076  26.951  26.370  1.00  0.00     0.009 A 
ATOM     80  C   UNL A   1      46.877  25.365  26.130  1.00  0.00     0.009 A 
ATOM     81  C   UNL A   1      45.525  27.631  25.233  1.00  0.00     0.001 A 
ATOM     82  C   UNL A   1      47.337  26.057  25.007  1.00  0.00     0.001 A 
ATOM     83  C   UNL A   1      46.661  27.188  24.557  1.00  0.00     0.000 A 
ENDBRANCH  65  78
ENDBRANCH  39  40
ENDBRANCH  31  34
ENDBRANCH  29  30
ENDBRANCH  28  29
ENDBRANCH   1  28
TORSDOF 14
ENDMDL
