MODEL 1
REMARK VINA RESULT:     -11.5      0.000      0.000
REMARK SMILES CS(=O)(=O)c1ccc(-c2cc(Cl)cc3c2O[C@H](C(F)(F)F)C(C(=O)NCCCCCCNC(=O)c2ccc(-c4c5nc(c(-c6ccccc6)c6ccc([nH]6)c(-c6ccccc6)c6nc(c(-c7ccccc7)c7ccc4[nH]7)C=C6)C=C5)cc2)=C3)cc1
REMARK SMILES IDX 28 1 27 2 26 3 25 4 23 5 24 6 22 8 9 9 10 10 15 11 11 12
REMARK SMILES IDX 14 13 16 14 12 15 13 16 83 17 17 18 8 19 5 20 6 21 85 22
REMARK SMILES IDX 7 23 84 24 2 25 1 26 3 27 4 28 18 29 19 30 20 31 21 32 29 33
REMARK SMILES IDX 30 34 31 35 32 36 33 37 34 39 35 40 36 41 82 42 37 43 81 44
REMARK SMILES IDX 38 45 39 46 40 47 75 48 41 49 80 50 74 51 76 52 42 53 79 54
REMARK SMILES IDX 73 55 72 56 43 58 65 59 50 60 64 61 51 62 54 63 63 64 77 65
REMARK SMILES IDX 52 66 53 67 62 69 78 70 55 71 44 72 45 73 49 74 46 75 48 76
REMARK SMILES IDX 47 77 66 78 67 79 71 80 68 81 70 82 69 83 56 84 57 85 61 86
REMARK SMILES IDX 58 87 60 88 59 89
REMARK H PARENT 25 7 32 38 76 57 54 68
REMARK Flexibility Score: inf
ROOT
ATOM      1  C   UNL A   1      35.697  20.176  24.836  1.00  0.00     0.002 C 
ENDROOT
BRANCH   1   2
ATOM      2  C   UNL A   1      35.887  21.632  25.297  1.00  0.00     0.021 C 
BRANCH   2   3
ATOM      3  C   UNL A   1      35.085  22.022  26.547  1.00  0.00     0.116 C 
BRANCH   3   4
ATOM      4  N   UNL A   1      34.764  23.434  26.504  1.00  0.00    -0.352 N 
ATOM      5  C   UNL A   1      34.305  24.099  25.414  1.00  0.00     0.251 C 
ATOM      6  O   UNL A   1      34.840  25.144  25.063  1.00  0.00    -0.270 OA
ATOM      7  H   UNL A   1      34.888  23.952  27.331  1.00  0.00     0.163 HD
BRANCH   5   8
ATOM      8  C   UNL A   1      33.045  23.583  24.806  1.00  0.00     0.067 C 
ATOM      9  C   UNL A   1      31.091  27.123  24.378  1.00  0.00     0.026 A 
ATOM     10  C   UNL A   1      31.233  27.816  25.611  1.00  0.00     0.033 A 
ATOM     11  C   UNL A   1      31.431  25.755  24.394  1.00  0.00     0.135 A 
ATOM     12  C   UNL A   1      31.536  27.174  26.809  1.00  0.00     0.042 A 
ATOM     13  C   UNL A   1      31.615  25.104  25.643  1.00  0.00     0.019 A 
ATOM     14  O   UNL A   1      31.660  25.007  23.243  1.00  0.00    -0.475 OA
ATOM     15  Cl  UNL A   1      31.739  28.095  28.245  1.00  0.00    -0.084 Cl
ATOM     16  C   UNL A   1      31.656  25.800  26.846  1.00  0.00     0.032 A 
ATOM     17  C   UNL A   1      31.986  23.673  25.633  1.00  0.00     0.025 C 
ATOM     18  C   UNL A   1      32.786  24.027  23.375  1.00  0.00     0.314 C 
BRANCH   9  19
ATOM     19  C   UNL A   1      30.417  27.911  23.305  1.00  0.00    -0.015 A 
ATOM     20  C   UNL A   1      29.067  30.102  22.096  1.00  0.00     0.067 A 
ATOM     21  C   UNL A   1      30.455  30.030  22.034  1.00  0.00     0.021 A 
ATOM     22  C   UNL A   1      28.345  29.049  22.670  1.00  0.00     0.021 A 
ATOM     23  C   UNL A   1      31.116  28.931  22.614  1.00  0.00     0.010 A 
ATOM     24  C   UNL A   1      29.015  27.959  23.256  1.00  0.00     0.010 A 
BRANCH  20  25
ATOM     25  S   UNL A   1      28.160  31.532  21.530  1.00  0.00     0.175 S 
ATOM     26  C   UNL A   1      27.748  31.299  19.821  1.00  0.00     0.163 C 
ATOM     27  O   UNL A   1      29.079  32.653  21.578  1.00  0.00    -0.224 OA
ATOM     28  O   UNL A   1      26.919  31.549  22.284  1.00  0.00    -0.224 OA
ENDBRANCH  20  25
ENDBRANCH   9  19
BRANCH  18  29
ATOM     29  C   UNL A   1      32.568  22.751  22.528  1.00  0.00     0.429 C 
ATOM     30  F   UNL A   1      31.262  22.454  22.352  1.00  0.00    -0.167 F 
ATOM     31  F   UNL A   1      33.136  22.870  21.304  1.00  0.00    -0.167 F 
ATOM     32  F   UNL A   1      33.138  21.652  23.096  1.00  0.00    -0.167 F 
ENDBRANCH  18  29
ENDBRANCH   5   8
ENDBRANCH   3   4
ENDBRANCH   2   3
ENDBRANCH   1   2
BRANCH   1  33
ATOM     33  C   UNL A   1      36.926  19.282  25.008  1.00  0.00     0.002 C 
BRANCH  33  34
ATOM     34  C   UNL A   1      38.253  19.957  24.666  1.00  0.00     0.021 C 
BRANCH  34  35
ATOM     35  C   UNL A   1      39.194  20.139  25.852  1.00  0.00     0.116 C 
BRANCH  35  36
ATOM     36  N   UNL A   1      40.185  19.077  25.944  1.00  0.00    -0.352 N 
ATOM     37  C   UNL A   1      41.536  19.173  26.165  1.00  0.00     0.251 C 
ATOM     38  H   UNL A   1      39.838  18.163  25.830  1.00  0.00     0.163 HD
ATOM     39  O   UNL A   1      42.256  18.188  26.045  1.00  0.00    -0.269 OA
BRANCH  37  40
ATOM     40  C   UNL A   1      42.123  20.480  26.524  1.00  0.00     0.039 A 
ATOM     41  C   UNL A   1      42.594  21.308  25.503  1.00  0.00     0.014 A 
ATOM     42  C   UNL A   1      42.197  20.891  27.858  1.00  0.00     0.014 A 
ATOM     43  C   UNL A   1      43.084  22.576  25.817  1.00  0.00     0.010 A 
ATOM     44  C   UNL A   1      42.610  22.184  28.160  1.00  0.00     0.010 A 
ATOM     45  C   UNL A   1      43.062  23.038  27.144  1.00  0.00    -0.014 A 
BRANCH  45  46
ATOM     46  C   UNL A   1      43.496  24.417  27.476  1.00  0.00     0.031 A 
ATOM     47  C   UNL A   1      42.487  25.463  27.860  1.00  0.00     0.074 A 
ATOM     48  C   UNL A   1      44.797  24.747  27.368  1.00  0.00     0.049 A 
ATOM     49  N   UNL A   1      42.678  26.722  28.163  1.00  0.00    -0.248 NA
ATOM     50  C   UNL A   1      41.076  25.048  27.880  1.00  0.00     0.031 C 
ATOM     51  C   UNL A   1      45.867  23.840  26.945  1.00  0.00     0.029 A 
ATOM     52  N   UNL A   1      45.440  25.936  27.597  1.00  0.00    -0.354 N 
ATOM     53  C   UNL A   1      41.414  27.252  28.389  1.00  0.00     0.074 A 
ATOM     54  C   UNL A   1      40.462  26.193  28.136  1.00  0.00     0.031 C 
ATOM     55  C   UNL A   1      47.036  24.498  26.970  1.00  0.00     0.029 A 
ATOM     56  C   UNL A   1      46.794  25.881  27.368  1.00  0.00     0.049 A 
ATOM     57  H   UNL A   1      44.977  26.751  27.895  1.00  0.00     0.167 HD
ATOM     58  C   UNL A   1      41.077  28.503  28.786  1.00  0.00     0.031 A 
ATOM     59  C   UNL A   1      47.737  26.838  27.460  1.00  0.00     0.031 A 
ATOM     60  C   UNL A   1      42.027  29.554  29.035  1.00  0.00     0.049 A 
ATOM     61  C   UNL A   1      47.343  28.216  27.905  1.00  0.00     0.074 A 
ATOM     62  C   UNL A   1      41.795  30.831  29.515  1.00  0.00     0.029 A 
ATOM     63  N   UNL A   1      43.392  29.456  28.807  1.00  0.00    -0.354 N 
ATOM     64  N   UNL A   1      46.153  28.676  28.212  1.00  0.00    -0.248 NA
ATOM     65  C   UNL A   1      48.422  29.204  28.030  1.00  0.00     0.031 C 
ATOM     66  C   UNL A   1      43.008  31.527  29.509  1.00  0.00     0.029 A 
ATOM     67  C   UNL A   1      44.008  30.662  29.096  1.00  0.00     0.049 A 
ATOM     68  H   UNL A   1      43.854  28.647  28.487  1.00  0.00     0.167 HD
ATOM     69  C   UNL A   1      46.343  30.001  28.584  1.00  0.00     0.074 A 
ATOM     70  C   UNL A   1      47.765  30.262  28.486  1.00  0.00     0.031 C 
ATOM     71  C   UNL A   1      45.422  30.917  28.973  1.00  0.00     0.031 A 
BRANCH  58  72
ATOM     72  C   UNL A   1      39.609  28.803  28.945  1.00  0.00    -0.014 A 
ATOM     73  C   UNL A   1      38.833  29.274  27.873  1.00  0.00     0.009 A 
ATOM     74  C   UNL A   1      38.992  28.603  30.189  1.00  0.00     0.009 A 
ATOM     75  C   UNL A   1      37.485  29.589  28.058  1.00  0.00     0.001 A 
ATOM     76  C   UNL A   1      37.636  28.884  30.363  1.00  0.00     0.001 A 
ATOM     77  C   UNL A   1      36.887  29.391  29.302  1.00  0.00     0.000 A 
ENDBRANCH  58  72
BRANCH  59  78
ATOM     78  C   UNL A   1      49.148  26.509  27.126  1.00  0.00    -0.014 A 
ATOM     79  C   UNL A   1      50.010  25.978  28.095  1.00  0.00     0.009 A 
ATOM     80  C   UNL A   1      49.627  26.698  25.819  1.00  0.00     0.009 A 
ATOM     81  C   UNL A   1      51.330  25.658  27.767  1.00  0.00     0.001 A 
ATOM     82  C   UNL A   1      50.938  26.348  25.488  1.00  0.00     0.001 A 
ATOM     83  C   UNL A   1      51.790  25.834  26.463  1.00  0.00     0.000 A 
ENDBRANCH  59  78
BRANCH  71  84
ATOM     84  C   UNL A   1      45.927  32.286  29.338  1.00  0.00    -0.014 A 
ATOM     85  C   UNL A   1      45.999  33.317  28.386  1.00  0.00     0.009 A 
ATOM     86  C   UNL A   1      46.306  32.559  30.662  1.00  0.00     0.009 A 
ATOM     87  C   UNL A   1      46.474  34.579  28.747  1.00  0.00     0.001 A 
ATOM     88  C   UNL A   1      46.748  33.831  31.027  1.00  0.00     0.001 A 
ATOM     89  C   UNL A   1      46.843  34.836  30.067  1.00  0.00     0.000 A 
ENDBRANCH  71  84
ENDBRANCH  45  46
ENDBRANCH  37  40
ENDBRANCH  35  36
ENDBRANCH  34  35
ENDBRANCH  33  34
ENDBRANCH   1  33
TORSDOF 16
ENDMDL
MODEL 2
REMARK VINA RESULT:     -11.4      5.823      9.608
REMARK SMILES CS(=O)(=O)c1ccc(-c2cc(Cl)cc3c2O[C@H](C(F)(F)F)C(C(=O)NCCCCCCNC(=O)c2ccc(-c4c5nc(c(-c6ccccc6)c6ccc([nH]6)c(-c6ccccc6)c6nc(c(-c7ccccc7)c7ccc4[nH]7)C=C6)C=C5)cc2)=C3)cc1
REMARK SMILES IDX 28 1 27 2 26 3 25 4 23 5 24 6 22 8 9 9 10 10 15 11 11 12
REMARK SMILES IDX 14 13 16 14 12 15 13 16 83 17 17 18 8 19 5 20 6 21 85 22
REMARK SMILES IDX 7 23 84 24 2 25 1 26 3 27 4 28 18 29 19 30 20 31 21 32 29 33
REMARK SMILES IDX 30 34 31 35 32 36 33 37 34 39 35 40 36 41 82 42 37 43 81 44
REMARK SMILES IDX 38 45 39 46 40 47 75 48 41 49 80 50 74 51 76 52 42 53 79 54
REMARK SMILES IDX 73 55 72 56 43 58 65 59 50 60 64 61 51 62 54 63 63 64 77 65
REMARK SMILES IDX 52 66 53 67 62 69 78 70 55 71 44 72 45 73 49 74 46 75 48 76
REMARK SMILES IDX 47 77 66 78 67 79 71 80 68 81 70 82 69 83 56 84 57 85 61 86
REMARK SMILES IDX 58 87 60 88 59 89
REMARK H PARENT 25 7 32 38 76 57 54 68
REMARK Flexibility Score: inf
ROOT
ATOM      1  C   UNL A   1      41.153  27.346  27.441  1.00  0.00     0.002 C 
ENDROOT
BRANCH   1   2
ATOM      2  C   UNL A   1      41.536  28.423  28.472  1.00  0.00     0.021 C 
BRANCH   2   3
ATOM      3  C   UNL A   1      41.441  27.973  29.937  1.00  0.00     0.116 C 
BRANCH   3   4
ATOM      4  N   UNL A   1      40.932  29.058  30.751  1.00  0.00    -0.352 N 
ATOM      5  C   UNL A   1      39.999  29.961  30.358  1.00  0.00     0.251 C 
ATOM      6  O   UNL A   1      40.204  31.159  30.507  1.00  0.00    -0.270 OA
ATOM      7  H   UNL A   1      41.291  29.147  31.663  1.00  0.00     0.163 HD
BRANCH   5   8
ATOM      8  C   UNL A   1      38.688  29.407  29.911  1.00  0.00     0.067 C 
ATOM      9  C   UNL A   1      36.246  31.769  32.144  1.00  0.00     0.026 A 
ATOM     10  C   UNL A   1      36.778  31.771  33.462  1.00  0.00     0.033 A 
ATOM     11  C   UNL A   1      36.754  30.785  31.272  1.00  0.00     0.135 A 
ATOM     12  C   UNL A   1      37.632  30.777  33.935  1.00  0.00     0.042 A 
ATOM     13  C   UNL A   1      37.523  29.718  31.809  1.00  0.00     0.019 A 
ATOM     14  O   UNL A   1      36.599  30.828  29.890  1.00  0.00    -0.475 OA
ATOM     15  Cl  UNL A   1      38.269  30.883  35.527  1.00  0.00    -0.084 Cl
ATOM     16  C   UNL A   1      37.951  29.701  33.133  1.00  0.00     0.032 A 
ATOM     17  C   UNL A   1      38.058  28.706  30.874  1.00  0.00     0.025 C 
ATOM     18  C   UNL A   1      37.808  30.371  29.133  1.00  0.00     0.314 C 
BRANCH   9  19
ATOM     19  C   UNL A   1      35.088  32.689  31.948  1.00  0.00    -0.015 A 
ATOM     20  C   UNL A   1      33.658  35.146  31.860  1.00  0.00     0.067 A 
ATOM     21  C   UNL A   1      34.271  34.664  30.707  1.00  0.00     0.021 A 
ATOM     22  C   UNL A   1      33.672  34.371  33.026  1.00  0.00     0.021 A 
ATOM     23  C   UNL A   1      34.957  33.436  30.751  1.00  0.00     0.010 A 
ATOM     24  C   UNL A   1      34.370  33.149  33.064  1.00  0.00     0.010 A 
BRANCH  20  25
ATOM     25  S   UNL A   1      32.905  36.763  31.935  1.00  0.00     0.175 S 
ATOM     26  C   UNL A   1      34.091  37.909  32.584  1.00  0.00     0.163 C 
ATOM     27  O   UNL A   1      31.838  36.681  32.913  1.00  0.00    -0.224 OA
ATOM     28  O   UNL A   1      32.630  37.145  30.560  1.00  0.00    -0.224 OA
ENDBRANCH  20  25
ENDBRANCH   9  19
BRANCH  18  29
ATOM     29  C   UNL A   1      37.448  29.688  27.792  1.00  0.00     0.429 C 
ATOM     30  F   UNL A   1      37.022  28.415  27.949  1.00  0.00    -0.167 F 
ATOM     31  F   UNL A   1      36.482  30.372  27.135  1.00  0.00    -0.167 F 
ATOM     32  F   UNL A   1      38.510  29.634  26.939  1.00  0.00    -0.167 F 
ENDBRANCH  18  29
ENDBRANCH   5   8
ENDBRANCH   3   4
ENDBRANCH   2   3
ENDBRANCH   1   2
BRANCH   1  33
ATOM     33  C   UNL A   1      39.874  26.572  27.765  1.00  0.00     0.002 C 
BRANCH  33  34
ATOM     34  C   UNL A   1      40.053  25.056  27.834  1.00  0.00     0.021 C 
BRANCH  34  35
ATOM     35  C   UNL A   1      41.318  24.601  28.552  1.00  0.00     0.116 C 
BRANCH  35  36
ATOM     36  N   UNL A   1      41.996  23.520  27.853  1.00  0.00    -0.352 N 
ATOM     37  C   UNL A   1      43.091  23.577  27.028  1.00  0.00     0.251 C 
ATOM     38  H   UNL A   1      41.616  22.623  27.990  1.00  0.00     0.163 HD
ATOM     39  O   UNL A   1      43.435  22.593  26.382  1.00  0.00    -0.269 OA
BRANCH  37  40
ATOM     40  C   UNL A   1      43.840  24.844  26.900  1.00  0.00     0.039 A 
ATOM     41  C   UNL A   1      44.508  25.346  28.019  1.00  0.00     0.014 A 
ATOM     42  C   UNL A   1      43.894  25.526  25.681  1.00  0.00     0.014 A 
ATOM     43  C   UNL A   1      45.281  26.501  27.898  1.00  0.00     0.010 A 
ATOM     44  C   UNL A   1      44.729  26.630  25.542  1.00  0.00     0.010 A 
ATOM     45  C   UNL A   1      45.426  27.132  26.650  1.00  0.00    -0.014 A 
BRANCH  45  46
ATOM     46  C   UNL A   1      46.318  28.307  26.492  1.00  0.00     0.031 A 
ATOM     47  C   UNL A   1      47.795  28.122  26.289  1.00  0.00     0.074 A 
ATOM     48  C   UNL A   1      45.804  29.547  26.597  1.00  0.00     0.049 A 
ATOM     49  N   UNL A   1      48.729  29.029  26.152  1.00  0.00    -0.248 NA
ATOM     50  C   UNL A   1      48.294  26.738  26.265  1.00  0.00     0.031 C 
ATOM     51  C   UNL A   1      44.396  29.861  26.854  1.00  0.00     0.029 A 
ATOM     52  N   UNL A   1      46.407  30.775  26.507  1.00  0.00    -0.354 N 
ATOM     53  C   UNL A   1      49.924  28.327  26.046  1.00  0.00     0.074 A 
ATOM     54  C   UNL A   1      49.603  26.924  26.188  1.00  0.00     0.031 C 
ATOM     55  C   UNL A   1      44.240  31.193  26.876  1.00  0.00     0.029 A 
ATOM     56  C   UNL A   1      45.540  31.827  26.676  1.00  0.00     0.049 A 
ATOM     57  H   UNL A   1      47.370  30.892  26.338  1.00  0.00     0.167 HD
ATOM     58  C   UNL A   1      51.173  28.807  25.834  1.00  0.00     0.031 A 
ATOM     59  C   UNL A   1      45.763  33.154  26.680  1.00  0.00     0.031 A 
ATOM     60  C   UNL A   1      51.489  30.204  25.695  1.00  0.00     0.049 A 
ATOM     61  C   UNL A   1      47.155  33.665  26.441  1.00  0.00     0.074 A 
ATOM     62  C   UNL A   1      52.709  30.787  25.400  1.00  0.00     0.029 A 
ATOM     63  N   UNL A   1      50.580  31.239  25.858  1.00  0.00    -0.354 N 
ATOM     64  N   UNL A   1      48.260  32.987  26.241  1.00  0.00    -0.248 NA
ATOM     65  C   UNL A   1      47.328  35.123  26.410  1.00  0.00     0.031 C 
ATOM     66  C   UNL A   1      52.553  32.177  25.456  1.00  0.00     0.029 A 
ATOM     67  C   UNL A   1      51.221  32.459  25.712  1.00  0.00     0.049 A 
ATOM     68  H   UNL A   1      49.621  31.124  26.048  1.00  0.00     0.167 HD
ATOM     69  C   UNL A   1      49.256  33.935  26.045  1.00  0.00     0.074 A 
ATOM     70  C   UNL A   1      48.618  35.234  26.125  1.00  0.00     0.031 C 
ATOM     71  C   UNL A   1      50.579  33.746  25.816  1.00  0.00     0.031 A 
BRANCH  58  72
ATOM     72  C   UNL A   1      52.295  27.803  25.770  1.00  0.00    -0.014 A 
ATOM     73  C   UNL A   1      52.660  27.182  24.564  1.00  0.00     0.009 A 
ATOM     74  C   UNL A   1      53.003  27.480  26.938  1.00  0.00     0.009 A 
ATOM     75  C   UNL A   1      53.673  26.221  24.540  1.00  0.00     0.001 A 
ATOM     76  C   UNL A   1      54.040  26.545  26.904  1.00  0.00     0.001 A 
ATOM     77  C   UNL A   1      54.364  25.906  25.709  1.00  0.00     0.000 A 
ENDBRANCH  58  72
BRANCH  59  78
ATOM     78  C   UNL A   1      44.630  34.087  26.916  1.00  0.00    -0.014 A 
ATOM     79  C   UNL A   1      44.347  34.563  28.203  1.00  0.00     0.009 A 
ATOM     80  C   UNL A   1      43.844  34.530  25.839  1.00  0.00     0.009 A 
ATOM     81  C   UNL A   1      43.289  35.452  28.412  1.00  0.00     0.001 A 
ATOM     82  C   UNL A   1      42.807  35.442  26.047  1.00  0.00     0.001 A 
ATOM     83  C   UNL A   1      42.527  35.897  27.333  1.00  0.00     0.000 A 
ENDBRANCH  59  78
BRANCH  71  84
ATOM     84  C   UNL A   1      51.425  34.974  25.622  1.00  0.00    -0.014 A 
ATOM     85  C   UNL A   1      51.597  35.550  24.353  1.00  0.00     0.009 A 
ATOM     86  C   UNL A   1      52.031  35.585  26.731  1.00  0.00     0.009 A 
ATOM     87  C   UNL A   1      52.389  36.690  24.196  1.00  0.00     0.001 A 
ATOM     88  C   UNL A   1      52.794  36.742  26.577  1.00  0.00     0.001 A 
ATOM     89  C   UNL A   1      52.982  37.287  25.308  1.00  0.00     0.000 A 
ENDBRANCH  71  84
ENDBRANCH  45  46
ENDBRANCH  37  40
ENDBRANCH  35  36
ENDBRANCH  34  35
ENDBRANCH  33  34
ENDBRANCH   1  33
TORSDOF 16
ENDMDL
MODEL 3
REMARK VINA RESULT:     -11.4      5.790      8.039
REMARK SMILES CS(=O)(=O)c1ccc(-c2cc(Cl)cc3c2O[C@H](C(F)(F)F)C(C(=O)NCCCCCCNC(=O)c2ccc(-c4c5nc(c(-c6ccccc6)c6ccc([nH]6)c(-c6ccccc6)c6nc(c(-c7ccccc7)c7ccc4[nH]7)C=C6)C=C5)cc2)=C3)cc1
REMARK SMILES IDX 28 1 27 2 26 3 25 4 23 5 24 6 22 8 9 9 10 10 15 11 11 12
REMARK SMILES IDX 14 13 16 14 12 15 13 16 83 17 17 18 8 19 5 20 6 21 85 22
REMARK SMILES IDX 7 23 84 24 2 25 1 26 3 27 4 28 18 29 19 30 20 31 21 32 29 33
REMARK SMILES IDX 30 34 31 35 32 36 33 37 34 39 35 40 36 41 82 42 37 43 81 44
REMARK SMILES IDX 38 45 39 46 40 47 75 48 41 49 80 50 74 51 76 52 42 53 79 54
REMARK SMILES IDX 73 55 72 56 43 58 65 59 50 60 64 61 51 62 54 63 63 64 77 65
REMARK SMILES IDX 52 66 53 67 62 69 78 70 55 71 44 72 45 73 49 74 46 75 48 76
REMARK SMILES IDX 47 77 66 78 67 79 71 80 68 81 70 82 69 83 56 84 57 85 61 86
REMARK SMILES IDX 58 87 60 88 59 89
REMARK H PARENT 25 7 32 38 76 57 54 68
REMARK Flexibility Score: inf
ROOT
ATOM      1  C   UNL A   1      40.933  27.660  27.230  1.00  0.00     0.002 C 
ENDROOT
BRANCH   1   2
ATOM      2  C   UNL A   1      41.534  28.532  28.347  1.00  0.00     0.021 C 
BRANCH   2   3
ATOM      3  C   UNL A   1      41.264  28.027  29.773  1.00  0.00     0.116 C 
BRANCH   3   4
ATOM      4  N   UNL A   1      40.863  29.134  30.617  1.00  0.00    -0.352 N 
ATOM      5  C   UNL A   1      39.943  30.076  30.290  1.00  0.00     0.251 C 
ATOM      6  O   UNL A   1      40.210  31.264  30.419  1.00  0.00    -0.270 OA
ATOM      7  H   UNL A   1      41.292  29.208  31.500  1.00  0.00     0.163 HD
BRANCH   5   8
ATOM      8  C   UNL A   1      38.581  29.578  29.943  1.00  0.00     0.067 C 
ATOM      9  C   UNL A   1      36.439  31.796  32.594  1.00  0.00     0.026 A 
ATOM     10  C   UNL A   1      37.105  31.686  33.845  1.00  0.00     0.033 A 
ATOM     11  C   UNL A   1      36.831  30.875  31.601  1.00  0.00     0.135 A 
ATOM     12  C   UNL A   1      37.980  30.646  34.148  1.00  0.00     0.042 A 
ATOM     13  C   UNL A   1      37.626  29.757  31.971  1.00  0.00     0.019 A 
ATOM     14  O   UNL A   1      36.534  31.028  30.250  1.00  0.00    -0.475 OA
ATOM     15  Cl  UNL A   1      38.781  30.618  35.667  1.00  0.00    -0.084 Cl
ATOM     16  C   UNL A   1      38.189  29.631  33.237  1.00  0.00     0.032 A 
ATOM     17  C   UNL A   1      38.038  28.814  30.910  1.00  0.00     0.025 C 
ATOM     18  C   UNL A   1      37.647  30.613  29.337  1.00  0.00     0.314 C 
BRANCH   9  19
ATOM     19  C   UNL A   1      35.289  32.745  32.591  1.00  0.00    -0.015 A 
ATOM     20  C   UNL A   1      33.931  35.241  32.468  1.00  0.00     0.067 A 
ATOM     21  C   UNL A   1      34.137  34.511  31.301  1.00  0.00     0.021 A 
ATOM     22  C   UNL A   1      34.310  34.696  33.701  1.00  0.00     0.021 A 
ATOM     23  C   UNL A   1      34.788  33.266  31.372  1.00  0.00     0.010 A 
ATOM     24  C   UNL A   1      34.970  33.455  33.760  1.00  0.00     0.010 A 
BRANCH  20  25
ATOM     25  S   UNL A   1      33.257  36.895  32.452  1.00  0.00     0.175 S 
ATOM     26  C   UNL A   1      33.263  37.491  30.783  1.00  0.00     0.163 C 
ATOM     27  O   UNL A   1      34.187  37.730  33.187  1.00  0.00    -0.224 OA
ATOM     28  O   UNL A   1      31.872  36.771  32.871  1.00  0.00    -0.224 OA
ENDBRANCH  20  25
ENDBRANCH   9  19
BRANCH  18  29
ATOM     29  C   UNL A   1      37.134  30.042  27.993  1.00  0.00     0.429 C 
ATOM     30  F   UNL A   1      36.284  30.878  27.357  1.00  0.00    -0.167 F 
ATOM     31  F   UNL A   1      38.159  29.771  27.151  1.00  0.00    -0.167 F 
ATOM     32  F   UNL A   1      36.466  28.866  28.154  1.00  0.00    -0.167 F 
ENDBRANCH  18  29
ENDBRANCH   5   8
ENDBRANCH   3   4
ENDBRANCH   2   3
ENDBRANCH   1   2
BRANCH   1  33
ATOM     33  C   UNL A   1      39.627  26.954  27.597  1.00  0.00     0.002 C 
BRANCH  33  34
ATOM     34  C   UNL A   1      39.564  25.485  27.183  1.00  0.00     0.021 C 
BRANCH  34  35
ATOM     35  C   UNL A   1      40.467  24.561  27.991  1.00  0.00     0.116 C 
BRANCH  35  36
ATOM     36  N   UNL A   1      41.028  23.487  27.186  1.00  0.00    -0.352 N 
ATOM     37  C   UNL A   1      42.149  23.494  26.395  1.00  0.00     0.251 C 
ATOM     38  H   UNL A   1      40.533  22.637  27.211  1.00  0.00     0.163 HD
ATOM     39  O   UNL A   1      42.389  22.552  25.648  1.00  0.00    -0.269 OA
BRANCH  37  40
ATOM     40  C   UNL A   1      43.056  24.660  26.430  1.00  0.00     0.039 A 
ATOM     41  C   UNL A   1      43.710  24.968  27.625  1.00  0.00     0.014 A 
ATOM     42  C   UNL A   1      43.269  25.437  25.288  1.00  0.00     0.014 A 
ATOM     43  C   UNL A   1      44.626  26.019  27.656  1.00  0.00     0.010 A 
ATOM     44  C   UNL A   1      44.242  26.432  25.300  1.00  0.00     0.010 A 
ATOM     45  C   UNL A   1      44.926  26.737  26.485  1.00  0.00    -0.014 A 
BRANCH  45  46
ATOM     46  C   UNL A   1      45.964  27.796  26.488  1.00  0.00     0.031 A 
ATOM     47  C   UNL A   1      45.579  29.242  26.622  1.00  0.00     0.074 A 
ATOM     48  C   UNL A   1      47.255  27.459  26.302  1.00  0.00     0.049 A 
ATOM     49  N   UNL A   1      46.345  30.304  26.624  1.00  0.00    -0.248 NA
ATOM     50  C   UNL A   1      44.143  29.538  26.741  1.00  0.00     0.031 C 
ATOM     51  C   UNL A   1      47.753  26.096  26.099  1.00  0.00     0.029 A 
ATOM     52  N   UNL A   1      48.383  28.237  26.248  1.00  0.00    -0.354 N 
ATOM     53  C   UNL A   1      45.485  31.391  26.724  1.00  0.00     0.074 A 
ATOM     54  C   UNL A   1      44.138  30.863  26.726  1.00  0.00     0.031 C 
ATOM     55  C   UNL A   1      49.087  26.132  25.967  1.00  0.00     0.029 A 
ATOM     56  C   UNL A   1      49.535  27.519  26.035  1.00  0.00     0.049 A 
ATOM     57  H   UNL A   1      48.369  29.216  26.351  1.00  0.00     0.167 HD
ATOM     58  C   UNL A   1      45.789  32.707  26.821  1.00  0.00     0.031 A 
ATOM     59  C   UNL A   1      50.810  27.930  25.900  1.00  0.00     0.031 A 
ATOM     60  C   UNL A   1      47.130  33.229  26.817  1.00  0.00     0.049 A 
ATOM     61  C   UNL A   1      51.125  29.393  26.014  1.00  0.00     0.074 A 
ATOM     62  C   UNL A   1      47.547  34.537  26.988  1.00  0.00     0.029 A 
ATOM     63  N   UNL A   1      48.273  32.468  26.614  1.00  0.00    -0.354 N 
ATOM     64  N   UNL A   1      50.309  30.401  26.209  1.00  0.00    -0.248 NA
ATOM     65  C   UNL A   1      52.540  29.775  25.904  1.00  0.00     0.031 C 
ATOM     66  C   UNL A   1      48.936  34.578  26.818  1.00  0.00     0.029 A 
ATOM     67  C   UNL A   1      49.391  33.285  26.614  1.00  0.00     0.049 A 
ATOM     68  H   UNL A   1      48.286  31.491  26.490  1.00  0.00     0.167 HD
ATOM     69  C   UNL A   1      51.112  31.534  26.263  1.00  0.00     0.074 A 
ATOM     70  C   UNL A   1      52.480  31.084  26.104  1.00  0.00     0.031 C 
ATOM     71  C   UNL A   1      50.746  32.829  26.432  1.00  0.00     0.031 A 
BRANCH  58  72
ATOM     72  C   UNL A   1      44.638  33.675  26.910  1.00  0.00    -0.014 A 
ATOM     73  C   UNL A   1      44.115  34.086  28.147  1.00  0.00     0.009 A 
ATOM     74  C   UNL A   1      44.073  34.191  25.734  1.00  0.00     0.009 A 
ATOM     75  C   UNL A   1      43.017  34.948  28.203  1.00  0.00     0.001 A 
ATOM     76  C   UNL A   1      43.000  35.082  25.792  1.00  0.00     0.001 A 
ATOM     77  C   UNL A   1      42.464  35.448  27.025  1.00  0.00     0.000 A 
ENDBRANCH  58  72
BRANCH  59  78
ATOM     78  C   UNL A   1      51.879  26.928  25.647  1.00  0.00    -0.014 A 
ATOM     79  C   UNL A   1      52.540  26.300  26.712  1.00  0.00     0.009 A 
ATOM     80  C   UNL A   1      52.217  26.572  24.332  1.00  0.00     0.009 A 
ATOM     81  C   UNL A   1      53.533  25.348  26.464  1.00  0.00     0.001 A 
ATOM     82  C   UNL A   1      53.188  25.598  24.088  1.00  0.00     0.001 A 
ATOM     83  C   UNL A   1      53.849  24.991  25.154  1.00  0.00     0.000 A 
ENDBRANCH  59  78
BRANCH  71  84
ATOM     84  C   UNL A   1      51.847  33.853  26.468  1.00  0.00    -0.014 A 
ATOM     85  C   UNL A   1      52.280  34.503  25.300  1.00  0.00     0.009 A 
ATOM     86  C   UNL A   1      52.438  34.198  27.694  1.00  0.00     0.009 A 
ATOM     87  C   UNL A   1      53.306  35.449  25.358  1.00  0.00     0.001 A 
ATOM     88  C   UNL A   1      53.439  35.167  27.753  1.00  0.00     0.001 A 
ATOM     89  C   UNL A   1      53.880  35.784  26.583  1.00  0.00     0.000 A 
ENDBRANCH  71  84
ENDBRANCH  45  46
ENDBRANCH  37  40
ENDBRANCH  35  36
ENDBRANCH  34  35
ENDBRANCH  33  34
ENDBRANCH   1  33
TORSDOF 16
ENDMDL
