MODEL 1
REMARK VINA RESULT:     -11.2      0.000      0.000
REMARK SMILES Cc1ccc(C)c(NC(=O)/C=C/C(=O)NCCCCCCNC(=O)c2ccc(-c3c4nc(c(-c5ccccc5)c5ccc([nH]5)c(-c5ccccc5)c5nc(c(-c6ccccc6)c6ccc3[nH]6)C=C5)C=C4)cc2)c1
REMARK SMILES IDX 18 1 17 2 16 3 15 4 13 5 14 6 12 8 11 9 9 10 8 11 10 13 7 14
REMARK SMILES IDX 1 15 2 16 3 17 73 18 4 19 5 20 6 21 19 22 20 23 21 24 22 25
REMARK SMILES IDX 23 26 24 28 25 29 26 30 72 31 27 32 71 33 28 34 29 35 30 36
REMARK SMILES IDX 65 37 31 38 70 39 64 40 66 41 32 42 69 43 63 44 62 45 33 47
REMARK SMILES IDX 55 48 40 49 54 50 41 51 44 52 53 53 67 54 42 55 43 56 52 58
REMARK SMILES IDX 68 59 45 60 34 61 35 62 39 63 36 64 38 65 37 66 56 67 57 68
REMARK SMILES IDX 61 69 58 70 60 71 59 72 46 73 47 74 51 75 48 76 50 77 49 78
REMARK H PARENT 15 7 8 12 22 27 66 46 44 57
REMARK Flexibility Score: inf
ROOT
ATOM      1  C   UNL A   1      40.774  21.778  26.651  1.00  0.00     0.002 C 
ENDROOT
BRANCH   1   2
ATOM      2  C   UNL A   1      39.359  22.346  26.516  1.00  0.00     0.021 C 
BRANCH   2   3
ATOM      3  C   UNL A   1      38.373  21.498  25.718  1.00  0.00     0.116 C 
BRANCH   3   4
ATOM      4  N   UNL A   1      37.784  22.215  24.605  1.00  0.00    -0.353 N 
ATOM      5  C   UNL A   1      36.645  22.956  24.562  1.00  0.00     0.244 C 
ATOM      6  O   UNL A   1      36.511  23.801  23.680  1.00  0.00    -0.270 OA
ATOM      7  H   UNL A   1      38.281  22.157  23.757  1.00  0.00     0.163 HD
BRANCH   5   8
ATOM      8  C   UNL A   1      35.543  22.748  25.527  1.00  0.00     0.077 C 
ATOM      9  C   UNL A   1      35.255  21.526  25.990  1.00  0.00     0.077 C 
BRANCH   9  10
ATOM     10  C   UNL A   1      33.998  21.236  26.687  1.00  0.00     0.248 C 
ATOM     11  N   UNL A   1      33.030  20.480  26.093  1.00  0.00    -0.322 N 
ATOM     12  H   UNL A   1      32.242  20.340  26.666  1.00  0.00     0.170 HD
ATOM     13  O   UNL A   1      33.837  21.678  27.824  1.00  0.00    -0.270 OA
BRANCH  11  14
ATOM     14  C   UNL A   1      32.916  19.855  24.830  1.00  0.00     0.044 A 
ATOM     15  C   UNL A   1      33.775  16.338  23.586  1.00  0.00     0.044 C 
ATOM     16  C   UNL A   1      33.183  17.712  23.666  1.00  0.00    -0.049 A 
ATOM     17  C   UNL A   1      32.435  18.206  22.601  1.00  0.00     0.004 A 
ATOM     18  C   UNL A   1      33.368  18.523  24.794  1.00  0.00     0.029 A 
ATOM     19  C   UNL A   1      32.067  19.548  22.584  1.00  0.00     0.006 A 
ATOM     20  C   UNL A   1      32.418  20.408  23.641  1.00  0.00    -0.027 A 
ATOM     21  C   UNL A   1      32.418  21.871  23.295  1.00  0.00     0.046 C 
ENDBRANCH  11  14
ENDBRANCH   9  10
ENDBRANCH   5   8
ENDBRANCH   3   4
ENDBRANCH   2   3
ENDBRANCH   1   2
BRANCH   1  22
ATOM     22  C   UNL A   1      40.926  20.289  26.993  1.00  0.00     0.002 C 
BRANCH  22  23
ATOM     23  C   UNL A   1      41.644  19.320  26.038  1.00  0.00     0.021 C 
BRANCH  23  24
ATOM     24  C   UNL A   1      43.154  19.114  26.141  1.00  0.00     0.116 C 
BRANCH  24  25
ATOM     25  N   UNL A   1      43.883  19.397  24.901  1.00  0.00    -0.352 N 
ATOM     26  C   UNL A   1      44.315  20.559  24.291  1.00  0.00     0.251 C 
ATOM     27  H   UNL A   1      44.115  18.585  24.395  1.00  0.00     0.163 HD
ATOM     28  O   UNL A   1      44.627  20.522  23.096  1.00  0.00    -0.269 OA
BRANCH  26  29
ATOM     29  C   UNL A   1      44.429  21.838  25.023  1.00  0.00     0.039 A 
ATOM     30  C   UNL A   1      45.411  22.089  25.987  1.00  0.00     0.014 A 
ATOM     31  C   UNL A   1      43.472  22.811  24.804  1.00  0.00     0.014 A 
ATOM     32  C   UNL A   1      45.314  23.260  26.746  1.00  0.00     0.010 A 
ATOM     33  C   UNL A   1      43.606  24.082  25.254  1.00  0.00     0.010 A 
ATOM     34  C   UNL A   1      44.358  24.223  26.389  1.00  0.00    -0.014 A 
BRANCH  34  35
ATOM     35  C   UNL A   1      44.060  25.413  27.157  1.00  0.00     0.031 A 
ATOM     36  C   UNL A   1      44.965  26.531  26.883  1.00  0.00     0.074 A 
ATOM     37  C   UNL A   1      42.901  25.629  27.820  1.00  0.00     0.049 A 
ATOM     38  N   UNL A   1      45.890  26.979  27.655  1.00  0.00    -0.248 NA
ATOM     39  C   UNL A   1      44.924  27.130  25.542  1.00  0.00     0.031 C 
ATOM     40  C   UNL A   1      41.680  24.808  27.860  1.00  0.00     0.029 A 
ATOM     41  N   UNL A   1      42.541  26.733  28.530  1.00  0.00    -0.354 N 
ATOM     42  C   UNL A   1      46.435  28.053  26.978  1.00  0.00     0.074 A 
ATOM     43  C   UNL A   1      45.949  27.979  25.621  1.00  0.00     0.031 C 
ATOM     44  C   UNL A   1      40.665  25.533  28.388  1.00  0.00     0.029 A 
ATOM     45  C   UNL A   1      41.196  26.799  28.863  1.00  0.00     0.049 A 
ATOM     46  H   UNL A   1      43.186  27.432  28.787  1.00  0.00     0.167 HD
ATOM     47  C   UNL A   1      47.036  29.072  27.643  1.00  0.00     0.031 A 
ATOM     48  C   UNL A   1      40.568  27.838  29.464  1.00  0.00     0.031 A 
ATOM     49  C   UNL A   1      47.263  28.758  29.031  1.00  0.00     0.049 A 
ATOM     50  C   UNL A   1      41.607  28.668  30.120  1.00  0.00     0.074 A 
ATOM     51  C   UNL A   1      47.945  27.761  29.703  1.00  0.00     0.029 A 
ATOM     52  N   UNL A   1      46.382  29.290  29.945  1.00  0.00    -0.354 N 
ATOM     53  N   UNL A   1      42.309  28.269  31.142  1.00  0.00    -0.248 NA
ATOM     54  C   UNL A   1      42.159  29.802  29.396  1.00  0.00     0.031 C 
ATOM     55  C   UNL A   1      47.125  27.439  30.826  1.00  0.00     0.029 A 
ATOM     56  C   UNL A   1      46.015  28.287  30.806  1.00  0.00     0.049 A 
ATOM     57  H   UNL A   1      46.071  30.225  29.975  1.00  0.00     0.167 HD
ATOM     58  C   UNL A   1      43.576  28.794  30.930  1.00  0.00     0.074 A 
ATOM     59  C   UNL A   1      43.387  29.831  29.921  1.00  0.00     0.031 C 
ATOM     60  C   UNL A   1      44.691  28.143  31.380  1.00  0.00     0.031 A 
BRANCH  47  61
ATOM     61  C   UNL A   1      47.052  30.474  27.119  1.00  0.00    -0.014 A 
ATOM     62  C   UNL A   1      48.254  31.195  27.142  1.00  0.00     0.009 A 
ATOM     63  C   UNL A   1      45.876  31.192  26.817  1.00  0.00     0.009 A 
ATOM     64  C   UNL A   1      48.272  32.571  26.893  1.00  0.00     0.001 A 
ATOM     65  C   UNL A   1      45.897  32.554  26.521  1.00  0.00     0.001 A 
ATOM     66  C   UNL A   1      47.096  33.248  26.579  1.00  0.00     0.000 A 
ENDBRANCH  47  61
BRANCH  48  67
ATOM     67  C   UNL A   1      39.168  28.287  29.338  1.00  0.00    -0.014 A 
ATOM     68  C   UNL A   1      38.342  28.407  30.467  1.00  0.00     0.009 A 
ATOM     69  C   UNL A   1      38.721  28.862  28.134  1.00  0.00     0.009 A 
ATOM     70  C   UNL A   1      37.134  29.114  30.403  1.00  0.00     0.001 A 
ATOM     71  C   UNL A   1      37.514  29.567  28.069  1.00  0.00     0.001 A 
ATOM     72  C   UNL A   1      36.728  29.707  29.209  1.00  0.00     0.000 A 
ENDBRANCH  48  67
BRANCH  60  73
ATOM     73  C   UNL A   1      44.488  26.999  32.347  1.00  0.00    -0.014 A 
ATOM     74  C   UNL A   1      44.438  25.652  31.944  1.00  0.00     0.009 A 
ATOM     75  C   UNL A   1      44.469  27.275  33.723  1.00  0.00     0.009 A 
ATOM     76  C   UNL A   1      44.330  24.620  32.883  1.00  0.00     0.001 A 
ATOM     77  C   UNL A   1      44.385  26.244  34.662  1.00  0.00     0.001 A 
ATOM     78  C   UNL A   1      44.307  24.917  34.243  1.00  0.00     0.000 A 
ENDBRANCH  60  73
ENDBRANCH  34  35
ENDBRANCH  26  29
ENDBRANCH  24  25
ENDBRANCH  23  24
ENDBRANCH  22  23
ENDBRANCH   1  22
TORSDOF 15
ENDMDL
MODEL 2
REMARK VINA RESULT:     -11.2      3.177      8.424
REMARK SMILES Cc1ccc(C)c(NC(=O)/C=C/C(=O)NCCCCCCNC(=O)c2ccc(-c3c4nc(c(-c5ccccc5)c5ccc([nH]5)c(-c5ccccc5)c5nc(c(-c6ccccc6)c6ccc3[nH]6)C=C5)C=C4)cc2)c1
REMARK SMILES IDX 18 1 17 2 16 3 15 4 13 5 14 6 12 8 11 9 9 10 8 11 10 13 7 14
REMARK SMILES IDX 1 15 2 16 3 17 73 18 4 19 5 20 6 21 19 22 20 23 21 24 22 25
REMARK SMILES IDX 23 26 24 28 25 29 26 30 72 31 27 32 71 33 28 34 29 35 30 36
REMARK SMILES IDX 65 37 31 38 70 39 64 40 66 41 32 42 69 43 63 44 62 45 33 47
REMARK SMILES IDX 55 48 40 49 54 50 41 51 44 52 53 53 67 54 42 55 43 56 52 58
REMARK SMILES IDX 68 59 45 60 34 61 35 62 39 63 36 64 38 65 37 66 56 67 57 68
REMARK SMILES IDX 61 69 58 70 60 71 59 72 46 73 47 74 51 75 48 76 50 77 49 78
REMARK H PARENT 15 7 8 12 22 27 66 46 44 57
REMARK Flexibility Score: inf
ROOT
ATOM      1  C   UNL A   1      31.119  27.960  24.980  1.00  0.00     0.002 C 
ENDROOT
BRANCH   1   2
ATOM      2  C   UNL A   1      30.963  26.885  26.059  1.00  0.00     0.021 C 
BRANCH   2   3
ATOM      3  C   UNL A   1      30.659  25.476  25.557  1.00  0.00     0.116 C 
BRANCH   3   4
ATOM      4  N   UNL A   1      29.893  24.693  26.507  1.00  0.00    -0.353 N 
ATOM      5  C   UNL A   1      29.964  23.364  26.785  1.00  0.00     0.244 C 
ATOM      6  O   UNL A   1      29.545  22.953  27.866  1.00  0.00    -0.270 OA
ATOM      7  H   UNL A   1      29.224  25.197  27.025  1.00  0.00     0.163 HD
BRANCH   5   8
ATOM      8  C   UNL A   1      30.496  22.390  25.807  1.00  0.00     0.077 C 
ATOM      9  C   UNL A   1      31.694  21.821  25.985  1.00  0.00     0.077 C 
BRANCH   9  10
ATOM     10  C   UNL A   1      32.383  21.107  24.906  1.00  0.00     0.248 C 
ATOM     11  N   UNL A   1      33.175  21.778  24.021  1.00  0.00    -0.322 N 
ATOM     12  H   UNL A   1      33.596  21.188  23.355  1.00  0.00     0.170 HD
ATOM     13  O   UNL A   1      32.243  19.887  24.821  1.00  0.00    -0.270 OA
BRANCH  11  14
ATOM     14  C   UNL A   1      33.519  23.138  23.855  1.00  0.00     0.044 A 
ATOM     15  C   UNL A   1      32.563  25.758  21.233  1.00  0.00     0.044 C 
ATOM     16  C   UNL A   1      33.062  25.131  22.498  1.00  0.00    -0.049 A 
ATOM     17  C   UNL A   1      33.657  25.923  23.476  1.00  0.00     0.004 A 
ATOM     18  C   UNL A   1      32.949  23.752  22.724  1.00  0.00     0.029 A 
ATOM     19  C   UNL A   1      34.307  25.320  24.547  1.00  0.00     0.006 A 
ATOM     20  C   UNL A   1      34.350  23.919  24.672  1.00  0.00    -0.027 A 
ATOM     21  C   UNL A   1      35.459  23.393  25.540  1.00  0.00     0.046 C 
ENDBRANCH  11  14
ENDBRANCH   9  10
ENDBRANCH   5   8
ENDBRANCH   3   4
ENDBRANCH   2   3
ENDBRANCH   1   2
BRANCH   1  22
ATOM     22  C   UNL A   1      31.705  29.318  25.390  1.00  0.00     0.002 C 
BRANCH  22  23
ATOM     23  C   UNL A   1      32.062  29.623  26.854  1.00  0.00     0.021 C 
BRANCH  23  24
ATOM     24  C   UNL A   1      33.518  29.839  27.263  1.00  0.00     0.116 C 
BRANCH  24  25
ATOM     25  N   UNL A   1      33.979  31.224  27.125  1.00  0.00    -0.352 N 
ATOM     26  C   UNL A   1      35.038  31.936  27.655  1.00  0.00     0.251 C 
ATOM     27  H   UNL A   1      33.413  31.762  26.526  1.00  0.00     0.163 HD
ATOM     28  O   UNL A   1      35.003  33.170  27.617  1.00  0.00    -0.269 OA
BRANCH  26  29
ATOM     29  C   UNL A   1      36.215  31.270  28.252  1.00  0.00     0.039 A 
ATOM     30  C   UNL A   1      37.018  31.859  29.234  1.00  0.00     0.014 A 
ATOM     31  C   UNL A   1      36.592  30.035  27.762  1.00  0.00     0.014 A 
ATOM     32  C   UNL A   1      38.208  31.217  29.594  1.00  0.00     0.010 A 
ATOM     33  C   UNL A   1      37.512  29.253  28.379  1.00  0.00     0.010 A 
ATOM     34  C   UNL A   1      38.457  29.927  29.103  1.00  0.00    -0.014 A 
BRANCH  34  35
ATOM     35  C   UNL A   1      39.696  29.202  29.285  1.00  0.00     0.031 A 
ATOM     36  C   UNL A   1      39.986  28.874  30.683  1.00  0.00     0.074 A 
ATOM     37  C   UNL A   1      40.381  28.589  28.293  1.00  0.00     0.049 A 
ATOM     38  N   UNL A   1      40.879  29.416  31.431  1.00  0.00    -0.248 NA
ATOM     39  C   UNL A   1      39.087  27.931  31.363  1.00  0.00     0.031 C 
ATOM     40  C   UNL A   1      40.027  28.429  26.874  1.00  0.00     0.029 A 
ATOM     41  N   UNL A   1      41.529  27.864  28.397  1.00  0.00    -0.354 N 
ATOM     42  C   UNL A   1      40.791  28.748  32.638  1.00  0.00     0.074 A 
ATOM     43  C   UNL A   1      39.560  27.995  32.608  1.00  0.00     0.031 C 
ATOM     44  C   UNL A   1      40.833  27.500  26.309  1.00  0.00     0.029 A 
ATOM     45  C   UNL A   1      41.851  27.120  27.272  1.00  0.00     0.049 A 
ATOM     46  H   UNL A   1      42.086  27.868  29.208  1.00  0.00     0.167 HD
ATOM     47  C   UNL A   1      41.861  28.653  33.469  1.00  0.00     0.031 A 
ATOM     48  C   UNL A   1      42.871  26.236  27.161  1.00  0.00     0.031 A 
ATOM     49  C   UNL A   1      42.935  29.530  33.076  1.00  0.00     0.049 A 
ATOM     50  C   UNL A   1      43.844  26.537  28.238  1.00  0.00     0.074 A 
ATOM     51  C   UNL A   1      43.056  30.893  32.883  1.00  0.00     0.029 A 
ATOM     52  N   UNL A   1      43.990  28.960  32.401  1.00  0.00    -0.354 N 
ATOM     53  N   UNL A   1      44.556  27.627  28.282  1.00  0.00    -0.248 NA
ATOM     54  C   UNL A   1      43.743  25.814  29.496  1.00  0.00     0.031 C 
ATOM     55  C   UNL A   1      43.892  31.034  31.735  1.00  0.00     0.029 A 
ATOM     56  C   UNL A   1      44.274  29.757  31.319  1.00  0.00     0.049 A 
ATOM     57  H   UNL A   1      44.459  28.130  32.650  1.00  0.00     0.167 HD
ATOM     58  C   UNL A   1      44.619  27.957  29.628  1.00  0.00     0.074 A 
ATOM     59  C   UNL A   1      44.220  26.742  30.331  1.00  0.00     0.031 C 
ATOM     60  C   UNL A   1      44.710  29.261  30.029  1.00  0.00     0.031 A 
BRANCH  47  61
ATOM     61  C   UNL A   1      42.061  27.490  34.390  1.00  0.00    -0.014 A 
ATOM     62  C   UNL A   1      41.841  27.664  35.763  1.00  0.00     0.009 A 
ATOM     63  C   UNL A   1      42.684  26.292  33.984  1.00  0.00     0.009 A 
ATOM     64  C   UNL A   1      42.243  26.690  36.684  1.00  0.00     0.001 A 
ATOM     65  C   UNL A   1      43.042  25.299  34.895  1.00  0.00     0.001 A 
ATOM     66  C   UNL A   1      42.838  25.509  36.250  1.00  0.00     0.000 A 
ENDBRANCH  47  61
BRANCH  48  67
ATOM     67  C   UNL A   1      42.971  25.019  26.331  1.00  0.00    -0.014 A 
ATOM     68  C   UNL A   1      43.863  24.950  25.250  1.00  0.00     0.009 A 
ATOM     69  C   UNL A   1      42.381  23.819  26.772  1.00  0.00     0.009 A 
ATOM     70  C   UNL A   1      44.187  23.721  24.660  1.00  0.00     0.001 A 
ATOM     71  C   UNL A   1      42.703  22.592  26.182  1.00  0.00     0.001 A 
ATOM     72  C   UNL A   1      43.619  22.541  25.136  1.00  0.00     0.000 A 
ENDBRANCH  48  67
BRANCH  60  73
ATOM     73  C   UNL A   1      45.020  30.296  28.971  1.00  0.00    -0.014 A 
ATOM     74  C   UNL A   1      44.035  30.876  28.152  1.00  0.00     0.009 A 
ATOM     75  C   UNL A   1      46.329  30.792  28.878  1.00  0.00     0.009 A 
ATOM     76  C   UNL A   1      44.356  31.890  27.241  1.00  0.00     0.001 A 
ATOM     77  C   UNL A   1      46.647  31.821  27.987  1.00  0.00     0.001 A 
ATOM     78  C   UNL A   1      45.663  32.364  27.163  1.00  0.00     0.000 A 
ENDBRANCH  60  73
ENDBRANCH  34  35
ENDBRANCH  26  29
ENDBRANCH  24  25
ENDBRANCH  23  24
ENDBRANCH  22  23
ENDBRANCH   1  22
TORSDOF 15
ENDMDL
MODEL 3
REMARK VINA RESULT:     -10.9      4.746     10.749
REMARK SMILES Cc1ccc(C)c(NC(=O)/C=C/C(=O)NCCCCCCNC(=O)c2ccc(-c3c4nc(c(-c5ccccc5)c5ccc([nH]5)c(-c5ccccc5)c5nc(c(-c6ccccc6)c6ccc3[nH]6)C=C5)C=C4)cc2)c1
REMARK SMILES IDX 18 1 17 2 16 3 15 4 13 5 14 6 12 8 11 9 9 10 8 11 10 13 7 14
REMARK SMILES IDX 1 15 2 16 3 17 73 18 4 19 5 20 6 21 19 22 20 23 21 24 22 25
REMARK SMILES IDX 23 26 24 28 25 29 26 30 72 31 27 32 71 33 28 34 29 35 30 36
REMARK SMILES IDX 65 37 31 38 70 39 64 40 66 41 32 42 69 43 63 44 62 45 33 47
REMARK SMILES IDX 55 48 40 49 54 50 41 51 44 52 53 53 67 54 42 55 43 56 52 58
REMARK SMILES IDX 68 59 45 60 34 61 35 62 39 63 36 64 38 65 37 66 56 67 57 68
REMARK SMILES IDX 61 69 58 70 60 71 59 72 46 73 47 74 51 75 48 76 50 77 49 78
REMARK H PARENT 15 7 8 12 22 27 66 46 44 57
REMARK Flexibility Score: inf
ROOT
ATOM      1  C   UNL A   1      36.584  33.961  32.742  1.00  0.00     0.002 C 
ENDROOT
BRANCH   1   2
ATOM      2  C   UNL A   1      35.295  34.326  33.481  1.00  0.00     0.021 C 
BRANCH   2   3
ATOM      3  C   UNL A   1      34.733  35.717  33.197  1.00  0.00     0.116 C 
BRANCH   3   4
ATOM      4  N   UNL A   1      33.287  35.768  33.279  1.00  0.00    -0.353 N 
ATOM      5  C   UNL A   1      32.366  35.788  32.279  1.00  0.00     0.244 C 
ATOM      6  O   UNL A   1      31.214  35.432  32.515  1.00  0.00    -0.270 OA
ATOM      7  H   UNL A   1      32.918  35.791  34.192  1.00  0.00     0.163 HD
BRANCH   5   8
ATOM      8  C   UNL A   1      32.703  36.264  30.919  1.00  0.00     0.077 C 
ATOM      9  C   UNL A   1      33.236  35.437  30.012  1.00  0.00     0.077 C 
BRANCH   9  10
ATOM     10  C   UNL A   1      33.864  35.932  28.784  1.00  0.00     0.248 C 
ATOM     11  N   UNL A   1      34.636  35.110  28.016  1.00  0.00    -0.322 N 
ATOM     12  H   UNL A   1      34.987  35.552  27.209  1.00  0.00     0.170 HD
ATOM     13  O   UNL A   1      33.673  37.101  28.451  1.00  0.00    -0.270 OA
BRANCH  11  14
ATOM     14  C   UNL A   1      35.040  33.761  28.130  1.00  0.00     0.044 A 
ATOM     15  C   UNL A   1      33.223  30.445  27.532  1.00  0.00     0.044 C 
ATOM     16  C   UNL A   1      34.315  31.450  27.735  1.00  0.00    -0.049 A 
ATOM     17  C   UNL A   1      35.636  31.025  27.846  1.00  0.00     0.004 A 
ATOM     18  C   UNL A   1      34.039  32.822  27.823  1.00  0.00     0.029 A 
ATOM     19  C   UNL A   1      36.617  31.927  28.244  1.00  0.00     0.006 A 
ATOM     20  C   UNL A   1      36.298  33.271  28.512  1.00  0.00    -0.027 A 
ATOM     21  C   UNL A   1      37.284  33.996  29.387  1.00  0.00     0.046 C 
ENDBRANCH  11  14
ENDBRANCH   9  10
ENDBRANCH   5   8
ENDBRANCH   3   4
ENDBRANCH   2   3
ENDBRANCH   1   2
BRANCH   1  22
ATOM     22  C   UNL A   1      37.891  34.627  33.195  1.00  0.00     0.002 C 
BRANCH  22  23
ATOM     23  C   UNL A   1      39.010  33.812  33.867  1.00  0.00     0.021 C 
BRANCH  23  24
ATOM     24  C   UNL A   1      40.381  33.692  33.204  1.00  0.00     0.116 C 
BRANCH  24  25
ATOM     25  N   UNL A   1      40.478  34.368  31.906  1.00  0.00    -0.352 N 
ATOM     26  C   UNL A   1      40.914  33.976  30.655  1.00  0.00     0.251 C 
ATOM     27  H   UNL A   1      40.165  35.301  31.931  1.00  0.00     0.163 HD
ATOM     28  O   UNL A   1      41.179  34.845  29.818  1.00  0.00    -0.269 OA
BRANCH  26  29
ATOM     29  C   UNL A   1      41.058  32.553  30.281  1.00  0.00     0.039 A 
ATOM     30  C   UNL A   1      39.973  31.688  30.105  1.00  0.00     0.014 A 
ATOM     31  C   UNL A   1      42.330  32.024  30.176  1.00  0.00     0.014 A 
ATOM     32  C   UNL A   1      40.230  30.324  29.933  1.00  0.00     0.010 A 
ATOM     33  C   UNL A   1      42.574  30.806  29.634  1.00  0.00     0.010 A 
ATOM     34  C   UNL A   1      41.556  29.900  29.754  1.00  0.00    -0.014 A 
BRANCH  34  35
ATOM     35  C   UNL A   1      41.978  28.518  29.697  1.00  0.00     0.031 A 
ATOM     36  C   UNL A   1      42.556  28.027  30.950  1.00  0.00     0.074 A 
ATOM     37  C   UNL A   1      41.612  27.642  28.733  1.00  0.00     0.049 A 
ATOM     38  N   UNL A   1      43.796  27.782  31.182  1.00  0.00    -0.248 NA
ATOM     39  C   UNL A   1      41.669  27.929  32.117  1.00  0.00     0.031 C 
ATOM     40  C   UNL A   1      40.676  27.823  27.613  1.00  0.00     0.029 A 
ATOM     41  N   UNL A   1      41.943  26.324  28.636  1.00  0.00    -0.354 N 
ATOM     42  C   UNL A   1      43.832  27.309  32.480  1.00  0.00     0.074 A 
ATOM     43  C   UNL A   1      42.547  27.605  33.066  1.00  0.00     0.031 C 
ATOM     44  C   UNL A   1      40.371  26.616  27.080  1.00  0.00     0.029 A 
ATOM     45  C   UNL A   1      41.202  25.605  27.711  1.00  0.00     0.049 A 
ATOM     46  H   UNL A   1      42.653  25.914  29.182  1.00  0.00     0.167 HD
ATOM     47  C   UNL A   1      44.820  26.477  32.898  1.00  0.00     0.031 A 
ATOM     48  C   UNL A   1      41.258  24.267  27.504  1.00  0.00     0.031 A 
ATOM     49  C   UNL A   1      45.901  26.396  31.949  1.00  0.00     0.049 A 
ATOM     50  C   UNL A   1      42.538  23.781  28.072  1.00  0.00     0.074 A 
ATOM     51  C   UNL A   1      46.757  27.314  31.370  1.00  0.00     0.029 A 
ATOM     52  N   UNL A   1      45.938  25.285  31.137  1.00  0.00    -0.354 N 
ATOM     53  N   UNL A   1      43.705  24.085  27.581  1.00  0.00    -0.248 NA
ATOM     54  C   UNL A   1      42.553  23.274  29.435  1.00  0.00     0.031 C 
ATOM     55  C   UNL A   1      46.899  26.889  30.015  1.00  0.00     0.029 A 
ATOM     56  C   UNL A   1      46.163  25.713  29.852  1.00  0.00     0.049 A 
ATOM     57  H   UNL A   1      45.824  24.350  31.426  1.00  0.00     0.167 HD
ATOM     58  C   UNL A   1      44.529  24.231  28.688  1.00  0.00     0.074 A 
ATOM     59  C   UNL A   1      43.804  23.591  29.781  1.00  0.00     0.031 C 
ATOM     60  C   UNL A   1      45.581  25.103  28.672  1.00  0.00     0.031 A 
BRANCH  47  61
ATOM     61  C   UNL A   1      44.609  25.456  33.973  1.00  0.00    -0.014 A 
ATOM     62  C   UNL A   1      45.364  25.544  35.150  1.00  0.00     0.009 A 
ATOM     63  C   UNL A   1      43.861  24.278  33.772  1.00  0.00     0.009 A 
ATOM     64  C   UNL A   1      45.381  24.492  36.072  1.00  0.00     0.001 A 
ATOM     65  C   UNL A   1      43.839  23.249  34.712  1.00  0.00     0.001 A 
ATOM     66  C   UNL A   1      44.617  23.349  35.855  1.00  0.00     0.000 A 
ENDBRANCH  47  61
BRANCH  48  67
ATOM     67  C   UNL A   1      40.200  23.345  27.046  1.00  0.00    -0.014 A 
ATOM     68  C   UNL A   1      38.909  23.811  26.755  1.00  0.00     0.009 A 
ATOM     69  C   UNL A   1      40.537  22.043  26.630  1.00  0.00     0.009 A 
ATOM     70  C   UNL A   1      38.003  23.019  26.036  1.00  0.00     0.001 A 
ATOM     71  C   UNL A   1      39.632  21.252  25.915  1.00  0.00     0.001 A 
ATOM     72  C   UNL A   1      38.369  21.747  25.603  1.00  0.00     0.000 A 
ENDBRANCH  48  67
BRANCH  60  73
ATOM     73  C   UNL A   1      45.984  25.685  27.336  1.00  0.00    -0.014 A 
ATOM     74  C   UNL A   1      46.928  25.078  26.486  1.00  0.00     0.009 A 
ATOM     75  C   UNL A   1      45.303  26.816  26.861  1.00  0.00     0.009 A 
ATOM     76  C   UNL A   1      47.210  25.608  25.223  1.00  0.00     0.001 A 
ATOM     77  C   UNL A   1      45.567  27.333  25.589  1.00  0.00     0.001 A 
ATOM     78  C   UNL A   1      46.525  26.735  24.774  1.00  0.00     0.000 A 
ENDBRANCH  60  73
ENDBRANCH  34  35
ENDBRANCH  26  29
ENDBRANCH  24  25
ENDBRANCH  23  24
ENDBRANCH  22  23
ENDBRANCH   1  22
TORSDOF 15
ENDMDL
