MODEL 1
REMARK VINA RESULT:      -9.5      0.000      0.000
REMARK SMILES COc1cc(C(=O)NCCCCCCNC(=O)c2ccc(-c3c4nc(c(-c5ccccc5)c5ccc([nH]5)c(-c5ccccc5)c5nc(c(-c6ccccc6)c6ccc3[nH]6)C=C5)C=C4)cc2)c([N+](=O)[O-])cc1OCC[NH+](C)C
REMARK SMILES IDX 10 1 9 2 8 3 6 4 7 5 5 7 3 8 4 9 71 10 70 11 66 12 2 13 1 14
REMARK SMILES IDX 72 15 73 16 74 17 75 18 76 19 77 20 67 22 68 23 69 24 11 25
REMARK SMILES IDX 12 26 13 27 14 28 15 29 16 30 17 32 18 33 19 34 65 35 20 36
REMARK SMILES IDX 64 37 21 38 22 39 23 40 58 41 24 42 63 43 57 44 59 45 25 46
REMARK SMILES IDX 62 47 56 48 55 49 26 51 48 52 33 53 47 54 34 55 37 56 46 57
REMARK SMILES IDX 60 58 35 59 36 60 45 62 61 63 38 64 27 65 28 66 32 67 29 68
REMARK SMILES IDX 31 69 30 70 49 71 50 72 54 73 51 74 53 75 52 76 39 77 40 78
REMARK SMILES IDX 44 79 41 80 43 81 42 82
REMARK H PARENT 8 6 75 21 15 31 59 50 37 61
REMARK Flexibility Score: inf
ROOT
ATOM      1  C   UNL A   1      33.170  29.128  25.463  1.00  0.00     0.021 C 
ENDROOT
BRANCH   1   2
ATOM      2  C   UNL A   1      33.325  28.553  24.062  1.00  0.00     0.116 C 
BRANCH   2   3
ATOM      3  N   UNL A   1      32.134  28.623  23.234  1.00  0.00    -0.352 N 
ATOM      4  C   UNL A   1      31.277  27.628  22.818  1.00  0.00     0.258 C 
ATOM      5  O   UNL A   1      30.315  27.913  22.111  1.00  0.00    -0.269 OA
ATOM      6  H   UNL A   1      31.903  29.526  22.920  1.00  0.00     0.163 HD
BRANCH   4   7
ATOM      7  C   UNL A   1      31.529  26.201  23.138  1.00  0.00     0.121 A 
ATOM      8  C   UNL A   1      31.150  24.339  24.679  1.00  0.00     0.162 A 
ATOM      9  C   UNL A   1      30.977  25.691  24.331  1.00  0.00     0.071 A 
ATOM     10  C   UNL A   1      31.842  23.484  23.813  1.00  0.00     0.168 A 
ATOM     11  C   UNL A   1      32.345  23.970  22.609  1.00  0.00     0.136 A 
ATOM     12  C   UNL A   1      32.265  25.335  22.331  1.00  0.00     0.286 A 
BRANCH   8  13
ATOM     13  O   UNL A   1      30.513  23.838  25.782  1.00  0.00    -0.493 OA
ATOM     14  C   UNL A   1      31.393  23.618  26.887  1.00  0.00     0.278 C 
ENDBRANCH   8  13
BRANCH  10  15
ATOM     15  O   UNL A   1      32.118  22.164  24.027  1.00  0.00    -0.484 OA
BRANCH  15  16
ATOM     16  C   UNL A   1      33.493  21.781  23.891  1.00  0.00     0.291 C 
BRANCH  16  17
ATOM     17  C   UNL A   1      34.447  22.011  25.100  1.00  0.00     0.303 C 
BRANCH  17  18
ATOM     18  N   UNL A   1      35.679  22.774  24.811  1.00  0.00    -0.337 N 
ATOM     19  C   UNL A   1      35.857  23.033  23.380  1.00  0.00     0.332 C 
ATOM     20  C   UNL A   1      35.702  24.060  25.516  1.00  0.00     0.332 C 
ATOM     21  H   UNL A   1      36.443  22.185  25.140  1.00  0.00     0.347 HD
ENDBRANCH  17  18
ENDBRANCH  16  17
ENDBRANCH  15  16
ENDBRANCH  10  15
BRANCH  12  22
ATOM     22  N   UNL A   1      33.106  25.825  21.256  1.00  0.00     0.063 N 
ATOM     23  O   UNL A   1      32.817  25.490  20.102  1.00  0.00    -0.258 OA
ATOM     24  O   UNL A   1      34.039  26.580  21.571  1.00  0.00    -0.258 OA
ENDBRANCH  12  22
ENDBRANCH   4   7
ENDBRANCH   2   3
ENDBRANCH   1   2
BRANCH   1  25
ATOM     25  C   UNL A   1      31.754  29.521  25.885  1.00  0.00     0.002 C 
BRANCH  25  26
ATOM     26  C   UNL A   1      31.347  30.983  25.677  1.00  0.00     0.002 C 
BRANCH  26  27
ATOM     27  C   UNL A   1      31.336  31.884  26.915  1.00  0.00     0.021 C 
BRANCH  27  28
ATOM     28  C   UNL A   1      32.601  32.695  27.170  1.00  0.00     0.116 C 
BRANCH  28  29
ATOM     29  N   UNL A   1      32.334  34.063  27.577  1.00  0.00    -0.352 N 
ATOM     30  C   UNL A   1      32.979  34.847  28.502  1.00  0.00     0.251 C 
ATOM     31  H   UNL A   1      31.576  34.493  27.119  1.00  0.00     0.163 HD
ATOM     32  O   UNL A   1      32.529  35.949  28.791  1.00  0.00    -0.269 OA
BRANCH  30  33
ATOM     33  C   UNL A   1      34.201  34.354  29.180  1.00  0.00     0.039 A 
ATOM     34  C   UNL A   1      34.065  33.706  30.411  1.00  0.00     0.014 A 
ATOM     35  C   UNL A   1      35.468  34.537  28.622  1.00  0.00     0.014 A 
ATOM     36  C   UNL A   1      35.194  33.186  31.050  1.00  0.00     0.010 A 
ATOM     37  C   UNL A   1      36.582  33.954  29.223  1.00  0.00     0.010 A 
ATOM     38  C   UNL A   1      36.457  33.274  30.444  1.00  0.00    -0.014 A 
BRANCH  38  39
ATOM     39  C   UNL A   1      37.652  32.651  31.071  1.00  0.00     0.031 A 
ATOM     40  C   UNL A   1      38.288  31.433  30.457  1.00  0.00     0.074 A 
ATOM     41  C   UNL A   1      38.132  33.148  32.229  1.00  0.00     0.049 A 
ATOM     42  N   UNL A   1      39.305  30.729  30.885  1.00  0.00    -0.248 NA
ATOM     43  C   UNL A   1      37.690  30.928  29.210  1.00  0.00     0.031 C 
ATOM     44  C   UNL A   1      37.584  34.298  32.949  1.00  0.00     0.029 A 
ATOM     45  N   UNL A   1      39.187  32.741  33.008  1.00  0.00    -0.354 N 
ATOM     46  C   UNL A   1      39.455  29.689  29.974  1.00  0.00     0.074 A 
ATOM     47  C   UNL A   1      38.398  29.829  28.996  1.00  0.00     0.031 C 
ATOM     48  C   UNL A   1      38.320  34.520  34.050  1.00  0.00     0.029 A 
ATOM     49  C   UNL A   1      39.364  33.504  34.137  1.00  0.00     0.049 A 
ATOM     50  H   UNL A   1      39.762  31.976  32.779  1.00  0.00     0.167 HD
ATOM     51  C   UNL A   1      40.397  28.717  29.943  1.00  0.00     0.031 A 
ATOM     52  C   UNL A   1      40.259  33.393  35.138  1.00  0.00     0.031 A 
ATOM     53  C   UNL A   1      41.453  28.583  30.912  1.00  0.00     0.049 A 
ATOM     54  C   UNL A   1      41.283  32.293  35.089  1.00  0.00     0.074 A 
ATOM     55  C   UNL A   1      42.493  27.669  30.930  1.00  0.00     0.029 A 
ATOM     56  N   UNL A   1      41.600  29.379  32.037  1.00  0.00    -0.354 N 
ATOM     57  N   UNL A   1      41.460  31.369  34.176  1.00  0.00    -0.248 NA
ATOM     58  C   UNL A   1      42.239  32.231  36.204  1.00  0.00     0.031 C 
ATOM     59  C   UNL A   1      43.232  27.872  32.099  1.00  0.00     0.029 A 
ATOM     60  C   UNL A   1      42.695  28.957  32.774  1.00  0.00     0.049 A 
ATOM     61  H   UNL A   1      41.015  30.133  32.276  1.00  0.00     0.167 HD
ATOM     62  C   UNL A   1      42.565  30.634  34.592  1.00  0.00     0.074 A 
ATOM     63  C   UNL A   1      43.026  31.233  35.827  1.00  0.00     0.031 C 
ATOM     64  C   UNL A   1      43.143  29.561  34.002  1.00  0.00     0.031 A 
BRANCH  51  65
ATOM     65  C   UNL A   1      40.321  27.706  28.831  1.00  0.00    -0.014 A 
ATOM     66  C   UNL A   1      39.584  26.519  28.972  1.00  0.00     0.009 A 
ATOM     67  C   UNL A   1      40.958  27.967  27.608  1.00  0.00     0.009 A 
ATOM     68  C   UNL A   1      39.517  25.598  27.923  1.00  0.00     0.001 A 
ATOM     69  C   UNL A   1      40.863  27.060  26.551  1.00  0.00     0.001 A 
ATOM     70  C   UNL A   1      40.152  25.873  26.712  1.00  0.00     0.000 A 
ENDBRANCH  51  65
BRANCH  52  71
ATOM     71  C   UNL A   1      40.230  34.351  36.276  1.00  0.00    -0.014 A 
ATOM     72  C   UNL A   1      39.483  34.070  37.430  1.00  0.00     0.009 A 
ATOM     73  C   UNL A   1      40.939  35.562  36.207  1.00  0.00     0.009 A 
ATOM     74  C   UNL A   1      39.419  34.994  38.476  1.00  0.00     0.001 A 
ATOM     75  C   UNL A   1      40.900  36.468  37.268  1.00  0.00     0.001 A 
ATOM     76  C   UNL A   1      40.131  36.190  38.396  1.00  0.00     0.000 A 
ENDBRANCH  52  71
BRANCH  64  77
ATOM     77  C   UNL A   1      44.365  28.986  34.664  1.00  0.00    -0.014 A 
ATOM     78  C   UNL A   1      44.270  27.946  35.601  1.00  0.00     0.009 A 
ATOM     79  C   UNL A   1      45.636  29.469  34.312  1.00  0.00     0.009 A 
ATOM     80  C   UNL A   1      45.421  27.427  36.198  1.00  0.00     0.001 A 
ATOM     81  C   UNL A   1      46.786  28.925  34.886  1.00  0.00     0.001 A 
ATOM     82  C   UNL A   1      46.677  27.913  35.836  1.00  0.00     0.000 A 
ENDBRANCH  64  77
ENDBRANCH  38  39
ENDBRANCH  30  33
ENDBRANCH  28  29
ENDBRANCH  27  28
ENDBRANCH  26  27
ENDBRANCH  25  26
ENDBRANCH   1  25
TORSDOF 19
ENDMDL
MODEL 2
REMARK VINA RESULT:      -9.5      4.052      9.106
REMARK SMILES COc1cc(C(=O)NCCCCCCNC(=O)c2ccc(-c3c4nc(c(-c5ccccc5)c5ccc([nH]5)c(-c5ccccc5)c5nc(c(-c6ccccc6)c6ccc3[nH]6)C=C5)C=C4)cc2)c([N+](=O)[O-])cc1OCC[NH+](C)C
REMARK SMILES IDX 10 1 9 2 8 3 6 4 7 5 5 7 3 8 4 9 71 10 70 11 66 12 2 13 1 14
REMARK SMILES IDX 72 15 73 16 74 17 75 18 76 19 77 20 67 22 68 23 69 24 11 25
REMARK SMILES IDX 12 26 13 27 14 28 15 29 16 30 17 32 18 33 19 34 65 35 20 36
REMARK SMILES IDX 64 37 21 38 22 39 23 40 58 41 24 42 63 43 57 44 59 45 25 46
REMARK SMILES IDX 62 47 56 48 55 49 26 51 48 52 33 53 47 54 34 55 37 56 46 57
REMARK SMILES IDX 60 58 35 59 36 60 45 62 61 63 38 64 27 65 28 66 32 67 29 68
REMARK SMILES IDX 31 69 30 70 49 71 50 72 54 73 51 74 53 75 52 76 39 77 40 78
REMARK SMILES IDX 44 79 41 80 43 81 42 82
REMARK H PARENT 8 6 75 21 15 31 59 50 37 61
REMARK Flexibility Score: inf
ROOT
ATOM      1  C   UNL A   1      36.981  23.037  25.310  1.00  0.00     0.021 C 
ENDROOT
BRANCH   1   2
ATOM      2  C   UNL A   1      35.855  22.404  26.115  1.00  0.00     0.116 C 
BRANCH   2   3
ATOM      3  N   UNL A   1      35.214  21.263  25.485  1.00  0.00    -0.352 N 
ATOM      4  C   UNL A   1      33.958  21.138  24.933  1.00  0.00     0.258 C 
ATOM      5  O   UNL A   1      33.614  20.065  24.445  1.00  0.00    -0.269 OA
ATOM      6  H   UNL A   1      35.766  20.449  25.445  1.00  0.00     0.163 HD
BRANCH   4   7
ATOM      7  C   UNL A   1      32.974  22.247  24.983  1.00  0.00     0.121 A 
ATOM      8  C   UNL A   1      31.176  23.350  26.221  1.00  0.00     0.162 A 
ATOM      9  C   UNL A   1      32.110  22.307  26.096  1.00  0.00     0.071 A 
ATOM     10  C   UNL A   1      31.130  24.360  25.253  1.00  0.00     0.168 A 
ATOM     11  C   UNL A   1      32.015  24.335  24.178  1.00  0.00     0.136 A 
ATOM     12  C   UNL A   1      32.857  23.235  24.006  1.00  0.00     0.286 A 
BRANCH   8  13
ATOM     13  O   UNL A   1      30.425  23.452  27.362  1.00  0.00    -0.493 OA
ATOM     14  C   UNL A   1      29.213  22.697  27.305  1.00  0.00     0.278 C 
ENDBRANCH   8  13
BRANCH  10  15
ATOM     15  O   UNL A   1      30.261  25.413  25.221  1.00  0.00    -0.484 OA
BRANCH  15  16
ATOM     16  C   UNL A   1      29.726  25.745  23.933  1.00  0.00     0.291 C 
BRANCH  16  17
ATOM     17  C   UNL A   1      29.503  27.247  23.590  1.00  0.00     0.303 C 
BRANCH  17  18
ATOM     18  N   UNL A   1      30.642  28.146  23.869  1.00  0.00    -0.337 N 
ATOM     19  C   UNL A   1      31.795  27.877  23.005  1.00  0.00     0.332 C 
ATOM     20  C   UNL A   1      30.274  29.557  23.714  1.00  0.00     0.332 C 
ATOM     21  H   UNL A   1      30.901  27.960  24.837  1.00  0.00     0.347 HD
ENDBRANCH  17  18
ENDBRANCH  16  17
ENDBRANCH  15  16
ENDBRANCH  10  15
BRANCH  12  22
ATOM     22  N   UNL A   1      33.483  23.099  22.706  1.00  0.00     0.063 N 
ATOM     23  O   UNL A   1      34.632  23.535  22.572  1.00  0.00    -0.258 OA
ATOM     24  O   UNL A   1      32.830  22.519  21.825  1.00  0.00    -0.258 OA
ENDBRANCH  12  22
ENDBRANCH   4   7
ENDBRANCH   2   3
ENDBRANCH   1   2
BRANCH   1  25
ATOM     25  C   UNL A   1      38.192  23.529  26.103  1.00  0.00     0.002 C 
BRANCH  25  26
ATOM     26  C   UNL A   1      39.260  22.490  26.459  1.00  0.00     0.002 C 
BRANCH  26  27
ATOM     27  C   UNL A   1      39.238  21.175  25.676  1.00  0.00     0.021 C 
BRANCH  27  28
ATOM     28  C   UNL A   1      39.659  19.927  26.443  1.00  0.00     0.116 C 
BRANCH  28  29
ATOM     29  N   UNL A   1      40.846  19.292  25.898  1.00  0.00    -0.352 N 
ATOM     30  C   UNL A   1      42.129  19.771  25.791  1.00  0.00     0.251 C 
ATOM     31  H   UNL A   1      40.710  18.379  25.554  1.00  0.00     0.163 HD
ATOM     32  O   UNL A   1      42.977  19.123  25.191  1.00  0.00    -0.269 OA
BRANCH  30  33
ATOM     33  C   UNL A   1      42.487  21.086  26.371  1.00  0.00     0.039 A 
ATOM     34  C   UNL A   1      42.851  22.120  25.504  1.00  0.00     0.014 A 
ATOM     35  C   UNL A   1      42.479  21.302  27.751  1.00  0.00     0.014 A 
ATOM     36  C   UNL A   1      43.145  23.386  26.017  1.00  0.00     0.010 A 
ATOM     37  C   UNL A   1      42.701  22.583  28.255  1.00  0.00     0.010 A 
ATOM     38  C   UNL A   1      43.038  23.638  27.394  1.00  0.00    -0.014 A 
BRANCH  38  39
ATOM     39  C   UNL A   1      43.265  24.999  27.944  1.00  0.00     0.031 A 
ATOM     40  C   UNL A   1      44.644  25.431  28.365  1.00  0.00     0.074 A 
ATOM     41  C   UNL A   1      42.218  25.830  28.119  1.00  0.00     0.049 A 
ATOM     42  N   UNL A   1      45.026  26.561  28.905  1.00  0.00    -0.248 NA
ATOM     43  C   UNL A   1      45.733  24.460  28.173  1.00  0.00     0.031 C 
ATOM     44  C   UNL A   1      40.826  25.519  27.791  1.00  0.00     0.029 A 
ATOM     45  N   UNL A   1      42.163  27.105  28.626  1.00  0.00    -0.354 N 
ATOM     46  C   UNL A   1      46.390  26.428  29.136  1.00  0.00     0.074 A 
ATOM     47  C   UNL A   1      46.761  25.093  28.719  1.00  0.00     0.031 C 
ATOM     48  C   UNL A   1      40.058  26.582  28.081  1.00  0.00     0.029 A 
ATOM     49  C   UNL A   1      40.894  27.631  28.655  1.00  0.00     0.049 A 
ATOM     50  H   UNL A   1      42.956  27.595  28.939  1.00  0.00     0.167 HD
ATOM     51  C   UNL A   1      47.260  27.340  29.633  1.00  0.00     0.031 A 
ATOM     52  C   UNL A   1      40.448  28.821  29.104  1.00  0.00     0.031 A 
ATOM     53  C   UNL A   1      46.892  28.670  30.040  1.00  0.00     0.049 A 
ATOM     54  C   UNL A   1      41.432  29.808  29.668  1.00  0.00     0.074 A 
ATOM     55  C   UNL A   1      47.713  29.687  30.497  1.00  0.00     0.029 A 
ATOM     56  N   UNL A   1      45.598  29.165  30.048  1.00  0.00    -0.354 N 
ATOM     57  N   UNL A   1      42.732  29.695  29.802  1.00  0.00    -0.248 NA
ATOM     58  C   UNL A   1      40.888  31.093  30.131  1.00  0.00     0.031 C 
ATOM     59  C   UNL A   1      46.907  30.777  30.841  1.00  0.00     0.029 A 
ATOM     60  C   UNL A   1      45.593  30.463  30.533  1.00  0.00     0.049 A 
ATOM     61  H   UNL A   1      44.801  28.669  29.753  1.00  0.00     0.167 HD
ATOM     62  C   UNL A   1      43.163  30.903  30.337  1.00  0.00     0.074 A 
ATOM     63  C   UNL A   1      41.990  31.740  30.483  1.00  0.00     0.031 C 
ATOM     64  C   UNL A   1      44.418  31.284  30.675  1.00  0.00     0.031 A 
BRANCH  51  65
ATOM     65  C   UNL A   1      48.699  26.923  29.780  1.00  0.00    -0.014 A 
ATOM     66  C   UNL A   1      49.169  26.325  30.961  1.00  0.00     0.009 A 
ATOM     67  C   UNL A   1      49.585  27.090  28.705  1.00  0.00     0.009 A 
ATOM     68  C   UNL A   1      50.506  25.937  31.073  1.00  0.00     0.001 A 
ATOM     69  C   UNL A   1      50.913  26.672  28.809  1.00  0.00     0.001 A 
ATOM     70  C   UNL A   1      51.375  26.106  29.995  1.00  0.00     0.000 A 
ENDBRANCH  51  65
BRANCH  52  71
ATOM     71  C   UNL A   1      38.999  29.149  29.039  1.00  0.00    -0.014 A 
ATOM     72  C   UNL A   1      38.173  28.969  30.158  1.00  0.00     0.009 A 
ATOM     73  C   UNL A   1      38.430  29.632  27.848  1.00  0.00     0.009 A 
ATOM     74  C   UNL A   1      36.803  29.232  30.079  1.00  0.00     0.001 A 
ATOM     75  C   UNL A   1      37.067  29.926  27.781  1.00  0.00     0.001 A 
ATOM     76  C   UNL A   1      36.252  29.714  28.893  1.00  0.00     0.000 A 
ENDBRANCH  52  71
BRANCH  64  77
ATOM     77  C   UNL A   1      44.596  32.682  31.202  1.00  0.00    -0.014 A 
ATOM     78  C   UNL A   1      44.547  32.959  32.576  1.00  0.00     0.009 A 
ATOM     79  C   UNL A   1      44.856  33.732  30.306  1.00  0.00     0.009 A 
ATOM     80  C   UNL A   1      44.720  34.265  33.040  1.00  0.00     0.001 A 
ATOM     81  C   UNL A   1      45.060  35.030  30.775  1.00  0.00     0.001 A 
ATOM     82  C   UNL A   1      44.981  35.297  32.140  1.00  0.00     0.000 A 
ENDBRANCH  64  77
ENDBRANCH  38  39
ENDBRANCH  30  33
ENDBRANCH  28  29
ENDBRANCH  27  28
ENDBRANCH  26  27
ENDBRANCH  25  26
ENDBRANCH   1  25
TORSDOF 19
ENDMDL
MODEL 3
REMARK VINA RESULT:      -9.5      4.526      9.859
REMARK SMILES COc1cc(C(=O)NCCCCCCNC(=O)c2ccc(-c3c4nc(c(-c5ccccc5)c5ccc([nH]5)c(-c5ccccc5)c5nc(c(-c6ccccc6)c6ccc3[nH]6)C=C5)C=C4)cc2)c([N+](=O)[O-])cc1OCC[NH+](C)C
REMARK SMILES IDX 10 1 9 2 8 3 6 4 7 5 5 7 3 8 4 9 71 10 70 11 66 12 2 13 1 14
REMARK SMILES IDX 72 15 73 16 74 17 75 18 76 19 77 20 67 22 68 23 69 24 11 25
REMARK SMILES IDX 12 26 13 27 14 28 15 29 16 30 17 32 18 33 19 34 65 35 20 36
REMARK SMILES IDX 64 37 21 38 22 39 23 40 58 41 24 42 63 43 57 44 59 45 25 46
REMARK SMILES IDX 62 47 56 48 55 49 26 51 48 52 33 53 47 54 34 55 37 56 46 57
REMARK SMILES IDX 60 58 35 59 36 60 45 62 61 63 38 64 27 65 28 66 32 67 29 68
REMARK SMILES IDX 31 69 30 70 49 71 50 72 54 73 51 74 53 75 52 76 39 77 40 78
REMARK SMILES IDX 44 79 41 80 43 81 42 82
REMARK H PARENT 8 6 75 21 15 31 59 50 37 61
REMARK Flexibility Score: inf
ROOT
ATOM      1  C   UNL A   1      35.885  22.830  25.740  1.00  0.00     0.021 C 
ENDROOT
BRANCH   1   2
ATOM      2  C   UNL A   1      34.508  22.947  26.376  1.00  0.00     0.116 C 
BRANCH   2   3
ATOM      3  N   UNL A   1      33.591  21.865  26.063  1.00  0.00    -0.352 N 
ATOM      4  C   UNL A   1      32.408  21.873  25.357  1.00  0.00     0.258 C 
ATOM      5  O   UNL A   1      31.784  20.827  25.208  1.00  0.00    -0.269 OA
ATOM      6  H   UNL A   1      33.860  20.983  26.409  1.00  0.00     0.163 HD
BRANCH   4   7
ATOM      7  C   UNL A   1      31.824  23.134  24.837  1.00  0.00     0.121 A 
ATOM      8  C   UNL A   1      31.703  24.742  22.997  1.00  0.00     0.162 A 
ATOM      9  C   UNL A   1      32.242  23.573  23.564  1.00  0.00     0.071 A 
ATOM     10  C   UNL A   1      30.713  25.453  23.686  1.00  0.00     0.168 A 
ATOM     11  C   UNL A   1      30.259  24.997  24.920  1.00  0.00     0.136 A 
ATOM     12  C   UNL A   1      30.882  23.901  25.521  1.00  0.00     0.286 A 
BRANCH   8  13
ATOM     13  O   UNL A   1      32.040  25.089  21.716  1.00  0.00    -0.493 OA
ATOM     14  C   UNL A   1      33.382  25.566  21.598  1.00  0.00     0.278 C 
ENDBRANCH   8  13
BRANCH  10  15
ATOM     15  O   UNL A   1      30.123  26.616  23.283  1.00  0.00    -0.484 OA
BRANCH  15  16
ATOM     16  C   UNL A   1      30.123  27.684  24.240  1.00  0.00     0.291 C 
BRANCH  16  17
ATOM     17  C   UNL A   1      30.375  29.133  23.729  1.00  0.00     0.303 C 
BRANCH  17  18
ATOM     18  N   UNL A   1      31.761  29.627  23.854  1.00  0.00    -0.337 N 
ATOM     19  C   UNL A   1      32.244  29.606  25.238  1.00  0.00     0.332 C 
ATOM     20  C   UNL A   1      32.694  28.849  23.031  1.00  0.00     0.332 C 
ATOM     21  H   UNL A   1      31.733  30.592  23.527  1.00  0.00     0.347 HD
ENDBRANCH  17  18
ENDBRANCH  16  17
ENDBRANCH  15  16
ENDBRANCH  10  15
BRANCH  12  22
ATOM     22  N   UNL A   1      30.612  23.699  26.931  1.00  0.00     0.063 N 
ATOM     23  O   UNL A   1      31.568  23.426  27.665  1.00  0.00    -0.258 OA
ATOM     24  O   UNL A   1      29.440  23.852  27.307  1.00  0.00    -0.258 OA
ENDBRANCH  12  22
ENDBRANCH   4   7
ENDBRANCH   2   3
ENDBRANCH   1   2
BRANCH   1  25
ATOM     25  C   UNL A   1      36.034  21.796  24.623  1.00  0.00     0.002 C 
BRANCH  25  26
ATOM     26  C   UNL A   1      36.428  20.375  25.038  1.00  0.00     0.002 C 
BRANCH  26  27
ATOM     27  C   UNL A   1      37.851  19.922  24.700  1.00  0.00     0.021 C 
BRANCH  27  28
ATOM     28  C   UNL A   1      38.920  20.218  25.746  1.00  0.00     0.116 C 
BRANCH  28  29
ATOM     29  N   UNL A   1      39.949  19.197  25.818  1.00  0.00    -0.352 N 
ATOM     30  C   UNL A   1      41.285  19.315  26.119  1.00  0.00     0.251 C 
ATOM     31  H   UNL A   1      39.644  18.282  25.622  1.00  0.00     0.163 HD
ATOM     32  O   UNL A   1      42.025  18.344  26.015  1.00  0.00    -0.269 OA
BRANCH  30  33
ATOM     33  C   UNL A   1      41.845  20.621  26.538  1.00  0.00     0.039 A 
ATOM     34  C   UNL A   1      42.210  21.538  25.549  1.00  0.00     0.014 A 
ATOM     35  C   UNL A   1      42.024  20.938  27.887  1.00  0.00     0.014 A 
ATOM     36  C   UNL A   1      42.694  22.797  25.914  1.00  0.00     0.010 A 
ATOM     37  C   UNL A   1      42.437  22.220  28.250  1.00  0.00     0.010 A 
ATOM     38  C   UNL A   1      42.778  23.162  27.267  1.00  0.00    -0.014 A 
BRANCH  38  39
ATOM     39  C   UNL A   1      43.210  24.526  27.668  1.00  0.00     0.031 A 
ATOM     40  C   UNL A   1      42.192  25.570  28.039  1.00  0.00     0.074 A 
ATOM     41  C   UNL A   1      44.520  24.844  27.641  1.00  0.00     0.049 A 
ATOM     42  N   UNL A   1      42.378  26.823  28.370  1.00  0.00    -0.248 NA
ATOM     43  C   UNL A   1      40.779  25.159  28.015  1.00  0.00     0.031 C 
ATOM     44  C   UNL A   1      45.605  23.938  27.261  1.00  0.00     0.029 A 
ATOM     45  N   UNL A   1      45.160  26.024  27.933  1.00  0.00    -0.354 N 
ATOM     46  C   UNL A   1      41.109  27.353  28.573  1.00  0.00     0.074 A 
ATOM     47  C   UNL A   1      40.160  26.299  28.284  1.00  0.00     0.031 C 
ATOM     48  C   UNL A   1      46.776  24.586  27.366  1.00  0.00     0.029 A 
ATOM     49  C   UNL A   1      46.524  25.963  27.778  1.00  0.00     0.049 A 
ATOM     50  H   UNL A   1      44.687  26.836  28.225  1.00  0.00     0.167 HD
ATOM     51  C   UNL A   1      40.764  28.598  28.981  1.00  0.00     0.031 A 
ATOM     52  C   UNL A   1      47.467  26.911  27.938  1.00  0.00     0.031 A 
ATOM     53  C   UNL A   1      41.708  29.643  29.276  1.00  0.00     0.049 A 
ATOM     54  C   UNL A   1      47.056  28.290  28.373  1.00  0.00     0.074 A 
ATOM     55  C   UNL A   1      41.458  30.917  29.755  1.00  0.00     0.029 A 
ATOM     56  N   UNL A   1      43.080  29.538  29.111  1.00  0.00    -0.354 N 
ATOM     57  N   UNL A   1      45.857  28.750  28.639  1.00  0.00    -0.248 NA
ATOM     58  C   UNL A   1      48.131  29.279  28.542  1.00  0.00     0.031 C 
ATOM     59  C   UNL A   1      42.673  31.605  29.822  1.00  0.00     0.029 A 
ATOM     60  C   UNL A   1      43.688  30.737  29.449  1.00  0.00     0.049 A 
ATOM     61  H   UNL A   1      43.552  28.733  28.801  1.00  0.00     0.167 HD
ATOM     62  C   UNL A   1      46.037  30.070  29.035  1.00  0.00     0.074 A 
ATOM     63  C   UNL A   1      47.461  30.330  28.992  1.00  0.00     0.031 C 
ATOM     64  C   UNL A   1      45.106  30.983  29.401  1.00  0.00     0.031 A 
BRANCH  51  65
ATOM     65  C   UNL A   1      39.297  28.905  29.117  1.00  0.00    -0.014 A 
ATOM     66  C   UNL A   1      38.627  28.742  30.340  1.00  0.00     0.009 A 
ATOM     67  C   UNL A   1      38.586  29.409  28.017  1.00  0.00     0.009 A 
ATOM     68  C   UNL A   1      37.266  29.043  30.448  1.00  0.00     0.001 A 
ATOM     69  C   UNL A   1      37.234  29.739  28.136  1.00  0.00     0.001 A 
ATOM     70  C   UNL A   1      36.574  29.546  29.347  1.00  0.00     0.000 A 
ENDBRANCH  51  65
BRANCH  52  71
ATOM     71  C   UNL A   1      48.898  26.592  27.687  1.00  0.00    -0.014 A 
ATOM     72  C   UNL A   1      49.445  26.718  26.401  1.00  0.00     0.009 A 
ATOM     73  C   UNL A   1      49.722  26.143  28.733  1.00  0.00     0.009 A 
ATOM     74  C   UNL A   1      50.777  26.370  26.160  1.00  0.00     0.001 A 
ATOM     75  C   UNL A   1      51.062  25.829  28.495  1.00  0.00     0.001 A 
ATOM     76  C   UNL A   1      51.585  25.931  27.207  1.00  0.00     0.000 A 
ENDBRANCH  52  71
BRANCH  64  77
ATOM     77  C   UNL A   1      45.599  32.340  29.822  1.00  0.00    -0.014 A 
ATOM     78  C   UNL A   1      45.978  32.603  31.148  1.00  0.00     0.009 A 
ATOM     79  C   UNL A   1      45.724  33.360  28.865  1.00  0.00     0.009 A 
ATOM     80  C   UNL A   1      46.437  33.871  31.513  1.00  0.00     0.001 A 
ATOM     81  C   UNL A   1      46.214  34.616  29.226  1.00  0.00     0.001 A 
ATOM     82  C   UNL A   1      46.559  34.873  30.551  1.00  0.00     0.000 A 
ENDBRANCH  64  77
ENDBRANCH  38  39
ENDBRANCH  30  33
ENDBRANCH  28  29
ENDBRANCH  27  28
ENDBRANCH  26  27
ENDBRANCH  25  26
ENDBRANCH   1  25
TORSDOF 19
ENDMDL
