MODEL 1
REMARK VINA RESULT:     -10.6      0.000      0.000
REMARK SMILES [NH3+][C@H](CC1=c2cccc(O)c2=NC1)C(=O)NCCCCCCNC(=O)c1ccc(-c2c3nc(c(-c4ccccc4)c4ccc([nH]4)c(-c4ccccc4)c4nc(c(-c5ccccc5)c5ccc2[nH]5)C=C4)C=C3)cc1
REMARK SMILES IDX 19 1 18 2 17 3 16 4 14 5 15 6 2 8 1 9 3 13 4 14 5 15 13 16
REMARK SMILES IDX 6 17 11 18 12 19 7 20 9 21 8 22 10 23 20 25 21 26 22 27
REMARK SMILES IDX 23 28 24 29 25 31 26 32 27 33 73 34 28 35 72 36 29 37 30 38
REMARK SMILES IDX 31 39 66 40 32 41 71 42 65 43 67 44 33 45 70 46 64 47 63 48
REMARK SMILES IDX 34 50 56 51 41 52 55 53 42 54 45 55 54 56 68 57 43 58 44 59
REMARK SMILES IDX 53 61 69 62 46 63 35 64 36 65 40 66 37 67 39 68 38 69 57 70
REMARK SMILES IDX 58 71 62 72 59 73 61 74 60 75 47 76 48 77 52 78 49 79 51 80
REMARK SMILES IDX 50 81
REMARK H PARENT 16 7 1 10 1 11 1 12 10 24 23 30 67 49 45 60
REMARK Flexibility Score: inf
ROOT
ATOM      1  C   UNL A   1      36.841  21.812  24.540  1.00  0.00     0.002 C 
ENDROOT
BRANCH   1   2
ATOM      2  C   UNL A   1      35.947  22.871  25.197  1.00  0.00     0.021 C 
BRANCH   2   3
ATOM      3  C   UNL A   1      35.636  24.062  24.289  1.00  0.00     0.116 C 
BRANCH   3   4
ATOM      4  N   UNL A   1      34.296  24.551  24.544  1.00  0.00    -0.351 N 
ATOM      5  C   UNL A   1      33.108  24.279  23.932  1.00  0.00     0.278 C 
ATOM      6  O   UNL A   1      32.136  24.973  24.248  1.00  0.00    -0.268 OA
ATOM      7  H   UNL A   1      34.232  25.192  25.289  1.00  0.00     0.163 HD
BRANCH   5   8
ATOM      8  C   UNL A   1      32.970  23.148  22.891  1.00  0.00     0.275 C 
BRANCH   8   9
ATOM      9  N   UNL A   1      32.886  23.742  21.542  1.00  0.00    -0.347 N 
ATOM     10  H   UNL A   1      32.760  23.002  20.852  1.00  0.00     0.345 HD
ATOM     11  H   UNL A   1      33.747  24.251  21.341  1.00  0.00     0.345 HD
ATOM     12  H   UNL A   1      32.095  24.384  21.502  1.00  0.00     0.345 HD
ENDBRANCH   8   9
BRANCH   8  13
ATOM     13  C   UNL A   1      31.876  22.133  23.293  1.00  0.00     0.109 C 
BRANCH  13  14
ATOM     14  C   UNL A   1      32.323  20.984  24.147  1.00  0.00    -0.033 C 
ATOM     15  C   UNL A   1      32.528  19.720  23.783  1.00  0.00     0.005 A 
ATOM     16  C   UNL A   1      32.729  21.180  25.580  1.00  0.00     0.175 C 
ATOM     17  C   UNL A   1      32.411  18.998  22.559  1.00  0.00     0.010 A 
ATOM     18  C   UNL A   1      33.008  19.082  25.024  1.00  0.00     0.107 A 
ATOM     19  N   UNL A   1      33.148  19.850  26.065  1.00  0.00    -0.276 NA
ATOM     20  C   UNL A   1      32.718  17.691  22.548  1.00  0.00     0.005 A 
ATOM     21  C   UNL A   1      33.280  17.614  24.947  1.00  0.00     0.141 A 
ATOM     22  C   UNL A   1      33.133  16.997  23.759  1.00  0.00     0.048 A 
BRANCH  21  23
ATOM     23  O   UNL A   1      33.657  16.954  26.097  1.00  0.00    -0.506 OA
ATOM     24  H   UNL A   1      33.004  16.623  26.683  1.00  0.00     0.293 HD
ENDBRANCH  21  23
ENDBRANCH  13  14
ENDBRANCH   8  13
ENDBRANCH   5   8
ENDBRANCH   3   4
ENDBRANCH   2   3
ENDBRANCH   1   2
BRANCH   1  25
ATOM     25  C   UNL A   1      36.565  20.371  24.986  1.00  0.00     0.002 C 
BRANCH  25  26
ATOM     26  C   UNL A   1      37.789  19.453  24.982  1.00  0.00     0.021 C 
BRANCH  26  27
ATOM     27  C   UNL A   1      39.020  20.054  25.651  1.00  0.00     0.116 C 
BRANCH  27  28
ATOM     28  N   UNL A   1      40.056  19.056  25.857  1.00  0.00    -0.352 N 
ATOM     29  C   UNL A   1      41.390  19.252  26.118  1.00  0.00     0.251 C 
ATOM     30  H   UNL A   1      39.764  18.117  25.805  1.00  0.00     0.163 HD
ATOM     31  O   UNL A   1      42.189  18.329  26.059  1.00  0.00    -0.269 OA
BRANCH  29  32
ATOM     32  C   UNL A   1      41.849  20.609  26.468  1.00  0.00     0.039 A 
ATOM     33  C   UNL A   1      42.223  21.485  25.448  1.00  0.00     0.014 A 
ATOM     34  C   UNL A   1      41.898  21.006  27.808  1.00  0.00     0.014 A 
ATOM     35  C   UNL A   1      42.619  22.781  25.771  1.00  0.00     0.010 A 
ATOM     36  C   UNL A   1      42.245  22.315  28.125  1.00  0.00     0.010 A 
ATOM     37  C   UNL A   1      42.624  23.205  27.110  1.00  0.00    -0.014 A 
BRANCH  37  38
ATOM     38  C   UNL A   1      43.081  24.564  27.471  1.00  0.00     0.031 A 
ATOM     39  C   UNL A   1      42.071  25.610  27.842  1.00  0.00     0.074 A 
ATOM     40  C   UNL A   1      44.391  24.867  27.430  1.00  0.00     0.049 A 
ATOM     41  N   UNL A   1      42.268  26.856  28.188  1.00  0.00    -0.248 NA
ATOM     42  C   UNL A   1      40.655  25.210  27.801  1.00  0.00     0.031 C 
ATOM     43  C   UNL A   1      45.462  23.944  27.052  1.00  0.00     0.029 A 
ATOM     44  N   UNL A   1      45.042  26.041  27.711  1.00  0.00    -0.354 N 
ATOM     45  C   UNL A   1      41.004  27.388  28.394  1.00  0.00     0.074 A 
ATOM     46  C   UNL A   1      40.045  26.349  28.094  1.00  0.00     0.031 C 
ATOM     47  C   UNL A   1      46.640  24.581  27.150  1.00  0.00     0.029 A 
ATOM     48  C   UNL A   1      46.404  25.958  27.578  1.00  0.00     0.049 A 
ATOM     49  H   UNL A   1      44.575  26.865  27.984  1.00  0.00     0.167 HD
ATOM     50  C   UNL A   1      40.672  28.630  28.816  1.00  0.00     0.031 A 
ATOM     51  C   UNL A   1      47.359  26.885  27.781  1.00  0.00     0.031 A 
ATOM     52  C   UNL A   1      41.624  29.653  29.139  1.00  0.00     0.049 A 
ATOM     53  C   UNL A   1      46.970  28.261  28.236  1.00  0.00     0.074 A 
ATOM     54  C   UNL A   1      41.387  30.911  29.662  1.00  0.00     0.029 A 
ATOM     55  N   UNL A   1      42.993  29.536  28.966  1.00  0.00    -0.354 N 
ATOM     56  N   UNL A   1      45.774  28.730  28.499  1.00  0.00    -0.248 NA
ATOM     57  C   UNL A   1      48.055  29.236  28.425  1.00  0.00     0.031 C 
ATOM     58  C   UNL A   1      42.613  31.575  29.761  1.00  0.00     0.029 A 
ATOM     59  C   UNL A   1      43.614  30.715  29.338  1.00  0.00     0.049 A 
ATOM     60  H   UNL A   1      43.455  28.735  28.629  1.00  0.00     0.167 HD
ATOM     61  C   UNL A   1      45.961  30.048  28.892  1.00  0.00     0.074 A 
ATOM     62  C   UNL A   1      47.386  30.305  28.840  1.00  0.00     0.031 C 
ATOM     63  C   UNL A   1      45.031  30.959  29.265  1.00  0.00     0.031 A 
BRANCH  50  64
ATOM     64  C   UNL A   1      39.213  28.946  28.955  1.00  0.00    -0.014 A 
ATOM     65  C   UNL A   1      38.540  28.730  30.168  1.00  0.00     0.009 A 
ATOM     66  C   UNL A   1      38.515  29.506  27.875  1.00  0.00     0.009 A 
ATOM     67  C   UNL A   1      37.186  29.048  30.286  1.00  0.00     0.001 A 
ATOM     68  C   UNL A   1      37.167  29.841  28.004  1.00  0.00     0.001 A 
ATOM     69  C   UNL A   1      36.502  29.607  29.207  1.00  0.00     0.000 A 
ENDBRANCH  50  64
BRANCH  51  70
ATOM     70  C   UNL A   1      48.779  26.509  27.582  1.00  0.00    -0.014 A 
ATOM     71  C   UNL A   1      49.512  25.945  28.637  1.00  0.00     0.009 A 
ATOM     72  C   UNL A   1      49.381  26.631  26.320  1.00  0.00     0.009 A 
ATOM     73  C   UNL A   1      50.821  25.506  28.430  1.00  0.00     0.001 A 
ATOM     74  C   UNL A   1      50.686  26.178  26.114  1.00  0.00     0.001 A 
ATOM     75  C   UNL A   1      51.404  25.615  27.168  1.00  0.00     0.000 A 
ENDBRANCH  51  70
BRANCH  63  76
ATOM     76  C   UNL A   1      45.501  32.334  29.637  1.00  0.00    -0.014 A 
ATOM     77  C   UNL A   1      45.924  32.611  30.944  1.00  0.00     0.009 A 
ATOM     78  C   UNL A   1      45.654  33.313  28.642  1.00  0.00     0.009 A 
ATOM     79  C   UNL A   1      46.497  33.847  31.250  1.00  0.00     0.001 A 
ATOM     80  C   UNL A   1      46.243  34.540  28.948  1.00  0.00     0.001 A 
ATOM     81  C   UNL A   1      46.666  34.806  30.250  1.00  0.00     0.000 A 
ENDBRANCH  63  76
ENDBRANCH  37  38
ENDBRANCH  29  32
ENDBRANCH  27  28
ENDBRANCH  26  27
ENDBRANCH  25  26
ENDBRANCH   1  25
TORSDOF 17
ENDMDL
MODEL 2
REMARK VINA RESULT:     -10.6      1.442      6.165
REMARK SMILES [NH3+][C@H](CC1=c2cccc(O)c2=NC1)C(=O)NCCCCCCNC(=O)c1ccc(-c2c3nc(c(-c4ccccc4)c4ccc([nH]4)c(-c4ccccc4)c4nc(c(-c5ccccc5)c5ccc2[nH]5)C=C4)C=C3)cc1
REMARK SMILES IDX 19 1 18 2 17 3 16 4 14 5 15 6 2 8 1 9 3 13 4 14 5 15 13 16
REMARK SMILES IDX 6 17 11 18 12 19 7 20 9 21 8 22 10 23 20 25 21 26 22 27
REMARK SMILES IDX 23 28 24 29 25 31 26 32 27 33 73 34 28 35 72 36 29 37 30 38
REMARK SMILES IDX 31 39 66 40 32 41 71 42 65 43 67 44 33 45 70 46 64 47 63 48
REMARK SMILES IDX 34 50 56 51 41 52 55 53 42 54 45 55 54 56 68 57 43 58 44 59
REMARK SMILES IDX 53 61 69 62 46 63 35 64 36 65 40 66 37 67 39 68 38 69 57 70
REMARK SMILES IDX 58 71 62 72 59 73 61 74 60 75 47 76 48 77 52 78 49 79 51 80
REMARK SMILES IDX 50 81
REMARK H PARENT 16 7 1 10 1 11 1 12 10 24 23 30 67 49 45 60
REMARK Flexibility Score: inf
ROOT
ATOM      1  C   UNL A   1      36.077  21.406  24.397  1.00  0.00     0.002 C 
ENDROOT
BRANCH   1   2
ATOM      2  C   UNL A   1      36.016  22.566  25.399  1.00  0.00     0.021 C 
BRANCH   2   3
ATOM      3  C   UNL A   1      35.954  23.944  24.740  1.00  0.00     0.116 C 
BRANCH   3   4
ATOM      4  N   UNL A   1      35.137  24.842  25.530  1.00  0.00    -0.351 N 
ATOM      5  C   UNL A   1      33.814  25.163  25.447  1.00  0.00     0.278 C 
ATOM      6  O   UNL A   1      33.411  26.096  26.150  1.00  0.00    -0.268 OA
ATOM      7  H   UNL A   1      35.621  25.302  26.254  1.00  0.00     0.163 HD
BRANCH   5   8
ATOM      8  C   UNL A   1      32.849  24.393  24.521  1.00  0.00     0.275 C 
BRANCH   8   9
ATOM      9  N   UNL A   1      31.769  25.303  24.087  1.00  0.00    -0.347 N 
ATOM     10  H   UNL A   1      32.153  26.234  23.927  1.00  0.00     0.345 HD
ATOM     11  H   UNL A   1      31.054  25.350  24.812  1.00  0.00     0.345 HD
ATOM     12  H   UNL A   1      31.355  24.952  23.224  1.00  0.00     0.345 HD
ENDBRANCH   8   9
BRANCH   8  13
ATOM     13  C   UNL A   1      32.434  23.035  25.131  1.00  0.00     0.109 C 
BRANCH  13  14
ATOM     14  C   UNL A   1      32.336  21.884  24.173  1.00  0.00    -0.033 C 
ATOM     15  C   UNL A   1      32.463  20.585  24.435  1.00  0.00     0.005 A 
ATOM     16  C   UNL A   1      31.938  22.085  22.739  1.00  0.00     0.175 C 
ATOM     17  C   UNL A   1      32.729  19.819  25.608  1.00  0.00     0.010 A 
ATOM     18  C   UNL A   1      32.210  19.949  23.127  1.00  0.00     0.107 A 
ATOM     19  N   UNL A   1      31.904  20.737  22.139  1.00  0.00    -0.276 NA
ATOM     20  C   UNL A   1      32.781  18.482  25.508  1.00  0.00     0.005 A 
ATOM     21  C   UNL A   1      32.337  18.460  23.084  1.00  0.00     0.141 A 
ATOM     22  C   UNL A   1      32.605  17.807  24.231  1.00  0.00     0.048 A 
BRANCH  21  23
ATOM     23  O   UNL A   1      32.187  17.822  21.871  1.00  0.00    -0.506 OA
ATOM     24  H   UNL A   1      31.406  17.949  21.369  1.00  0.00     0.293 HD
ENDBRANCH  21  23
ENDBRANCH  13  14
ENDBRANCH   8  13
ENDBRANCH   5   8
ENDBRANCH   3   4
ENDBRANCH   2   3
ENDBRANCH   1   2
BRANCH   1  25
ATOM     25  C   UNL A   1      36.440  20.048  25.008  1.00  0.00     0.002 C 
BRANCH  25  26
ATOM     26  C   UNL A   1      37.864  19.572  24.715  1.00  0.00     0.021 C 
BRANCH  26  27
ATOM     27  C   UNL A   1      38.903  20.068  25.716  1.00  0.00     0.116 C 
BRANCH  27  28
ATOM     28  N   UNL A   1      40.049  19.176  25.782  1.00  0.00    -0.352 N 
ATOM     29  C   UNL A   1      41.357  19.486  26.060  1.00  0.00     0.251 C 
ATOM     30  H   UNL A   1      39.862  18.225  25.607  1.00  0.00     0.163 HD
ATOM     31  O   UNL A   1      42.253  18.676  25.875  1.00  0.00    -0.269 OA
BRANCH  29  32
ATOM     32  C   UNL A   1      41.668  20.829  26.585  1.00  0.00     0.039 A 
ATOM     33  C   UNL A   1      42.059  21.833  25.697  1.00  0.00     0.014 A 
ATOM     34  C   UNL A   1      41.562  21.084  27.956  1.00  0.00     0.014 A 
ATOM     35  C   UNL A   1      42.315  23.113  26.184  1.00  0.00     0.010 A 
ATOM     36  C   UNL A   1      41.769  22.374  28.433  1.00  0.00     0.010 A 
ATOM     37  C   UNL A   1      42.163  23.392  27.552  1.00  0.00    -0.014 A 
BRANCH  37  38
ATOM     38  C   UNL A   1      42.471  24.735  28.088  1.00  0.00     0.031 A 
ATOM     39  C   UNL A   1      43.881  25.075  28.469  1.00  0.00     0.074 A 
ATOM     40  C   UNL A   1      41.483  25.632  28.265  1.00  0.00     0.049 A 
ATOM     41  N   UNL A   1      44.354  26.193  28.956  1.00  0.00    -0.248 NA
ATOM     42  C   UNL A   1      44.889  24.015  28.300  1.00  0.00     0.031 C 
ATOM     43  C   UNL A   1      40.070  25.404  27.962  1.00  0.00     0.029 A 
ATOM     44  N   UNL A   1      41.523  26.916  28.744  1.00  0.00    -0.354 N 
ATOM     45  C   UNL A   1      45.707  25.966  29.160  1.00  0.00     0.074 A 
ATOM     46  C   UNL A   1      45.975  24.595  28.788  1.00  0.00     0.031 C 
ATOM     47  C   UNL A   1      39.380  26.523  28.240  1.00  0.00     0.029 A 
ATOM     48  C   UNL A   1      40.299  27.535  28.756  1.00  0.00     0.049 A 
ATOM     49  H   UNL A   1      42.351  27.353  29.050  1.00  0.00     0.167 HD
ATOM     50  C   UNL A   1      46.649  26.831  29.601  1.00  0.00     0.031 A 
ATOM     51  C   UNL A   1      39.954  28.780  29.136  1.00  0.00     0.031 A 
ATOM     52  C   UNL A   1      46.388  28.200  29.944  1.00  0.00     0.049 A 
ATOM     53  C   UNL A   1      41.011  29.722  29.634  1.00  0.00     0.074 A 
ATOM     54  C   UNL A   1      47.293  29.179  30.312  1.00  0.00     0.029 A 
ATOM     55  N   UNL A   1      45.131  28.779  29.966  1.00  0.00    -0.354 N 
ATOM     56  N   UNL A   1      42.301  29.518  29.752  1.00  0.00    -0.248 NA
ATOM     57  C   UNL A   1      40.571  31.062  30.050  1.00  0.00     0.031 C 
ATOM     58  C   UNL A   1      46.576  30.342  30.604  1.00  0.00     0.029 A 
ATOM     59  C   UNL A   1      45.230  30.097  30.378  1.00  0.00     0.049 A 
ATOM     60  H   UNL A   1      44.293  28.324  29.725  1.00  0.00     0.167 HD
ATOM     61  C   UNL A   1      42.829  30.702  30.246  1.00  0.00     0.074 A 
ATOM     62  C   UNL A   1      41.722  31.624  30.401  1.00  0.00     0.031 C 
ATOM     63  C   UNL A   1      44.118  30.995  30.541  1.00  0.00     0.031 A 
BRANCH  50  64
ATOM     64  C   UNL A   1      48.052  26.320  29.731  1.00  0.00    -0.014 A 
ATOM     65  C   UNL A   1      48.952  26.400  28.656  1.00  0.00     0.009 A 
ATOM     66  C   UNL A   1      48.491  25.791  30.954  1.00  0.00     0.009 A 
ATOM     67  C   UNL A   1      50.261  25.937  28.800  1.00  0.00     0.001 A 
ATOM     68  C   UNL A   1      49.805  25.348  31.099  1.00  0.00     0.001 A 
ATOM     69  C   UNL A   1      50.688  25.416  30.021  1.00  0.00     0.000 A 
ENDBRANCH  50  64
BRANCH  51  70
ATOM     70  C   UNL A   1      38.537  29.200  29.016  1.00  0.00    -0.014 A 
ATOM     71  C   UNL A   1      37.695  29.161  30.136  1.00  0.00     0.009 A 
ATOM     72  C   UNL A   1      38.046  29.721  27.809  1.00  0.00     0.009 A 
ATOM     73  C   UNL A   1      36.386  29.640  30.052  1.00  0.00     0.001 A 
ATOM     74  C   UNL A   1      36.741  30.212  27.732  1.00  0.00     0.001 A 
ATOM     75  C   UNL A   1      35.913  30.173  28.852  1.00  0.00     0.000 A 
ENDBRANCH  51  70
BRANCH  63  76
ATOM     76  C   UNL A   1      44.424  32.362  31.078  1.00  0.00    -0.014 A 
ATOM     77  C   UNL A   1      44.492  32.585  32.460  1.00  0.00     0.009 A 
ATOM     78  C   UNL A   1      44.786  33.393  30.197  1.00  0.00     0.009 A 
ATOM     79  C   UNL A   1      44.921  33.818  32.953  1.00  0.00     0.001 A 
ATOM     80  C   UNL A   1      45.230  34.619  30.693  1.00  0.00     0.001 A 
ATOM     81  C   UNL A   1      45.299  34.830  32.070  1.00  0.00     0.000 A 
ENDBRANCH  63  76
ENDBRANCH  37  38
ENDBRANCH  29  32
ENDBRANCH  27  28
ENDBRANCH  26  27
ENDBRANCH  25  26
ENDBRANCH   1  25
TORSDOF 17
ENDMDL
MODEL 3
REMARK VINA RESULT:     -10.5      1.136      6.075
REMARK SMILES [NH3+][C@H](CC1=c2cccc(O)c2=NC1)C(=O)NCCCCCCNC(=O)c1ccc(-c2c3nc(c(-c4ccccc4)c4ccc([nH]4)c(-c4ccccc4)c4nc(c(-c5ccccc5)c5ccc2[nH]5)C=C4)C=C3)cc1
REMARK SMILES IDX 19 1 18 2 17 3 16 4 14 5 15 6 2 8 1 9 3 13 4 14 5 15 13 16
REMARK SMILES IDX 6 17 11 18 12 19 7 20 9 21 8 22 10 23 20 25 21 26 22 27
REMARK SMILES IDX 23 28 24 29 25 31 26 32 27 33 73 34 28 35 72 36 29 37 30 38
REMARK SMILES IDX 31 39 66 40 32 41 71 42 65 43 67 44 33 45 70 46 64 47 63 48
REMARK SMILES IDX 34 50 56 51 41 52 55 53 42 54 45 55 54 56 68 57 43 58 44 59
REMARK SMILES IDX 53 61 69 62 46 63 35 64 36 65 40 66 37 67 39 68 38 69 57 70
REMARK SMILES IDX 58 71 62 72 59 73 61 74 60 75 47 76 48 77 52 78 49 79 51 80
REMARK SMILES IDX 50 81
REMARK H PARENT 16 7 1 10 1 11 1 12 10 24 23 30 67 49 45 60
REMARK Flexibility Score: inf
ROOT
ATOM      1  C   UNL A   1      37.753  22.118  25.379  1.00  0.00     0.002 C 
ENDROOT
BRANCH   1   2
ATOM      2  C   UNL A   1      37.025  23.371  24.875  1.00  0.00     0.021 C 
BRANCH   2   3
ATOM      3  C   UNL A   1      35.965  23.079  23.812  1.00  0.00     0.116 C 
BRANCH   3   4
ATOM      4  N   UNL A   1      34.952  24.115  23.815  1.00  0.00    -0.351 N 
ATOM      5  C   UNL A   1      33.772  24.222  23.140  1.00  0.00     0.278 C 
ATOM      6  O   UNL A   1      33.178  25.303  23.204  1.00  0.00    -0.268 OA
ATOM      7  H   UNL A   1      35.150  24.875  24.409  1.00  0.00     0.163 HD
BRANCH   5   8
ATOM      8  C   UNL A   1      33.190  23.043  22.331  1.00  0.00     0.275 C 
BRANCH   8   9
ATOM      9  N   UNL A   1      32.967  23.479  20.937  1.00  0.00    -0.347 N 
ATOM     10  H   UNL A   1      31.998  23.777  20.825  1.00  0.00     0.345 HD
ATOM     11  H   UNL A   1      33.160  22.703  20.304  1.00  0.00     0.345 HD
ATOM     12  H   UNL A   1      33.590  24.257  20.721  1.00  0.00     0.345 HD
ENDBRANCH   8   9
BRANCH   8  13
ATOM     13  C   UNL A   1      32.006  22.376  23.066  1.00  0.00     0.109 C 
BRANCH  13  14
ATOM     14  C   UNL A   1      32.356  21.251  23.995  1.00  0.00    -0.033 C 
ATOM     15  C   UNL A   1      32.492  19.959  23.706  1.00  0.00     0.005 A 
ATOM     16  C   UNL A   1      32.734  21.502  25.427  1.00  0.00     0.175 C 
ATOM     17  C   UNL A   1      32.365  19.177  22.520  1.00  0.00     0.010 A 
ATOM     18  C   UNL A   1      32.896  19.363  24.994  1.00  0.00     0.107 A 
ATOM     19  N   UNL A   1      33.054  20.178  25.996  1.00  0.00    -0.276 NA
ATOM     20  C   UNL A   1      32.589  17.856  22.590  1.00  0.00     0.005 A 
ATOM     21  C   UNL A   1      33.078  17.879  25.005  1.00  0.00     0.141 A 
ATOM     22  C   UNL A   1      32.925  17.207  23.848  1.00  0.00     0.048 A 
BRANCH  21  23
ATOM     23  O   UNL A   1      33.380  17.262  26.201  1.00  0.00    -0.506 OA
ATOM     24  H   UNL A   1      32.843  17.412  26.954  1.00  0.00     0.293 HD
ENDBRANCH  21  23
ENDBRANCH  13  14
ENDBRANCH   8  13
ENDBRANCH   5   8
ENDBRANCH   3   4
ENDBRANCH   2   3
ENDBRANCH   1   2
BRANCH   1  25
ATOM     25  C   UNL A   1      37.421  20.831  24.616  1.00  0.00     0.002 C 
BRANCH  25  26
ATOM     26  C   UNL A   1      38.407  19.682  24.835  1.00  0.00     0.021 C 
BRANCH  26  27
ATOM     27  C   UNL A   1      39.332  19.876  26.032  1.00  0.00     0.116 C 
BRANCH  27  28
ATOM     28  N   UNL A   1      40.566  19.125  25.881  1.00  0.00    -0.352 N 
ATOM     29  C   UNL A   1      41.859  19.580  25.970  1.00  0.00     0.251 C 
ATOM     30  H   UNL A   1      40.463  18.164  25.691  1.00  0.00     0.163 HD
ATOM     31  O   UNL A   1      42.800  18.888  25.612  1.00  0.00    -0.269 OA
BRANCH  29  32
ATOM     32  C   UNL A   1      42.095  20.935  26.504  1.00  0.00     0.039 A 
ATOM     33  C   UNL A   1      42.043  21.140  27.884  1.00  0.00     0.014 A 
ATOM     34  C   UNL A   1      42.372  21.991  25.631  1.00  0.00     0.014 A 
ATOM     35  C   UNL A   1      42.305  22.409  28.396  1.00  0.00     0.010 A 
ATOM     36  C   UNL A   1      42.682  23.245  26.146  1.00  0.00     0.010 A 
ATOM     37  C   UNL A   1      42.634  23.465  27.530  1.00  0.00    -0.014 A 
BRANCH  37  38
ATOM     38  C   UNL A   1      42.874  24.826  28.056  1.00  0.00     0.031 A 
ATOM     39  C   UNL A   1      44.267  25.242  28.425  1.00  0.00     0.074 A 
ATOM     40  C   UNL A   1      41.842  25.671  28.235  1.00  0.00     0.049 A 
ATOM     41  N   UNL A   1      44.684  26.387  28.902  1.00  0.00    -0.248 NA
ATOM     42  C   UNL A   1      45.328  24.235  28.255  1.00  0.00     0.031 C 
ATOM     43  C   UNL A   1      40.440  25.368  27.943  1.00  0.00     0.029 A 
ATOM     44  N   UNL A   1      41.817  26.959  28.706  1.00  0.00    -0.354 N 
ATOM     45  C   UNL A   1      46.049  26.232  29.098  1.00  0.00     0.074 A 
ATOM     46  C   UNL A   1      46.385  24.875  28.732  1.00  0.00     0.031 C 
ATOM     47  C   UNL A   1      39.694  26.450  28.219  1.00  0.00     0.029 A 
ATOM     48  C   UNL A   1      40.562  27.512  28.722  1.00  0.00     0.049 A 
ATOM     49  H   UNL A   1      42.624  27.440  29.003  1.00  0.00     0.167 HD
ATOM     50  C   UNL A   1      46.946  27.149  29.527  1.00  0.00     0.031 A 
ATOM     51  C   UNL A   1      40.155  28.740  29.097  1.00  0.00     0.031 A 
ATOM     52  C   UNL A   1      46.616  28.504  29.864  1.00  0.00     0.049 A 
ATOM     53  C   UNL A   1      41.164  29.739  29.582  1.00  0.00     0.074 A 
ATOM     54  C   UNL A   1      47.471  29.532  30.219  1.00  0.00     0.029 A 
ATOM     55  N   UNL A   1      45.330  29.017  29.891  1.00  0.00    -0.354 N 
ATOM     56  N   UNL A   1      42.464  29.604  29.692  1.00  0.00    -0.248 NA
ATOM     57  C   UNL A   1      40.657  31.057  29.993  1.00  0.00     0.031 C 
ATOM     58  C   UNL A   1      46.695  30.658  30.509  1.00  0.00     0.029 A 
ATOM     59  C   UNL A   1      45.363  30.340  30.294  1.00  0.00     0.049 A 
ATOM     60  H   UNL A   1      44.516  28.516  29.659  1.00  0.00     0.167 HD
ATOM     61  C   UNL A   1      42.932  30.818  30.176  1.00  0.00     0.074 A 
ATOM     62  C   UNL A   1      41.779  31.681  30.332  1.00  0.00     0.031 C 
ATOM     63  C   UNL A   1      44.206  31.180  30.460  1.00  0.00     0.031 A 
BRANCH  50  64
ATOM     64  C   UNL A   1      48.375  26.713  29.650  1.00  0.00    -0.014 A 
ATOM     65  C   UNL A   1      48.872  26.202  30.859  1.00  0.00     0.009 A 
ATOM     66  C   UNL A   1      49.221  26.774  28.532  1.00  0.00     0.009 A 
ATOM     67  C   UNL A   1      50.200  25.782  30.951  1.00  0.00     0.001 A 
ATOM     68  C   UNL A   1      50.542  26.334  28.623  1.00  0.00     0.001 A 
ATOM     69  C   UNL A   1      51.032  25.844  29.834  1.00  0.00     0.000 A 
ENDBRANCH  50  64
BRANCH  51  70
ATOM     70  C   UNL A   1      38.717  29.085  28.985  1.00  0.00    -0.014 A 
ATOM     71  C   UNL A   1      37.864  28.911  30.084  1.00  0.00     0.009 A 
ATOM     72  C   UNL A   1      38.212  29.666  27.811  1.00  0.00     0.009 A 
ATOM     73  C   UNL A   1      36.530  29.318  30.013  1.00  0.00     0.001 A 
ATOM     74  C   UNL A   1      36.881  30.084  27.749  1.00  0.00     0.001 A 
ATOM     75  C   UNL A   1      36.042  29.911  28.849  1.00  0.00     0.000 A 
ENDBRANCH  51  70
BRANCH  63  76
ATOM     76  C   UNL A   1      44.444  32.564  30.986  1.00  0.00    -0.014 A 
ATOM     77  C   UNL A   1      44.583  33.646  30.104  1.00  0.00     0.009 A 
ATOM     78  C   UNL A   1      44.386  32.806  32.367  1.00  0.00     0.009 A 
ATOM     79  C   UNL A   1      44.657  34.949  30.598  1.00  0.00     0.001 A 
ATOM     80  C   UNL A   1      44.443  34.111  32.856  1.00  0.00     0.001 A 
ATOM     81  C   UNL A   1      44.577  35.182  31.972  1.00  0.00     0.000 A 
ENDBRANCH  63  76
ENDBRANCH  37  38
ENDBRANCH  29  32
ENDBRANCH  27  28
ENDBRANCH  26  27
ENDBRANCH  25  26
ENDBRANCH   1  25
TORSDOF 17
ENDMDL
