MODEL 1
REMARK VINA RESULT:     -11.4      0.000      0.000
REMARK SMILES Cc1nc(=O)[nH]c(C)c1CC(=O)Nc1sccc1C(=O)NCCCCCCNC(=O)c1ccc(-c2c3nc(c(-c4ccccc4)c4ccc([nH]4)c(-c4ccccc4)c4nc(c(-c5ccccc5)c5ccc2[nH]5)C=C4)C=C3)cc1
REMARK SMILES IDX 24 1 23 2 22 3 21 4 19 5 20 6 18 8 14 9 15 10 16 11 17 12
REMARK SMILES IDX 13 13 11 14 12 15 10 17 9 18 1 19 2 20 3 21 4 22 7 23 5 24
REMARK SMILES IDX 6 25 8 26 25 28 26 29 27 30 28 31 29 32 30 34 31 35 32 36
REMARK SMILES IDX 78 37 33 38 77 39 34 40 35 41 36 42 71 43 37 44 76 45 70 46
REMARK SMILES IDX 72 47 38 48 75 49 69 50 68 51 39 53 61 54 46 55 60 56 47 57
REMARK SMILES IDX 50 58 59 59 73 60 48 61 49 62 58 64 74 65 51 66 40 67 41 68
REMARK SMILES IDX 45 69 42 70 44 71 43 72 62 73 63 74 67 75 64 76 66 77 65 78
REMARK SMILES IDX 52 79 53 80 57 81 54 82 56 83 55 84
REMARK H PARENT 21 7 13 16 6 27 28 33 72 52 50 63
REMARK Flexibility Score: inf
ROOT
ATOM      1  C   UNL A   1      37.285  22.150  24.487  1.00  0.00     0.002 C 
ENDROOT
BRANCH   1   2
ATOM      2  C   UNL A   1      36.922  23.213  25.536  1.00  0.00     0.021 C 
BRANCH   2   3
ATOM      3  C   UNL A   1      35.793  24.153  25.124  1.00  0.00     0.116 C 
BRANCH   3   4
ATOM      4  N   UNL A   1      34.665  24.104  26.021  1.00  0.00    -0.352 N 
ATOM      5  C   UNL A   1      33.449  23.485  25.908  1.00  0.00     0.254 C 
ATOM      6  O   UNL A   1      32.601  23.822  26.735  1.00  0.00    -0.269 OA
ATOM      7  H   UNL A   1      34.791  24.602  26.861  1.00  0.00     0.163 HD
BRANCH   5   8
ATOM      8  C   UNL A   1      33.108  22.554  24.827  1.00  0.00     0.074 A 
ATOM      9  C   UNL A   1      33.104  22.691  23.450  1.00  0.00     0.108 A 
ATOM     10  S   UNL A   1      32.256  21.424  22.666  1.00  0.00    -0.126 S 
ATOM     11  C   UNL A   1      32.232  20.481  24.079  1.00  0.00     0.068 A 
ATOM     12  C   UNL A   1      32.694  21.199  25.156  1.00  0.00     0.028 A 
BRANCH   9  13
ATOM     13  N   UNL A   1      33.511  23.613  22.523  1.00  0.00    -0.317 N 
ATOM     14  C   UNL A   1      33.107  24.884  22.262  1.00  0.00     0.229 C 
ATOM     15  O   UNL A   1      33.406  25.332  21.144  1.00  0.00    -0.274 OA
ATOM     16  H   UNL A   1      34.234  23.295  21.936  1.00  0.00     0.170 HD
BRANCH  14  17
ATOM     17  C   UNL A   1      32.563  25.856  23.315  1.00  0.00     0.139 C 
BRANCH  17  18
ATOM     18  C   UNL A   1      31.857  27.118  22.934  1.00  0.00     0.002 A 
ATOM     19  C   UNL A   1      29.585  26.101  23.733  1.00  0.00     0.067 C 
ATOM     20  C   UNL A   1      30.366  27.234  23.100  1.00  0.00     0.049 A 
ATOM     21  N   UNL A   1      29.666  28.283  22.807  1.00  0.00    -0.198 NA
ATOM     22  C   UNL A   1      30.297  29.387  22.314  1.00  0.00     0.345 A 
ATOM     23  C   UNL A   1      32.445  28.284  22.593  1.00  0.00     0.022 A 
ATOM     24  O   UNL A   1      29.707  30.410  21.976  1.00  0.00    -0.246 OA
ATOM     25  N   UNL A   1      31.664  29.360  22.265  1.00  0.00    -0.310 N 
ATOM     26  C   UNL A   1      33.917  28.567  22.532  1.00  0.00     0.065 C 
ATOM     27  H   UNL A   1      32.123  30.181  21.972  1.00  0.00     0.171 HD
ENDBRANCH  17  18
ENDBRANCH  14  17
ENDBRANCH   9  13
ENDBRANCH   5   8
ENDBRANCH   3   4
ENDBRANCH   2   3
ENDBRANCH   1   2
BRANCH   1  28
ATOM     28  C   UNL A   1      36.819  20.720  24.787  1.00  0.00     0.002 C 
BRANCH  28  29
ATOM     29  C   UNL A   1      37.902  19.670  24.996  1.00  0.00     0.021 C 
BRANCH  29  30
ATOM     30  C   UNL A   1      39.105  20.142  25.787  1.00  0.00     0.116 C 
BRANCH  30  31
ATOM     31  N   UNL A   1      40.239  19.236  25.729  1.00  0.00    -0.352 N 
ATOM     32  C   UNL A   1      41.548  19.497  26.058  1.00  0.00     0.251 C 
ATOM     33  H   UNL A   1      40.047  18.323  25.414  1.00  0.00     0.163 HD
ATOM     34  O   UNL A   1      42.420  18.655  25.881  1.00  0.00    -0.269 OA
BRANCH  32  35
ATOM     35  C   UNL A   1      41.897  20.830  26.594  1.00  0.00     0.039 A 
ATOM     36  C   UNL A   1      42.279  21.837  25.706  1.00  0.00     0.014 A 
ATOM     37  C   UNL A   1      41.804  21.093  27.963  1.00  0.00     0.014 A 
ATOM     38  C   UNL A   1      42.525  23.122  26.190  1.00  0.00     0.010 A 
ATOM     39  C   UNL A   1      41.945  22.393  28.427  1.00  0.00     0.010 A 
ATOM     40  C   UNL A   1      42.338  23.415  27.551  1.00  0.00    -0.014 A 
BRANCH  40  41
ATOM     41  C   UNL A   1      42.615  24.765  28.095  1.00  0.00     0.031 A 
ATOM     42  C   UNL A   1      44.023  25.137  28.477  1.00  0.00     0.074 A 
ATOM     43  C   UNL A   1      41.605  25.633  28.290  1.00  0.00     0.049 A 
ATOM     44  N   UNL A   1      44.474  26.254  28.987  1.00  0.00    -0.248 NA
ATOM     45  C   UNL A   1      45.057  24.102  28.295  1.00  0.00     0.031 C 
ATOM     46  C   UNL A   1      40.191  25.373  28.005  1.00  0.00     0.029 A 
ATOM     47  N   UNL A   1      41.616  26.918  28.769  1.00  0.00    -0.354 N 
ATOM     48  C   UNL A   1      45.829  26.043  29.213  1.00  0.00     0.074 A 
ATOM     49  C   UNL A   1      46.114  24.675  28.847  1.00  0.00     0.031 C 
ATOM     50  C   UNL A   1      39.480  26.481  28.268  1.00  0.00     0.029 A 
ATOM     51  C   UNL A   1      40.379  27.515  28.772  1.00  0.00     0.049 A 
ATOM     52  H   UNL A   1      42.433  27.369  29.081  1.00  0.00     0.167 HD
ATOM     53  C   UNL A   1      46.761  26.916  29.659  1.00  0.00     0.031 A 
ATOM     54  C   UNL A   1      40.017  28.762  29.125  1.00  0.00     0.031 A 
ATOM     55  C   UNL A   1      46.481  28.286  29.989  1.00  0.00     0.049 A 
ATOM     56  C   UNL A   1      41.073  29.722  29.600  1.00  0.00     0.074 A 
ATOM     57  C   UNL A   1      47.363  29.279  30.376  1.00  0.00     0.029 A 
ATOM     58  N   UNL A   1      45.217  28.855  29.966  1.00  0.00    -0.354 N 
ATOM     59  N   UNL A   1      42.364  29.533  29.732  1.00  0.00    -0.248 NA
ATOM     60  C   UNL A   1      40.621  31.074  29.956  1.00  0.00     0.031 C 
ATOM     61  C   UNL A   1      46.624  30.437  30.636  1.00  0.00     0.029 A 
ATOM     62  C   UNL A   1      45.291  30.181  30.352  1.00  0.00     0.049 A 
ATOM     63  H   UNL A   1      44.390  28.385  29.711  1.00  0.00     0.167 HD
ATOM     64  C   UNL A   1      42.884  30.752  30.148  1.00  0.00     0.074 A 
ATOM     65  C   UNL A   1      41.770  31.672  30.237  1.00  0.00     0.031 C 
ATOM     66  C   UNL A   1      44.169  31.081  30.428  1.00  0.00     0.031 A 
BRANCH  53  67
ATOM     67  C   UNL A   1      48.166  26.402  29.820  1.00  0.00    -0.014 A 
ATOM     68  C   UNL A   1      48.608  25.836  31.027  1.00  0.00     0.009 A 
ATOM     69  C   UNL A   1      49.063  26.483  28.743  1.00  0.00     0.009 A 
ATOM     70  C   UNL A   1      49.930  25.410  31.170  1.00  0.00     0.001 A 
ATOM     71  C   UNL A   1      50.375  26.025  28.878  1.00  0.00     0.001 A 
ATOM     72  C   UNL A   1      50.812  25.502  30.093  1.00  0.00     0.000 A 
ENDBRANCH  53  67
BRANCH  54  73
ATOM     73  C   UNL A   1      38.602  29.196  28.993  1.00  0.00    -0.014 A 
ATOM     74  C   UNL A   1      37.722  29.079  30.081  1.00  0.00     0.009 A 
ATOM     75  C   UNL A   1      38.120  29.724  27.786  1.00  0.00     0.009 A 
ATOM     76  C   UNL A   1      36.382  29.453  29.954  1.00  0.00     0.001 A 
ATOM     77  C   UNL A   1      36.785  30.124  27.671  1.00  0.00     0.001 A 
ATOM     78  C   UNL A   1      35.916  29.979  28.751  1.00  0.00     0.000 A 
ENDBRANCH  54  73
BRANCH  66  79
ATOM     79  C   UNL A   1      44.444  32.510  30.806  1.00  0.00    -0.014 A 
ATOM     80  C   UNL A   1      44.360  32.945  32.136  1.00  0.00     0.009 A 
ATOM     81  C   UNL A   1      44.827  33.423  29.812  1.00  0.00     0.009 A 
ATOM     82  C   UNL A   1      44.617  34.279  32.458  1.00  0.00     0.001 A 
ATOM     83  C   UNL A   1      45.115  34.748  30.141  1.00  0.00     0.001 A 
ATOM     84  C   UNL A   1      44.998  35.177  31.462  1.00  0.00     0.000 A 
ENDBRANCH  66  79
ENDBRANCH  40  41
ENDBRANCH  32  35
ENDBRANCH  30  31
ENDBRANCH  29  30
ENDBRANCH  28  29
ENDBRANCH   1  28
TORSDOF 16
ENDMDL
MODEL 2
REMARK VINA RESULT:     -11.4      2.009      7.833
REMARK SMILES Cc1nc(=O)[nH]c(C)c1CC(=O)Nc1sccc1C(=O)NCCCCCCNC(=O)c1ccc(-c2c3nc(c(-c4ccccc4)c4ccc([nH]4)c(-c4ccccc4)c4nc(c(-c5ccccc5)c5ccc2[nH]5)C=C4)C=C3)cc1
REMARK SMILES IDX 24 1 23 2 22 3 21 4 19 5 20 6 18 8 14 9 15 10 16 11 17 12
REMARK SMILES IDX 13 13 11 14 12 15 10 17 9 18 1 19 2 20 3 21 4 22 7 23 5 24
REMARK SMILES IDX 6 25 8 26 25 28 26 29 27 30 28 31 29 32 30 34 31 35 32 36
REMARK SMILES IDX 78 37 33 38 77 39 34 40 35 41 36 42 71 43 37 44 76 45 70 46
REMARK SMILES IDX 72 47 38 48 75 49 69 50 68 51 39 53 61 54 46 55 60 56 47 57
REMARK SMILES IDX 50 58 59 59 73 60 48 61 49 62 58 64 74 65 51 66 40 67 41 68
REMARK SMILES IDX 45 69 42 70 44 71 43 72 62 73 63 74 67 75 64 76 66 77 65 78
REMARK SMILES IDX 52 79 53 80 57 81 54 82 56 83 55 84
REMARK H PARENT 21 7 13 16 6 27 28 33 72 52 50 63
REMARK Flexibility Score: inf
ROOT
ATOM      1  C   UNL A   1      31.035  29.581  24.765  1.00  0.00     0.002 C 
ENDROOT
BRANCH   1   2
ATOM      2  C   UNL A   1      30.977  29.214  23.274  1.00  0.00     0.021 C 
BRANCH   2   3
ATOM      3  C   UNL A   1      32.284  28.672  22.703  1.00  0.00     0.116 C 
BRANCH   3   4
ATOM      4  N   UNL A   1      32.112  27.435  21.982  1.00  0.00    -0.352 N 
ATOM      5  C   UNL A   1      32.015  26.141  22.421  1.00  0.00     0.254 C 
ATOM      6  O   UNL A   1      32.112  25.275  21.551  1.00  0.00    -0.269 OA
ATOM      7  H   UNL A   1      32.055  27.538  21.005  1.00  0.00     0.163 HD
BRANCH   5   8
ATOM      8  C   UNL A   1      31.905  25.770  23.835  1.00  0.00     0.074 A 
ATOM      9  C   UNL A   1      32.838  25.324  24.755  1.00  0.00     0.108 A 
ATOM     10  S   UNL A   1      32.114  24.666  26.163  1.00  0.00    -0.126 S 
ATOM     11  C   UNL A   1      30.597  25.321  25.762  1.00  0.00     0.068 A 
ATOM     12  C   UNL A   1      30.613  25.861  24.499  1.00  0.00     0.028 A 
BRANCH   9  13
ATOM     13  N   UNL A   1      34.198  25.170  24.824  1.00  0.00    -0.317 N 
ATOM     14  C   UNL A   1      35.000  24.081  24.688  1.00  0.00     0.229 C 
ATOM     15  O   UNL A   1      36.144  24.187  25.156  1.00  0.00    -0.274 OA
ATOM     16  H   UNL A   1      34.684  26.005  25.005  1.00  0.00     0.170 HD
BRANCH  14  17
ATOM     17  C   UNL A   1      34.688  22.878  23.792  1.00  0.00     0.139 C 
BRANCH  17  18
ATOM     18  C   UNL A   1      34.133  21.604  24.345  1.00  0.00     0.002 A 
ATOM     19  C   UNL A   1      31.809  22.139  23.274  1.00  0.00     0.067 C 
ATOM     20  C   UNL A   1      32.688  21.247  24.127  1.00  0.00     0.049 A 
ATOM     21  N   UNL A   1      32.116  20.169  24.558  1.00  0.00    -0.198 NA
ATOM     22  C   UNL A   1      32.853  19.262  25.261  1.00  0.00     0.345 A 
ATOM     23  C   UNL A   1      34.847  20.606  24.906  1.00  0.00     0.022 A 
ATOM     24  O   UNL A   1      32.384  18.232  25.737  1.00  0.00    -0.246 OA
ATOM     25  N   UNL A   1      34.197  19.494  25.372  1.00  0.00    -0.310 N 
ATOM     26  C   UNL A   1      36.335  20.553  25.087  1.00  0.00     0.065 C 
ATOM     27  H   UNL A   1      34.740  18.807  25.822  1.00  0.00     0.171 HD
ENDBRANCH  17  18
ENDBRANCH  14  17
ENDBRANCH   9  13
ENDBRANCH   5   8
ENDBRANCH   3   4
ENDBRANCH   2   3
ENDBRANCH   1   2
BRANCH   1  28
ATOM     28  C   UNL A   1      32.429  29.585  25.404  1.00  0.00     0.002 C 
BRANCH  28  29
ATOM     29  C   UNL A   1      32.730  28.486  26.415  1.00  0.00     0.021 C 
BRANCH  29  30
ATOM     30  C   UNL A   1      33.814  28.821  27.418  1.00  0.00     0.116 C 
BRANCH  30  31
ATOM     31  N   UNL A   1      33.705  30.158  27.977  1.00  0.00    -0.352 N 
ATOM     32  C   UNL A   1      34.678  30.891  28.612  1.00  0.00     0.251 C 
ATOM     33  H   UNL A   1      32.826  30.591  27.890  1.00  0.00     0.163 HD
ATOM     34  O   UNL A   1      34.420  31.981  29.108  1.00  0.00    -0.269 OA
BRANCH  32  35
ATOM     35  C   UNL A   1      36.040  30.325  28.725  1.00  0.00     0.039 A 
ATOM     36  C   UNL A   1      36.910  30.436  27.638  1.00  0.00     0.014 A 
ATOM     37  C   UNL A   1      36.467  29.729  29.914  1.00  0.00     0.014 A 
ATOM     38  C   UNL A   1      38.224  29.985  27.763  1.00  0.00     0.010 A 
ATOM     39  C   UNL A   1      37.801  29.380  30.071  1.00  0.00     0.010 A 
ATOM     40  C   UNL A   1      38.685  29.475  28.987  1.00  0.00    -0.014 A 
BRANCH  40  41
ATOM     41  C   UNL A   1      40.069  28.968  29.140  1.00  0.00     0.031 A 
ATOM     42  C   UNL A   1      41.124  29.860  29.738  1.00  0.00     0.074 A 
ATOM     43  C   UNL A   1      40.389  27.736  28.701  1.00  0.00     0.049 A 
ATOM     44  N   UNL A   1      42.394  29.619  29.941  1.00  0.00    -0.248 NA
ATOM     45  C   UNL A   1      40.704  31.218  30.128  1.00  0.00     0.031 C 
ATOM     46  C   UNL A   1      39.467  26.796  28.058  1.00  0.00     0.029 A 
ATOM     47  N   UNL A   1      41.582  27.061  28.736  1.00  0.00    -0.354 N 
ATOM     48  C   UNL A   1      42.923  30.799  30.449  1.00  0.00     0.074 A 
ATOM     49  C   UNL A   1      41.857  31.773  30.465  1.00  0.00     0.031 C 
ATOM     50  C   UNL A   1      40.117  25.648  27.806  1.00  0.00     0.029 A 
ATOM     51  C   UNL A   1      41.506  25.783  28.235  1.00  0.00     0.049 A 
ATOM     52  H   UNL A   1      42.413  27.454  29.087  1.00  0.00     0.167 HD
ATOM     53  C   UNL A   1      44.179  31.045  30.891  1.00  0.00     0.031 A 
ATOM     54  C   UNL A   1      42.448  24.827  28.150  1.00  0.00     0.031 A 
ATOM     55  C   UNL A   1      45.228  30.064  30.907  1.00  0.00     0.049 A 
ATOM     56  C   UNL A   1      43.831  25.116  28.665  1.00  0.00     0.074 A 
ATOM     57  C   UNL A   1      46.513  30.182  31.404  1.00  0.00     0.029 A 
ATOM     58  N   UNL A   1      45.106  28.778  30.404  1.00  0.00    -0.354 N 
ATOM     59  N   UNL A   1      44.296  26.211  29.218  1.00  0.00    -0.248 NA
ATOM     60  C   UNL A   1      44.813  24.028  28.561  1.00  0.00     0.031 C 
ATOM     61  C   UNL A   1      47.186  28.981  31.155  1.00  0.00     0.029 A 
ATOM     62  C   UNL A   1      46.300  28.097  30.559  1.00  0.00     0.049 A 
ATOM     63  H   UNL A   1      44.290  28.404  29.997  1.00  0.00     0.167 HD
ATOM     64  C   UNL A   1      45.612  25.930  29.563  1.00  0.00     0.074 A 
ATOM     65  C   UNL A   1      45.866  24.561  29.164  1.00  0.00     0.031 C 
ATOM     66  C   UNL A   1      46.528  26.732  30.159  1.00  0.00     0.031 A 
BRANCH  53  67
ATOM     67  C   UNL A   1      44.476  32.435  31.384  1.00  0.00    -0.014 A 
ATOM     68  C   UNL A   1      44.291  32.793  32.730  1.00  0.00     0.009 A 
ATOM     69  C   UNL A   1      44.951  33.404  30.486  1.00  0.00     0.009 A 
ATOM     70  C   UNL A   1      44.526  34.102  33.155  1.00  0.00     0.001 A 
ATOM     71  C   UNL A   1      45.218  34.704  30.922  1.00  0.00     0.001 A 
ATOM     72  C   UNL A   1      44.993  35.056  32.251  1.00  0.00     0.000 A 
ENDBRANCH  53  67
BRANCH  54  73
ATOM     73  C   UNL A   1      42.106  23.487  27.605  1.00  0.00    -0.014 A 
ATOM     74  C   UNL A   1      42.354  23.189  26.255  1.00  0.00     0.009 A 
ATOM     75  C   UNL A   1      41.530  22.502  28.421  1.00  0.00     0.009 A 
ATOM     76  C   UNL A   1      42.005  21.944  25.727  1.00  0.00     0.001 A 
ATOM     77  C   UNL A   1      41.207  21.248  27.897  1.00  0.00     0.001 A 
ATOM     78  C   UNL A   1      41.435  20.973  26.549  1.00  0.00     0.000 A 
ENDBRANCH  54  73
BRANCH  66  79
ATOM     79  C   UNL A   1      47.871  26.130  30.463  1.00  0.00    -0.014 A 
ATOM     80  C   UNL A   1      48.889  26.084  29.499  1.00  0.00     0.009 A 
ATOM     81  C   UNL A   1      48.128  25.635  31.751  1.00  0.00     0.009 A 
ATOM     82  C   UNL A   1      50.127  25.516  29.808  1.00  0.00     0.001 A 
ATOM     83  C   UNL A   1      49.377  25.097  32.066  1.00  0.00     0.001 A 
ATOM     84  C   UNL A   1      50.370  25.028  31.091  1.00  0.00     0.000 A 
ENDBRANCH  66  79
ENDBRANCH  40  41
ENDBRANCH  32  35
ENDBRANCH  30  31
ENDBRANCH  29  30
ENDBRANCH  28  29
ENDBRANCH   1  28
TORSDOF 16
ENDMDL
MODEL 3
REMARK VINA RESULT:     -11.3      1.360      6.074
REMARK SMILES Cc1nc(=O)[nH]c(C)c1CC(=O)Nc1sccc1C(=O)NCCCCCCNC(=O)c1ccc(-c2c3nc(c(-c4ccccc4)c4ccc([nH]4)c(-c4ccccc4)c4nc(c(-c5ccccc5)c5ccc2[nH]5)C=C4)C=C3)cc1
REMARK SMILES IDX 24 1 23 2 22 3 21 4 19 5 20 6 18 8 14 9 15 10 16 11 17 12
REMARK SMILES IDX 13 13 11 14 12 15 10 17 9 18 1 19 2 20 3 21 4 22 7 23 5 24
REMARK SMILES IDX 6 25 8 26 25 28 26 29 27 30 28 31 29 32 30 34 31 35 32 36
REMARK SMILES IDX 78 37 33 38 77 39 34 40 35 41 36 42 71 43 37 44 76 45 70 46
REMARK SMILES IDX 72 47 38 48 75 49 69 50 68 51 39 53 61 54 46 55 60 56 47 57
REMARK SMILES IDX 50 58 59 59 73 60 48 61 49 62 58 64 74 65 51 66 40 67 41 68
REMARK SMILES IDX 45 69 42 70 44 71 43 72 62 73 63 74 67 75 64 76 66 77 65 78
REMARK SMILES IDX 52 79 53 80 57 81 54 82 56 83 55 84
REMARK H PARENT 21 7 13 16 6 27 28 33 72 52 50 63
REMARK Flexibility Score: inf
ROOT
ATOM      1  C   UNL A   1      35.298  19.558  24.882  1.00  0.00     0.002 C 
ENDROOT
BRANCH   1   2
ATOM      2  C   UNL A   1      33.825  19.963  25.050  1.00  0.00     0.021 C 
BRANCH   2   3
ATOM      3  C   UNL A   1      33.574  21.002  26.139  1.00  0.00     0.116 C 
BRANCH   3   4
ATOM      4  N   UNL A   1      32.238  21.546  26.100  1.00  0.00    -0.352 N 
ATOM      5  C   UNL A   1      31.730  22.644  25.459  1.00  0.00     0.254 C 
ATOM      6  O   UNL A   1      30.600  22.988  25.808  1.00  0.00    -0.269 OA
ATOM      7  H   UNL A   1      31.577  21.039  26.625  1.00  0.00     0.163 HD
BRANCH   5   8
ATOM      8  C   UNL A   1      32.488  23.443  24.491  1.00  0.00     0.074 A 
ATOM      9  C   UNL A   1      33.144  24.656  24.598  1.00  0.00     0.108 A 
ATOM     10  S   UNL A   1      33.541  25.328  23.071  1.00  0.00    -0.126 S 
ATOM     11  C   UNL A   1      33.222  23.861  22.274  1.00  0.00     0.068 A 
ATOM     12  C   UNL A   1      32.652  22.951  23.131  1.00  0.00     0.028 A 
BRANCH   9  13
ATOM     13  N   UNL A   1      33.490  25.536  25.590  1.00  0.00    -0.317 N 
ATOM     14  C   UNL A   1      32.984  26.742  25.958  1.00  0.00     0.229 C 
ATOM     15  O   UNL A   1      33.725  27.456  26.650  1.00  0.00    -0.274 OA
ATOM     16  H   UNL A   1      34.249  25.237  26.140  1.00  0.00     0.170 HD
BRANCH  14  17
ATOM     17  C   UNL A   1      31.514  27.150  25.807  1.00  0.00     0.139 C 
BRANCH  17  18
ATOM     18  C   UNL A   1      31.037  27.972  24.653  1.00  0.00     0.002 A 
ATOM     19  C   UNL A   1      29.819  25.884  23.656  1.00  0.00     0.067 C 
ATOM     20  C   UNL A   1      30.226  27.340  23.554  1.00  0.00     0.049 A 
ATOM     21  N   UNL A   1      29.763  27.966  22.520  1.00  0.00    -0.198 NA
ATOM     22  C   UNL A   1      30.003  29.302  22.388  1.00  0.00     0.345 A 
ATOM     23  C   UNL A   1      31.110  29.315  24.552  1.00  0.00     0.022 A 
ATOM     24  O   UNL A   1      29.633  29.965  21.423  1.00  0.00    -0.246 OA
ATOM     25  N   UNL A   1      30.630  29.933  23.428  1.00  0.00    -0.310 N 
ATOM     26  C   UNL A   1      31.672  30.266  25.568  1.00  0.00     0.065 C 
ATOM     27  H   UNL A   1      30.745  30.909  23.362  1.00  0.00     0.171 HD
ENDBRANCH  17  18
ENDBRANCH  14  17
ENDBRANCH   9  13
ENDBRANCH   5   8
ENDBRANCH   3   4
ENDBRANCH   2   3
ENDBRANCH   1   2
BRANCH   1  28
ATOM     28  C   UNL A   1      36.331  20.671  25.094  1.00  0.00     0.002 C 
BRANCH  28  29
ATOM     29  C   UNL A   1      37.769  20.364  24.695  1.00  0.00     0.021 C 
BRANCH  29  30
ATOM     30  C   UNL A   1      38.782  20.484  25.816  1.00  0.00     0.116 C 
BRANCH  30  31
ATOM     31  N   UNL A   1      39.821  19.469  25.779  1.00  0.00    -0.352 N 
ATOM     32  C   UNL A   1      41.146  19.604  26.116  1.00  0.00     0.251 C 
ATOM     33  H   UNL A   1      39.541  18.575  25.476  1.00  0.00     0.163 HD
ATOM     34  O   UNL A   1      41.931  18.676  25.958  1.00  0.00    -0.269 OA
BRANCH  32  35
ATOM     35  C   UNL A   1      41.623  20.903  26.637  1.00  0.00     0.039 A 
ATOM     36  C   UNL A   1      42.030  21.885  25.733  1.00  0.00     0.014 A 
ATOM     37  C   UNL A   1      41.623  21.162  28.010  1.00  0.00     0.014 A 
ATOM     38  C   UNL A   1      42.398  23.145  26.208  1.00  0.00     0.010 A 
ATOM     39  C   UNL A   1      41.885  22.445  28.470  1.00  0.00     0.010 A 
ATOM     40  C   UNL A   1      42.307  23.440  27.577  1.00  0.00    -0.014 A 
BRANCH  40  41
ATOM     41  C   UNL A   1      42.712  24.762  28.110  1.00  0.00     0.031 A 
ATOM     42  C   UNL A   1      41.667  25.820  28.345  1.00  0.00     0.074 A 
ATOM     43  C   UNL A   1      44.013  25.028  28.335  1.00  0.00     0.049 A 
ATOM     44  N   UNL A   1      41.813  27.044  28.786  1.00  0.00    -0.248 NA
ATOM     45  C   UNL A   1      40.277  25.468  28.007  1.00  0.00     0.031 C 
ATOM     46  C   UNL A   1      45.124  24.103  28.100  1.00  0.00     0.029 A 
ATOM     47  N   UNL A   1      44.619  26.159  28.821  1.00  0.00    -0.354 N 
ATOM     48  C   UNL A   1      40.545  27.610  28.745  1.00  0.00     0.074 A 
ATOM     49  C   UNL A   1      39.654  26.623  28.180  1.00  0.00     0.031 C 
ATOM     50  C   UNL A   1      46.270  24.685  28.489  1.00  0.00     0.029 A 
ATOM     51  C   UNL A   1      45.979  26.034  28.967  1.00  0.00     0.049 A 
ATOM     52  H   UNL A   1      44.125  26.980  29.045  1.00  0.00     0.167 HD
ATOM     53  C   UNL A   1      40.147  28.833  29.167  1.00  0.00     0.031 A 
ATOM     54  C   UNL A   1      46.884  26.905  29.448  1.00  0.00     0.031 A 
ATOM     55  C   UNL A   1      41.029  29.799  29.761  1.00  0.00     0.049 A 
ATOM     56  C   UNL A   1      46.417  28.252  29.929  1.00  0.00     0.074 A 
ATOM     57  C   UNL A   1      40.720  31.037  30.294  1.00  0.00     0.029 A 
ATOM     58  N   UNL A   1      42.397  29.629  29.903  1.00  0.00    -0.354 N 
ATOM     59  N   UNL A   1      45.202  28.744  29.961  1.00  0.00    -0.248 NA
ATOM     60  C   UNL A   1      47.448  29.154  30.459  1.00  0.00     0.031 C 
ATOM     61  C   UNL A   1      41.911  31.638  30.714  1.00  0.00     0.029 A 
ATOM     62  C   UNL A   1      42.952  30.749  30.496  1.00  0.00     0.049 A 
ATOM     63  H   UNL A   1      42.900  28.830  29.624  1.00  0.00     0.167 HD
ATOM     64  C   UNL A   1      45.317  29.997  30.549  1.00  0.00     0.074 A 
ATOM     65  C   UNL A   1      46.717  30.183  30.866  1.00  0.00     0.031 C 
ATOM     66  C   UNL A   1      44.349  30.910  30.807  1.00  0.00     0.031 A 
BRANCH  53  67
ATOM     67  C   UNL A   1      38.696  29.186  28.988  1.00  0.00    -0.014 A 
ATOM     68  C   UNL A   1      38.209  29.702  27.776  1.00  0.00     0.009 A 
ATOM     69  C   UNL A   1      37.799  28.996  30.051  1.00  0.00     0.009 A 
ATOM     70  C   UNL A   1      36.868  30.068  27.648  1.00  0.00     0.001 A 
ATOM     71  C   UNL A   1      36.450  29.331  29.908  1.00  0.00     0.001 A 
ATOM     72  C   UNL A   1      35.989  29.879  28.713  1.00  0.00     0.000 A 
ENDBRANCH  53  67
BRANCH  54  73
ATOM     73  C   UNL A   1      48.315  26.517  29.552  1.00  0.00    -0.014 A 
ATOM     74  C   UNL A   1      48.788  25.864  30.702  1.00  0.00     0.009 A 
ATOM     75  C   UNL A   1      49.215  26.796  28.513  1.00  0.00     0.009 A 
ATOM     76  C   UNL A   1      50.138  25.525  30.822  1.00  0.00     0.001 A 
ATOM     77  C   UNL A   1      50.560  26.431  28.624  1.00  0.00     0.001 A 
ATOM     78  C   UNL A   1      51.022  25.806  29.781  1.00  0.00     0.000 A 
ENDBRANCH  54  73
BRANCH  66  79
ATOM     79  C   UNL A   1      44.767  32.170  31.513  1.00  0.00    -0.014 A 
ATOM     80  C   UNL A   1      45.102  33.332  30.802  1.00  0.00     0.009 A 
ATOM     81  C   UNL A   1      44.788  32.199  32.916  1.00  0.00     0.009 A 
ATOM     82  C   UNL A   1      45.490  34.487  31.483  1.00  0.00     0.001 A 
ATOM     83  C   UNL A   1      45.145  33.365  33.594  1.00  0.00     0.001 A 
ATOM     84  C   UNL A   1      45.506  34.503  32.877  1.00  0.00     0.000 A 
ENDBRANCH  66  79
ENDBRANCH  40  41
ENDBRANCH  32  35
ENDBRANCH  30  31
ENDBRANCH  29  30
ENDBRANCH  28  29
ENDBRANCH   1  28
TORSDOF 16
ENDMDL
