MODEL 1
REMARK VINA RESULT:     -10.8      0.000      0.000
REMARK SMILES CC(C)c1ccc(NC(=O)C[C@H]2SC[C@@H](C(=O)NCCCCCCNC(=O)c3ccc(-c4c5nc(c(-c6ccccc6)c6ccc([nH]6)c(-c6ccccc6)c6nc(c(-c7ccccc7)c7ccc4[nH]7)C=C6)C=C5)cc3)NC2=O)cc1
REMARK SMILES IDX 20 1 19 2 18 3 16 4 17 5 15 7 12 8 13 9 77 10 14 11 76 12
REMARK SMILES IDX 78 13 11 15 9 16 8 17 10 19 7 20 4 21 5 22 80 23 6 24 79 25
REMARK SMILES IDX 2 26 1 27 3 28 21 29 22 30 23 31 24 32 25 33 26 34 27 36
REMARK SMILES IDX 28 37 29 38 75 39 30 40 74 41 31 42 32 43 33 44 68 45 34 46
REMARK SMILES IDX 73 47 67 48 69 49 35 50 72 51 66 52 65 53 36 55 58 56 43 57
REMARK SMILES IDX 57 58 44 59 47 60 56 61 70 62 45 63 46 64 55 66 71 67 48 68
REMARK SMILES IDX 37 69 38 70 42 71 39 72 41 73 40 74 59 75 60 76 64 77 61 78
REMARK SMILES IDX 63 79 62 80 49 81 50 82 54 83 51 84 53 85 52 86
REMARK H PARENT 18 6 76 14 8 18 25 35 69 54 47 65
REMARK Flexibility Score: inf
ROOT
ATOM      1  C   UNL A   1      40.781  21.809  27.560  1.00  0.00     0.021 C 
ENDROOT
BRANCH   1   2
ATOM      2  C   UNL A   1      39.991  22.137  26.293  1.00  0.00     0.116 C 
BRANCH   2   3
ATOM      3  N   UNL A   1      38.733  22.739  26.666  1.00  0.00    -0.354 N 
ATOM      4  C   UNL A   1      37.707  23.072  25.824  1.00  0.00     0.243 C 
ATOM      5  O   UNL A   1      37.022  24.048  26.124  1.00  0.00    -0.273 OA
ATOM      6  H   UNL A   1      38.599  22.930  27.623  1.00  0.00     0.163 HD
BRANCH   4   7
ATOM      7  C   UNL A   1      37.299  22.042  24.749  1.00  0.00     0.181 C 
ATOM      8  C   UNL A   1      34.253  22.245  24.684  1.00  0.00     0.145 C 
ATOM      9  S   UNL A   1      35.137  23.460  23.609  1.00  0.00    -0.145 SA
ATOM     10  C   UNL A   1      35.128  21.672  25.806  1.00  0.00     0.234 C 
ATOM     11  C   UNL A   1      36.755  22.649  23.466  1.00  0.00     0.105 C 
ATOM     12  N   UNL A   1      36.365  21.184  25.457  1.00  0.00    -0.343 N 
ATOM     13  O   UNL A   1      34.785  21.493  26.971  1.00  0.00    -0.274 OA
ATOM     14  H   UNL A   1      36.615  20.259  25.685  1.00  0.00     0.164 HD
BRANCH   8  15
ATOM     15  C   UNL A   1      32.902  22.861  25.072  1.00  0.00     0.124 C 
BRANCH  15  16
ATOM     16  C   UNL A   1      32.002  23.460  24.009  1.00  0.00     0.226 C 
ATOM     17  N   UNL A   1      31.651  24.773  23.961  1.00  0.00    -0.326 N 
ATOM     18  H   UNL A   1      31.062  24.999  23.205  1.00  0.00     0.169 HD
ATOM     19  O   UNL A   1      31.533  22.722  23.131  1.00  0.00    -0.275 OA
BRANCH  17  20
ATOM     20  C   UNL A   1      31.968  25.862  24.778  1.00  0.00     0.041 A 
ATOM     21  C   UNL A   1      32.903  27.936  26.459  1.00  0.00    -0.045 A 
ATOM     22  C   UNL A   1      31.733  27.227  26.762  1.00  0.00     0.006 A 
ATOM     23  C   UNL A   1      33.558  27.631  25.257  1.00  0.00     0.006 A 
ATOM     24  C   UNL A   1      31.261  26.214  25.919  1.00  0.00     0.026 A 
ATOM     25  C   UNL A   1      33.092  26.613  24.423  1.00  0.00     0.026 A 
BRANCH  21  26
ATOM     26  C   UNL A   1      33.471  29.027  27.357  1.00  0.00     0.013 C 
ATOM     27  C   UNL A   1      34.987  29.227  27.249  1.00  0.00     0.012 C 
ATOM     28  C   UNL A   1      32.775  30.372  27.105  1.00  0.00     0.012 C 
ENDBRANCH  21  26
ENDBRANCH  17  20
ENDBRANCH  15  16
ENDBRANCH   8  15
ENDBRANCH   4   7
ENDBRANCH   2   3
ENDBRANCH   1   2
BRANCH   1  29
ATOM     29  C   UNL A   1      41.877  20.753  27.340  1.00  0.00     0.002 C 
BRANCH  29  30
ATOM     30  C   UNL A   1      41.702  19.897  26.081  1.00  0.00     0.002 C 
BRANCH  30  31
ATOM     31  C   UNL A   1      42.397  18.537  26.137  1.00  0.00     0.021 C 
BRANCH  31  32
ATOM     32  C   UNL A   1      43.917  18.610  26.105  1.00  0.00     0.116 C 
BRANCH  32  33
ATOM     33  N   UNL A   1      44.434  18.594  24.746  1.00  0.00    -0.352 N 
ATOM     34  C   UNL A   1      44.759  19.653  23.940  1.00  0.00     0.251 C 
ATOM     35  H   UNL A   1      44.570  17.702  24.353  1.00  0.00     0.163 HD
ATOM     36  O   UNL A   1      45.001  19.477  22.747  1.00  0.00    -0.269 OA
BRANCH  34  37
ATOM     37  C   UNL A   1      44.794  21.017  24.506  1.00  0.00     0.039 A 
ATOM     38  C   UNL A   1      45.432  21.224  25.730  1.00  0.00     0.014 A 
ATOM     39  C   UNL A   1      44.207  22.088  23.826  1.00  0.00     0.014 A 
ATOM     40  C   UNL A   1      45.530  22.517  26.247  1.00  0.00     0.010 A 
ATOM     41  C   UNL A   1      44.372  23.385  24.304  1.00  0.00     0.010 A 
ATOM     42  C   UNL A   1      45.030  23.611  25.523  1.00  0.00    -0.014 A 
BRANCH  42  43
ATOM     43  C   UNL A   1      45.183  24.999  26.026  1.00  0.00     0.031 A 
ATOM     44  C   UNL A   1      46.525  25.680  25.972  1.00  0.00     0.074 A 
ATOM     45  C   UNL A   1      44.131  25.626  26.587  1.00  0.00     0.049 A 
ATOM     46  N   UNL A   1      46.866  26.867  26.407  1.00  0.00    -0.248 NA
ATOM     47  C   UNL A   1      47.635  24.919  25.373  1.00  0.00     0.031 C 
ATOM     48  C   UNL A   1      42.786  25.062  26.736  1.00  0.00     0.029 A 
ATOM     49  N   UNL A   1      44.027  26.877  27.145  1.00  0.00    -0.354 N 
ATOM     50  C   UNL A   1      48.227  26.983  26.158  1.00  0.00     0.074 A 
ATOM     51  C   UNL A   1      48.661  25.734  25.572  1.00  0.00     0.031 C 
ATOM     52  C   UNL A   1      41.989  25.974  27.316  1.00  0.00     0.029 A 
ATOM     53  C   UNL A   1      42.772  27.167  27.621  1.00  0.00     0.049 A 
ATOM     54  H   UNL A   1      44.782  27.507  27.197  1.00  0.00     0.167 HD
ATOM     55  C   UNL A   1      49.042  28.042  26.382  1.00  0.00     0.031 A 
ATOM     56  C   UNL A   1      42.305  28.267  28.241  1.00  0.00     0.031 A 
ATOM     57  C   UNL A   1      48.606  29.293  26.941  1.00  0.00     0.049 A 
ATOM     58  C   UNL A   1      43.237  29.422  28.486  1.00  0.00     0.074 A 
ATOM     59  C   UNL A   1      49.339  30.451  27.131  1.00  0.00     0.029 A 
ATOM     60  N   UNL A   1      47.325  29.548  27.403  1.00  0.00    -0.354 N 
ATOM     61  N   UNL A   1      44.501  29.548  28.163  1.00  0.00    -0.248 NA
ATOM     62  C   UNL A   1      42.672  30.592  29.173  1.00  0.00     0.031 C 
ATOM     63  C   UNL A   1      48.518  31.387  27.767  1.00  0.00     0.029 A 
ATOM     64  C   UNL A   1      47.257  30.834  27.912  1.00  0.00     0.049 A 
ATOM     65  H   UNL A   1      46.575  28.910  27.374  1.00  0.00     0.167 HD
ATOM     66  C   UNL A   1      44.870  30.823  28.574  1.00  0.00     0.074 A 
ATOM     67  C   UNL A   1      43.694  31.434  29.156  1.00  0.00     0.031 C 
ATOM     68  C   UNL A   1      46.077  31.432  28.480  1.00  0.00     0.031 A 
BRANCH  55  69
ATOM     69  C   UNL A   1      50.497  27.894  26.034  1.00  0.00    -0.014 A 
ATOM     70  C   UNL A   1      51.428  27.410  26.967  1.00  0.00     0.009 A 
ATOM     71  C   UNL A   1      50.930  28.183  24.730  1.00  0.00     0.009 A 
ATOM     72  C   UNL A   1      52.768  27.246  26.608  1.00  0.00     0.001 A 
ATOM     73  C   UNL A   1      52.264  27.990  24.366  1.00  0.00     0.001 A 
ATOM     74  C   UNL A   1      53.183  27.529  25.307  1.00  0.00     0.000 A 
ENDBRANCH  55  69
BRANCH  56  75
ATOM     75  C   UNL A   1      40.884  28.342  28.677  1.00  0.00    -0.014 A 
ATOM     76  C   UNL A   1      40.491  27.817  29.918  1.00  0.00     0.009 A 
ATOM     77  C   UNL A   1      39.908  28.901  27.838  1.00  0.00     0.009 A 
ATOM     78  C   UNL A   1      39.145  27.815  30.292  1.00  0.00     0.001 A 
ATOM     79  C   UNL A   1      38.568  28.927  28.229  1.00  0.00     0.001 A 
ATOM     80  C   UNL A   1      38.185  28.372  29.449  1.00  0.00     0.000 A 
ENDBRANCH  56  75
BRANCH  68  81
ATOM     81  C   UNL A   1      46.175  32.848  28.973  1.00  0.00    -0.014 A 
ATOM     82  C   UNL A   1      45.809  33.933  28.162  1.00  0.00     0.009 A 
ATOM     83  C   UNL A   1      46.603  33.095  30.288  1.00  0.00     0.009 A 
ATOM     84  C   UNL A   1      45.904  35.240  28.646  1.00  0.00     0.001 A 
ATOM     85  C   UNL A   1      46.666  34.399  30.779  1.00  0.00     0.001 A 
ATOM     86  C   UNL A   1      46.327  35.470  29.955  1.00  0.00     0.000 A 
ENDBRANCH  68  81
ENDBRANCH  42  43
ENDBRANCH  34  37
ENDBRANCH  32  33
ENDBRANCH  31  32
ENDBRANCH  30  31
ENDBRANCH  29  30
ENDBRANCH   1  29
TORSDOF 17
ENDMDL
MODEL 2
REMARK VINA RESULT:     -10.7      6.227     11.925
REMARK SMILES CC(C)c1ccc(NC(=O)C[C@H]2SC[C@@H](C(=O)NCCCCCCNC(=O)c3ccc(-c4c5nc(c(-c6ccccc6)c6ccc([nH]6)c(-c6ccccc6)c6nc(c(-c7ccccc7)c7ccc4[nH]7)C=C6)C=C5)cc3)NC2=O)cc1
REMARK SMILES IDX 20 1 19 2 18 3 16 4 17 5 15 7 12 8 13 9 77 10 14 11 76 12
REMARK SMILES IDX 78 13 11 15 9 16 8 17 10 19 7 20 4 21 5 22 80 23 6 24 79 25
REMARK SMILES IDX 2 26 1 27 3 28 21 29 22 30 23 31 24 32 25 33 26 34 27 36
REMARK SMILES IDX 28 37 29 38 75 39 30 40 74 41 31 42 32 43 33 44 68 45 34 46
REMARK SMILES IDX 73 47 67 48 69 49 35 50 72 51 66 52 65 53 36 55 58 56 43 57
REMARK SMILES IDX 57 58 44 59 47 60 56 61 70 62 45 63 46 64 55 66 71 67 48 68
REMARK SMILES IDX 37 69 38 70 42 71 39 72 41 73 40 74 59 75 60 76 64 77 61 78
REMARK SMILES IDX 63 79 62 80 49 81 50 82 54 83 51 84 53 85 52 86
REMARK H PARENT 18 6 76 14 8 18 25 35 69 54 47 65
REMARK Flexibility Score: inf
ROOT
ATOM      1  C   UNL A   1      35.596  32.495  28.082  1.00  0.00     0.021 C 
ENDROOT
BRANCH   1   2
ATOM      2  C   UNL A   1      34.464  31.468  28.125  1.00  0.00     0.116 C 
BRANCH   2   3
ATOM      3  N   UNL A   1      34.748  30.415  27.179  1.00  0.00    -0.354 N 
ATOM      4  C   UNL A   1      33.956  29.336  26.899  1.00  0.00     0.243 C 
ATOM      5  O   UNL A   1      34.516  28.288  26.582  1.00  0.00    -0.273 OA
ATOM      6  H   UNL A   1      35.599  30.479  26.686  1.00  0.00     0.163 HD
BRANCH   4   7
ATOM      7  C   UNL A   1      32.445  29.587  26.702  1.00  0.00     0.181 C 
ATOM      8  C   UNL A   1      31.687  27.665  24.453  1.00  0.00     0.145 C 
ATOM      9  S   UNL A   1      31.647  26.933  26.149  1.00  0.00    -0.145 SA
ATOM     10  C   UNL A   1      32.555  28.926  24.352  1.00  0.00     0.234 C 
ATOM     11  C   UNL A   1      31.550  28.444  27.151  1.00  0.00     0.105 C 
ATOM     12  N   UNL A   1      32.350  29.911  25.289  1.00  0.00    -0.343 N 
ATOM     13  O   UNL A   1      33.333  29.198  23.443  1.00  0.00    -0.274 OA
ATOM     14  H   UNL A   1      32.139  30.831  25.004  1.00  0.00     0.164 HD
BRANCH   8  15
ATOM     15  C   UNL A   1      31.959  26.527  23.459  1.00  0.00     0.124 C 
BRANCH  15  16
ATOM     16  C   UNL A   1      31.238  25.201  23.601  1.00  0.00     0.226 C 
ATOM     17  N   UNL A   1      31.857  24.026  23.893  1.00  0.00    -0.326 N 
ATOM     18  H   UNL A   1      31.245  23.258  23.951  1.00  0.00     0.169 HD
ATOM     19  O   UNL A   1      30.012  25.161  23.429  1.00  0.00    -0.275 OA
BRANCH  17  20
ATOM     20  C   UNL A   1      33.197  23.700  24.126  1.00  0.00     0.041 A 
ATOM     21  C   UNL A   1      35.945  23.347  24.698  1.00  0.00    -0.045 A 
ATOM     22  C   UNL A   1      35.418  23.030  23.439  1.00  0.00     0.006 A 
ATOM     23  C   UNL A   1      35.050  23.779  25.688  1.00  0.00     0.006 A 
ATOM     24  C   UNL A   1      34.055  23.187  23.163  1.00  0.00     0.026 A 
ATOM     25  C   UNL A   1      33.693  23.946  25.409  1.00  0.00     0.026 A 
BRANCH  21  26
ATOM     26  C   UNL A   1      37.423  23.218  25.038  1.00  0.00     0.013 C 
ATOM     27  C   UNL A   1      37.864  23.973  26.297  1.00  0.00     0.012 C 
ATOM     28  C   UNL A   1      37.836  21.745  25.173  1.00  0.00     0.012 C 
ENDBRANCH  21  26
ENDBRANCH  17  20
ENDBRANCH  15  16
ENDBRANCH   8  15
ENDBRANCH   4   7
ENDBRANCH   2   3
ENDBRANCH   1   2
BRANCH   1  29
ATOM     29  C   UNL A   1      35.117  33.920  27.758  1.00  0.00     0.002 C 
BRANCH  29  30
ATOM     30  C   UNL A   1      34.929  34.828  28.978  1.00  0.00     0.002 C 
BRANCH  30  31
ATOM     31  C   UNL A   1      33.514  35.379  29.147  1.00  0.00     0.021 C 
BRANCH  31  32
ATOM     32  C   UNL A   1      33.423  36.598  30.055  1.00  0.00     0.116 C 
BRANCH  32  33
ATOM     33  N   UNL A   1      32.384  36.453  31.061  1.00  0.00    -0.352 N 
ATOM     34  C   UNL A   1      32.373  35.648  32.171  1.00  0.00     0.251 C 
ATOM     35  H   UNL A   1      31.582  37.006  30.928  1.00  0.00     0.163 HD
ATOM     36  O   UNL A   1      31.339  35.495  32.819  1.00  0.00    -0.269 OA
BRANCH  34  37
ATOM     37  C   UNL A   1      33.607  34.944  32.574  1.00  0.00     0.039 A 
ATOM     38  C   UNL A   1      33.537  33.586  32.888  1.00  0.00     0.014 A 
ATOM     39  C   UNL A   1      34.829  35.621  32.632  1.00  0.00     0.014 A 
ATOM     40  C   UNL A   1      34.705  32.892  33.208  1.00  0.00     0.010 A 
ATOM     41  C   UNL A   1      36.001  34.911  32.875  1.00  0.00     0.010 A 
ATOM     42  C   UNL A   1      35.950  33.540  33.173  1.00  0.00    -0.014 A 
BRANCH  42  43
ATOM     43  C   UNL A   1      37.209  32.802  33.446  1.00  0.00     0.031 A 
ATOM     44  C   UNL A   1      37.980  33.062  34.712  1.00  0.00     0.074 A 
ATOM     45  C   UNL A   1      37.690  31.941  32.527  1.00  0.00     0.049 A 
ATOM     46  N   UNL A   1      39.121  32.554  35.102  1.00  0.00    -0.248 NA
ATOM     47  C   UNL A   1      37.406  34.040  35.652  1.00  0.00     0.031 C 
ATOM     48  C   UNL A   1      37.058  31.628  31.243  1.00  0.00     0.029 A 
ATOM     49  N   UNL A   1      38.829  31.174  32.531  1.00  0.00    -0.354 N 
ATOM     50  C   UNL A   1      39.413  33.166  36.315  1.00  0.00     0.074 A 
ATOM     51  C   UNL A   1      38.352  34.113  36.579  1.00  0.00     0.031 C 
ATOM     52  C   UNL A   1      37.802  30.715  30.598  1.00  0.00     0.029 A 
ATOM     53  C   UNL A   1      38.983  30.410  31.399  1.00  0.00     0.049 A 
ATOM     54  H   UNL A   1      39.473  31.171  33.275  1.00  0.00     0.167 HD
ATOM     55  C   UNL A   1      40.462  32.948  37.142  1.00  0.00     0.031 A 
ATOM     56  C   UNL A   1      39.969  29.565  31.043  1.00  0.00     0.031 A 
ATOM     57  C   UNL A   1      41.503  31.988  36.893  1.00  0.00     0.049 A 
ATOM     58  C   UNL A   1      41.127  29.352  31.979  1.00  0.00     0.074 A 
ATOM     59  C   UNL A   1      42.564  31.638  37.710  1.00  0.00     0.029 A 
ATOM     60  N   UNL A   1      41.618  31.230  35.739  1.00  0.00    -0.354 N 
ATOM     61  N   UNL A   1      41.340  29.873  33.163  1.00  0.00    -0.248 NA
ATOM     62  C   UNL A   1      42.175  28.424  31.533  1.00  0.00     0.031 C 
ATOM     63  C   UNL A   1      43.356  30.713  37.024  1.00  0.00     0.029 A 
ATOM     64  C   UNL A   1      42.753  30.440  35.808  1.00  0.00     0.049 A 
ATOM     65  H   UNL A   1      40.987  31.250  34.983  1.00  0.00     0.167 HD
ATOM     66  C   UNL A   1      42.526  29.309  33.616  1.00  0.00     0.074 A 
ATOM     67  C   UNL A   1      42.977  28.396  32.587  1.00  0.00     0.031 C 
ATOM     68  C   UNL A   1      43.184  29.529  34.780  1.00  0.00     0.031 A 
BRANCH  55  69
ATOM     69  C   UNL A   1      40.547  33.770  38.398  1.00  0.00    -0.014 A 
ATOM     70  C   UNL A   1      39.949  33.343  39.595  1.00  0.00     0.009 A 
ATOM     71  C   UNL A   1      41.293  34.959  38.399  1.00  0.00     0.009 A 
ATOM     72  C   UNL A   1      40.074  34.107  40.758  1.00  0.00     0.001 A 
ATOM     73  C   UNL A   1      41.441  35.705  39.569  1.00  0.00     0.001 A 
ATOM     74  C   UNL A   1      40.824  35.282  40.747  1.00  0.00     0.000 A 
ENDBRANCH  55  69
BRANCH  56  75
ATOM     75  C   UNL A   1      39.914  28.848  29.741  1.00  0.00    -0.014 A 
ATOM     76  C   UNL A   1      39.386  27.549  29.665  1.00  0.00     0.009 A 
ATOM     77  C   UNL A   1      40.425  29.441  28.576  1.00  0.00     0.009 A 
ATOM     78  C   UNL A   1      39.408  26.845  28.458  1.00  0.00     0.001 A 
ATOM     79  C   UNL A   1      40.416  28.746  27.364  1.00  0.00     0.001 A 
ATOM     80  C   UNL A   1      39.921  27.445  27.309  1.00  0.00     0.000 A 
ENDBRANCH  56  75
BRANCH  68  81
ATOM     81  C   UNL A   1      44.436  28.734  35.025  1.00  0.00    -0.014 A 
ATOM     82  C   UNL A   1      45.699  29.227  34.663  1.00  0.00     0.009 A 
ATOM     83  C   UNL A   1      44.350  27.488  35.666  1.00  0.00     0.009 A 
ATOM     84  C   UNL A   1      46.848  28.470  34.905  1.00  0.00     0.001 A 
ATOM     85  C   UNL A   1      45.502  26.749  35.936  1.00  0.00     0.001 A 
ATOM     86  C   UNL A   1      46.748  27.236  35.547  1.00  0.00     0.000 A 
ENDBRANCH  68  81
ENDBRANCH  42  43
ENDBRANCH  34  37
ENDBRANCH  32  33
ENDBRANCH  31  32
ENDBRANCH  30  31
ENDBRANCH  29  30
ENDBRANCH   1  29
TORSDOF 17
ENDMDL
MODEL 3
REMARK VINA RESULT:     -10.7      1.925      3.883
REMARK SMILES CC(C)c1ccc(NC(=O)C[C@H]2SC[C@@H](C(=O)NCCCCCCNC(=O)c3ccc(-c4c5nc(c(-c6ccccc6)c6ccc([nH]6)c(-c6ccccc6)c6nc(c(-c7ccccc7)c7ccc4[nH]7)C=C6)C=C5)cc3)NC2=O)cc1
REMARK SMILES IDX 20 1 19 2 18 3 16 4 17 5 15 7 12 8 13 9 77 10 14 11 76 12
REMARK SMILES IDX 78 13 11 15 9 16 8 17 10 19 7 20 4 21 5 22 80 23 6 24 79 25
REMARK SMILES IDX 2 26 1 27 3 28 21 29 22 30 23 31 24 32 25 33 26 34 27 36
REMARK SMILES IDX 28 37 29 38 75 39 30 40 74 41 31 42 32 43 33 44 68 45 34 46
REMARK SMILES IDX 73 47 67 48 69 49 35 50 72 51 66 52 65 53 36 55 58 56 43 57
REMARK SMILES IDX 57 58 44 59 47 60 56 61 70 62 45 63 46 64 55 66 71 67 48 68
REMARK SMILES IDX 37 69 38 70 42 71 39 72 41 73 40 74 59 75 60 76 64 77 61 78
REMARK SMILES IDX 63 79 62 80 49 81 50 82 54 83 51 84 53 85 52 86
REMARK H PARENT 18 6 76 14 8 18 25 35 69 54 47 65
REMARK Flexibility Score: inf
ROOT
ATOM      1  C   UNL A   1      40.445  22.070  27.746  1.00  0.00     0.021 C 
ENDROOT
BRANCH   1   2
ATOM      2  C   UNL A   1      39.996  22.863  26.519  1.00  0.00     0.116 C 
BRANCH   2   3
ATOM      3  N   UNL A   1      39.085  22.055  25.743  1.00  0.00    -0.354 N 
ATOM      4  C   UNL A   1      37.720  22.052  25.833  1.00  0.00     0.243 C 
ATOM      5  O   UNL A   1      37.140  20.992  25.606  1.00  0.00    -0.273 OA
ATOM      6  H   UNL A   1      39.487  21.444  25.083  1.00  0.00     0.163 HD
BRANCH   4   7
ATOM      7  C   UNL A   1      37.003  23.417  25.908  1.00  0.00     0.181 C 
ATOM      8  C   UNL A   1      34.787  23.175  23.821  1.00  0.00     0.145 C 
ATOM      9  S   UNL A   1      34.355  22.523  25.494  1.00  0.00    -0.145 SA
ATOM     10  C   UNL A   1      36.298  23.269  23.573  1.00  0.00     0.234 C 
ATOM     11  C   UNL A   1      35.606  23.365  26.504  1.00  0.00     0.105 C 
ATOM     12  N   UNL A   1      37.059  23.890  24.535  1.00  0.00    -0.343 N 
ATOM     13  O   UNL A   1      36.883  22.953  22.542  1.00  0.00    -0.274 OA
ATOM     14  H   UNL A   1      37.638  24.650  24.295  1.00  0.00     0.164 HD
BRANCH   8  15
ATOM     15  C   UNL A   1      33.938  22.418  22.790  1.00  0.00     0.124 C 
BRANCH  15  16
ATOM     16  C   UNL A   1      32.431  22.357  22.940  1.00  0.00     0.226 C 
ATOM     17  N   UNL A   1      31.743  21.226  23.250  1.00  0.00    -0.326 N 
ATOM     18  H   UNL A   1      30.769  21.357  23.312  1.00  0.00     0.169 HD
ATOM     19  O   UNL A   1      31.765  23.385  22.757  1.00  0.00    -0.275 OA
BRANCH  17  20
ATOM     20  C   UNL A   1      32.153  19.912  23.500  1.00  0.00     0.041 A 
ATOM     21  C   UNL A   1      33.240  17.384  24.154  1.00  0.00    -0.045 A 
ATOM     22  C   UNL A   1      32.903  17.711  22.834  1.00  0.00     0.006 A 
ATOM     23  C   UNL A   1      32.955  18.328  25.152  1.00  0.00     0.006 A 
ATOM     24  C   UNL A   1      32.347  18.955  22.514  1.00  0.00     0.026 A 
ATOM     25  C   UNL A   1      32.411  19.573  24.830  1.00  0.00     0.026 A 
BRANCH  21  26
ATOM     26  C   UNL A   1      33.870  16.055  24.548  1.00  0.00     0.013 C 
ATOM     27  C   UNL A   1      35.197  16.171  25.307  1.00  0.00     0.012 C 
ATOM     28  C   UNL A   1      32.898  15.203  25.376  1.00  0.00     0.012 C 
ENDBRANCH  21  26
ENDBRANCH  17  20
ENDBRANCH  15  16
ENDBRANCH   8  15
ENDBRANCH   4   7
ENDBRANCH   2   3
ENDBRANCH   1   2
BRANCH   1  29
ATOM     29  C   UNL A   1      41.808  21.382  27.565  1.00  0.00     0.002 C 
BRANCH  29  30
ATOM     30  C   UNL A   1      42.134  20.973  26.125  1.00  0.00     0.002 C 
BRANCH  30  31
ATOM     31  C   UNL A   1      42.125  19.464  25.876  1.00  0.00     0.021 C 
BRANCH  31  32
ATOM     32  C   UNL A   1      43.467  18.785  26.112  1.00  0.00     0.116 C 
BRANCH  32  33
ATOM     33  N   UNL A   1      44.155  18.490  24.866  1.00  0.00    -0.352 N 
ATOM     34  C   UNL A   1      44.807  19.352  24.023  1.00  0.00     0.251 C 
ATOM     35  H   UNL A   1      44.153  17.545  24.591  1.00  0.00     0.163 HD
ATOM     36  O   UNL A   1      45.172  18.977  22.910  1.00  0.00    -0.269 OA
BRANCH  34  37
ATOM     37  C   UNL A   1      45.050  20.745  24.448  1.00  0.00     0.039 A 
ATOM     38  C   UNL A   1      44.660  21.786  23.605  1.00  0.00     0.014 A 
ATOM     39  C   UNL A   1      45.652  21.021  25.680  1.00  0.00     0.014 A 
ATOM     40  C   UNL A   1      44.823  23.109  24.021  1.00  0.00     0.010 A 
ATOM     41  C   UNL A   1      45.743  22.337  26.125  1.00  0.00     0.010 A 
ATOM     42  C   UNL A   1      45.336  23.394  25.297  1.00  0.00    -0.014 A 
BRANCH  42  43
ATOM     43  C   UNL A   1      45.455  24.792  25.781  1.00  0.00     0.031 A 
ATOM     44  C   UNL A   1      46.785  25.497  25.740  1.00  0.00     0.074 A 
ATOM     45  C   UNL A   1      44.381  25.407  26.314  1.00  0.00     0.049 A 
ATOM     46  N   UNL A   1      47.096  26.696  26.162  1.00  0.00    -0.248 NA
ATOM     47  C   UNL A   1      47.919  24.748  25.173  1.00  0.00     0.031 C 
ATOM     48  C   UNL A   1      43.045  24.821  26.447  1.00  0.00     0.029 A 
ATOM     49  N   UNL A   1      44.245  26.665  26.850  1.00  0.00    -0.354 N 
ATOM     50  C   UNL A   1      48.459  26.835  25.935  1.00  0.00     0.074 A 
ATOM     51  C   UNL A   1      48.926  25.585  25.376  1.00  0.00     0.031 C 
ATOM     52  C   UNL A   1      42.221  25.727  27.000  1.00  0.00     0.029 A 
ATOM     53  C   UNL A   1      42.976  26.938  27.300  1.00  0.00     0.049 A 
ATOM     54  H   UNL A   1      44.988  27.309  26.906  1.00  0.00     0.167 HD
ATOM     55  C   UNL A   1      49.250  27.911  26.157  1.00  0.00     0.031 A 
ATOM     56  C   UNL A   1      42.478  28.039  27.894  1.00  0.00     0.031 A 
ATOM     57  C   UNL A   1      48.782  29.163  26.689  1.00  0.00     0.049 A 
ATOM     58  C   UNL A   1      43.384  29.215  28.138  1.00  0.00     0.074 A 
ATOM     59  C   UNL A   1      49.490  30.337  26.874  1.00  0.00     0.029 A 
ATOM     60  N   UNL A   1      47.488  29.400  27.124  1.00  0.00    -0.354 N 
ATOM     61  N   UNL A   1      44.651  29.360  27.835  1.00  0.00    -0.248 NA
ATOM     62  C   UNL A   1      42.786  30.385  28.797  1.00  0.00     0.031 C 
ATOM     63  C   UNL A   1      48.640  31.267  27.481  1.00  0.00     0.029 A 
ATOM     64  C   UNL A   1      47.387  30.693  27.612  1.00  0.00     0.049 A 
ATOM     65  H   UNL A   1      46.751  28.749  27.092  1.00  0.00     0.167 HD
ATOM     66  C   UNL A   1      44.990  30.647  28.233  1.00  0.00     0.074 A 
ATOM     67  C   UNL A   1      43.793  31.245  28.785  1.00  0.00     0.031 C 
ATOM     68  C   UNL A   1      46.187  31.277  28.150  1.00  0.00     0.031 A 
BRANCH  55  69
ATOM     69  C   UNL A   1      50.714  27.785  25.836  1.00  0.00    -0.014 A 
ATOM     70  C   UNL A   1      51.220  28.141  24.576  1.00  0.00     0.009 A 
ATOM     71  C   UNL A   1      51.608  27.365  26.833  1.00  0.00     0.009 A 
ATOM     72  C   UNL A   1      52.589  28.050  24.314  1.00  0.00     0.001 A 
ATOM     73  C   UNL A   1      52.979  27.303  26.578  1.00  0.00     0.001 A 
ATOM     74  C   UNL A   1      53.467  27.638  25.316  1.00  0.00     0.000 A 
ENDBRANCH  55  69
BRANCH  56  75
ATOM     75  C   UNL A   1      41.049  28.094  28.304  1.00  0.00    -0.014 A 
ATOM     76  C   UNL A   1      40.626  27.488  29.497  1.00  0.00     0.009 A 
ATOM     77  C   UNL A   1      40.094  28.717  27.485  1.00  0.00     0.009 A 
ATOM     78  C   UNL A   1      39.272  27.469  29.842  1.00  0.00     0.001 A 
ATOM     79  C   UNL A   1      38.746  28.725  27.848  1.00  0.00     0.001 A 
ATOM     80  C   UNL A   1      38.334  28.090  29.019  1.00  0.00     0.000 A 
ENDBRANCH  56  75
BRANCH  68  81
ATOM     81  C   UNL A   1      46.250  32.702  28.623  1.00  0.00    -0.014 A 
ATOM     82  C   UNL A   1      45.906  33.770  27.779  1.00  0.00     0.009 A 
ATOM     83  C   UNL A   1      46.621  32.975  29.949  1.00  0.00     0.009 A 
ATOM     84  C   UNL A   1      45.968  35.085  28.245  1.00  0.00     0.001 A 
ATOM     85  C   UNL A   1      46.651  34.288  30.420  1.00  0.00     0.001 A 
ATOM     86  C   UNL A   1      46.335  35.341  29.566  1.00  0.00     0.000 A 
ENDBRANCH  68  81
ENDBRANCH  42  43
ENDBRANCH  34  37
ENDBRANCH  32  33
ENDBRANCH  31  32
ENDBRANCH  30  31
ENDBRANCH  29  30
ENDBRANCH   1  29
TORSDOF 17
ENDMDL
