MODEL 1
REMARK VINA RESULT:     -12.1      0.000      0.000
REMARK SMILES O=C(NCCCCCCNC(=O)[C@H]1CC2=c3ccccc3=N[C@H]2[C@H](c2ccccc2F)[NH2+]1)c1ccc(-c2c3nc(c(-c4ccccc4)c4ccc([nH]4)c(-c4ccccc4)c4nc(c(-c5ccccc5)c5ccc2[nH]5)C=C4)C=C3)cc1
REMARK SMILES IDX 6 1 5 2 4 3 3 4 1 5 2 6 33 8 34 9 80 10 35 11 79 12 36 13
REMARK SMILES IDX 37 14 38 15 73 16 39 17 78 18 72 19 74 20 40 21 77 22 71 23
REMARK SMILES IDX 70 24 41 26 63 27 48 28 62 29 49 30 52 31 61 32 75 33 50 34
REMARK SMILES IDX 51 35 60 37 76 38 53 39 42 40 43 41 47 42 44 43 46 44 45 45
REMARK SMILES IDX 64 46 65 47 69 48 66 49 68 50 67 51 54 52 55 53 59 54 56 55
REMARK SMILES IDX 58 56 57 57 7 58 8 59 9 60 10 61 11 62 12 64 13 65 14 66
REMARK SMILES IDX 32 67 15 68 24 69 16 72 23 73 17 74 21 75 22 76 18 77 20 78
REMARK SMILES IDX 19 79 25 80 26 81 30 82 27 83 29 84 31 85 28 86
REMARK H PARENT 3 7 74 25 52 36 10 63 32 70 32 71
REMARK Flexibility Score: inf
ROOT
ATOM      1  C   UNL A   1      31.267  30.894  25.745  1.00  0.00     0.002 C 
ENDROOT
BRANCH   1   2
ATOM      2  C   UNL A   1      31.141  32.219  26.499  1.00  0.00     0.021 C 
BRANCH   2   3
ATOM      3  C   UNL A   1      32.430  32.736  27.128  1.00  0.00     0.116 C 
BRANCH   3   4
ATOM      4  N   UNL A   1      32.309  34.096  27.622  1.00  0.00    -0.352 N 
ATOM      5  O   UNL A   1      32.691  35.856  28.973  1.00  0.00    -0.269 OA
ATOM      6  C   UNL A   1      33.048  34.755  28.575  1.00  0.00     0.251 C 
ATOM      7  H   UNL A   1      31.588  34.626  27.213  1.00  0.00     0.163 HD
BRANCH   6   8
ATOM      8  C   UNL A   1      34.269  34.131  29.138  1.00  0.00     0.039 A 
ATOM      9  C   UNL A   1      35.504  34.435  28.558  1.00  0.00     0.014 A 
ATOM     10  C   UNL A   1      34.205  33.227  30.201  1.00  0.00     0.014 A 
ATOM     11  C   UNL A   1      36.669  33.856  29.063  1.00  0.00     0.010 A 
ATOM     12  C   UNL A   1      35.376  32.730  30.768  1.00  0.00     0.010 A 
ATOM     13  C   UNL A   1      36.619  33.013  30.186  1.00  0.00    -0.014 A 
BRANCH  13  14
ATOM     14  C   UNL A   1      37.854  32.382  30.722  1.00  0.00     0.031 A 
ATOM     15  C   UNL A   1      38.502  32.922  31.968  1.00  0.00     0.074 A 
ATOM     16  C   UNL A   1      38.401  31.329  30.084  1.00  0.00     0.049 A 
ATOM     17  N   UNL A   1      39.568  32.492  32.597  1.00  0.00    -0.248 NA
ATOM     18  C   UNL A   1      37.891  34.114  32.580  1.00  0.00     0.031 C 
ATOM     19  C   UNL A   1      37.894  30.737  28.845  1.00  0.00     0.029 A 
ATOM     20  N   UNL A   1      39.494  30.560  30.399  1.00  0.00    -0.354 N 
ATOM     21  C   UNL A   1      39.749  33.357  33.668  1.00  0.00     0.074 A 
ATOM     22  C   UNL A   1      38.739  34.384  33.560  1.00  0.00     0.031 C 
ATOM     23  C   UNL A   1      38.643  29.668  28.533  1.00  0.00     0.029 A 
ATOM     24  C   UNL A   1      39.706  29.522  29.524  1.00  0.00     0.049 A 
ATOM     25  H   UNL A   1      40.071  30.736  31.178  1.00  0.00     0.167 HD
ATOM     26  C   UNL A   1      40.648  33.282  34.678  1.00  0.00     0.031 A 
ATOM     27  C   UNL A   1      40.641  28.552  29.522  1.00  0.00     0.031 A 
ATOM     28  C   UNL A   1      41.648  32.254  34.791  1.00  0.00     0.049 A 
ATOM     29  C   UNL A   1      41.643  28.495  30.641  1.00  0.00     0.074 A 
ATOM     30  C   UNL A   1      42.584  32.074  35.793  1.00  0.00     0.029 A 
ATOM     31  N   UNL A   1      41.841  31.233  33.872  1.00  0.00    -0.354 N 
ATOM     32  N   UNL A   1      41.766  29.289  31.679  1.00  0.00    -0.248 NA
ATOM     33  C   UNL A   1      42.622  27.399  30.603  1.00  0.00     0.031 C 
ATOM     34  C   UNL A   1      43.386  30.984  35.447  1.00  0.00     0.029 A 
ATOM     35  C   UNL A   1      42.899  30.434  34.272  1.00  0.00     0.049 A 
ATOM     36  H   UNL A   1      41.305  31.096  33.057  1.00  0.00     0.167 HD
ATOM     37  C   UNL A   1      42.825  28.784  32.422  1.00  0.00     0.074 A 
ATOM     38  C   UNL A   1      43.289  27.596  31.733  1.00  0.00     0.031 C 
ATOM     39  C   UNL A   1      43.369  29.265  33.568  1.00  0.00     0.031 A 
BRANCH  26  40
ATOM     40  C   UNL A   1      40.576  34.330  35.758  1.00  0.00    -0.014 A 
ATOM     41  C   UNL A   1      39.733  34.146  36.865  1.00  0.00     0.009 A 
ATOM     42  C   UNL A   1      41.294  35.533  35.649  1.00  0.00     0.009 A 
ATOM     43  C   UNL A   1      39.603  35.146  37.832  1.00  0.00     0.001 A 
ATOM     44  C   UNL A   1      41.191  36.515  36.635  1.00  0.00     0.001 A 
ATOM     45  C   UNL A   1      40.337  36.326  37.721  1.00  0.00     0.000 A 
ENDBRANCH  26  40
BRANCH  27  46
ATOM     46  C   UNL A   1      40.624  27.533  28.437  1.00  0.00    -0.014 A 
ATOM     47  C   UNL A   1      41.292  27.769  27.224  1.00  0.00     0.009 A 
ATOM     48  C   UNL A   1      39.871  26.358  28.574  1.00  0.00     0.009 A 
ATOM     49  C   UNL A   1      41.177  26.870  26.162  1.00  0.00     0.001 A 
ATOM     50  C   UNL A   1      39.786  25.443  27.522  1.00  0.00     0.001 A 
ATOM     51  C   UNL A   1      40.426  25.707  26.312  1.00  0.00     0.000 A 
ENDBRANCH  27  46
BRANCH  39  52
ATOM     52  C   UNL A   1      44.539  28.523  34.157  1.00  0.00    -0.014 A 
ATOM     53  C   UNL A   1      44.322  27.519  35.115  1.00  0.00     0.009 A 
ATOM     54  C   UNL A   1      45.858  28.876  33.835  1.00  0.00     0.009 A 
ATOM     55  C   UNL A   1      45.399  26.893  35.746  1.00  0.00     0.001 A 
ATOM     56  C   UNL A   1      46.934  28.221  34.438  1.00  0.00     0.001 A 
ATOM     57  C   UNL A   1      46.705  27.239  35.401  1.00  0.00     0.000 A 
ENDBRANCH  39  52
ENDBRANCH  13  14
ENDBRANCH   6   8
ENDBRANCH   3   4
ENDBRANCH   2   3
ENDBRANCH   1   2
BRANCH   1  58
ATOM     58  C   UNL A   1      32.165  29.841  26.401  1.00  0.00     0.002 C 
BRANCH  58  59
ATOM     59  C   UNL A   1      33.451  29.509  25.640  1.00  0.00     0.021 C 
BRANCH  59  60
ATOM     60  C   UNL A   1      33.739  28.015  25.482  1.00  0.00     0.116 C 
BRANCH  60  61
ATOM     61  N   UNL A   1      32.928  27.236  26.398  1.00  0.00    -0.351 N 
ATOM     62  C   UNL A   1      32.280  26.048  26.304  1.00  0.00     0.278 C 
ATOM     63  H   UNL A   1      32.825  27.663  27.278  1.00  0.00     0.163 HD
ATOM     64  O   UNL A   1      31.380  25.882  27.141  1.00  0.00    -0.268 OA
BRANCH  62  65
ATOM     65  C   UNL A   1      32.570  24.913  25.289  1.00  0.00     0.277 C 
ATOM     66  C   UNL A   1      31.350  24.649  24.352  1.00  0.00     0.109 C 
ATOM     67  N   UNL A   1      33.933  24.936  24.672  1.00  0.00    -0.327 N 
ATOM     68  C   UNL A   1      31.594  25.327  23.043  1.00  0.00    -0.024 C 
ATOM     69  C   UNL A   1      33.942  24.371  23.295  1.00  0.00     0.246 C 
ATOM     70  H   UNL A   1      34.566  24.387  25.254  1.00  0.00     0.347 HD
ATOM     71  H   UNL A   1      34.230  25.909  24.610  1.00  0.00     0.347 HD
ATOM     72  C   UNL A   1      30.983  26.452  22.694  1.00  0.00     0.002 A 
ATOM     73  C   UNL A   1      32.949  25.220  22.406  1.00  0.00     0.196 C 
ATOM     74  C   UNL A   1      29.751  27.030  23.116  1.00  0.00     0.010 A 
ATOM     75  C   UNL A   1      32.164  27.263  22.325  1.00  0.00     0.066 A 
ATOM     76  N   UNL A   1      33.319  26.662  22.200  1.00  0.00    -0.270 NA
ATOM     77  C   UNL A   1      29.638  28.364  23.136  1.00  0.00     0.001 A 
ATOM     78  C   UNL A   1      31.939  28.732  22.334  1.00  0.00     0.028 A 
ATOM     79  C   UNL A   1      30.753  29.213  22.754  1.00  0.00     0.002 A 
BRANCH  69  80
ATOM     80  C   UNL A   1      33.608  22.859  23.251  1.00  0.00     0.048 A 
ATOM     81  C   UNL A   1      32.659  22.366  22.335  1.00  0.00     0.013 A 
ATOM     82  C   UNL A   1      34.098  21.942  24.198  1.00  0.00     0.132 A 
ATOM     83  C   UNL A   1      32.060  21.114  22.516  1.00  0.00     0.001 A 
ATOM     84  C   UNL A   1      33.484  20.706  24.402  1.00  0.00     0.040 A 
ATOM     85  F   UNL A   1      35.121  22.249  25.007  1.00  0.00    -0.206 F 
ATOM     86  C   UNL A   1      32.433  20.309  23.586  1.00  0.00     0.003 A 
ENDBRANCH  69  80
ENDBRANCH  62  65
ENDBRANCH  60  61
ENDBRANCH  59  60
ENDBRANCH  58  59
ENDBRANCH   1  58
TORSDOF 14
ENDMDL
MODEL 2
REMARK VINA RESULT:     -12.1      0.666      5.788
REMARK SMILES O=C(NCCCCCCNC(=O)[C@H]1CC2=c3ccccc3=N[C@H]2[C@H](c2ccccc2F)[NH2+]1)c1ccc(-c2c3nc(c(-c4ccccc4)c4ccc([nH]4)c(-c4ccccc4)c4nc(c(-c5ccccc5)c5ccc2[nH]5)C=C4)C=C3)cc1
REMARK SMILES IDX 6 1 5 2 4 3 3 4 1 5 2 6 33 8 34 9 80 10 35 11 79 12 36 13
REMARK SMILES IDX 37 14 38 15 73 16 39 17 78 18 72 19 74 20 40 21 77 22 71 23
REMARK SMILES IDX 70 24 41 26 63 27 48 28 62 29 49 30 52 31 61 32 75 33 50 34
REMARK SMILES IDX 51 35 60 37 76 38 53 39 42 40 43 41 47 42 44 43 46 44 45 45
REMARK SMILES IDX 64 46 65 47 69 48 66 49 68 50 67 51 54 52 55 53 59 54 56 55
REMARK SMILES IDX 58 56 57 57 7 58 8 59 9 60 10 61 11 62 12 64 13 65 14 66
REMARK SMILES IDX 32 67 15 68 24 69 16 72 23 73 17 74 21 75 22 76 18 77 20 78
REMARK SMILES IDX 19 79 25 80 26 81 30 82 27 83 29 84 31 85 28 86
REMARK H PARENT 3 7 74 25 52 36 10 63 32 70 32 71
REMARK Flexibility Score: inf
ROOT
ATOM      1  C   UNL A   1      31.380  30.824  25.935  1.00  0.00     0.002 C 
ENDROOT
BRANCH   1   2
ATOM      2  C   UNL A   1      31.278  32.122  26.738  1.00  0.00     0.021 C 
BRANCH   2   3
ATOM      3  C   UNL A   1      32.609  32.744  27.144  1.00  0.00     0.116 C 
BRANCH   3   4
ATOM      4  N   UNL A   1      32.456  34.057  27.745  1.00  0.00    -0.352 N 
ATOM      5  O   UNL A   1      32.812  35.719  29.221  1.00  0.00    -0.269 OA
ATOM      6  C   UNL A   1      33.194  34.663  28.733  1.00  0.00     0.251 C 
ATOM      7  H   UNL A   1      31.712  34.595  27.390  1.00  0.00     0.163 HD
BRANCH   6   8
ATOM      8  C   UNL A   1      34.443  34.037  29.225  1.00  0.00     0.039 A 
ATOM      9  C   UNL A   1      34.370  33.161  30.312  1.00  0.00     0.014 A 
ATOM     10  C   UNL A   1      35.684  34.330  28.653  1.00  0.00     0.014 A 
ATOM     11  C   UNL A   1      35.533  32.563  30.801  1.00  0.00     0.010 A 
ATOM     12  C   UNL A   1      36.826  33.656  29.076  1.00  0.00     0.010 A 
ATOM     13  C   UNL A   1      36.770  32.789  30.175  1.00  0.00    -0.014 A 
BRANCH  13  14
ATOM     14  C   UNL A   1      38.014  32.167  30.698  1.00  0.00     0.031 A 
ATOM     15  C   UNL A   1      38.531  30.886  30.098  1.00  0.00     0.074 A 
ATOM     16  C   UNL A   1      38.677  32.744  31.718  1.00  0.00     0.049 A 
ATOM     17  N   UNL A   1      39.608  30.207  30.406  1.00  0.00    -0.248 NA
ATOM     18  C   UNL A   1      37.726  30.272  29.029  1.00  0.00     0.031 C 
ATOM     19  C   UNL A   1      38.258  33.962  32.414  1.00  0.00     0.029 A 
ATOM     20  N   UNL A   1      39.851  32.392  32.338  1.00  0.00    -0.354 N 
ATOM     21  C   UNL A   1      39.605  29.096  29.573  1.00  0.00     0.074 A 
ATOM     22  C   UNL A   1      38.381  29.144  28.807  1.00  0.00     0.031 C 
ATOM     23  C   UNL A   1      39.187  34.284  33.328  1.00  0.00     0.029 A 
ATOM     24  C   UNL A   1      40.244  33.277  33.313  1.00  0.00     0.049 A 
ATOM     25  H   UNL A   1      40.363  31.584  32.105  1.00  0.00     0.167 HD
ATOM     26  C   UNL A   1      40.554  28.142  29.424  1.00  0.00     0.031 A 
ATOM     27  C   UNL A   1      41.336  33.287  34.101  1.00  0.00     0.031 A 
ATOM     28  C   UNL A   1      41.777  28.099  30.181  1.00  0.00     0.049 A 
ATOM     29  C   UNL A   1      42.371  32.209  33.936  1.00  0.00     0.074 A 
ATOM     30  C   UNL A   1      42.816  27.191  30.082  1.00  0.00     0.029 A 
ATOM     31  N   UNL A   1      42.126  29.003  31.173  1.00  0.00    -0.354 N 
ATOM     32  N   UNL A   1      42.380  31.196  33.103  1.00  0.00    -0.248 NA
ATOM     33  C   UNL A   1      43.556  32.286  34.802  1.00  0.00     0.031 C 
ATOM     34  C   UNL A   1      43.763  27.506  31.059  1.00  0.00     0.029 A 
ATOM     35  C   UNL A   1      43.354  28.658  31.713  1.00  0.00     0.049 A 
ATOM     36  H   UNL A   1      41.583  29.775  31.452  1.00  0.00     0.167 HD
ATOM     37  C   UNL A   1      43.572  30.521  33.336  1.00  0.00     0.074 A 
ATOM     38  C   UNL A   1      44.276  31.260  34.365  1.00  0.00     0.031 C 
ATOM     39  C   UNL A   1      44.038  29.388  32.753  1.00  0.00     0.031 A 
BRANCH  26  40
ATOM     40  C   UNL A   1      40.319  27.076  28.387  1.00  0.00    -0.014 A 
ATOM     41  C   UNL A   1      39.616  25.907  28.722  1.00  0.00     0.009 A 
ATOM     42  C   UNL A   1      40.850  27.195  27.091  1.00  0.00     0.009 A 
ATOM     43  C   UNL A   1      39.460  24.881  27.788  1.00  0.00     0.001 A 
ATOM     44  C   UNL A   1      40.659  26.184  26.148  1.00  0.00     0.001 A 
ATOM     45  C   UNL A   1      39.974  25.023  26.500  1.00  0.00     0.000 A 
ENDBRANCH  26  40
BRANCH  27  46
ATOM     46  C   UNL A   1      41.512  34.395  35.080  1.00  0.00    -0.014 A 
ATOM     47  C   UNL A   1      40.984  34.293  36.377  1.00  0.00     0.009 A 
ATOM     48  C   UNL A   1      42.135  35.592  34.696  1.00  0.00     0.009 A 
ATOM     49  C   UNL A   1      41.042  35.377  37.256  1.00  0.00     0.001 A 
ATOM     50  C   UNL A   1      42.222  36.663  35.590  1.00  0.00     0.001 A 
ATOM     51  C   UNL A   1      41.663  36.560  36.862  1.00  0.00     0.000 A 
ENDBRANCH  27  46
BRANCH  39  52
ATOM     52  C   UNL A   1      45.369  28.856  33.215  1.00  0.00    -0.014 A 
ATOM     53  C   UNL A   1      46.547  29.251  32.561  1.00  0.00     0.009 A 
ATOM     54  C   UNL A   1      45.451  27.897  34.236  1.00  0.00     0.009 A 
ATOM     55  C   UNL A   1      47.777  28.688  32.909  1.00  0.00     0.001 A 
ATOM     56  C   UNL A   1      46.688  27.365  34.610  1.00  0.00     0.001 A 
ATOM     57  C   UNL A   1      47.847  27.752  33.940  1.00  0.00     0.000 A 
ENDBRANCH  39  52
ENDBRANCH  13  14
ENDBRANCH   6   8
ENDBRANCH   3   4
ENDBRANCH   2   3
ENDBRANCH   1   2
BRANCH   1  58
ATOM     58  C   UNL A   1      32.278  29.740  26.538  1.00  0.00     0.002 C 
BRANCH  58  59
ATOM     59  C   UNL A   1      33.529  29.396  25.726  1.00  0.00     0.021 C 
BRANCH  59  60
ATOM     60  C   UNL A   1      33.850  27.903  25.638  1.00  0.00     0.116 C 
BRANCH  60  61
ATOM     61  N   UNL A   1      32.962  27.136  26.489  1.00  0.00    -0.351 N 
ATOM     62  C   UNL A   1      32.270  25.981  26.329  1.00  0.00     0.278 C 
ATOM     63  H   UNL A   1      32.834  27.542  27.376  1.00  0.00     0.163 HD
ATOM     64  O   UNL A   1      31.323  25.831  27.116  1.00  0.00    -0.268 OA
BRANCH  62  65
ATOM     65  C   UNL A   1      32.561  24.863  25.296  1.00  0.00     0.277 C 
ATOM     66  C   UNL A   1      31.360  24.647  24.321  1.00  0.00     0.109 C 
ATOM     67  N   UNL A   1      33.940  24.868  24.714  1.00  0.00    -0.327 N 
ATOM     68  C   UNL A   1      31.654  25.350  23.036  1.00  0.00    -0.024 C 
ATOM     69  C   UNL A   1      33.973  24.335  23.325  1.00  0.00     0.246 C 
ATOM     70  H   UNL A   1      34.545  24.293  25.300  1.00  0.00     0.347 HD
ATOM     71  H   UNL A   1      34.260  25.836  24.682  1.00  0.00     0.347 HD
ATOM     72  C   UNL A   1      31.077  26.496  22.697  1.00  0.00     0.002 A 
ATOM     73  C   UNL A   1      33.022  25.226  22.431  1.00  0.00     0.196 C 
ATOM     74  C   UNL A   1      29.847  27.092  23.101  1.00  0.00     0.010 A 
ATOM     75  C   UNL A   1      32.284  27.288  22.378  1.00  0.00     0.066 A 
ATOM     76  N   UNL A   1      33.429  26.664  22.268  1.00  0.00    -0.270 NA
ATOM     77  C   UNL A   1      29.763  28.427  23.149  1.00  0.00     0.001 A 
ATOM     78  C   UNL A   1      32.091  28.761  22.415  1.00  0.00     0.028 A 
ATOM     79  C   UNL A   1      30.906  29.259  22.815  1.00  0.00     0.002 A 
BRANCH  69  80
ATOM     80  C   UNL A   1      33.606  22.832  23.238  1.00  0.00     0.048 A 
ATOM     81  C   UNL A   1      32.691  22.377  22.268  1.00  0.00     0.013 A 
ATOM     82  C   UNL A   1      34.028  21.888  24.190  1.00  0.00     0.132 A 
ATOM     83  C   UNL A   1      32.057  21.137  22.397  1.00  0.00     0.001 A 
ATOM     84  C   UNL A   1      33.377  20.664  24.341  1.00  0.00     0.040 A 
ATOM     85  F   UNL A   1      35.018  22.156  25.053  1.00  0.00    -0.206 F 
ATOM     86  C   UNL A   1      32.358  20.305  23.469  1.00  0.00     0.003 A 
ENDBRANCH  69  80
ENDBRANCH  62  65
ENDBRANCH  60  61
ENDBRANCH  59  60
ENDBRANCH  58  59
ENDBRANCH   1  58
TORSDOF 14
ENDMDL
MODEL 3
REMARK VINA RESULT:     -11.9      4.027      9.144
REMARK SMILES O=C(NCCCCCCNC(=O)[C@H]1CC2=c3ccccc3=N[C@H]2[C@H](c2ccccc2F)[NH2+]1)c1ccc(-c2c3nc(c(-c4ccccc4)c4ccc([nH]4)c(-c4ccccc4)c4nc(c(-c5ccccc5)c5ccc2[nH]5)C=C4)C=C3)cc1
REMARK SMILES IDX 6 1 5 2 4 3 3 4 1 5 2 6 33 8 34 9 80 10 35 11 79 12 36 13
REMARK SMILES IDX 37 14 38 15 73 16 39 17 78 18 72 19 74 20 40 21 77 22 71 23
REMARK SMILES IDX 70 24 41 26 63 27 48 28 62 29 49 30 52 31 61 32 75 33 50 34
REMARK SMILES IDX 51 35 60 37 76 38 53 39 42 40 43 41 47 42 44 43 46 44 45 45
REMARK SMILES IDX 64 46 65 47 69 48 66 49 68 50 67 51 54 52 55 53 59 54 56 55
REMARK SMILES IDX 58 56 57 57 7 58 8 59 9 60 10 61 11 62 12 64 13 65 14 66
REMARK SMILES IDX 32 67 15 68 24 69 16 72 23 73 17 74 21 75 22 76 18 77 20 78
REMARK SMILES IDX 19 79 25 80 26 81 30 82 27 83 29 84 31 85 28 86
REMARK H PARENT 3 7 74 25 52 36 10 63 32 70 32 71
REMARK Flexibility Score: inf
ROOT
ATOM      1  C   UNL A   1      36.532  20.177  24.981  1.00  0.00     0.002 C 
ENDROOT
BRANCH   1   2
ATOM      2  C   UNL A   1      37.896  19.497  24.856  1.00  0.00     0.021 C 
BRANCH   2   3
ATOM      3  C   UNL A   1      38.992  20.067  25.751  1.00  0.00     0.116 C 
BRANCH   3   4
ATOM      4  N   UNL A   1      40.194  19.252  25.756  1.00  0.00    -0.352 N 
ATOM      5  O   UNL A   1      42.398  18.805  25.833  1.00  0.00    -0.269 OA
ATOM      6  C   UNL A   1      41.492  19.602  26.039  1.00  0.00     0.251 C 
ATOM      7  H   UNL A   1      40.058  18.305  25.522  1.00  0.00     0.163 HD
BRANCH   6   8
ATOM      8  C   UNL A   1      41.805  20.947  26.575  1.00  0.00     0.039 A 
ATOM      9  C   UNL A   1      41.700  21.158  27.953  1.00  0.00     0.014 A 
ATOM     10  C   UNL A   1      42.163  22.005  25.736  1.00  0.00     0.014 A 
ATOM     11  C   UNL A   1      41.981  22.418  28.485  1.00  0.00     0.010 A 
ATOM     12  C   UNL A   1      42.540  23.230  26.277  1.00  0.00     0.010 A 
ATOM     13  C   UNL A   1      42.423  23.462  27.654  1.00  0.00    -0.014 A 
BRANCH  13  14
ATOM     14  C   UNL A   1      42.712  24.809  28.211  1.00  0.00     0.031 A 
ATOM     15  C   UNL A   1      44.124  25.201  28.557  1.00  0.00     0.074 A 
ATOM     16  C   UNL A   1      41.706  25.681  28.417  1.00  0.00     0.049 A 
ATOM     17  N   UNL A   1      44.572  26.337  29.031  1.00  0.00    -0.248 NA
ATOM     18  C   UNL A   1      45.168  24.180  28.368  1.00  0.00     0.031 C 
ATOM     19  C   UNL A   1      40.290  25.409  28.163  1.00  0.00     0.029 A 
ATOM     20  N   UNL A   1      41.721  26.977  28.872  1.00  0.00    -0.354 N 
ATOM     21  C   UNL A   1      45.941  26.163  29.195  1.00  0.00     0.074 A 
ATOM     22  C   UNL A   1      46.238  24.792  28.851  1.00  0.00     0.031 C 
ATOM     23  C   UNL A   1      39.580  26.520  28.416  1.00  0.00     0.029 A 
ATOM     24  C   UNL A   1      40.481  27.567  28.889  1.00  0.00     0.049 A 
ATOM     25  H   UNL A   1      42.542  27.438  29.158  1.00  0.00     0.167 HD
ATOM     26  C   UNL A   1      46.876  27.073  29.556  1.00  0.00     0.031 A 
ATOM     27  C   UNL A   1      40.107  28.815  29.233  1.00  0.00     0.031 A 
ATOM     28  C   UNL A   1      46.580  28.441  29.889  1.00  0.00     0.049 A 
ATOM     29  C   UNL A   1      41.156  29.807  29.650  1.00  0.00     0.074 A 
ATOM     30  C   UNL A   1      47.461  29.449  30.238  1.00  0.00     0.029 A 
ATOM     31  N   UNL A   1      45.308  28.993  29.913  1.00  0.00    -0.354 N 
ATOM     32  N   UNL A   1      42.454  29.644  29.746  1.00  0.00    -0.248 NA
ATOM     33  C   UNL A   1      40.694  31.162  29.987  1.00  0.00     0.031 C 
ATOM     34  C   UNL A   1      46.717  30.593  30.537  1.00  0.00     0.029 A 
ATOM     35  C   UNL A   1      45.379  30.322  30.297  1.00  0.00     0.049 A 
ATOM     36  H   UNL A   1      44.478  28.512  29.690  1.00  0.00     0.167 HD
ATOM     37  C   UNL A   1      42.966  30.872  30.142  1.00  0.00     0.074 A 
ATOM     38  C   UNL A   1      41.841  31.782  30.236  1.00  0.00     0.031 C 
ATOM     39  C   UNL A   1      44.251  31.215  30.410  1.00  0.00     0.031 A 
BRANCH  26  40
ATOM     40  C   UNL A   1      48.313  26.625  29.589  1.00  0.00    -0.014 A 
ATOM     41  C   UNL A   1      48.848  26.054  30.754  1.00  0.00     0.009 A 
ATOM     42  C   UNL A   1      49.160  26.828  28.486  1.00  0.00     0.009 A 
ATOM     43  C   UNL A   1      50.199  25.706  30.818  1.00  0.00     0.001 A 
ATOM     44  C   UNL A   1      50.501  26.444  28.540  1.00  0.00     0.001 A 
ATOM     45  C   UNL A   1      51.023  25.894  29.709  1.00  0.00     0.000 A 
ENDBRANCH  26  40
BRANCH  27  46
ATOM     46  C   UNL A   1      38.669  29.190  29.141  1.00  0.00    -0.014 A 
ATOM     47  C   UNL A   1      38.145  29.727  27.954  1.00  0.00     0.009 A 
ATOM     48  C   UNL A   1      37.833  29.092  30.264  1.00  0.00     0.009 A 
ATOM     49  C   UNL A   1      36.829  30.192  27.903  1.00  0.00     0.001 A 
ATOM     50  C   UNL A   1      36.507  29.526  30.199  1.00  0.00     0.001 A 
ATOM     51  C   UNL A   1      36.010  30.089  29.025  1.00  0.00     0.000 A 
ENDBRANCH  27  46
BRANCH  39  52
ATOM     52  C   UNL A   1      44.526  32.630  30.845  1.00  0.00    -0.014 A 
ATOM     53  C   UNL A   1      44.449  32.973  32.205  1.00  0.00     0.009 A 
ATOM     54  C   UNL A   1      44.771  33.643  29.905  1.00  0.00     0.009 A 
ATOM     55  C   UNL A   1      44.599  34.300  32.614  1.00  0.00     0.001 A 
ATOM     56  C   UNL A   1      44.960  34.964  30.320  1.00  0.00     0.001 A 
ATOM     57  C   UNL A   1      44.863  35.292  31.671  1.00  0.00     0.000 A 
ENDBRANCH  39  52
ENDBRANCH  13  14
ENDBRANCH   6   8
ENDBRANCH   3   4
ENDBRANCH   2   3
ENDBRANCH   1   2
BRANCH   1  58
ATOM     58  C   UNL A   1      36.499  21.668  24.631  1.00  0.00     0.002 C 
BRANCH  58  59
ATOM     59  C   UNL A   1      36.322  22.618  25.819  1.00  0.00     0.021 C 
BRANCH  59  60
ATOM     60  C   UNL A   1      35.591  23.922  25.498  1.00  0.00     0.116 C 
BRANCH  60  61
ATOM     61  N   UNL A   1      35.335  24.030  24.075  1.00  0.00    -0.351 N 
ATOM     62  C   UNL A   1      34.232  24.310  23.335  1.00  0.00     0.278 C 
ATOM     63  H   UNL A   1      36.135  23.865  23.526  1.00  0.00     0.163 HD
ATOM     64  O   UNL A   1      34.295  23.939  22.153  1.00  0.00    -0.268 OA
BRANCH  62  65
ATOM     65  C   UNL A   1      32.956  25.043  23.818  1.00  0.00     0.277 C 
ATOM     66  C   UNL A   1      31.687  24.140  23.693  1.00  0.00     0.109 C 
ATOM     67  N   UNL A   1      33.114  25.857  25.063  1.00  0.00    -0.327 N 
ATOM     68  C   UNL A   1      31.373  23.566  25.037  1.00  0.00    -0.024 C 
ATOM     69  C   UNL A   1      31.857  25.930  25.858  1.00  0.00     0.246 C 
ATOM     70  H   UNL A   1      33.391  26.804  24.803  1.00  0.00     0.347 HD
ATOM     71  H   UNL A   1      33.821  25.406  25.642  1.00  0.00     0.347 HD
ATOM     72  C   UNL A   1      31.629  22.304  25.354  1.00  0.00     0.002 A 
ATOM     73  C   UNL A   1      31.431  24.457  26.244  1.00  0.00     0.196 C 
ATOM     74  C   UNL A   1      31.785  21.139  24.549  1.00  0.00     0.010 A 
ATOM     75  C   UNL A   1      32.386  22.519  26.607  1.00  0.00     0.066 A 
ATOM     76  N   UNL A   1      32.378  23.713  27.143  1.00  0.00    -0.270 NA
ATOM     77  C   UNL A   1      32.614  20.174  24.965  1.00  0.00     0.001 A 
ATOM     78  C   UNL A   1      33.251  21.383  27.016  1.00  0.00     0.028 A 
ATOM     79  C   UNL A   1      33.360  20.314  26.203  1.00  0.00     0.002 A 
BRANCH  69  80
ATOM     80  C   UNL A   1      30.718  26.690  25.134  1.00  0.00     0.048 A 
ATOM     81  C   UNL A   1      29.455  26.089  24.967  1.00  0.00     0.013 A 
ATOM     82  C   UNL A   1      30.915  27.920  24.483  1.00  0.00     0.132 A 
ATOM     83  C   UNL A   1      28.548  26.564  24.014  1.00  0.00     0.001 A 
ATOM     84  C   UNL A   1      30.029  28.380  23.510  1.00  0.00     0.040 A 
ATOM     85  F   UNL A   1      32.009  28.663  24.704  1.00  0.00    -0.206 F 
ATOM     86  C   UNL A   1      28.862  27.677  23.243  1.00  0.00     0.003 A 
ENDBRANCH  69  80
ENDBRANCH  62  65
ENDBRANCH  60  61
ENDBRANCH  59  60
ENDBRANCH  58  59
ENDBRANCH   1  58
TORSDOF 14
ENDMDL
