MODEL 1
REMARK VINA RESULT:     -12.6      0.000      0.000
REMARK SMILES Cc1ccc(S(=O)(=O)n2cc(C(=O)C(=O)NCC(=O)N[C@@H](Cc3c[nH]c4ccccc34)C(=O)NCCCCCCNC(=O)c3ccc(-c4c5nc(c(-c6ccccc6)c6ccc([nH]6)c(-c6ccccc6)c6nc(c(-c7ccccc7)c7ccc4[nH]7)C=C6)C=C5)cc3)c3ccccc32)cc1
REMARK SMILES IDX 35 1 34 2 32 3 33 4 21 6 20 7 18 8 19 9 17 11 16 12 14 13
REMARK SMILES IDX 15 14 12 16 13 17 11 18 9 19 10 20 97 21 92 22 96 23 93 24
REMARK SMILES IDX 95 25 94 26 6 27 7 28 8 29 5 30 1 31 2 32 3 33 99 34 4 35
REMARK SMILES IDX 98 36 22 37 23 38 24 39 31 40 25 41 26 42 30 43 27 45 29 46
REMARK SMILES IDX 28 47 36 48 37 49 38 50 39 51 40 52 41 53 42 54 43 56 44 57
REMARK SMILES IDX 45 58 91 59 46 60 90 61 47 62 48 63 49 64 84 65 50 66 89 67
REMARK SMILES IDX 83 68 85 69 51 70 88 71 82 72 81 73 52 75 74 76 59 77 73 78
REMARK SMILES IDX 60 79 63 80 72 81 86 82 61 83 62 84 71 86 87 87 64 88 53 89
REMARK SMILES IDX 54 90 58 91 55 92 57 93 56 94 75 95 76 96 80 97 77 98 79 99
REMARK SMILES IDX 78 100 65 101 66 102 70 103 67 104 69 105 68 106
REMARK H PARENT 34 5 20 10 16 15 25 44 41 55 85 74 63 85
REMARK Flexibility Score: inf
ROOT
ATOM      1  C   UNL A   1      33.680  30.295  27.171  1.00  0.00     0.116 C 
ENDROOT
BRANCH   1   2
ATOM      2  N   UNL A   1      34.251  29.334  26.253  1.00  0.00    -0.354 N 
ATOM      3  C   UNL A   1      33.645  28.589  25.285  1.00  0.00     0.242 C 
ATOM      4  O   UNL A   1      34.366  28.216  24.350  1.00  0.00    -0.273 OA
ATOM      5  H   UNL A   1      35.223  29.197  26.341  1.00  0.00     0.163 HD
BRANCH   3   6
ATOM      6  C   UNL A   1      32.128  28.272  25.233  1.00  0.00     0.175 C 
BRANCH   6   7
ATOM      7  N   UNL A   1      31.625  27.317  26.222  1.00  0.00    -0.342 N 
ATOM      8  C   UNL A   1      30.692  26.331  26.033  1.00  0.00     0.240 C 
ATOM      9  O   UNL A   1      30.583  25.456  26.892  1.00  0.00    -0.273 OA
ATOM     10  H   UNL A   1      32.002  27.390  27.129  1.00  0.00     0.164 HD
BRANCH   8  11
ATOM     11  C   UNL A   1      29.838  26.318  24.748  1.00  0.00     0.216 C 
BRANCH  11  12
ATOM     12  N   UNL A   1      29.776  24.964  24.188  1.00  0.00    -0.340 N 
ATOM     13  C   UNL A   1      30.737  24.291  23.452  1.00  0.00     0.292 C 
ATOM     14  O   UNL A   1      30.497  23.201  22.947  1.00  0.00    -0.265 OA
ATOM     15  H   UNL A   1      28.942  24.469  24.356  1.00  0.00     0.164 HD
BRANCH  13  16
ATOM     16  C   UNL A   1      32.116  24.933  23.266  1.00  0.00     0.252 C 
ATOM     17  O   UNL A   1      32.233  25.700  22.311  1.00  0.00    -0.283 OA
BRANCH  16  18
ATOM     18  C   UNL A   1      33.267  24.513  24.075  1.00  0.00     0.054 A 
ATOM     19  N   UNL A   1      35.311  24.154  24.969  1.00  0.00    -0.240 N 
ATOM     20  C   UNL A   1      34.635  24.755  23.910  1.00  0.00     0.117 A 
ATOM     21  C   UNL A   1      34.354  23.714  25.896  1.00  0.00     0.065 A 
ATOM     22  C   UNL A   1      33.149  23.644  25.204  1.00  0.00     0.012 A 
ATOM     23  C   UNL A   1      34.505  23.140  27.173  1.00  0.00     0.028 A 
ATOM     24  C   UNL A   1      32.122  22.826  25.722  1.00  0.00     0.011 A 
ATOM     25  C   UNL A   1      33.500  22.293  27.636  1.00  0.00     0.002 A 
ATOM     26  C   UNL A   1      32.339  22.104  26.899  1.00  0.00     0.001 A 
BRANCH  19  27
ATOM     27  S   UNL A   1      36.644  23.042  24.835  1.00  0.00     0.268 S 
ATOM     28  O   UNL A   1      37.097  23.234  23.467  1.00  0.00    -0.201 OA
ATOM     29  O   UNL A   1      36.057  21.781  25.266  1.00  0.00    -0.201 OA
BRANCH  27  30
ATOM     30  C   UNL A   1      38.102  23.107  25.812  1.00  0.00     0.088 A 
ATOM     31  C   UNL A   1      41.560  22.243  28.248  1.00  0.00     0.044 C 
ATOM     32  C   UNL A   1      40.388  22.591  27.376  1.00  0.00    -0.051 A 
ATOM     33  C   UNL A   1      39.871  21.587  26.569  1.00  0.00     0.005 A 
ATOM     34  C   UNL A   1      39.759  23.856  27.381  1.00  0.00     0.005 A 
ATOM     35  C   UNL A   1      38.756  21.850  25.795  1.00  0.00     0.022 A 
ATOM     36  C   UNL A   1      38.606  24.125  26.601  1.00  0.00     0.022 A 
ENDBRANCH  27  30
ENDBRANCH  19  27
ENDBRANCH  16  18
ENDBRANCH  13  16
ENDBRANCH  11  12
ENDBRANCH   8  11
ENDBRANCH   6   7
BRANCH   6  37
ATOM     37  C   UNL A   1      31.198  29.480  25.028  1.00  0.00     0.072 C 
BRANCH  37  38
ATOM     38  C   UNL A   1      30.694  29.723  23.641  1.00  0.00    -0.020 A 
ATOM     39  C   UNL A   1      31.170  29.098  22.503  1.00  0.00     0.087 A 
ATOM     40  C   UNL A   1      29.589  30.540  23.227  1.00  0.00     0.003 A 
ATOM     41  N   UNL A   1      30.475  29.568  21.426  1.00  0.00    -0.361 N 
ATOM     42  C   UNL A   1      29.515  30.462  21.835  1.00  0.00     0.046 A 
ATOM     43  C   UNL A   1      28.632  31.330  23.899  1.00  0.00     0.010 A 
ATOM     44  H   UNL A   1      30.638  29.305  20.492  1.00  0.00     0.166 HD
ATOM     45  C   UNL A   1      28.577  31.175  21.078  1.00  0.00     0.026 A 
ATOM     46  C   UNL A   1      27.659  32.016  23.160  1.00  0.00     0.001 A 
ATOM     47  C   UNL A   1      27.645  31.952  21.768  1.00  0.00     0.002 A 
ENDBRANCH  37  38
ENDBRANCH   6  37
ENDBRANCH   3   6
ENDBRANCH   1   2
BRANCH   1  48
ATOM     48  C   UNL A   1      34.696  31.030  28.045  1.00  0.00     0.021 C 
BRANCH  48  49
ATOM     49  C   UNL A   1      34.942  32.519  27.761  1.00  0.00     0.002 C 
BRANCH  49  50
ATOM     50  C   UNL A   1      33.771  33.504  27.903  1.00  0.00     0.002 C 
BRANCH  50  51
ATOM     51  C   UNL A   1      33.395  33.961  29.312  1.00  0.00     0.021 C 
BRANCH  51  52
ATOM     52  C   UNL A   1      33.804  35.377  29.683  1.00  0.00     0.116 C 
BRANCH  52  53
ATOM     53  N   UNL A   1      34.312  35.532  31.040  1.00  0.00    -0.352 N 
ATOM     54  C   UNL A   1      35.300  34.794  31.694  1.00  0.00     0.251 C 
ATOM     55  H   UNL A   1      33.901  36.255  31.568  1.00  0.00     0.163 HD
ATOM     56  O   UNL A   1      35.621  35.047  32.822  1.00  0.00    -0.269 OA
BRANCH  54  57
ATOM     57  C   UNL A   1      36.045  33.776  30.901  1.00  0.00     0.039 A 
ATOM     58  C   UNL A   1      35.961  32.447  31.328  1.00  0.00     0.014 A 
ATOM     59  C   UNL A   1      36.995  34.157  29.960  1.00  0.00     0.014 A 
ATOM     60  C   UNL A   1      37.004  31.575  31.026  1.00  0.00     0.010 A 
ATOM     61  C   UNL A   1      38.080  33.330  29.748  1.00  0.00     0.010 A 
ATOM     62  C   UNL A   1      38.121  32.070  30.352  1.00  0.00    -0.014 A 
BRANCH  62  63
ATOM     63  C   UNL A   1      39.422  31.411  30.400  1.00  0.00     0.031 A 
ATOM     64  C   UNL A   1      39.659  30.134  29.693  1.00  0.00     0.074 A 
ATOM     65  C   UNL A   1      40.437  31.974  31.096  1.00  0.00     0.049 A 
ATOM     66  N   UNL A   1      40.537  29.262  30.064  1.00  0.00    -0.248 NA
ATOM     67  C   UNL A   1      38.887  29.716  28.527  1.00  0.00     0.031 C 
ATOM     68  C   UNL A   1      41.850  31.601  31.065  1.00  0.00     0.029 A 
ATOM     69  N   UNL A   1      40.391  32.908  32.114  1.00  0.00    -0.354 N 
ATOM     70  C   UNL A   1      40.644  28.335  29.058  1.00  0.00     0.074 A 
ATOM     71  C   UNL A   1      39.549  28.614  28.156  1.00  0.00     0.031 C 
ATOM     72  C   UNL A   1      42.453  32.084  32.165  1.00  0.00     0.029 A 
ATOM     73  C   UNL A   1      41.421  32.655  33.014  1.00  0.00     0.049 A 
ATOM     74  H   UNL A   1      39.733  33.637  32.189  1.00  0.00     0.167 HD
ATOM     75  C   UNL A   1      41.723  27.507  29.001  1.00  0.00     0.031 A 
ATOM     76  C   UNL A   1      41.202  32.298  34.316  1.00  0.00     0.031 A 
ATOM     77  C   UNL A   1      42.649  27.719  30.104  1.00  0.00     0.049 A 
ATOM     78  C   UNL A   1      41.755  30.930  34.676  1.00  0.00     0.074 A 
ATOM     79  C   UNL A   1      43.821  28.448  30.222  1.00  0.00     0.029 A 
ATOM     80  N   UNL A   1      42.256  27.386  31.393  1.00  0.00    -0.354 N 
ATOM     81  N   UNL A   1      42.111  30.036  33.795  1.00  0.00    -0.248 NA
ATOM     82  C   UNL A   1      41.896  30.440  36.046  1.00  0.00     0.031 C 
ATOM     83  C   UNL A   1      44.093  28.615  31.604  1.00  0.00     0.029 A 
ATOM     84  C   UNL A   1      43.105  27.962  32.318  1.00  0.00     0.049 A 
ATOM     85  H   UNL A   1      41.483  26.820  31.616  1.00  0.00     0.167 HD
ATOM     86  C   UNL A   1      42.494  28.887  34.433  1.00  0.00     0.074 A 
ATOM     87  C   UNL A   1      42.358  29.192  35.844  1.00  0.00     0.031 C 
ATOM     88  C   UNL A   1      42.872  27.773  33.741  1.00  0.00     0.031 A 
BRANCH  75  89
ATOM     89  C   UNL A   1      42.054  26.723  27.763  1.00  0.00    -0.014 A 
ATOM     90  C   UNL A   1      42.980  25.667  27.831  1.00  0.00     0.009 A 
ATOM     91  C   UNL A   1      41.518  27.012  26.496  1.00  0.00     0.009 A 
ATOM     92  C   UNL A   1      43.423  25.000  26.682  1.00  0.00     0.001 A 
ATOM     93  C   UNL A   1      41.987  26.375  25.339  1.00  0.00     0.001 A 
ATOM     94  C   UNL A   1      42.949  25.377  25.432  1.00  0.00     0.000 A 
ENDBRANCH  75  89
BRANCH  76  95
ATOM     95  C   UNL A   1      39.969  32.880  34.910  1.00  0.00    -0.014 A 
ATOM     96  C   UNL A   1      38.765  32.160  34.789  1.00  0.00     0.009 A 
ATOM     97  C   UNL A   1      40.040  33.912  35.857  1.00  0.00     0.009 A 
ATOM     98  C   UNL A   1      37.703  32.385  35.670  1.00  0.00     0.001 A 
ATOM     99  C   UNL A   1      38.970  34.141  36.731  1.00  0.00     0.001 A 
ATOM    100  C   UNL A   1      37.819  33.356  36.660  1.00  0.00     0.000 A 
ENDBRANCH  76  95
BRANCH  88 101
ATOM    101  C   UNL A   1      43.114  26.405  34.323  1.00  0.00    -0.014 A 
ATOM    102  C   UNL A   1      44.373  25.799  34.409  1.00  0.00     0.009 A 
ATOM    103  C   UNL A   1      42.042  25.739  34.959  1.00  0.00     0.009 A 
ATOM    104  C   UNL A   1      44.545  24.570  35.064  1.00  0.00     0.001 A 
ATOM    105  C   UNL A   1      42.216  24.537  35.648  1.00  0.00     0.001 A 
ATOM    106  C   UNL A   1      43.470  23.946  35.691  1.00  0.00     0.000 A 
ENDBRANCH  88 101
ENDBRANCH  62  63
ENDBRANCH  54  57
ENDBRANCH  52  53
ENDBRANCH  51  52
ENDBRANCH  50  51
ENDBRANCH  49  50
ENDBRANCH  48  49
ENDBRANCH   1  48
TORSDOF 22
ENDMDL
MODEL 2
REMARK VINA RESULT:     -11.2      4.705     11.024
REMARK SMILES Cc1ccc(S(=O)(=O)n2cc(C(=O)C(=O)NCC(=O)N[C@@H](Cc3c[nH]c4ccccc34)C(=O)NCCCCCCNC(=O)c3ccc(-c4c5nc(c(-c6ccccc6)c6ccc([nH]6)c(-c6ccccc6)c6nc(c(-c7ccccc7)c7ccc4[nH]7)C=C6)C=C5)cc3)c3ccccc32)cc1
REMARK SMILES IDX 35 1 34 2 32 3 33 4 21 6 20 7 18 8 19 9 17 11 16 12 14 13
REMARK SMILES IDX 15 14 12 16 13 17 11 18 9 19 10 20 97 21 92 22 96 23 93 24
REMARK SMILES IDX 95 25 94 26 6 27 7 28 8 29 5 30 1 31 2 32 3 33 99 34 4 35
REMARK SMILES IDX 98 36 22 37 23 38 24 39 31 40 25 41 26 42 30 43 27 45 29 46
REMARK SMILES IDX 28 47 36 48 37 49 38 50 39 51 40 52 41 53 42 54 43 56 44 57
REMARK SMILES IDX 45 58 91 59 46 60 90 61 47 62 48 63 49 64 84 65 50 66 89 67
REMARK SMILES IDX 83 68 85 69 51 70 88 71 82 72 81 73 52 75 74 76 59 77 73 78
REMARK SMILES IDX 60 79 63 80 72 81 86 82 61 83 62 84 71 86 87 87 64 88 53 89
REMARK SMILES IDX 54 90 58 91 55 92 57 93 56 94 75 95 76 96 80 97 77 98 79 99
REMARK SMILES IDX 78 100 65 101 66 102 70 103 67 104 69 105 68 106
REMARK H PARENT 34 5 20 10 16 15 25 44 41 55 85 74 63 85
REMARK Flexibility Score: inf
ROOT
ATOM      1  C   UNL A   1      46.355  29.778  26.833  1.00  0.00     0.116 C 
ENDROOT
BRANCH   1   2
ATOM      2  N   UNL A   1      46.222  29.329  25.465  1.00  0.00    -0.354 N 
ATOM      3  C   UNL A   1      46.691  28.194  24.872  1.00  0.00     0.242 C 
ATOM      4  O   UNL A   1      46.077  27.806  23.869  1.00  0.00    -0.273 OA
ATOM      5  H   UNL A   1      45.716  29.932  24.873  1.00  0.00     0.163 HD
BRANCH   3   6
ATOM      6  C   UNL A   1      47.855  27.327  25.419  1.00  0.00     0.175 C 
BRANCH   6   7
ATOM      7  N   UNL A   1      47.557  26.492  26.584  1.00  0.00    -0.342 N 
ATOM      8  C   UNL A   1      46.983  25.248  26.594  1.00  0.00     0.240 C 
ATOM      9  O   UNL A   1      47.049  24.582  27.629  1.00  0.00    -0.273 OA
ATOM     10  H   UNL A   1      47.800  26.867  27.461  1.00  0.00     0.164 HD
BRANCH   8  11
ATOM     11  C   UNL A   1      46.308  24.701  25.319  1.00  0.00     0.216 C 
BRANCH  11  12
ATOM     12  N   UNL A   1      46.917  23.427  24.924  1.00  0.00    -0.340 N 
ATOM     13  C   UNL A   1      46.292  22.269  24.493  1.00  0.00     0.292 C 
ATOM     14  O   UNL A   1      46.927  21.238  24.309  1.00  0.00    -0.265 OA
ATOM     15  H   UNL A   1      47.900  23.390  24.970  1.00  0.00     0.164 HD
BRANCH  13  16
ATOM     16  C   UNL A   1      44.778  22.286  24.257  1.00  0.00     0.252 C 
ATOM     17  O   UNL A   1      44.393  22.864  23.241  1.00  0.00    -0.283 OA
BRANCH  16  18
ATOM     18  C   UNL A   1      43.842  21.798  25.278  1.00  0.00     0.054 A 
ATOM     19  N   UNL A   1      42.399  20.610  26.548  1.00  0.00    -0.240 N 
ATOM     20  C   UNL A   1      43.135  20.594  25.366  1.00  0.00     0.117 A 
ATOM     21  C   UNL A   1      42.803  21.729  27.291  1.00  0.00     0.065 A 
ATOM     22  C   UNL A   1      43.417  22.592  26.388  1.00  0.00     0.012 A 
ATOM     23  C   UNL A   1      42.453  22.149  28.589  1.00  0.00     0.028 A 
ATOM     24  C   UNL A   1      43.522  23.958  26.726  1.00  0.00     0.011 A 
ATOM     25  C   UNL A   1      42.514  23.511  28.878  1.00  0.00     0.002 A 
ATOM     26  C   UNL A   1      43.003  24.412  27.943  1.00  0.00     0.001 A 
BRANCH  19  27
ATOM     27  S   UNL A   1      40.689  20.317  26.696  1.00  0.00     0.268 S 
ATOM     28  O   UNL A   1      40.535  19.972  28.100  1.00  0.00    -0.201 OA
ATOM     29  O   UNL A   1      40.437  19.338  25.647  1.00  0.00    -0.201 OA
BRANCH  27  30
ATOM     30  C   UNL A   1      39.439  21.508  26.379  1.00  0.00     0.088 A 
ATOM     31  C   UNL A   1      36.132  23.804  24.820  1.00  0.00     0.044 C 
ATOM     32  C   UNL A   1      37.268  23.025  25.418  1.00  0.00    -0.051 A 
ATOM     33  C   UNL A   1      37.329  21.667  25.140  1.00  0.00     0.005 A 
ATOM     34  C   UNL A   1      38.294  23.612  26.193  1.00  0.00     0.005 A 
ATOM     35  C   UNL A   1      38.391  20.925  25.624  1.00  0.00     0.022 A 
ATOM     36  C   UNL A   1      39.393  22.858  26.678  1.00  0.00     0.022 A 
ENDBRANCH  27  30
ENDBRANCH  19  27
ENDBRANCH  16  18
ENDBRANCH  13  16
ENDBRANCH  11  12
ENDBRANCH   8  11
ENDBRANCH   6   7
BRANCH   6  37
ATOM     37  C   UNL A   1      48.711  26.611  24.360  1.00  0.00     0.072 C 
BRANCH  37  38
ATOM     38  C   UNL A   1      49.815  27.400  23.731  1.00  0.00    -0.020 A 
ATOM     39  C   UNL A   1      50.848  28.007  24.419  1.00  0.00     0.087 A 
ATOM     40  C   UNL A   1      50.082  27.597  22.334  1.00  0.00     0.003 A 
ATOM     41  N   UNL A   1      51.662  28.634  23.518  1.00  0.00    -0.361 N 
ATOM     42  C   UNL A   1      51.210  28.414  22.239  1.00  0.00     0.046 A 
ATOM     43  C   UNL A   1      49.485  27.149  21.137  1.00  0.00     0.010 A 
ATOM     44  H   UNL A   1      52.457  29.165  23.751  1.00  0.00     0.166 HD
ATOM     45  C   UNL A   1      51.734  28.856  21.018  1.00  0.00     0.026 A 
ATOM     46  C   UNL A   1      50.023  27.545  19.905  1.00  0.00     0.001 A 
ATOM     47  C   UNL A   1      51.121  28.400  19.849  1.00  0.00     0.002 A 
ENDBRANCH  37  38
ENDBRANCH   6  37
ENDBRANCH   3   6
ENDBRANCH   1   2
BRANCH   1  48
ATOM     48  C   UNL A   1      45.276  30.757  27.296  1.00  0.00     0.021 C 
BRANCH  48  49
ATOM     49  C   UNL A   1      45.714  31.957  28.149  1.00  0.00     0.002 C 
BRANCH  49  50
ATOM     50  C   UNL A   1      46.643  31.713  29.348  1.00  0.00     0.002 C 
BRANCH  50  51
ATOM     51  C   UNL A   1      46.106  32.039  30.741  1.00  0.00     0.021 C 
BRANCH  51  52
ATOM     52  C   UNL A   1      45.683  33.481  30.969  1.00  0.00     0.116 C 
BRANCH  52  53
ATOM     53  N   UNL A   1      46.390  34.163  32.045  1.00  0.00    -0.352 N 
ATOM     54  C   UNL A   1      45.954  34.440  33.342  1.00  0.00     0.251 C 
ATOM     55  H   UNL A   1      47.301  34.471  31.828  1.00  0.00     0.163 HD
ATOM     56  O   UNL A   1      46.661  35.008  34.127  1.00  0.00    -0.269 OA
BRANCH  54  57
ATOM     57  C   UNL A   1      44.638  33.883  33.765  1.00  0.00     0.039 A 
ATOM     58  C   UNL A   1      44.628  32.576  34.261  1.00  0.00     0.014 A 
ATOM     59  C   UNL A   1      43.450  34.521  33.428  1.00  0.00     0.014 A 
ATOM     60  C   UNL A   1      43.463  31.822  34.146  1.00  0.00     0.010 A 
ATOM     61  C   UNL A   1      42.326  33.748  33.215  1.00  0.00     0.010 A 
ATOM     62  C   UNL A   1      42.361  32.379  33.496  1.00  0.00    -0.014 A 
BRANCH  62  63
ATOM     63  C   UNL A   1      41.299  31.566  32.912  1.00  0.00     0.031 A 
ATOM     64  C   UNL A   1      41.338  31.163  31.490  1.00  0.00     0.074 A 
ATOM     65  C   UNL A   1      40.258  31.167  33.679  1.00  0.00     0.049 A 
ATOM     66  N   UNL A   1      40.284  30.911  30.787  1.00  0.00    -0.248 NA
ATOM     67  C   UNL A   1      42.579  31.053  30.729  1.00  0.00     0.031 C 
ATOM     68  C   UNL A   1      39.242  30.169  33.348  1.00  0.00     0.029 A 
ATOM     69  N   UNL A   1      39.792  31.692  34.869  1.00  0.00    -0.354 N 
ATOM     70  C   UNL A   1      40.703  30.346  29.608  1.00  0.00     0.074 A 
ATOM     71  C   UNL A   1      42.138  30.521  29.584  1.00  0.00     0.031 C 
ATOM     72  C   UNL A   1      38.176  30.350  34.148  1.00  0.00     0.029 A 
ATOM     73  C   UNL A   1      38.408  31.561  34.916  1.00  0.00     0.049 A 
ATOM     74  H   UNL A   1      40.352  32.096  35.572  1.00  0.00     0.167 HD
ATOM     75  C   UNL A   1      39.824  29.661  28.827  1.00  0.00     0.031 A 
ATOM     76  C   UNL A   1      37.558  32.632  34.952  1.00  0.00     0.031 A 
ATOM     77  C   UNL A   1      38.476  29.654  29.376  1.00  0.00     0.049 A 
ATOM     78  C   UNL A   1      36.615  32.702  33.764  1.00  0.00     0.074 A 
ATOM     79  C   UNL A   1      37.774  28.733  30.136  1.00  0.00     0.029 A 
ATOM     80  N   UNL A   1      37.758  30.840  29.426  1.00  0.00    -0.354 N 
ATOM     81  N   UNL A   1      36.786  32.029  32.660  1.00  0.00    -0.248 NA
ATOM     82  C   UNL A   1      35.444  33.576  33.700  1.00  0.00     0.031 C 
ATOM     83  C   UNL A   1      36.660  29.398  30.708  1.00  0.00     0.029 A 
ATOM     84  C   UNL A   1      36.671  30.709  30.269  1.00  0.00     0.049 A 
ATOM     85  H   UNL A   1      37.989  31.659  28.931  1.00  0.00     0.167 HD
ATOM     86  C   UNL A   1      35.812  32.366  31.758  1.00  0.00     0.074 A 
ATOM     87  C   UNL A   1      34.984  33.328  32.460  1.00  0.00     0.031 C 
ATOM     88  C   UNL A   1      35.785  31.838  30.500  1.00  0.00     0.031 A 
BRANCH  75  89
ATOM     89  C   UNL A   1      40.289  28.755  27.722  1.00  0.00    -0.014 A 
ATOM     90  C   UNL A   1      39.954  27.389  27.752  1.00  0.00     0.009 A 
ATOM     91  C   UNL A   1      41.097  29.184  26.657  1.00  0.00     0.009 A 
ATOM     92  C   UNL A   1      40.478  26.482  26.823  1.00  0.00     0.001 A 
ATOM     93  C   UNL A   1      41.657  28.274  25.749  1.00  0.00     0.001 A 
ATOM     94  C   UNL A   1      41.356  26.921  25.839  1.00  0.00     0.000 A 
ENDBRANCH  75  89
BRANCH  76  95
ATOM     95  C   UNL A   1      38.106  33.824  35.652  1.00  0.00    -0.014 A 
ATOM     96  C   UNL A   1      38.181  33.798  37.058  1.00  0.00     0.009 A 
ATOM     97  C   UNL A   1      38.848  34.790  34.958  1.00  0.00     0.009 A 
ATOM     98  C   UNL A   1      39.065  34.637  37.743  1.00  0.00     0.001 A 
ATOM     99  C   UNL A   1      39.725  35.636  35.650  1.00  0.00     0.001 A 
ATOM    100  C   UNL A   1      39.858  35.535  37.035  1.00  0.00     0.000 A 
ENDBRANCH  76  95
BRANCH  88 101
ATOM    101  C   UNL A   1      34.894  32.284  29.369  1.00  0.00    -0.014 A 
ATOM    102  C   UNL A   1      34.140  31.413  28.573  1.00  0.00     0.009 A 
ATOM    103  C   UNL A   1      34.680  33.668  29.179  1.00  0.00     0.009 A 
ATOM    104  C   UNL A   1      33.246  31.902  27.609  1.00  0.00     0.001 A 
ATOM    105  C   UNL A   1      33.760  34.158  28.250  1.00  0.00     0.001 A 
ATOM    106  C   UNL A   1      33.049  33.272  27.455  1.00  0.00     0.000 A 
ENDBRANCH  88 101
ENDBRANCH  62  63
ENDBRANCH  54  57
ENDBRANCH  52  53
ENDBRANCH  51  52
ENDBRANCH  50  51
ENDBRANCH  49  50
ENDBRANCH  48  49
ENDBRANCH   1  48
TORSDOF 22
ENDMDL
MODEL 3
REMARK VINA RESULT:     -11.1      4.370     10.867
REMARK SMILES Cc1ccc(S(=O)(=O)n2cc(C(=O)C(=O)NCC(=O)N[C@@H](Cc3c[nH]c4ccccc34)C(=O)NCCCCCCNC(=O)c3ccc(-c4c5nc(c(-c6ccccc6)c6ccc([nH]6)c(-c6ccccc6)c6nc(c(-c7ccccc7)c7ccc4[nH]7)C=C6)C=C5)cc3)c3ccccc32)cc1
REMARK SMILES IDX 35 1 34 2 32 3 33 4 21 6 20 7 18 8 19 9 17 11 16 12 14 13
REMARK SMILES IDX 15 14 12 16 13 17 11 18 9 19 10 20 97 21 92 22 96 23 93 24
REMARK SMILES IDX 95 25 94 26 6 27 7 28 8 29 5 30 1 31 2 32 3 33 99 34 4 35
REMARK SMILES IDX 98 36 22 37 23 38 24 39 31 40 25 41 26 42 30 43 27 45 29 46
REMARK SMILES IDX 28 47 36 48 37 49 38 50 39 51 40 52 41 53 42 54 43 56 44 57
REMARK SMILES IDX 45 58 91 59 46 60 90 61 47 62 48 63 49 64 84 65 50 66 89 67
REMARK SMILES IDX 83 68 85 69 51 70 88 71 82 72 81 73 52 75 74 76 59 77 73 78
REMARK SMILES IDX 60 79 63 80 72 81 86 82 61 83 62 84 71 86 87 87 64 88 53 89
REMARK SMILES IDX 54 90 58 91 55 92 57 93 56 94 75 95 76 96 80 97 77 98 79 99
REMARK SMILES IDX 78 100 65 101 66 102 70 103 67 104 69 105 68 106
REMARK H PARENT 34 5 20 10 16 15 25 44 41 55 85 74 63 85
REMARK Flexibility Score: inf
ROOT
ATOM      1  C   UNL A   1      42.714  26.713  28.142  1.00  0.00     0.116 C 
ENDROOT
BRANCH   1   2
ATOM      2  N   UNL A   1      42.267  26.690  26.767  1.00  0.00    -0.354 N 
ATOM      3  C   UNL A   1      42.231  25.654  25.881  1.00  0.00     0.242 C 
ATOM      4  O   UNL A   1      41.404  25.746  24.965  1.00  0.00    -0.273 OA
ATOM      5  H   UNL A   1      41.939  27.551  26.419  1.00  0.00     0.163 HD
BRANCH   3   6
ATOM      6  C   UNL A   1      43.072  24.357  26.003  1.00  0.00     0.175 C 
BRANCH   6   7
ATOM      7  N   UNL A   1      42.810  23.515  27.171  1.00  0.00    -0.342 N 
ATOM      8  C   UNL A   1      41.798  22.606  27.336  1.00  0.00     0.240 C 
ATOM      9  O   UNL A   1      41.881  21.800  28.263  1.00  0.00    -0.273 OA
ATOM     10  H   UNL A   1      43.435  23.611  27.926  1.00  0.00     0.164 HD
BRANCH   8  11
ATOM     11  C   UNL A   1      40.612  22.588  26.348  1.00  0.00     0.216 C 
BRANCH  11  12
ATOM     12  N   UNL A   1      39.666  23.663  26.665  1.00  0.00    -0.340 N 
ATOM     13  C   UNL A   1      38.338  23.780  26.289  1.00  0.00     0.292 C 
ATOM     14  O   UNL A   1      37.701  24.799  26.531  1.00  0.00    -0.265 OA
ATOM     15  H   UNL A   1      40.021  24.397  27.216  1.00  0.00     0.164 HD
BRANCH  13  16
ATOM     16  C   UNL A   1      37.669  22.616  25.551  1.00  0.00     0.252 C 
ATOM     17  O   UNL A   1      38.388  21.654  25.288  1.00  0.00    -0.283 OA
BRANCH  16  18
ATOM     18  C   UNL A   1      36.298  22.730  25.035  1.00  0.00     0.054 A 
ATOM     19  N   UNL A   1      34.438  22.994  23.779  1.00  0.00    -0.240 N 
ATOM     20  C   UNL A   1      35.830  23.037  23.753  1.00  0.00     0.117 A 
ATOM     21  C   UNL A   1      34.048  22.465  25.019  1.00  0.00     0.065 A 
ATOM     22  C   UNL A   1      35.141  22.618  25.866  1.00  0.00     0.012 A 
ATOM     23  C   UNL A   1      32.776  22.118  25.514  1.00  0.00     0.028 A 
ATOM     24  C   UNL A   1      34.921  22.600  27.260  1.00  0.00     0.011 A 
ATOM     25  C   UNL A   1      32.572  22.163  26.891  1.00  0.00     0.002 A 
ATOM     26  C   UNL A   1      33.622  22.442  27.754  1.00  0.00     0.001 A 
BRANCH  19  27
ATOM     27  S   UNL A   1      33.362  24.254  23.245  1.00  0.00     0.268 S 
ATOM     28  O   UNL A   1      32.255  23.515  22.660  1.00  0.00    -0.201 OA
ATOM     29  O   UNL A   1      34.227  25.091  22.425  1.00  0.00    -0.201 OA
BRANCH  27  30
ATOM     30  C   UNL A   1      32.612  25.441  24.299  1.00  0.00     0.088 A 
ATOM     31  C   UNL A   1      31.587  28.169  27.485  1.00  0.00     0.044 C 
ATOM     32  C   UNL A   1      31.917  27.258  26.337  1.00  0.00    -0.051 A 
ATOM     33  C   UNL A   1      33.244  26.885  26.177  1.00  0.00     0.005 A 
ATOM     34  C   UNL A   1      30.946  26.725  25.459  1.00  0.00     0.005 A 
ATOM     35  C   UNL A   1      33.580  26.002  25.168  1.00  0.00     0.022 A 
ATOM     36  C   UNL A   1      31.285  25.807  24.432  1.00  0.00     0.022 A 
ENDBRANCH  27  30
ENDBRANCH  19  27
ENDBRANCH  16  18
ENDBRANCH  13  16
ENDBRANCH  11  12
ENDBRANCH   8  11
ENDBRANCH   6   7
BRANCH   6  37
ATOM     37  C   UNL A   1      43.256  23.554  24.704  1.00  0.00     0.072 C 
BRANCH  37  38
ATOM     38  C   UNL A   1      44.480  22.700  24.601  1.00  0.00    -0.020 A 
ATOM     39  C   UNL A   1      45.745  23.160  24.285  1.00  0.00     0.087 A 
ATOM     40  C   UNL A   1      44.616  21.302  24.897  1.00  0.00     0.003 A 
ATOM     41  N   UNL A   1      46.606  22.100  24.284  1.00  0.00    -0.361 N 
ATOM     42  C   UNL A   1      45.942  20.950  24.638  1.00  0.00     0.046 A 
ATOM     43  C   UNL A   1      43.746  20.299  25.375  1.00  0.00     0.010 A 
ATOM     44  H   UNL A   1      47.563  22.152  24.062  1.00  0.00     0.166 HD
ATOM     45  C   UNL A   1      46.427  19.643  24.772  1.00  0.00     0.026 A 
ATOM     46  C   UNL A   1      44.226  18.995  25.558  1.00  0.00     0.001 A 
ATOM     47  C   UNL A   1      45.544  18.671  25.243  1.00  0.00     0.002 A 
ENDBRANCH  37  38
ENDBRANCH   6  37
ENDBRANCH   3   6
ENDBRANCH   1   2
BRANCH   1  48
ATOM     48  C   UNL A   1      41.781  27.441  29.109  1.00  0.00     0.021 C 
BRANCH  48  49
ATOM     49  C   UNL A   1      40.398  26.826  29.373  1.00  0.00     0.002 C 
BRANCH  49  50
ATOM     50  C   UNL A   1      39.205  27.298  28.527  1.00  0.00     0.002 C 
BRANCH  50  51
ATOM     51  C   UNL A   1      39.321  28.651  27.829  1.00  0.00     0.021 C 
BRANCH  51  52
ATOM     52  C   UNL A   1      38.124  29.578  27.974  1.00  0.00     0.116 C 
BRANCH  52  53
ATOM     53  N   UNL A   1      37.511  29.584  29.295  1.00  0.00    -0.352 N 
ATOM     54  C   UNL A   1      38.019  30.087  30.494  1.00  0.00     0.251 C 
ATOM     55  H   UNL A   1      36.616  29.175  29.351  1.00  0.00     0.163 HD
ATOM     56  O   UNL A   1      37.387  30.026  31.512  1.00  0.00    -0.269 OA
BRANCH  54  57
ATOM     57  C   UNL A   1      39.309  30.831  30.443  1.00  0.00     0.039 A 
ATOM     58  C   UNL A   1      40.406  30.252  31.088  1.00  0.00     0.014 A 
ATOM     59  C   UNL A   1      39.355  32.155  30.022  1.00  0.00     0.014 A 
ATOM     60  C   UNL A   1      41.424  31.077  31.558  1.00  0.00     0.010 A 
ATOM     61  C   UNL A   1      40.305  32.989  30.576  1.00  0.00     0.010 A 
ATOM     62  C   UNL A   1      41.291  32.459  31.414  1.00  0.00    -0.014 A 
BRANCH  62  63
ATOM     63  C   UNL A   1      42.018  33.410  32.248  1.00  0.00     0.031 A 
ATOM     64  C   UNL A   1      41.394  34.006  33.449  1.00  0.00     0.074 A 
ATOM     65  C   UNL A   1      43.287  33.754  31.929  1.00  0.00     0.049 A 
ATOM     66  N   UNL A   1      41.720  35.162  33.928  1.00  0.00    -0.248 NA
ATOM     67  C   UNL A   1      40.312  33.361  34.187  1.00  0.00     0.031 C 
ATOM     68  C   UNL A   1      44.243  34.487  32.755  1.00  0.00     0.029 A 
ATOM     69  N   UNL A   1      43.944  33.657  30.717  1.00  0.00    -0.354 N 
ATOM     70  C   UNL A   1      41.119  35.281  35.156  1.00  0.00     0.074 A 
ATOM     71  C   UNL A   1      40.196  34.172  35.244  1.00  0.00     0.031 C 
ATOM     72  C   UNL A   1      45.209  34.989  31.965  1.00  0.00     0.029 A 
ATOM     73  C   UNL A   1      44.827  34.724  30.588  1.00  0.00     0.049 A 
ATOM     74  H   UNL A   1      43.808  32.945  30.050  1.00  0.00     0.167 HD
ATOM     75  C   UNL A   1      41.552  36.218  36.042  1.00  0.00     0.031 A 
ATOM     76  C   UNL A   1      44.705  35.681  29.619  1.00  0.00     0.031 A 
ATOM     77  C   UNL A   1      42.638  37.030  35.511  1.00  0.00     0.049 A 
ATOM     78  C   UNL A   1      44.496  37.082  30.167  1.00  0.00     0.074 A 
ATOM     79  C   UNL A   1      44.015  36.963  35.646  1.00  0.00     0.029 A 
ATOM     80  N   UNL A   1      42.383  37.903  34.463  1.00  0.00    -0.354 N 
ATOM     81  N   UNL A   1      44.141  37.335  31.396  1.00  0.00    -0.248 NA
ATOM     82  C   UNL A   1      44.611  38.299  29.365  1.00  0.00     0.031 C 
ATOM     83  C   UNL A   1      44.593  37.751  34.617  1.00  0.00     0.029 A 
ATOM     84  C   UNL A   1      43.567  38.316  33.883  1.00  0.00     0.049 A 
ATOM     85  H   UNL A   1      41.487  38.187  34.174  1.00  0.00     0.167 HD
ATOM     86  C   UNL A   1      43.963  38.684  31.557  1.00  0.00     0.074 A 
ATOM     87  C   UNL A   1      44.284  39.249  30.261  1.00  0.00     0.031 C 
ATOM     88  C   UNL A   1      43.545  39.217  32.742  1.00  0.00     0.031 A 
BRANCH  75  89
ATOM     89  C   UNL A   1      41.168  36.172  37.493  1.00  0.00    -0.014 A 
ATOM     90  C   UNL A   1      39.882  36.581  37.889  1.00  0.00     0.009 A 
ATOM     91  C   UNL A   1      42.048  35.779  38.516  1.00  0.00     0.009 A 
ATOM     92  C   UNL A   1      39.525  36.687  39.239  1.00  0.00     0.001 A 
ATOM     93  C   UNL A   1      41.709  35.921  39.869  1.00  0.00     0.001 A 
ATOM     94  C   UNL A   1      40.451  36.386  40.230  1.00  0.00     0.000 A 
ENDBRANCH  75  89
BRANCH  76  95
ATOM     95  C   UNL A   1      44.116  35.189  28.346  1.00  0.00    -0.014 A 
ATOM     96  C   UNL A   1      42.833  35.645  27.983  1.00  0.00     0.009 A 
ATOM     97  C   UNL A   1      44.916  34.587  27.364  1.00  0.00     0.009 A 
ATOM     98  C   UNL A   1      42.411  35.608  26.650  1.00  0.00     0.001 A 
ATOM     99  C   UNL A   1      44.484  34.543  26.032  1.00  0.00     0.001 A 
ATOM    100  C   UNL A   1      43.249  35.084  25.671  1.00  0.00     0.000 A 
ENDBRANCH  76  95
BRANCH  88 101
ATOM    101  C   UNL A   1      43.123  40.645  32.973  1.00  0.00    -0.014 A 
ATOM    102  C   UNL A   1      43.400  41.367  34.140  1.00  0.00     0.009 A 
ATOM    103  C   UNL A   1      42.539  41.361  31.904  1.00  0.00     0.009 A 
ATOM    104  C   UNL A   1      43.075  42.727  34.246  1.00  0.00     0.001 A 
ATOM    105  C   UNL A   1      42.253  42.725  31.990  1.00  0.00     0.001 A 
ATOM    106  C   UNL A   1      42.512  43.407  33.170  1.00  0.00     0.000 A 
ENDBRANCH  88 101
ENDBRANCH  62  63
ENDBRANCH  54  57
ENDBRANCH  52  53
ENDBRANCH  51  52
ENDBRANCH  50  51
ENDBRANCH  49  50
ENDBRANCH  48  49
ENDBRANCH   1  48
TORSDOF 22
ENDMDL
