MODEL 1
REMARK VINA RESULT:      -9.0      0.000      0.000
REMARK SMILES O=C(NCCCCCCNC(=O)[C@@H]1CSc2ccccc21)c1ccc(-c2c3nc(c(-c4ccccc4)c4ccc([nH]4)c(-c4ccccc4)c4nc(c(-c5ccccc5)c5ccc2[nH]5)C=C4)C=C3)cc1
REMARK SMILES IDX 5 1 4 2 3 3 1 4 2 5 22 7 23 8 69 9 24 10 68 11 25 12 26 13
REMARK SMILES IDX 27 14 62 15 28 16 67 17 61 18 63 19 29 20 66 21 60 22 59 23
REMARK SMILES IDX 30 25 52 26 37 27 51 28 38 29 41 30 50 31 64 32 39 33 40 34
REMARK SMILES IDX 49 36 65 37 42 38 31 39 32 40 36 41 33 42 35 43 34 44 53 45
REMARK SMILES IDX 54 46 58 47 55 48 57 49 56 50 43 51 44 52 48 53 45 54 47 55
REMARK SMILES IDX 46 56 6 57 7 58 8 59 9 60 10 61 11 62 12 64 13 65 14 66
REMARK SMILES IDX 21 67 15 68 16 69 20 70 17 71 19 72 18 73
REMARK H PARENT 3 6 63 24 41 35 10 63
REMARK Flexibility Score: inf
ROOT
ATOM      1  C   UNL A   1      33.479  35.346  32.305  1.00  0.00     0.021 C 
ENDROOT
BRANCH   1   2
ATOM      2  C   UNL A   1      33.500  36.149  31.008  1.00  0.00     0.116 C 
BRANCH   2   3
ATOM      3  N   UNL A   1      32.788  35.474  29.937  1.00  0.00    -0.352 N 
ATOM      4  O   UNL A   1      32.543  34.179  28.111  1.00  0.00    -0.269 OA
ATOM      5  C   UNL A   1      33.233  34.505  29.077  1.00  0.00     0.251 C 
ATOM      6  H   UNL A   1      31.852  35.751  29.813  1.00  0.00     0.163 HD
BRANCH   5   7
ATOM      7  C   UNL A   1      34.540  33.850  29.293  1.00  0.00     0.039 A 
ATOM      8  C   UNL A   1      34.623  32.813  30.229  1.00  0.00     0.014 A 
ATOM      9  C   UNL A   1      35.690  34.296  28.635  1.00  0.00     0.014 A 
ATOM     10  C   UNL A   1      35.854  32.213  30.495  1.00  0.00     0.010 A 
ATOM     11  C   UNL A   1      36.910  33.663  28.863  1.00  0.00     0.010 A 
ATOM     12  C   UNL A   1      37.006  32.633  29.811  1.00  0.00    -0.014 A 
BRANCH  12  13
ATOM     13  C   UNL A   1      38.331  32.048  30.121  1.00  0.00     0.031 A 
ATOM     14  C   UNL A   1      39.297  32.804  30.990  1.00  0.00     0.074 A 
ATOM     15  C   UNL A   1      38.686  30.863  29.592  1.00  0.00     0.049 A 
ATOM     16  N   UNL A   1      40.520  32.489  31.330  1.00  0.00    -0.248 NA
ATOM     17  C   UNL A   1      38.832  34.091  31.533  1.00  0.00     0.031 C 
ATOM     18  C   UNL A   1      37.842  30.038  28.726  1.00  0.00     0.029 A 
ATOM     19  N   UNL A   1      39.852  30.149  29.705  1.00  0.00    -0.354 N 
ATOM     20  C   UNL A   1      40.977  33.546  32.106  1.00  0.00     0.074 A 
ATOM     21  C   UNL A   1      39.917  34.527  32.159  1.00  0.00     0.031 C 
ATOM     22  C   UNL A   1      38.511  28.919  28.405  1.00  0.00     0.029 A 
ATOM     23  C   UNL A   1      39.840  28.965  29.010  1.00  0.00     0.049 A 
ATOM     24  H   UNL A   1      40.624  30.457  30.233  1.00  0.00     0.167 HD
ATOM     25  C   UNL A   1      42.169  33.678  32.735  1.00  0.00     0.031 A 
ATOM     26  C   UNL A   1      40.793  28.023  28.869  1.00  0.00     0.031 A 
ATOM     27  C   UNL A   1      43.211  32.689  32.707  1.00  0.00     0.049 A 
ATOM     28  C   UNL A   1      42.120  28.205  29.547  1.00  0.00     0.074 A 
ATOM     29  C   UNL A   1      44.418  32.696  33.382  1.00  0.00     0.029 A 
ATOM     30  N   UNL A   1      43.173  31.522  31.961  1.00  0.00    -0.354 N 
ATOM     31  N   UNL A   1      42.519  29.185  30.321  1.00  0.00    -0.248 NA
ATOM     32  C   UNL A   1      43.129  27.157  29.332  1.00  0.00     0.031 C 
ATOM     33  C   UNL A   1      45.136  31.558  33.002  1.00  0.00     0.029 A 
ATOM     34  C   UNL A   1      44.352  30.818  32.129  1.00  0.00     0.049 A 
ATOM     35  H   UNL A   1      42.419  31.236  31.396  1.00  0.00     0.167 HD
ATOM     36  C   UNL A   1      43.819  28.869  30.694  1.00  0.00     0.074 A 
ATOM     37  C   UNL A   1      44.139  27.601  30.071  1.00  0.00     0.031 C 
ATOM     38  C   UNL A   1      44.666  29.569  31.486  1.00  0.00     0.031 A 
BRANCH  25  39
ATOM     39  C   UNL A   1      42.415  34.945  33.502  1.00  0.00    -0.014 A 
ATOM     40  C   UNL A   1      43.090  36.011  32.887  1.00  0.00     0.009 A 
ATOM     41  C   UNL A   1      42.033  35.069  34.847  1.00  0.00     0.009 A 
ATOM     42  C   UNL A   1      43.374  37.177  33.600  1.00  0.00     0.001 A 
ATOM     43  C   UNL A   1      42.294  36.245  35.550  1.00  0.00     0.001 A 
ATOM     44  C   UNL A   1      42.970  37.295  34.928  1.00  0.00     0.000 A 
ENDBRANCH  25  39
BRANCH  26  45
ATOM     45  C   UNL A   1      40.497  26.815  28.059  1.00  0.00    -0.014 A 
ATOM     46  C   UNL A   1      40.903  26.735  26.718  1.00  0.00     0.009 A 
ATOM     47  C   UNL A   1      39.740  25.770  28.606  1.00  0.00     0.009 A 
ATOM     48  C   UNL A   1      40.535  25.642  25.932  1.00  0.00     0.001 A 
ATOM     49  C   UNL A   1      39.388  24.668  27.821  1.00  0.00     0.001 A 
ATOM     50  C   UNL A   1      39.778  24.609  26.484  1.00  0.00     0.000 A 
ENDBRANCH  26  45
BRANCH  38  51
ATOM     51  C   UNL A   1      46.034  29.000  31.726  1.00  0.00    -0.014 A 
ATOM     52  C   UNL A   1      47.103  29.375  30.896  1.00  0.00     0.009 A 
ATOM     53  C   UNL A   1      46.238  28.007  32.695  1.00  0.00     0.009 A 
ATOM     54  C   UNL A   1      48.346  28.752  31.020  1.00  0.00     0.001 A 
ATOM     55  C   UNL A   1      47.489  27.401  32.831  1.00  0.00     0.001 A 
ATOM     56  C   UNL A   1      48.537  27.766  31.987  1.00  0.00     0.000 A 
ENDBRANCH  38  51
ENDBRANCH  12  13
ENDBRANCH   5   7
ENDBRANCH   2   3
ENDBRANCH   1   2
BRANCH   1  57
ATOM     57  C   UNL A   1      34.625  35.652  33.272  1.00  0.00     0.002 C 
BRANCH  57  58
ATOM     58  C   UNL A   1      35.722  34.585  33.344  1.00  0.00     0.002 C 
BRANCH  58  59
ATOM     59  C   UNL A   1      35.913  33.934  34.722  1.00  0.00     0.021 C 
BRANCH  59  60
ATOM     60  C   UNL A   1      37.360  33.907  35.215  1.00  0.00     0.116 C 
BRANCH  60  61
ATOM     61  N   UNL A   1      37.618  32.720  36.005  1.00  0.00    -0.356 N 
ATOM     62  C   UNL A   1      38.064  31.487  35.628  1.00  0.00     0.228 C 
ATOM     63  H   UNL A   1      37.441  32.819  36.968  1.00  0.00     0.163 HD
ATOM     64  O   UNL A   1      38.106  30.618  36.499  1.00  0.00    -0.274 OA
BRANCH  62  65
ATOM     65  C   UNL A   1      38.524  31.265  34.189  1.00  0.00     0.120 C 
ATOM     66  C   UNL A   1      37.377  30.697  33.333  1.00  0.00     0.093 C 
ATOM     67  C   UNL A   1      39.705  30.331  34.076  1.00  0.00    -0.021 A 
ATOM     68  S   UNL A   1      37.868  29.095  32.630  1.00  0.00    -0.125 SA
ATOM     69  C   UNL A   1      39.490  29.184  33.314  1.00  0.00     0.011 A 
ATOM     70  C   UNL A   1      40.944  30.540  34.682  1.00  0.00     0.006 A 
ATOM     71  C   UNL A   1      40.486  28.233  33.151  1.00  0.00     0.015 A 
ATOM     72  C   UNL A   1      41.950  29.586  34.530  1.00  0.00     0.000 A 
ATOM     73  C   UNL A   1      41.723  28.435  33.768  1.00  0.00     0.001 A 
ENDBRANCH  62  65
ENDBRANCH  60  61
ENDBRANCH  59  60
ENDBRANCH  58  59
ENDBRANCH  57  58
ENDBRANCH   1  57
TORSDOF 13
ENDMDL
MODEL 2
REMARK VINA RESULT:      -8.4      4.600     10.798
REMARK SMILES O=C(NCCCCCCNC(=O)[C@@H]1CSc2ccccc21)c1ccc(-c2c3nc(c(-c4ccccc4)c4ccc([nH]4)c(-c4ccccc4)c4nc(c(-c5ccccc5)c5ccc2[nH]5)C=C4)C=C3)cc1
REMARK SMILES IDX 5 1 4 2 3 3 1 4 2 5 22 7 23 8 69 9 24 10 68 11 25 12 26 13
REMARK SMILES IDX 27 14 62 15 28 16 67 17 61 18 63 19 29 20 66 21 60 22 59 23
REMARK SMILES IDX 30 25 52 26 37 27 51 28 38 29 41 30 50 31 64 32 39 33 40 34
REMARK SMILES IDX 49 36 65 37 42 38 31 39 32 40 36 41 33 42 35 43 34 44 53 45
REMARK SMILES IDX 54 46 58 47 55 48 57 49 56 50 43 51 44 52 48 53 45 54 47 55
REMARK SMILES IDX 46 56 6 57 7 58 8 59 9 60 10 61 11 62 12 64 13 65 14 66
REMARK SMILES IDX 21 67 15 68 16 69 20 70 17 71 19 72 18 73
REMARK H PARENT 3 6 63 24 41 35 10 63
REMARK Flexibility Score: inf
ROOT
ATOM      1  C   UNL A   1      44.920  19.536  24.206  1.00  0.00     0.021 C 
ENDROOT
BRANCH   1   2
ATOM      2  C   UNL A   1      44.264  19.103  25.514  1.00  0.00     0.116 C 
BRANCH   2   3
ATOM      3  N   UNL A   1      42.826  18.950  25.377  1.00  0.00    -0.352 N 
ATOM      4  O   UNL A   1      40.653  19.356  25.806  1.00  0.00    -0.269 OA
ATOM      5  C   UNL A   1      41.820  19.741  25.865  1.00  0.00     0.251 C 
ATOM      6  H   UNL A   1      42.532  18.166  24.860  1.00  0.00     0.163 HD
BRANCH   5   7
ATOM      7  C   UNL A   1      42.123  21.056  26.468  1.00  0.00     0.039 A 
ATOM      8  C   UNL A   1      42.174  21.158  27.862  1.00  0.00     0.014 A 
ATOM      9  C   UNL A   1      42.287  22.196  25.673  1.00  0.00     0.014 A 
ATOM     10  C   UNL A   1      42.403  22.397  28.461  1.00  0.00     0.010 A 
ATOM     11  C   UNL A   1      42.566  23.423  26.270  1.00  0.00     0.010 A 
ATOM     12  C   UNL A   1      42.603  23.538  27.668  1.00  0.00    -0.014 A 
BRANCH  12  13
ATOM     13  C   UNL A   1      42.792  24.872  28.285  1.00  0.00     0.031 A 
ATOM     14  C   UNL A   1      44.136  25.255  28.837  1.00  0.00     0.074 A 
ATOM     15  C   UNL A   1      41.753  25.720  28.389  1.00  0.00     0.049 A 
ATOM     16  N   UNL A   1      44.489  26.350  29.462  1.00  0.00    -0.248 NA
ATOM     17  C   UNL A   1      45.222  24.274  28.680  1.00  0.00     0.031 C 
ATOM     18  C   UNL A   1      40.398  25.460  27.902  1.00  0.00     0.029 A 
ATOM     19  N   UNL A   1      41.678  26.973  28.943  1.00  0.00    -0.354 N 
ATOM     20  C   UNL A   1      45.827  26.178  29.792  1.00  0.00     0.074 A 
ATOM     21  C   UNL A   1      46.215  24.864  29.331  1.00  0.00     0.031 C 
ATOM     22  C   UNL A   1      39.630  26.531  28.158  1.00  0.00     0.029 A 
ATOM     23  C   UNL A   1      40.427  27.535  28.858  1.00  0.00     0.049 A 
ATOM     24  H   UNL A   1      42.445  27.425  29.361  1.00  0.00     0.167 HD
ATOM     25  C   UNL A   1      46.662  27.047  30.408  1.00  0.00     0.031 A 
ATOM     26  C   UNL A   1      39.971  28.723  29.300  1.00  0.00     0.031 A 
ATOM     27  C   UNL A   1      46.283  28.364  30.839  1.00  0.00     0.049 A 
ATOM     28  C   UNL A   1      40.906  29.659  30.010  1.00  0.00     0.074 A 
ATOM     29  C   UNL A   1      47.082  29.347  31.394  1.00  0.00     0.029 A 
ATOM     30  N   UNL A   1      44.999  28.880  30.768  1.00  0.00    -0.354 N 
ATOM     31  N   UNL A   1      42.182  29.505  30.269  1.00  0.00    -0.248 NA
ATOM     32  C   UNL A   1      40.341  30.928  30.494  1.00  0.00     0.031 C 
ATOM     33  C   UNL A   1      46.270  30.440  31.711  1.00  0.00     0.029 A 
ATOM     34  C   UNL A   1      44.974  30.154  31.306  1.00  0.00     0.049 A 
ATOM     35  H   UNL A   1      44.220  28.409  30.392  1.00  0.00     0.167 HD
ATOM     36  C   UNL A   1      42.577  30.658  30.934  1.00  0.00     0.074 A 
ATOM     37  C   UNL A   1      41.407  31.508  31.031  1.00  0.00     0.031 C 
ATOM     38  C   UNL A   1      43.801  30.981  31.416  1.00  0.00     0.031 A 
BRANCH  25  39
ATOM     39  C   UNL A   1      48.072  26.597  30.662  1.00  0.00    -0.014 A 
ATOM     40  C   UNL A   1      48.374  25.883  31.832  1.00  0.00     0.009 A 
ATOM     41  C   UNL A   1      49.112  26.923  29.777  1.00  0.00     0.009 A 
ATOM     42  C   UNL A   1      49.687  25.501  32.111  1.00  0.00     0.001 A 
ATOM     43  C   UNL A   1      50.420  26.517  30.045  1.00  0.00     0.001 A 
ATOM     44  C   UNL A   1      50.707  25.813  31.214  1.00  0.00     0.000 A 
ENDBRANCH  25  39
BRANCH  26  45
ATOM     45  C   UNL A   1      38.553  29.086  29.053  1.00  0.00    -0.014 A 
ATOM     46  C   UNL A   1      38.159  29.632  27.820  1.00  0.00     0.009 A 
ATOM     47  C   UNL A   1      37.604  28.959  30.077  1.00  0.00     0.009 A 
ATOM     48  C   UNL A   1      36.846  30.066  27.628  1.00  0.00     0.001 A 
ATOM     49  C   UNL A   1      36.287  29.378  29.874  1.00  0.00     0.001 A 
ATOM     50  C   UNL A   1      35.911  29.939  28.654  1.00  0.00     0.000 A 
ENDBRANCH  26  45
BRANCH  38  51
ATOM     51  C   UNL A   1      43.956  32.303  32.109  1.00  0.00    -0.014 A 
ATOM     52  C   UNL A   1      43.687  32.409  33.483  1.00  0.00     0.009 A 
ATOM     53  C   UNL A   1      44.254  33.463  31.380  1.00  0.00     0.009 A 
ATOM     54  C   UNL A   1      43.694  33.656  34.111  1.00  0.00     0.001 A 
ATOM     55  C   UNL A   1      44.282  34.707  32.015  1.00  0.00     0.001 A 
ATOM     56  C   UNL A   1      43.991  34.802  33.376  1.00  0.00     0.000 A 
ENDBRANCH  38  51
ENDBRANCH  12  13
ENDBRANCH   5   7
ENDBRANCH   2   3
ENDBRANCH   1   2
BRANCH   1  57
ATOM     57  C   UNL A   1      44.947  21.048  23.969  1.00  0.00     0.002 C 
BRANCH  57  58
ATOM     58  C   UNL A   1      45.959  21.824  24.817  1.00  0.00     0.002 C 
BRANCH  58  59
ATOM     59  C   UNL A   1      45.766  23.347  24.836  1.00  0.00     0.021 C 
BRANCH  59  60
ATOM     60  C   UNL A   1      46.994  24.136  25.294  1.00  0.00     0.116 C 
BRANCH  60  61
ATOM     61  N   UNL A   1      47.127  25.371  24.546  1.00  0.00    -0.356 N 
ATOM     62  C   UNL A   1      46.529  26.583  24.729  1.00  0.00     0.228 C 
ATOM     63  H   UNL A   1      47.746  25.326  23.783  1.00  0.00     0.163 HD
ATOM     64  O   UNL A   1      46.750  27.448  23.882  1.00  0.00    -0.274 OA
BRANCH  62  65
ATOM     65  C   UNL A   1      45.675  26.816  25.973  1.00  0.00     0.120 C 
ATOM     66  C   UNL A   1      44.177  26.769  25.621  1.00  0.00     0.093 C 
ATOM     67  C   UNL A   1      45.958  28.134  26.654  1.00  0.00    -0.021 A 
ATOM     68  S   UNL A   1      43.388  28.344  26.064  1.00  0.00    -0.125 SA
ATOM     69  C   UNL A   1      44.872  29.002  26.752  1.00  0.00     0.011 A 
ATOM     70  C   UNL A   1      47.202  28.518  27.156  1.00  0.00     0.006 A 
ATOM     71  C   UNL A   1      45.004  30.254  27.334  1.00  0.00     0.015 A 
ATOM     72  C   UNL A   1      47.346  29.778  27.737  1.00  0.00     0.000 A 
ATOM     73  C   UNL A   1      46.251  30.644  27.826  1.00  0.00     0.001 A 
ENDBRANCH  62  65
ENDBRANCH  60  61
ENDBRANCH  59  60
ENDBRANCH  58  59
ENDBRANCH  57  58
ENDBRANCH   1  57
TORSDOF 13
ENDMDL
MODEL 3
REMARK VINA RESULT:      -8.4      4.613     10.779
REMARK SMILES O=C(NCCCCCCNC(=O)[C@@H]1CSc2ccccc21)c1ccc(-c2c3nc(c(-c4ccccc4)c4ccc([nH]4)c(-c4ccccc4)c4nc(c(-c5ccccc5)c5ccc2[nH]5)C=C4)C=C3)cc1
REMARK SMILES IDX 5 1 4 2 3 3 1 4 2 5 22 7 23 8 69 9 24 10 68 11 25 12 26 13
REMARK SMILES IDX 27 14 62 15 28 16 67 17 61 18 63 19 29 20 66 21 60 22 59 23
REMARK SMILES IDX 30 25 52 26 37 27 51 28 38 29 41 30 50 31 64 32 39 33 40 34
REMARK SMILES IDX 49 36 65 37 42 38 31 39 32 40 36 41 33 42 35 43 34 44 53 45
REMARK SMILES IDX 54 46 58 47 55 48 57 49 56 50 43 51 44 52 48 53 45 54 47 55
REMARK SMILES IDX 46 56 6 57 7 58 8 59 9 60 10 61 11 62 12 64 13 65 14 66
REMARK SMILES IDX 21 67 15 68 16 69 20 70 17 71 19 72 18 73
REMARK H PARENT 3 6 63 24 41 35 10 63
REMARK Flexibility Score: inf
ROOT
ATOM      1  C   UNL A   1      44.699  20.103  24.693  1.00  0.00     0.021 C 
ENDROOT
BRANCH   1   2
ATOM      2  C   UNL A   1      44.047  19.152  25.692  1.00  0.00     0.116 C 
BRANCH   2   3
ATOM      3  N   UNL A   1      42.604  19.097  25.531  1.00  0.00    -0.352 N 
ATOM      4  O   UNL A   1      40.457  19.653  25.919  1.00  0.00    -0.269 OA
ATOM      5  C   UNL A   1      41.646  19.958  25.996  1.00  0.00     0.251 C 
ATOM      6  H   UNL A   1      42.267  18.331  25.012  1.00  0.00     0.163 HD
BRANCH   5   7
ATOM      7  C   UNL A   1      42.029  21.253  26.598  1.00  0.00     0.039 A 
ATOM      8  C   UNL A   1      42.190  21.325  27.986  1.00  0.00     0.014 A 
ATOM      9  C   UNL A   1      42.158  22.404  25.815  1.00  0.00     0.014 A 
ATOM     10  C   UNL A   1      42.496  22.546  28.588  1.00  0.00     0.010 A 
ATOM     11  C   UNL A   1      42.514  23.612  26.410  1.00  0.00     0.010 A 
ATOM     12  C   UNL A   1      42.662  23.697  27.803  1.00  0.00    -0.014 A 
BRANCH  12  13
ATOM     13  C   UNL A   1      42.931  25.014  28.428  1.00  0.00     0.031 A 
ATOM     14  C   UNL A   1      41.813  26.005  28.590  1.00  0.00     0.074 A 
ATOM     15  C   UNL A   1      44.180  25.336  28.812  1.00  0.00     0.049 A 
ATOM     16  N   UNL A   1      41.856  27.225  29.061  1.00  0.00    -0.248 NA
ATOM     17  C   UNL A   1      40.477  25.575  28.150  1.00  0.00     0.031 C 
ATOM     18  C   UNL A   1      45.350  24.464  28.698  1.00  0.00     0.029 A 
ATOM     19  N   UNL A   1      44.670  26.488  29.373  1.00  0.00    -0.354 N 
ATOM     20  C   UNL A   1      40.561  27.714  28.952  1.00  0.00     0.074 A 
ATOM     21  C   UNL A   1      39.762  26.676  28.340  1.00  0.00     0.031 C 
ATOM     22  C   UNL A   1      46.419  25.105  29.196  1.00  0.00     0.029 A 
ATOM     23  C   UNL A   1      46.019  26.442  29.628  1.00  0.00     0.049 A 
ATOM     24  H   UNL A   1      44.110  27.272  29.572  1.00  0.00     0.167 HD
ATOM     25  C   UNL A   1      40.077  28.916  29.345  1.00  0.00     0.031 A 
ATOM     26  C   UNL A   1      46.843  27.373  30.147  1.00  0.00     0.031 A 
ATOM     27  C   UNL A   1      40.864  29.936  29.980  1.00  0.00     0.049 A 
ATOM     28  C   UNL A   1      46.292  28.711  30.546  1.00  0.00     0.074 A 
ATOM     29  C   UNL A   1      40.443  31.150  30.491  1.00  0.00     0.029 A 
ATOM     30  N   UNL A   1      42.233  29.863  30.186  1.00  0.00    -0.354 N 
ATOM     31  N   UNL A   1      45.055  29.141  30.486  1.00  0.00    -0.248 NA
ATOM     32  C   UNL A   1      47.247  29.694  31.079  1.00  0.00     0.031 C 
ATOM     33  C   UNL A   1      41.567  31.839  30.957  1.00  0.00     0.029 A 
ATOM     34  C   UNL A   1      42.680  31.029  30.782  1.00  0.00     0.049 A 
ATOM     35  H   UNL A   1      42.801  29.097  29.945  1.00  0.00     0.167 HD
ATOM     36  C   UNL A   1      45.078  30.437  30.982  1.00  0.00     0.074 A 
ATOM     37  C   UNL A   1      46.451  30.722  31.349  1.00  0.00     0.031 C 
ATOM     38  C   UNL A   1      44.050  31.309  31.122  1.00  0.00     0.031 A 
BRANCH  25  39
ATOM     39  C   UNL A   1      38.623  29.199  29.090  1.00  0.00    -0.014 A 
ATOM     40  C   UNL A   1      38.220  29.696  27.841  1.00  0.00     0.009 A 
ATOM     41  C   UNL A   1      37.661  29.028  30.097  1.00  0.00     0.009 A 
ATOM     42  C   UNL A   1      36.882  30.013  27.603  1.00  0.00     0.001 A 
ATOM     43  C   UNL A   1      36.319  29.321  29.849  1.00  0.00     0.001 A 
ATOM     44  C   UNL A   1      35.933  29.819  28.604  1.00  0.00     0.000 A 
ENDBRANCH  25  39
BRANCH  26  45
ATOM     45  C   UNL A   1      48.278  27.041  30.331  1.00  0.00    -0.014 A 
ATOM     46  C   UNL A   1      49.209  27.302  29.313  1.00  0.00     0.009 A 
ATOM     47  C   UNL A   1      48.707  26.392  31.497  1.00  0.00     0.009 A 
ATOM     48  C   UNL A   1      50.538  26.897  29.450  1.00  0.00     0.001 A 
ATOM     49  C   UNL A   1      50.042  26.004  31.638  1.00  0.00     0.001 A 
ATOM     50  C   UNL A   1      50.954  26.248  30.612  1.00  0.00     0.000 A 
ENDBRANCH  26  45
BRANCH  38  51
ATOM     51  C   UNL A   1      44.354  32.667  31.685  1.00  0.00    -0.014 A 
ATOM     52  C   UNL A   1      44.300  32.878  33.072  1.00  0.00     0.009 A 
ATOM     53  C   UNL A   1      44.577  33.760  30.835  1.00  0.00     0.009 A 
ATOM     54  C   UNL A   1      44.445  34.163  33.597  1.00  0.00     0.001 A 
ATOM     55  C   UNL A   1      44.744  35.042  31.365  1.00  0.00     0.001 A 
ATOM     56  C   UNL A   1      44.666  35.243  32.744  1.00  0.00     0.000 A 
ENDBRANCH  38  51
ENDBRANCH  12  13
ENDBRANCH   5   7
ENDBRANCH   2   3
ENDBRANCH   1   2
BRANCH   1  57
ATOM     57  C   UNL A   1      45.518  21.233  25.319  1.00  0.00     0.002 C 
BRANCH  57  58
ATOM     58  C   UNL A   1      45.887  22.377  24.369  1.00  0.00     0.002 C 
BRANCH  58  59
ATOM     59  C   UNL A   1      45.583  23.788  24.894  1.00  0.00     0.021 C 
BRANCH  59  60
ATOM     60  C   UNL A   1      46.819  24.593  25.297  1.00  0.00     0.116 C 
BRANCH  60  61
ATOM     61  N   UNL A   1      46.919  25.814  24.523  1.00  0.00    -0.356 N 
ATOM     62  C   UNL A   1      46.350  27.038  24.724  1.00  0.00     0.228 C 
ATOM     63  H   UNL A   1      47.487  25.750  23.722  1.00  0.00     0.163 HD
ATOM     64  O   UNL A   1      46.527  27.886  23.850  1.00  0.00    -0.274 OA
BRANCH  62  65
ATOM     65  C   UNL A   1      45.581  27.302  26.017  1.00  0.00     0.120 C 
ATOM     66  C   UNL A   1      44.067  27.138  25.792  1.00  0.00     0.093 C 
ATOM     67  C   UNL A   1      45.827  28.678  26.588  1.00  0.00    -0.021 A 
ATOM     68  S   UNL A   1      43.211  28.689  26.198  1.00  0.00    -0.125 SA
ATOM     69  C   UNL A   1      44.697  29.481  26.721  1.00  0.00     0.011 A 
ATOM     70  C   UNL A   1      47.078  29.170  26.962  1.00  0.00     0.006 A 
ATOM     71  C   UNL A   1      44.790  30.776  27.210  1.00  0.00     0.015 A 
ATOM     72  C   UNL A   1      47.182  30.473  27.449  1.00  0.00     0.000 A 
ATOM     73  C   UNL A   1      46.043  31.274  27.573  1.00  0.00     0.001 A 
ENDBRANCH  62  65
ENDBRANCH  60  61
ENDBRANCH  59  60
ENDBRANCH  58  59
ENDBRANCH  57  58
ENDBRANCH   1  57
TORSDOF 13
ENDMDL
