MODEL 1
REMARK VINA RESULT:     -10.0      0.000      0.000
REMARK SMILES C[C@H](CNC(=O)Cn1cccc1C(=O)NCCCCCCNC(=O)c1ccc(-c2c3nc(c(-c4ccccc4)c4ccc([nH]4)c(-c4ccccc4)c4nc(c(-c5ccccc5)c5ccc2[nH]5)C=C4)C=C3)cc1)[NH+](C)C
REMARK SMILES IDX 17 1 16 2 15 3 13 4 14 5 12 7 8 8 9 9 10 10 11 11 7 12 5 13
REMARK SMILES IDX 4 14 6 16 3 17 2 18 1 19 73 20 74 21 75 22 18 24 19 25 20 26
REMARK SMILES IDX 21 27 22 28 23 29 24 31 25 32 26 33 72 34 27 35 71 36 28 37
REMARK SMILES IDX 29 38 30 39 65 40 31 41 70 42 64 43 66 44 32 45 69 46 63 47
REMARK SMILES IDX 62 48 33 50 55 51 40 52 54 53 41 54 44 55 53 56 67 57 42 58
REMARK SMILES IDX 43 59 52 61 68 62 45 63 34 64 35 65 39 66 36 67 38 68 37 69
REMARK SMILES IDX 56 70 57 71 61 72 58 73 60 74 59 75 46 76 47 77 51 78 48 79
REMARK SMILES IDX 50 80 49 81
REMARK H PARENT 15 6 4 15 73 23 22 30 66 49 44 60
REMARK Flexibility Score: inf
ROOT
ATOM      1  C   UNL A   1      32.999  28.453  26.610  1.00  0.00     0.021 C 
ENDROOT
BRANCH   1   2
ATOM      2  C   UNL A   1      31.803  28.214  27.519  1.00  0.00     0.116 C 
BRANCH   2   3
ATOM      3  N   UNL A   1      31.080  27.017  27.190  1.00  0.00    -0.351 N 
ATOM      4  C   UNL A   1      30.677  26.370  26.060  1.00  0.00     0.267 C 
ATOM      5  O   UNL A   1      30.301  25.217  26.316  1.00  0.00    -0.268 OA
ATOM      6  H   UNL A   1      30.799  26.533  28.000  1.00  0.00     0.163 HD
BRANCH   4   7
ATOM      7  C   UNL A   1      30.669  26.847  24.672  1.00  0.00     0.107 A 
ATOM      8  N   UNL A   1      31.520  26.821  23.569  1.00  0.00    -0.334 N 
ATOM      9  C   UNL A   1      30.922  27.484  22.503  1.00  0.00     0.087 A 
ATOM     10  C   UNL A   1      29.676  27.902  22.869  1.00  0.00     0.020 A 
ATOM     11  C   UNL A   1      29.512  27.494  24.199  1.00  0.00     0.033 A 
BRANCH   8  12
ATOM     12  C   UNL A   1      32.917  26.448  23.426  1.00  0.00     0.222 C 
BRANCH  12  13
ATOM     13  C   UNL A   1      33.327  25.446  22.357  1.00  0.00     0.240 C 
ATOM     14  N   UNL A   1      33.439  24.102  22.472  1.00  0.00    -0.349 N 
ATOM     15  H   UNL A   1      33.606  23.667  21.605  1.00  0.00     0.163 HD
ATOM     16  O   UNL A   1      33.685  25.894  21.255  1.00  0.00    -0.273 OA
BRANCH  14  17
ATOM     17  C   UNL A   1      33.372  23.146  23.567  1.00  0.00     0.180 C 
BRANCH  17  18
ATOM     18  C   UNL A   1      34.699  22.716  24.252  1.00  0.00     0.199 C 
ATOM     19  C   UNL A   1      35.903  23.081  23.379  1.00  0.00     0.077 C 
BRANCH  18  20
ATOM     20  N   UNL A   1      34.817  23.058  25.690  1.00  0.00    -0.336 N 
ATOM     21  C   UNL A   1      33.870  24.119  26.060  1.00  0.00     0.332 C 
ATOM     22  C   UNL A   1      34.670  21.933  26.609  1.00  0.00     0.332 C 
ATOM     23  H   UNL A   1      35.778  23.385  25.793  1.00  0.00     0.347 HD
ENDBRANCH  18  20
ENDBRANCH  17  18
ENDBRANCH  14  17
ENDBRANCH  12  13
ENDBRANCH   8  12
ENDBRANCH   4   7
ENDBRANCH   2   3
ENDBRANCH   1   2
BRANCH   1  24
ATOM     24  C   UNL A   1      32.891  29.779  25.856  1.00  0.00     0.002 C 
BRANCH  24  25
ATOM     25  C   UNL A   1      31.497  30.424  25.866  1.00  0.00     0.002 C 
BRANCH  25  26
ATOM     26  C   UNL A   1      31.417  31.835  26.466  1.00  0.00     0.021 C 
BRANCH  26  27
ATOM     27  C   UNL A   1      32.739  32.327  27.047  1.00  0.00     0.116 C 
BRANCH  27  28
ATOM     28  N   UNL A   1      32.590  33.665  27.589  1.00  0.00    -0.352 N 
ATOM     29  C   UNL A   1      33.212  34.283  28.639  1.00  0.00     0.251 C 
ATOM     30  H   UNL A   1      31.928  34.223  27.121  1.00  0.00     0.163 HD
ATOM     31  O   UNL A   1      32.723  35.303  29.108  1.00  0.00    -0.269 OA
BRANCH  29  32
ATOM     32  C   UNL A   1      34.448  33.737  29.228  1.00  0.00     0.039 A 
ATOM     33  C   UNL A   1      35.666  34.170  28.686  1.00  0.00     0.014 A 
ATOM     34  C   UNL A   1      34.423  32.747  30.216  1.00  0.00     0.014 A 
ATOM     35  C   UNL A   1      36.857  33.652  29.172  1.00  0.00     0.010 A 
ATOM     36  C   UNL A   1      35.614  32.250  30.729  1.00  0.00     0.010 A 
ATOM     37  C   UNL A   1      36.828  32.711  30.210  1.00  0.00    -0.014 A 
BRANCH  37  38
ATOM     38  C   UNL A   1      38.100  32.339  30.857  1.00  0.00     0.031 A 
ATOM     39  C   UNL A   1      38.720  31.093  30.193  1.00  0.00     0.074 A 
ATOM     40  C   UNL A   1      38.485  33.103  31.924  1.00  0.00     0.049 A 
ATOM     41  N   UNL A   1      39.547  30.220  30.676  1.00  0.00    -0.248 NA
ATOM     42  C   UNL A   1      38.329  30.732  28.798  1.00  0.00     0.031 C 
ATOM     43  C   UNL A   1      37.778  34.323  32.387  1.00  0.00     0.029 A 
ATOM     44  N   UNL A   1      39.517  33.033  32.837  1.00  0.00    -0.354 N 
ATOM     45  C   UNL A   1      39.885  29.316  29.642  1.00  0.00     0.074 A 
ATOM     46  C   UNL A   1      39.046  29.638  28.530  1.00  0.00     0.031 C 
ATOM     47  C   UNL A   1      38.338  34.812  33.515  1.00  0.00     0.029 A 
ATOM     48  C   UNL A   1      39.455  33.973  33.900  1.00  0.00     0.049 A 
ATOM     49  H   UNL A   1      40.247  32.377  32.757  1.00  0.00     0.167 HD
ATOM     50  C   UNL A   1      40.920  28.428  29.741  1.00  0.00     0.031 A 
ATOM     51  C   UNL A   1      40.209  34.038  35.040  1.00  0.00     0.031 A 
ATOM     52  C   UNL A   1      41.470  28.468  31.051  1.00  0.00     0.049 A 
ATOM     53  C   UNL A   1      41.243  33.008  34.891  1.00  0.00     0.074 A 
ATOM     54  C   UNL A   1      40.997  28.039  32.263  1.00  0.00     0.029 A 
ATOM     55  N   UNL A   1      42.489  29.366  31.253  1.00  0.00    -0.354 N 
ATOM     56  N   UNL A   1      42.271  33.096  34.105  1.00  0.00    -0.248 NA
ATOM     57  C   UNL A   1      41.088  31.741  35.616  1.00  0.00     0.031 C 
ATOM     58  C   UNL A   1      41.378  29.080  33.134  1.00  0.00     0.029 A 
ATOM     59  C   UNL A   1      42.262  29.943  32.475  1.00  0.00     0.049 A 
ATOM     60  H   UNL A   1      43.235  29.558  30.640  1.00  0.00     0.167 HD
ATOM     61  C   UNL A   1      42.620  31.779  33.947  1.00  0.00     0.074 A 
ATOM     62  C   UNL A   1      42.121  31.075  35.108  1.00  0.00     0.031 C 
ATOM     63  C   UNL A   1      42.769  31.272  32.696  1.00  0.00     0.031 A 
BRANCH  50  64
ATOM     64  C   UNL A   1      41.686  27.651  28.706  1.00  0.00    -0.014 A 
ATOM     65  C   UNL A   1      41.581  26.238  28.745  1.00  0.00     0.009 A 
ATOM     66  C   UNL A   1      42.737  28.192  27.959  1.00  0.00     0.009 A 
ATOM     67  C   UNL A   1      42.552  25.406  28.187  1.00  0.00     0.001 A 
ATOM     68  C   UNL A   1      43.693  27.354  27.363  1.00  0.00     0.001 A 
ATOM     69  C   UNL A   1      43.624  25.969  27.511  1.00  0.00     0.000 A 
ENDBRANCH  50  64
BRANCH  51  70
ATOM     70  C   UNL A   1      40.204  34.764  36.365  1.00  0.00    -0.014 A 
ATOM     71  C   UNL A   1      41.005  35.851  36.719  1.00  0.00     0.009 A 
ATOM     72  C   UNL A   1      39.250  34.368  37.347  1.00  0.00     0.009 A 
ATOM     73  C   UNL A   1      40.790  36.552  37.928  1.00  0.00     0.001 A 
ATOM     74  C   UNL A   1      39.000  35.083  38.521  1.00  0.00     0.001 A 
ATOM     75  C   UNL A   1      39.767  36.193  38.807  1.00  0.00     0.000 A 
ENDBRANCH  51  70
BRANCH  63  76
ATOM     76  C   UNL A   1      43.055  32.298  31.608  1.00  0.00    -0.014 A 
ATOM     77  C   UNL A   1      44.345  32.840  31.486  1.00  0.00     0.009 A 
ATOM     78  C   UNL A   1      42.058  32.831  30.770  1.00  0.00     0.009 A 
ATOM     79  C   UNL A   1      44.622  33.878  30.587  1.00  0.00     0.001 A 
ATOM     80  C   UNL A   1      42.331  33.870  29.865  1.00  0.00     0.001 A 
ATOM     81  C   UNL A   1      43.615  34.396  29.777  1.00  0.00     0.000 A 
ENDBRANCH  63  76
ENDBRANCH  37  38
ENDBRANCH  29  32
ENDBRANCH  27  28
ENDBRANCH  26  27
ENDBRANCH  25  26
ENDBRANCH  24  25
ENDBRANCH   1  24
TORSDOF 18
ENDMDL
MODEL 2
REMARK VINA RESULT:      -9.9      4.570      9.838
REMARK SMILES C[C@H](CNC(=O)Cn1cccc1C(=O)NCCCCCCNC(=O)c1ccc(-c2c3nc(c(-c4ccccc4)c4ccc([nH]4)c(-c4ccccc4)c4nc(c(-c5ccccc5)c5ccc2[nH]5)C=C4)C=C3)cc1)[NH+](C)C
REMARK SMILES IDX 17 1 16 2 15 3 13 4 14 5 12 7 8 8 9 9 10 10 11 11 7 12 5 13
REMARK SMILES IDX 4 14 6 16 3 17 2 18 1 19 73 20 74 21 75 22 18 24 19 25 20 26
REMARK SMILES IDX 21 27 22 28 23 29 24 31 25 32 26 33 72 34 27 35 71 36 28 37
REMARK SMILES IDX 29 38 30 39 65 40 31 41 70 42 64 43 66 44 32 45 69 46 63 47
REMARK SMILES IDX 62 48 33 50 55 51 40 52 54 53 41 54 44 55 53 56 67 57 42 58
REMARK SMILES IDX 43 59 52 61 68 62 45 63 34 64 35 65 39 66 36 67 38 68 37 69
REMARK SMILES IDX 56 70 57 71 61 72 58 73 60 74 59 75 46 76 47 77 51 78 48 79
REMARK SMILES IDX 50 80 49 81
REMARK H PARENT 15 6 4 15 73 23 22 30 66 49 44 60
REMARK Flexibility Score: inf
ROOT
ATOM      1  C   UNL A   1      36.162  22.362  25.610  1.00  0.00     0.021 C 
ENDROOT
BRANCH   1   2
ATOM      2  C   UNL A   1      35.936  23.778  25.101  1.00  0.00     0.116 C 
BRANCH   2   3
ATOM      3  N   UNL A   1      35.147  23.822  23.902  1.00  0.00    -0.351 N 
ATOM      4  C   UNL A   1      34.027  24.462  23.463  1.00  0.00     0.267 C 
ATOM      5  O   UNL A   1      33.902  24.352  22.235  1.00  0.00    -0.268 OA
ATOM      6  H   UNL A   1      35.516  23.229  23.208  1.00  0.00     0.163 HD
BRANCH   4   7
ATOM      7  C   UNL A   1      33.041  25.234  24.229  1.00  0.00     0.107 A 
ATOM      8  N   UNL A   1      32.475  25.205  25.502  1.00  0.00    -0.334 N 
ATOM      9  C   UNL A   1      31.552  26.238  25.625  1.00  0.00     0.087 A 
ATOM     10  C   UNL A   1      31.537  26.974  24.476  1.00  0.00     0.020 A 
ATOM     11  C   UNL A   1      32.468  26.366  23.622  1.00  0.00     0.033 A 
BRANCH   8  12
ATOM     12  C   UNL A   1      32.513  24.213  26.562  1.00  0.00     0.222 C 
BRANCH  12  13
ATOM     13  C   UNL A   1      31.462  23.113  26.607  1.00  0.00     0.240 C 
ATOM     14  N   UNL A   1      31.388  21.998  25.843  1.00  0.00    -0.349 N 
ATOM     15  H   UNL A   1      30.680  21.385  26.146  1.00  0.00     0.163 HD
ATOM     16  O   UNL A   1      30.499  23.268  27.376  1.00  0.00    -0.273 OA
BRANCH  14  17
ATOM     17  C   UNL A   1      32.102  21.488  24.682  1.00  0.00     0.180 C 
BRANCH  17  18
ATOM     18  C   UNL A   1      33.173  20.384  24.902  1.00  0.00     0.199 C 
ATOM     19  C   UNL A   1      33.366  20.105  26.395  1.00  0.00     0.077 C 
BRANCH  18  20
ATOM     20  N   UNL A   1      33.046  19.188  24.033  1.00  0.00    -0.336 N 
ATOM     21  C   UNL A   1      32.618  18.015  24.806  1.00  0.00     0.332 C 
ATOM     22  C   UNL A   1      32.173  19.354  22.875  1.00  0.00     0.332 C 
ATOM     23  H   UNL A   1      33.986  19.047  23.661  1.00  0.00     0.347 HD
ENDBRANCH  18  20
ENDBRANCH  17  18
ENDBRANCH  14  17
ENDBRANCH  12  13
ENDBRANCH   8  12
ENDBRANCH   4   7
ENDBRANCH   2   3
ENDBRANCH   1   2
BRANCH   1  24
ATOM     24  C   UNL A   1      36.862  21.484  24.572  1.00  0.00     0.002 C 
BRANCH  24  25
ATOM     25  C   UNL A   1      36.921  19.987  24.914  1.00  0.00     0.002 C 
BRANCH  25  26
ATOM     26  C   UNL A   1      38.308  19.335  24.830  1.00  0.00     0.021 C 
BRANCH  26  27
ATOM     27  C   UNL A   1      39.251  19.761  25.950  1.00  0.00     0.116 C 
BRANCH  27  28
ATOM     28  N   UNL A   1      40.432  18.916  25.969  1.00  0.00    -0.352 N 
ATOM     29  C   UNL A   1      41.761  19.232  26.040  1.00  0.00     0.251 C 
ATOM     30  H   UNL A   1      40.243  17.951  25.923  1.00  0.00     0.163 HD
ATOM     31  O   UNL A   1      42.594  18.386  25.742  1.00  0.00    -0.269 OA
BRANCH  29  32
ATOM     32  C   UNL A   1      42.209  20.574  26.455  1.00  0.00     0.039 A 
ATOM     33  C   UNL A   1      42.705  21.425  25.458  1.00  0.00     0.014 A 
ATOM     34  C   UNL A   1      42.243  20.961  27.798  1.00  0.00     0.014 A 
ATOM     35  C   UNL A   1      43.183  22.680  25.801  1.00  0.00     0.010 A 
ATOM     36  C   UNL A   1      42.689  22.230  28.144  1.00  0.00     0.010 A 
ATOM     37  C   UNL A   1      43.151  23.088  27.141  1.00  0.00    -0.014 A 
BRANCH  37  38
ATOM     38  C   UNL A   1      43.457  24.497  27.454  1.00  0.00     0.031 A 
ATOM     39  C   UNL A   1      42.168  25.335  27.573  1.00  0.00     0.074 A 
ATOM     40  C   UNL A   1      44.782  24.826  27.543  1.00  0.00     0.049 A 
ATOM     41  N   UNL A   1      41.989  26.608  27.414  1.00  0.00    -0.248 NA
ATOM     42  C   UNL A   1      40.872  24.653  27.864  1.00  0.00     0.031 C 
ATOM     43  C   UNL A   1      45.900  23.854  27.459  1.00  0.00     0.029 A 
ATOM     44  N   UNL A   1      45.472  26.008  27.711  1.00  0.00    -0.354 N 
ATOM     45  C   UNL A   1      40.639  26.904  27.719  1.00  0.00     0.074 A 
ATOM     46  C   UNL A   1      39.983  25.648  27.916  1.00  0.00     0.031 C 
ATOM     47  C   UNL A   1      47.095  24.482  27.488  1.00  0.00     0.029 A 
ATOM     48  C   UNL A   1      46.884  25.911  27.594  1.00  0.00     0.049 A 
ATOM     49  H   UNL A   1      45.017  26.861  27.900  1.00  0.00     0.167 HD
ATOM     50  C   UNL A   1      40.179  28.179  27.897  1.00  0.00     0.031 A 
ATOM     51  C   UNL A   1      47.816  26.912  27.527  1.00  0.00     0.031 A 
ATOM     52  C   UNL A   1      41.206  29.112  27.589  1.00  0.00     0.049 A 
ATOM     53  C   UNL A   1      47.077  28.158  27.761  1.00  0.00     0.074 A 
ATOM     54  C   UNL A   1      41.782  29.492  26.406  1.00  0.00     0.029 A 
ATOM     55  N   UNL A   1      42.022  29.478  28.631  1.00  0.00    -0.354 N 
ATOM     56  N   UNL A   1      46.620  28.545  28.911  1.00  0.00    -0.248 NA
ATOM     57  C   UNL A   1      46.750  29.012  26.612  1.00  0.00     0.031 C 
ATOM     58  C   UNL A   1      43.149  29.591  26.740  1.00  0.00     0.029 A 
ATOM     59  C   UNL A   1      43.298  29.517  28.129  1.00  0.00     0.049 A 
ATOM     60  H   UNL A   1      41.746  29.675  29.555  1.00  0.00     0.167 HD
ATOM     61  C   UNL A   1      45.640  29.431  28.543  1.00  0.00     0.074 A 
ATOM     62  C   UNL A   1      45.992  29.915  27.226  1.00  0.00     0.031 C 
ATOM     63  C   UNL A   1      44.386  29.285  29.043  1.00  0.00     0.031 A 
BRANCH  50  64
ATOM     64  C   UNL A   1      38.941  28.723  28.554  1.00  0.00    -0.014 A 
ATOM     65  C   UNL A   1      38.274  29.790  27.900  1.00  0.00     0.009 A 
ATOM     66  C   UNL A   1      38.617  28.494  29.895  1.00  0.00     0.009 A 
ATOM     67  C   UNL A   1      37.435  30.670  28.585  1.00  0.00     0.001 A 
ATOM     68  C   UNL A   1      37.742  29.356  30.574  1.00  0.00     0.001 A 
ATOM     69  C   UNL A   1      37.186  30.463  29.933  1.00  0.00     0.000 A 
ENDBRANCH  50  64
BRANCH  51  70
ATOM     70  C   UNL A   1      49.281  27.079  27.197  1.00  0.00    -0.014 A 
ATOM     71  C   UNL A   1      49.828  27.265  25.926  1.00  0.00     0.009 A 
ATOM     72  C   UNL A   1      50.214  27.123  28.272  1.00  0.00     0.009 A 
ATOM     73  C   UNL A   1      51.198  27.578  25.762  1.00  0.00     0.001 A 
ATOM     74  C   UNL A   1      51.557  27.478  28.123  1.00  0.00     0.001 A 
ATOM     75  C   UNL A   1      52.049  27.722  26.858  1.00  0.00     0.000 A 
ENDBRANCH  51  70
BRANCH  63  76
ATOM     76  C   UNL A   1      44.292  28.504  30.347  1.00  0.00    -0.014 A 
ATOM     77  C   UNL A   1      43.953  27.141  30.317  1.00  0.00     0.009 A 
ATOM     78  C   UNL A   1      44.416  29.103  31.614  1.00  0.00     0.009 A 
ATOM     79  C   UNL A   1      43.729  26.416  31.495  1.00  0.00     0.001 A 
ATOM     80  C   UNL A   1      44.194  28.380  32.798  1.00  0.00     0.001 A 
ATOM     81  C   UNL A   1      43.846  27.035  32.736  1.00  0.00     0.000 A 
ENDBRANCH  63  76
ENDBRANCH  37  38
ENDBRANCH  29  32
ENDBRANCH  27  28
ENDBRANCH  26  27
ENDBRANCH  25  26
ENDBRANCH  24  25
ENDBRANCH   1  24
TORSDOF 18
ENDMDL
MODEL 3
REMARK VINA RESULT:      -9.8      3.783      5.868
REMARK SMILES C[C@H](CNC(=O)Cn1cccc1C(=O)NCCCCCCNC(=O)c1ccc(-c2c3nc(c(-c4ccccc4)c4ccc([nH]4)c(-c4ccccc4)c4nc(c(-c5ccccc5)c5ccc2[nH]5)C=C4)C=C3)cc1)[NH+](C)C
REMARK SMILES IDX 17 1 16 2 15 3 13 4 14 5 12 7 8 8 9 9 10 10 11 11 7 12 5 13
REMARK SMILES IDX 4 14 6 16 3 17 2 18 1 19 73 20 74 21 75 22 18 24 19 25 20 26
REMARK SMILES IDX 21 27 22 28 23 29 24 31 25 32 26 33 72 34 27 35 71 36 28 37
REMARK SMILES IDX 29 38 30 39 65 40 31 41 70 42 64 43 66 44 32 45 69 46 63 47
REMARK SMILES IDX 62 48 33 50 55 51 40 52 54 53 41 54 44 55 53 56 67 57 42 58
REMARK SMILES IDX 43 59 52 61 68 62 45 63 34 64 35 65 39 66 36 67 38 68 37 69
REMARK SMILES IDX 56 70 57 71 61 72 58 73 60 74 59 75 46 76 47 77 51 78 48 79
REMARK SMILES IDX 50 80 49 81
REMARK H PARENT 15 6 4 15 73 23 22 30 66 49 44 60
REMARK Flexibility Score: inf
ROOT
ATOM      1  C   UNL A   1      32.734  25.882  26.135  1.00  0.00     0.021 C 
ENDROOT
BRANCH   1   2
ATOM      2  C   UNL A   1      31.330  25.402  26.472  1.00  0.00     0.116 C 
BRANCH   2   3
ATOM      3  N   UNL A   1      30.573  25.027  25.311  1.00  0.00    -0.351 N 
ATOM      4  C   UNL A   1      30.417  25.469  24.031  1.00  0.00     0.267 C 
ATOM      5  O   UNL A   1      29.832  24.626  23.335  1.00  0.00    -0.268 OA
ATOM      6  H   UNL A   1      30.015  24.235  25.486  1.00  0.00     0.163 HD
BRANCH   4   7
ATOM      7  C   UNL A   1      30.859  26.732  23.427  1.00  0.00     0.107 A 
ATOM      8  N   UNL A   1      31.888  27.170  22.596  1.00  0.00    -0.334 N 
ATOM      9  C   UNL A   1      31.766  28.540  22.387  1.00  0.00     0.087 A 
ATOM     10  C   UNL A   1      30.651  29.000  23.024  1.00  0.00     0.020 A 
ATOM     11  C   UNL A   1      30.081  27.883  23.650  1.00  0.00     0.033 A 
BRANCH   8  12
ATOM     12  C   UNL A   1      33.107  26.530  22.134  1.00  0.00     0.222 C 
BRANCH  12  13
ATOM     13  C   UNL A   1      33.029  25.213  21.375  1.00  0.00     0.240 C 
ATOM     14  N   UNL A   1      32.974  23.959  21.882  1.00  0.00    -0.349 N 
ATOM     15  H   UNL A   1      32.809  23.282  21.186  1.00  0.00     0.163 HD
ATOM     16  O   UNL A   1      33.102  25.258  20.135  1.00  0.00    -0.273 OA
BRANCH  14  17
ATOM     17  C   UNL A   1      33.099  23.371  23.207  1.00  0.00     0.180 C 
BRANCH  17  18
ATOM     18  C   UNL A   1      34.501  22.886  23.669  1.00  0.00     0.199 C 
ATOM     19  C   UNL A   1      35.285  24.031  24.317  1.00  0.00     0.077 C 
BRANCH  18  20
ATOM     20  N   UNL A   1      34.522  21.595  24.399  1.00  0.00    -0.336 N 
ATOM     21  C   UNL A   1      34.805  21.799  25.826  1.00  0.00     0.332 C 
ATOM     22  C   UNL A   1      33.320  20.780  24.252  1.00  0.00     0.332 C 
ATOM     23  H   UNL A   1      35.277  21.068  23.957  1.00  0.00     0.347 HD
ENDBRANCH  18  20
ENDBRANCH  17  18
ENDBRANCH  14  17
ENDBRANCH  12  13
ENDBRANCH   8  12
ENDBRANCH   4   7
ENDBRANCH   2   3
ENDBRANCH   1   2
BRANCH   1  24
ATOM     24  C   UNL A   1      33.074  27.198  26.834  1.00  0.00     0.002 C 
BRANCH  24  25
ATOM     25  C   UNL A   1      32.759  28.468  26.027  1.00  0.00     0.002 C 
BRANCH  25  26
ATOM     26  C   UNL A   1      33.661  29.678  26.304  1.00  0.00     0.021 C 
BRANCH  26  27
ATOM     27  C   UNL A   1      34.835  29.366  27.227  1.00  0.00     0.116 C 
BRANCH  27  28
ATOM     28  N   UNL A   1      35.006  30.423  28.207  1.00  0.00    -0.352 N 
ATOM     29  C   UNL A   1      35.934  30.585  29.200  1.00  0.00     0.251 C 
ATOM     30  H   UNL A   1      34.341  31.146  28.147  1.00  0.00     0.163 HD
ATOM     31  O   UNL A   1      35.716  31.391  30.095  1.00  0.00    -0.269 OA
BRANCH  29  32
ATOM     32  C   UNL A   1      37.181  29.800  29.220  1.00  0.00     0.039 A 
ATOM     33  C   UNL A   1      38.024  29.900  28.105  1.00  0.00     0.014 A 
ATOM     34  C   UNL A   1      37.476  28.907  30.255  1.00  0.00     0.014 A 
ATOM     35  C   UNL A   1      39.187  29.145  28.053  1.00  0.00     0.010 A 
ATOM     36  C   UNL A   1      38.656  28.175  30.224  1.00  0.00     0.010 A 
ATOM     37  C   UNL A   1      39.511  28.304  29.125  1.00  0.00    -0.014 A 
BRANCH  37  38
ATOM     38  C   UNL A   1      40.849  27.682  29.150  1.00  0.00     0.031 A 
ATOM     39  C   UNL A   1      40.796  26.225  28.649  1.00  0.00     0.074 A 
ATOM     40  C   UNL A   1      41.869  28.455  29.634  1.00  0.00     0.049 A 
ATOM     41  N   UNL A   1      41.594  25.234  28.894  1.00  0.00    -0.248 NA
ATOM     42  C   UNL A   1      39.662  25.786  27.784  1.00  0.00     0.031 C 
ATOM     43  C   UNL A   1      41.737  29.882  30.019  1.00  0.00     0.029 A 
ATOM     44  N   UNL A   1      43.201  28.228  29.911  1.00  0.00    -0.354 N 
ATOM     45  C   UNL A   1      41.167  24.125  28.127  1.00  0.00     0.074 A 
ATOM     46  C   UNL A   1      39.929  24.504  27.521  1.00  0.00     0.031 C 
ATOM     47  C   UNL A   1      42.888  30.353  30.546  1.00  0.00     0.029 A 
ATOM     48  C   UNL A   1      43.879  29.296  30.560  1.00  0.00     0.049 A 
ATOM     49  H   UNL A   1      43.652  27.385  29.676  1.00  0.00     0.167 HD
ATOM     50  C   UNL A   1      41.928  23.002  27.957  1.00  0.00     0.031 A 
ATOM     51  C   UNL A   1      45.127  29.312  31.121  1.00  0.00     0.031 A 
ATOM     52  C   UNL A   1      43.094  23.079  28.766  1.00  0.00     0.049 A 
ATOM     53  C   UNL A   1      45.730  28.016  30.786  1.00  0.00     0.074 A 
ATOM     54  C   UNL A   1      43.284  22.993  30.120  1.00  0.00     0.029 A 
ATOM     55  N   UNL A   1      44.193  23.664  28.188  1.00  0.00    -0.354 N 
ATOM     56  N   UNL A   1      46.169  27.684  29.612  1.00  0.00    -0.248 NA
ATOM     57  C   UNL A   1      45.780  26.973  31.817  1.00  0.00     0.031 C 
ATOM     58  C   UNL A   1      44.241  23.999  30.365  1.00  0.00     0.029 A 
ATOM     59  C   UNL A   1      44.760  24.459  29.150  1.00  0.00     0.049 A 
ATOM     60  H   UNL A   1      44.512  23.537  27.265  1.00  0.00     0.167 HD
ATOM     61  C   UNL A   1      46.154  26.314  29.681  1.00  0.00     0.074 A 
ATOM     62  C   UNL A   1      46.249  25.969  31.083  1.00  0.00     0.031 C 
ATOM     63  C   UNL A   1      45.519  25.604  28.714  1.00  0.00     0.031 A 
BRANCH  50  64
ATOM     64  C   UNL A   1      41.873  21.890  26.946  1.00  0.00    -0.014 A 
ATOM     65  C   UNL A   1      40.676  21.133  26.876  1.00  0.00     0.009 A 
ATOM     66  C   UNL A   1      43.009  21.344  26.340  1.00  0.00     0.009 A 
ATOM     67  C   UNL A   1      40.646  19.839  26.355  1.00  0.00     0.001 A 
ATOM     68  C   UNL A   1      42.969  20.058  25.779  1.00  0.00     0.001 A 
ATOM     69  C   UNL A   1      41.804  19.293  25.823  1.00  0.00     0.000 A 
ENDBRANCH  50  64
BRANCH  51  70
ATOM     70  C   UNL A   1      45.956  30.200  32.019  1.00  0.00    -0.014 A 
ATOM     71  C   UNL A   1      47.092  30.923  31.649  1.00  0.00     0.009 A 
ATOM     72  C   UNL A   1      45.524  30.394  33.362  1.00  0.00     0.009 A 
ATOM     73  C   UNL A   1      47.685  31.851  32.537  1.00  0.00     0.001 A 
ATOM     74  C   UNL A   1      46.074  31.343  34.227  1.00  0.00     0.001 A 
ATOM     75  C   UNL A   1      47.155  32.088  33.806  1.00  0.00     0.000 A 
ENDBRANCH  51  70
BRANCH  63  76
ATOM     76  C   UNL A   1      45.340  26.326  27.386  1.00  0.00    -0.014 A 
ATOM     77  C   UNL A   1      44.068  26.789  27.012  1.00  0.00     0.009 A 
ATOM     78  C   UNL A   1      46.372  26.463  26.440  1.00  0.00     0.009 A 
ATOM     79  C   UNL A   1      43.832  27.342  25.747  1.00  0.00     0.001 A 
ATOM     80  C   UNL A   1      46.141  27.020  25.171  1.00  0.00     0.001 A 
ATOM     81  C   UNL A   1      44.868  27.456  24.824  1.00  0.00     0.000 A 
ENDBRANCH  63  76
ENDBRANCH  37  38
ENDBRANCH  29  32
ENDBRANCH  27  28
ENDBRANCH  26  27
ENDBRANCH  25  26
ENDBRANCH  24  25
ENDBRANCH   1  24
TORSDOF 18
ENDMDL
