MODEL 1
REMARK VINA RESULT:     -12.0      0.000      0.000
REMARK SMILES O=C(NCCCCCCNC(=O)[C@H]1CC2(CCN(C(=O)C3CC3)CC2)CN1C(=O)CCn1cccn1)c1ccc(-c2c3nc(c(-c4ccccc4)c4ccc([nH]4)c(-c4ccccc4)c4nc(c(-c5ccccc5)c5ccc2[nH]5)C=C4)C=C3)cc1
REMARK SMILES IDX 7 1 6 2 5 3 4 4 3 5 1 6 2 7 37 9 38 10 84 11 39 12 83 13
REMARK SMILES IDX 40 14 41 15 42 16 77 17 43 18 82 19 76 20 78 21 44 22 81 23
REMARK SMILES IDX 75 24 74 25 45 27 67 28 52 29 66 30 53 31 56 32 65 33 79 34
REMARK SMILES IDX 54 35 55 36 64 38 80 39 57 40 46 41 47 42 51 43 48 44 50 45
REMARK SMILES IDX 49 46 68 47 69 48 73 49 70 50 72 51 71 52 58 53 59 54 63 55
REMARK SMILES IDX 60 56 62 57 61 58 8 59 9 60 10 61 11 62 12 64 13 65 14 66
REMARK SMILES IDX 27 67 15 68 26 69 16 70 25 71 17 72 24 73 18 74 19 75 20 76
REMARK SMILES IDX 28 77 29 78 30 79 31 80 32 81 33 82 36 83 34 84 35 85 21 86
REMARK SMILES IDX 22 87 23 88
REMARK H PARENT 3 8 78 26 56 37 10 63
REMARK Flexibility Score: inf
ROOT
ATOM      1  C   UNL A   1      39.977  24.185  26.986  1.00  0.00     0.002 C 
ENDROOT
BRANCH   1   2
ATOM      2  C   UNL A   1      40.624  23.013  27.708  1.00  0.00     0.002 C 
BRANCH   2   3
ATOM      3  C   UNL A   1      41.931  22.518  27.086  1.00  0.00     0.021 C 
BRANCH   3   4
ATOM      4  C   UNL A   1      41.907  22.313  25.566  1.00  0.00     0.116 C 
BRANCH   4   5
ATOM      5  N   UNL A   1      43.068  22.799  24.859  1.00  0.00    -0.352 N 
ATOM      6  O   UNL A   1      44.849  23.995  24.293  1.00  0.00    -0.269 OA
ATOM      7  C   UNL A   1      43.823  23.930  24.972  1.00  0.00     0.251 C 
ATOM      8  H   UNL A   1      43.378  22.190  24.151  1.00  0.00     0.163 HD
BRANCH   7   9
ATOM      9  C   UNL A   1      43.426  25.101  25.792  1.00  0.00     0.039 A 
ATOM     10  C   UNL A   1      43.872  25.371  27.086  1.00  0.00     0.014 A 
ATOM     11  C   UNL A   1      42.503  25.975  25.195  1.00  0.00     0.014 A 
ATOM     12  C   UNL A   1      43.311  26.404  27.821  1.00  0.00     0.010 A 
ATOM     13  C   UNL A   1      41.981  27.046  25.904  1.00  0.00     0.010 A 
ATOM     14  C   UNL A   1      42.354  27.229  27.233  1.00  0.00    -0.014 A 
BRANCH  14  15
ATOM     15  C   UNL A   1      41.898  28.383  27.997  1.00  0.00     0.031 A 
ATOM     16  C   UNL A   1      42.801  29.571  27.930  1.00  0.00     0.074 A 
ATOM     17  C   UNL A   1      40.693  28.448  28.591  1.00  0.00     0.049 A 
ATOM     18  N   UNL A   1      43.361  30.213  28.903  1.00  0.00    -0.248 NA
ATOM     19  C   UNL A   1      43.200  30.044  26.593  1.00  0.00     0.031 C 
ATOM     20  C   UNL A   1      39.585  27.493  28.496  1.00  0.00     0.029 A 
ATOM     21  N   UNL A   1      40.157  29.471  29.313  1.00  0.00    -0.354 N 
ATOM     22  C   UNL A   1      44.062  31.268  28.319  1.00  0.00     0.074 A 
ATOM     23  C   UNL A   1      44.021  31.049  26.895  1.00  0.00     0.031 C 
ATOM     24  C   UNL A   1      38.448  28.092  28.918  1.00  0.00     0.029 A 
ATOM     25  C   UNL A   1      38.777  29.407  29.440  1.00  0.00     0.049 A 
ATOM     26  H   UNL A   1      40.701  30.191  29.709  1.00  0.00     0.167 HD
ATOM     27  C   UNL A   1      44.465  32.356  29.030  1.00  0.00     0.031 A 
ATOM     28  C   UNL A   1      37.960  30.397  29.873  1.00  0.00     0.031 A 
ATOM     29  C   UNL A   1      44.480  32.106  30.444  1.00  0.00     0.049 A 
ATOM     30  C   UNL A   1      38.785  31.377  30.613  1.00  0.00     0.074 A 
ATOM     31  C   UNL A   1      45.168  31.247  31.277  1.00  0.00     0.029 A 
ATOM     32  N   UNL A   1      43.425  32.580  31.182  1.00  0.00    -0.354 N 
ATOM     33  N   UNL A   1      39.356  31.123  31.754  1.00  0.00    -0.248 NA
ATOM     34  C   UNL A   1      39.329  32.510  29.881  1.00  0.00     0.031 C 
ATOM     35  C   UNL A   1      44.224  30.876  32.277  1.00  0.00     0.029 A 
ATOM     36  C   UNL A   1      43.039  31.569  32.021  1.00  0.00     0.049 A 
ATOM     37  H   UNL A   1      43.022  33.476  31.122  1.00  0.00     0.167 HD
ATOM     38  C   UNL A   1      40.582  31.767  31.687  1.00  0.00     0.074 A 
ATOM     39  C   UNL A   1      40.466  32.688  30.559  1.00  0.00     0.031 C 
ATOM     40  C   UNL A   1      41.665  31.295  32.372  1.00  0.00     0.031 A 
BRANCH  27  41
ATOM     41  C   UNL A   1      44.462  33.761  28.474  1.00  0.00    -0.014 A 
ATOM     42  C   UNL A   1      43.255  34.483  28.465  1.00  0.00     0.009 A 
ATOM     43  C   UNL A   1      45.513  34.277  27.694  1.00  0.00     0.009 A 
ATOM     44  C   UNL A   1      43.083  35.606  27.647  1.00  0.00     0.001 A 
ATOM     45  C   UNL A   1      45.358  35.423  26.909  1.00  0.00     0.001 A 
ATOM     46  C   UNL A   1      44.131  36.069  26.861  1.00  0.00     0.000 A 
ENDBRANCH  27  41
BRANCH  28  47
ATOM     47  C   UNL A   1      36.581  30.701  29.436  1.00  0.00    -0.014 A 
ATOM     48  C   UNL A   1      35.874  31.784  29.979  1.00  0.00     0.009 A 
ATOM     49  C   UNL A   1      36.057  30.087  28.283  1.00  0.00     0.009 A 
ATOM     50  C   UNL A   1      34.700  32.253  29.371  1.00  0.00     0.001 A 
ATOM     51  C   UNL A   1      34.886  30.553  27.679  1.00  0.00     0.001 A 
ATOM     52  C   UNL A   1      34.215  31.646  28.216  1.00  0.00     0.000 A 
ENDBRANCH  28  47
BRANCH  40  53
ATOM     53  C   UNL A   1      41.445  30.191  33.376  1.00  0.00    -0.014 A 
ATOM     54  C   UNL A   1      41.427  28.830  33.020  1.00  0.00     0.009 A 
ATOM     55  C   UNL A   1      41.436  30.525  34.737  1.00  0.00     0.009 A 
ATOM     56  C   UNL A   1      41.380  27.836  34.002  1.00  0.00     0.001 A 
ATOM     57  C   UNL A   1      41.409  29.532  35.718  1.00  0.00     0.001 A 
ATOM     58  C   UNL A   1      41.378  28.188  35.350  1.00  0.00     0.000 A 
ENDBRANCH  40  53
ENDBRANCH  14  15
ENDBRANCH   7   9
ENDBRANCH   4   5
ENDBRANCH   3   4
ENDBRANCH   2   3
ENDBRANCH   1   2
BRANCH   1  59
ATOM     59  C   UNL A   1      38.554  23.938  26.492  1.00  0.00     0.021 C 
BRANCH  59  60
ATOM     60  C   UNL A   1      38.196  22.517  26.039  1.00  0.00     0.116 C 
BRANCH  60  61
ATOM     61  N   UNL A   1      37.755  22.439  24.665  1.00  0.00    -0.354 N 
ATOM     62  C   UNL A   1      36.628  22.899  24.055  1.00  0.00     0.242 C 
ATOM     63  H   UNL A   1      38.381  21.973  24.064  1.00  0.00     0.163 HD
ATOM     64  O   UNL A   1      36.747  23.150  22.846  1.00  0.00    -0.273 OA
BRANCH  62  65
ATOM     65  C   UNL A   1      35.332  23.348  24.799  1.00  0.00     0.175 C 
ATOM     66  C   UNL A   1      34.788  24.674  24.227  1.00  0.00     0.044 C 
ATOM     67  N   UNL A   1      34.058  22.699  25.164  1.00  0.00    -0.330 N 
ATOM     68  C   UNL A   1      33.506  24.991  25.061  1.00  0.00    -0.006 C 
ATOM     69  C   UNL A   1      33.330  23.715  25.928  1.00  0.00     0.127 C 
ATOM     70  C   UNL A   1      32.243  25.172  24.185  1.00  0.00     0.030 C 
ATOM     71  C   UNL A   1      33.724  26.278  25.880  1.00  0.00     0.030 C 
ATOM     72  C   UNL A   1      32.259  26.445  23.355  1.00  0.00     0.120 C 
ATOM     73  C   UNL A   1      33.731  27.523  24.974  1.00  0.00     0.120 C 
ATOM     74  N   UNL A   1      32.492  27.604  24.197  1.00  0.00    -0.342 N 
ATOM     75  C   UNL A   1      31.720  28.764  24.324  1.00  0.00     0.225 C 
ATOM     76  O   UNL A   1      32.132  29.714  24.973  1.00  0.00    -0.275 OA
BRANCH  67  77
ATOM     77  C   UNL A   1      33.277  21.935  24.280  1.00  0.00     0.225 C 
ATOM     78  O   UNL A   1      33.240  22.113  23.062  1.00  0.00    -0.275 OA
BRANCH  77  79
ATOM     79  C   UNL A   1      32.319  20.975  24.904  1.00  0.00     0.124 C 
BRANCH  79  80
ATOM     80  C   UNL A   1      32.832  19.648  25.422  1.00  0.00     0.154 C 
BRANCH  80  81
ATOM     81  N   UNL A   1      33.108  18.662  24.400  1.00  0.00    -0.272 N 
ATOM     82  C   UNL A   1      34.152  17.786  24.377  1.00  0.00     0.108 A 
ATOM     83  N   UNL A   1      32.330  18.590  23.304  1.00  0.00    -0.182 NA
ATOM     84  C   UNL A   1      34.000  17.042  23.230  1.00  0.00     0.042 A 
ATOM     85  C   UNL A   1      32.854  17.574  22.610  1.00  0.00     0.135 A 
ENDBRANCH  80  81
ENDBRANCH  79  80
ENDBRANCH  77  79
ENDBRANCH  67  77
BRANCH  75  86
ATOM     86  C   UNL A   1      30.340  28.934  23.766  1.00  0.00     0.079 C 
ATOM     87  C   UNL A   1      29.526  30.151  23.447  1.00  0.00     0.014 C 
ATOM     88  C   UNL A   1      30.120  29.339  22.329  1.00  0.00     0.014 C 
ENDBRANCH  75  86
ENDBRANCH  62  65
ENDBRANCH  60  61
ENDBRANCH  59  60
ENDBRANCH   1  59
TORSDOF 18
ENDMDL
MODEL 2
REMARK VINA RESULT:     -11.2      2.432      5.426
REMARK SMILES O=C(NCCCCCCNC(=O)[C@H]1CC2(CCN(C(=O)C3CC3)CC2)CN1C(=O)CCn1cccn1)c1ccc(-c2c3nc(c(-c4ccccc4)c4ccc([nH]4)c(-c4ccccc4)c4nc(c(-c5ccccc5)c5ccc2[nH]5)C=C4)C=C3)cc1
REMARK SMILES IDX 7 1 6 2 5 3 4 4 3 5 1 6 2 7 37 9 38 10 84 11 39 12 83 13
REMARK SMILES IDX 40 14 41 15 42 16 77 17 43 18 82 19 76 20 78 21 44 22 81 23
REMARK SMILES IDX 75 24 74 25 45 27 67 28 52 29 66 30 53 31 56 32 65 33 79 34
REMARK SMILES IDX 54 35 55 36 64 38 80 39 57 40 46 41 47 42 51 43 48 44 50 45
REMARK SMILES IDX 49 46 68 47 69 48 73 49 70 50 72 51 71 52 58 53 59 54 63 55
REMARK SMILES IDX 60 56 62 57 61 58 8 59 9 60 10 61 11 62 12 64 13 65 14 66
REMARK SMILES IDX 27 67 15 68 26 69 16 70 25 71 17 72 24 73 18 74 19 75 20 76
REMARK SMILES IDX 28 77 29 78 30 79 31 80 32 81 33 82 36 83 34 84 35 85 21 86
REMARK SMILES IDX 22 87 23 88
REMARK H PARENT 3 8 78 26 56 37 10 63
REMARK Flexibility Score: inf
ROOT
ATOM      1  C   UNL A   1      34.026  21.426  24.336  1.00  0.00     0.002 C 
ENDROOT
BRANCH   1   2
ATOM      2  C   UNL A   1      35.363  21.467  25.059  1.00  0.00     0.002 C 
BRANCH   2   3
ATOM      3  C   UNL A   1      36.488  22.164  24.291  1.00  0.00     0.021 C 
BRANCH   3   4
ATOM      4  C   UNL A   1      37.528  22.892  25.151  1.00  0.00     0.116 C 
BRANCH   4   5
ATOM      5  N   UNL A   1      38.607  22.070  25.643  1.00  0.00    -0.352 N 
ATOM      6  O   UNL A   1      40.271  21.289  26.886  1.00  0.00    -0.269 OA
ATOM      7  C   UNL A   1      39.553  22.251  26.610  1.00  0.00     0.251 C 
ATOM      8  H   UNL A   1      38.675  21.200  25.188  1.00  0.00     0.163 HD
BRANCH   7   9
ATOM      9  C   UNL A   1      39.811  23.556  27.267  1.00  0.00     0.039 A 
ATOM     10  C   UNL A   1      38.912  24.622  27.330  1.00  0.00     0.014 A 
ATOM     11  C   UNL A   1      41.084  23.706  27.840  1.00  0.00     0.014 A 
ATOM     12  C   UNL A   1      39.316  25.853  27.825  1.00  0.00     0.010 A 
ATOM     13  C   UNL A   1      41.475  24.917  28.391  1.00  0.00     0.010 A 
ATOM     14  C   UNL A   1      40.603  26.001  28.339  1.00  0.00    -0.014 A 
BRANCH  14  15
ATOM     15  C   UNL A   1      40.931  27.272  28.974  1.00  0.00     0.031 A 
ATOM     16  C   UNL A   1      42.083  27.996  28.360  1.00  0.00     0.074 A 
ATOM     17  C   UNL A   1      40.174  27.837  29.932  1.00  0.00     0.049 A 
ATOM     18  N   UNL A   1      43.174  28.400  28.926  1.00  0.00    -0.248 NA
ATOM     19  C   UNL A   1      42.048  28.215  26.903  1.00  0.00     0.031 C 
ATOM     20  C   UNL A   1      38.865  27.401  30.425  1.00  0.00     0.029 A 
ATOM     21  N   UNL A   1      40.371  29.017  30.582  1.00  0.00    -0.354 N 
ATOM     22  C   UNL A   1      43.901  29.063  27.936  1.00  0.00     0.074 A 
ATOM     23  C   UNL A   1      43.216  28.820  26.692  1.00  0.00     0.031 C 
ATOM     24  C   UNL A   1      38.283  28.421  31.097  1.00  0.00     0.029 A 
ATOM     25  C   UNL A   1      39.234  29.515  31.200  1.00  0.00     0.049 A 
ATOM     26  H   UNL A   1      41.242  29.475  30.610  1.00  0.00     0.167 HD
ATOM     27  C   UNL A   1      44.910  29.927  28.230  1.00  0.00     0.031 A 
ATOM     28  C   UNL A   1      39.064  30.766  31.693  1.00  0.00     0.031 A 
ATOM     29  C   UNL A   1      45.405  29.750  29.567  1.00  0.00     0.049 A 
ATOM     30  C   UNL A   1      40.404  31.364  31.885  1.00  0.00     0.074 A 
ATOM     31  C   UNL A   1      46.021  28.722  30.252  1.00  0.00     0.029 A 
ATOM     32  N   UNL A   1      44.977  30.636  30.524  1.00  0.00    -0.354 N 
ATOM     33  N   UNL A   1      41.257  30.950  32.775  1.00  0.00    -0.248 NA
ATOM     34  C   UNL A   1      40.966  32.154  30.800  1.00  0.00     0.031 C 
ATOM     35  C   UNL A   1      45.496  28.800  31.574  1.00  0.00     0.029 A 
ATOM     36  C   UNL A   1      44.635  29.898  31.625  1.00  0.00     0.049 A 
ATOM     37  H   UNL A   1      44.926  31.615  30.436  1.00  0.00     0.167 HD
ATOM     38  C   UNL A   1      42.492  31.047  32.152  1.00  0.00     0.074 A 
ATOM     39  C   UNL A   1      42.262  31.891  30.982  1.00  0.00     0.031 C 
ATOM     40  C   UNL A   1      43.518  30.210  32.487  1.00  0.00     0.031 A 
BRANCH  27  41
ATOM     41  C   UNL A   1      45.176  31.192  27.449  1.00  0.00    -0.014 A 
ATOM     42  C   UNL A   1      46.484  31.443  26.993  1.00  0.00     0.009 A 
ATOM     43  C   UNL A   1      44.275  32.272  27.409  1.00  0.00     0.009 A 
ATOM     44  C   UNL A   1      46.888  32.727  26.609  1.00  0.00     0.001 A 
ATOM     45  C   UNL A   1      44.664  33.545  26.985  1.00  0.00     0.001 A 
ATOM     46  C   UNL A   1      45.980  33.780  26.616  1.00  0.00     0.000 A 
ENDBRANCH  27  41
BRANCH  28  47
ATOM     47  C   UNL A   1      37.829  31.577  31.722  1.00  0.00    -0.014 A 
ATOM     48  C   UNL A   1      36.828  31.332  32.674  1.00  0.00     0.009 A 
ATOM     49  C   UNL A   1      37.753  32.773  30.983  1.00  0.00     0.009 A 
ATOM     50  C   UNL A   1      35.806  32.266  32.898  1.00  0.00     0.001 A 
ATOM     51  C   UNL A   1      36.733  33.702  31.204  1.00  0.00     0.001 A 
ATOM     52  C   UNL A   1      35.766  33.454  32.173  1.00  0.00     0.000 A 
ENDBRANCH  28  47
BRANCH  40  53
ATOM     53  C   UNL A   1      43.350  29.328  33.699  1.00  0.00    -0.014 A 
ATOM     54  C   UNL A   1      42.702  28.081  33.649  1.00  0.00     0.009 A 
ATOM     55  C   UNL A   1      44.020  29.685  34.877  1.00  0.00     0.009 A 
ATOM     56  C   UNL A   1      42.708  27.228  34.757  1.00  0.00     0.001 A 
ATOM     57  C   UNL A   1      44.043  28.825  35.976  1.00  0.00     0.001 A 
ATOM     58  C   UNL A   1      43.385  27.598  35.917  1.00  0.00     0.000 A 
ENDBRANCH  40  53
ENDBRANCH  14  15
ENDBRANCH   7   9
ENDBRANCH   4   5
ENDBRANCH   3   4
ENDBRANCH   2   3
ENDBRANCH   1   2
BRANCH   1  59
ATOM     59  C   UNL A   1      33.817  22.519  23.292  1.00  0.00     0.021 C 
BRANCH  59  60
ATOM     60  C   UNL A   1      32.378  22.806  22.842  1.00  0.00     0.116 C 
BRANCH  60  61
ATOM     61  N   UNL A   1      32.273  23.884  21.886  1.00  0.00    -0.354 N 
ATOM     62  C   UNL A   1      32.087  25.222  22.056  1.00  0.00     0.242 C 
ATOM     63  H   UNL A   1      32.351  23.602  20.945  1.00  0.00     0.163 HD
ATOM     64  O   UNL A   1      32.542  25.938  21.152  1.00  0.00    -0.273 OA
BRANCH  62  65
ATOM     65  C   UNL A   1      31.587  25.891  23.374  1.00  0.00     0.175 C 
ATOM     66  C   UNL A   1      32.619  26.900  23.918  1.00  0.00     0.044 C 
ATOM     67  N   UNL A   1      30.343  26.561  23.800  1.00  0.00    -0.330 N 
ATOM     68  C   UNL A   1      31.986  27.481  25.222  1.00  0.00    -0.006 C 
ATOM     69  C   UNL A   1      30.557  26.876  25.215  1.00  0.00     0.127 C 
ATOM     70  C   UNL A   1      31.871  29.024  25.204  1.00  0.00     0.030 C 
ATOM     71  C   UNL A   1      32.834  27.067  26.440  1.00  0.00     0.030 C 
ATOM     72  C   UNL A   1      33.210  29.734  25.302  1.00  0.00     0.120 C 
ATOM     73  C   UNL A   1      34.175  27.823  26.471  1.00  0.00     0.120 C 
ATOM     74  N   UNL A   1      33.953  29.271  26.459  1.00  0.00    -0.342 N 
ATOM     75  C   UNL A   1      34.494  30.020  27.510  1.00  0.00     0.225 C 
ATOM     76  O   UNL A   1      35.219  29.490  28.339  1.00  0.00    -0.275 OA
BRANCH  67  77
ATOM     77  C   UNL A   1      29.684  27.554  23.054  1.00  0.00     0.225 C 
ATOM     78  O   UNL A   1      30.190  28.155  22.106  1.00  0.00    -0.275 OA
BRANCH  77  79
ATOM     79  C   UNL A   1      28.360  28.004  23.577  1.00  0.00     0.124 C 
BRANCH  79  80
ATOM     80  C   UNL A   1      27.406  28.729  22.652  1.00  0.00     0.154 C 
BRANCH  80  81
ATOM     81  N   UNL A   1      27.678  30.140  22.484  1.00  0.00    -0.272 N 
ATOM     82  C   UNL A   1      28.056  30.763  21.332  1.00  0.00     0.108 A 
ATOM     83  N   UNL A   1      27.629  30.968  23.544  1.00  0.00    -0.182 NA
ATOM     84  C   UNL A   1      28.188  32.096  21.646  1.00  0.00     0.042 A 
ATOM     85  C   UNL A   1      27.903  32.168  23.022  1.00  0.00     0.135 A 
ENDBRANCH  80  81
ENDBRANCH  79  80
ENDBRANCH  77  79
ENDBRANCH  67  77
BRANCH  75  86
ATOM     86  C   UNL A   1      34.199  31.467  27.764  1.00  0.00     0.079 C 
ATOM     87  C   UNL A   1      34.344  32.324  28.986  1.00  0.00     0.014 C 
ATOM     88  C   UNL A   1      35.306  32.490  27.841  1.00  0.00     0.014 C 
ENDBRANCH  75  86
ENDBRANCH  62  65
ENDBRANCH  60  61
ENDBRANCH  59  60
ENDBRANCH   1  59
TORSDOF 18
ENDMDL
MODEL 3
REMARK VINA RESULT:     -10.9      1.467      2.006
REMARK SMILES O=C(NCCCCCCNC(=O)[C@H]1CC2(CCN(C(=O)C3CC3)CC2)CN1C(=O)CCn1cccn1)c1ccc(-c2c3nc(c(-c4ccccc4)c4ccc([nH]4)c(-c4ccccc4)c4nc(c(-c5ccccc5)c5ccc2[nH]5)C=C4)C=C3)cc1
REMARK SMILES IDX 7 1 6 2 5 3 4 4 3 5 1 6 2 7 37 9 38 10 84 11 39 12 83 13
REMARK SMILES IDX 40 14 41 15 42 16 77 17 43 18 82 19 76 20 78 21 44 22 81 23
REMARK SMILES IDX 75 24 74 25 45 27 67 28 52 29 66 30 53 31 56 32 65 33 79 34
REMARK SMILES IDX 54 35 55 36 64 38 80 39 57 40 46 41 47 42 51 43 48 44 50 45
REMARK SMILES IDX 49 46 68 47 69 48 73 49 70 50 72 51 71 52 58 53 59 54 63 55
REMARK SMILES IDX 60 56 62 57 61 58 8 59 9 60 10 61 11 62 12 64 13 65 14 66
REMARK SMILES IDX 27 67 15 68 26 69 16 70 25 71 17 72 24 73 18 74 19 75 20 76
REMARK SMILES IDX 28 77 29 78 30 79 31 80 32 81 33 82 36 83 34 84 35 85 21 86
REMARK SMILES IDX 22 87 23 88
REMARK H PARENT 3 8 78 26 56 37 10 63
REMARK Flexibility Score: inf
ROOT
ATOM      1  C   UNL A   1      40.279  23.140  26.694  1.00  0.00     0.002 C 
ENDROOT
BRANCH   1   2
ATOM      2  C   UNL A   1      40.537  22.044  27.715  1.00  0.00     0.002 C 
BRANCH   2   3
ATOM      3  C   UNL A   1      41.605  21.027  27.309  1.00  0.00     0.021 C 
BRANCH   3   4
ATOM      4  C   UNL A   1      41.978  21.013  25.821  1.00  0.00     0.116 C 
BRANCH   4   5
ATOM      5  N   UNL A   1      43.391  21.084  25.538  1.00  0.00    -0.352 N 
ATOM      6  O   UNL A   1      45.539  21.635  25.627  1.00  0.00    -0.269 OA
ATOM      7  C   UNL A   1      44.386  21.920  25.954  1.00  0.00     0.251 C 
ATOM      8  H   UNL A   1      43.702  20.385  24.918  1.00  0.00     0.163 HD
BRANCH   7   9
ATOM      9  C   UNL A   1      44.137  23.182  26.693  1.00  0.00     0.039 A 
ATOM     10  C   UNL A   1      44.388  23.388  28.051  1.00  0.00     0.014 A 
ATOM     11  C   UNL A   1      43.578  24.227  25.940  1.00  0.00     0.014 A 
ATOM     12  C   UNL A   1      43.966  24.552  28.674  1.00  0.00     0.010 A 
ATOM     13  C   UNL A   1      43.207  25.418  26.545  1.00  0.00     0.010 A 
ATOM     14  C   UNL A   1      43.361  25.558  27.922  1.00  0.00    -0.014 A 
BRANCH  14  15
ATOM     15  C   UNL A   1      43.063  26.816  28.596  1.00  0.00     0.031 A 
ATOM     16  C   UNL A   1      44.183  27.804  28.593  1.00  0.00     0.074 A 
ATOM     17  C   UNL A   1      41.839  27.140  29.050  1.00  0.00     0.049 A 
ATOM     18  N   UNL A   1      44.754  28.377  29.603  1.00  0.00    -0.248 NA
ATOM     19  C   UNL A   1      44.803  28.123  27.295  1.00  0.00     0.031 C 
ATOM     20  C   UNL A   1      40.582  26.410  28.861  1.00  0.00     0.029 A 
ATOM     21  N   UNL A   1      41.442  28.282  29.676  1.00  0.00    -0.354 N 
ATOM     22  C   UNL A   1      45.703  29.247  29.068  1.00  0.00     0.074 A 
ATOM     23  C   UNL A   1      45.768  28.967  27.657  1.00  0.00     0.031 C 
ATOM     24  C   UNL A   1      39.547  27.236  29.134  1.00  0.00     0.029 A 
ATOM     25  C   UNL A   1      40.071  28.489  29.650  1.00  0.00     0.049 A 
ATOM     26  H   UNL A   1      42.071  28.904  30.107  1.00  0.00     0.167 HD
ATOM     27  C   UNL A   1      46.236  30.274  29.786  1.00  0.00     0.031 A 
ATOM     28  C   UNL A   1      39.422  29.638  29.959  1.00  0.00     0.031 A 
ATOM     29  C   UNL A   1      46.055  30.098  31.201  1.00  0.00     0.049 A 
ATOM     30  C   UNL A   1      40.342  30.479  30.756  1.00  0.00     0.074 A 
ATOM     31  C   UNL A   1      46.473  29.168  32.130  1.00  0.00     0.029 A 
ATOM     32  N   UNL A   1      45.042  30.802  31.802  1.00  0.00    -0.354 N 
ATOM     33  N   UNL A   1      40.731  30.180  31.961  1.00  0.00    -0.248 NA
ATOM     34  C   UNL A   1      41.169  31.448  30.055  1.00  0.00     0.031 C 
ATOM     35  C   UNL A   1      45.376  29.035  33.030  1.00  0.00     0.029 A 
ATOM     36  C   UNL A   1      44.382  29.928  32.623  1.00  0.00     0.049 A 
ATOM     37  H   UNL A   1      44.831  31.754  31.669  1.00  0.00     0.167 HD
ATOM     38  C   UNL A   1      42.059  30.573  32.011  1.00  0.00     0.074 A 
ATOM     39  C   UNL A   1      42.242  31.441  30.849  1.00  0.00     0.031 C 
ATOM     40  C   UNL A   1      42.952  29.939  32.827  1.00  0.00     0.031 A 
BRANCH  27  41
ATOM     41  C   UNL A   1      46.565  31.622  29.192  1.00  0.00    -0.014 A 
ATOM     42  C   UNL A   1      47.916  31.987  29.049  1.00  0.00     0.009 A 
ATOM     43  C   UNL A   1      45.615  32.651  29.054  1.00  0.00     0.009 A 
ATOM     44  C   UNL A   1      48.296  33.323  28.871  1.00  0.00     0.001 A 
ATOM     45  C   UNL A   1      45.989  33.980  28.834  1.00  0.00     0.001 A 
ATOM     46  C   UNL A   1      47.332  34.320  28.776  1.00  0.00     0.000 A 
ENDBRANCH  27  41
BRANCH  28  47
ATOM     47  C   UNL A   1      38.182  30.177  29.361  1.00  0.00    -0.014 A 
ATOM     48  C   UNL A   1      37.859  29.923  28.020  1.00  0.00     0.009 A 
ATOM     49  C   UNL A   1      37.178  30.716  30.188  1.00  0.00     0.009 A 
ATOM     50  C   UNL A   1      36.567  30.172  27.532  1.00  0.00     0.001 A 
ATOM     51  C   UNL A   1      35.892  30.966  29.701  1.00  0.00     0.001 A 
ATOM     52  C   UNL A   1      35.583  30.681  28.376  1.00  0.00     0.000 A 
ENDBRANCH  28  47
BRANCH  40  53
ATOM     53  C   UNL A   1      42.419  28.951  33.833  1.00  0.00    -0.014 A 
ATOM     54  C   UNL A   1      42.252  27.585  33.544  1.00  0.00     0.009 A 
ATOM     55  C   UNL A   1      42.250  29.378  35.157  1.00  0.00     0.009 A 
ATOM     56  C   UNL A   1      41.907  26.678  34.552  1.00  0.00     0.001 A 
ATOM     57  C   UNL A   1      41.925  28.471  36.167  1.00  0.00     0.001 A 
ATOM     58  C   UNL A   1      41.750  27.122  35.863  1.00  0.00     0.000 A 
ENDBRANCH  40  53
ENDBRANCH  14  15
ENDBRANCH   7   9
ENDBRANCH   4   5
ENDBRANCH   3   4
ENDBRANCH   2   3
ENDBRANCH   1   2
BRANCH   1  59
ATOM     59  C   UNL A   1      38.807  23.420  26.398  1.00  0.00     0.021 C 
BRANCH  59  60
ATOM     60  C   UNL A   1      37.948  22.248  25.904  1.00  0.00     0.116 C 
BRANCH  60  61
ATOM     61  N   UNL A   1      37.620  22.321  24.498  1.00  0.00    -0.354 N 
ATOM     62  C   UNL A   1      36.546  22.852  23.852  1.00  0.00     0.242 C 
ATOM     63  H   UNL A   1      38.292  21.916  23.904  1.00  0.00     0.163 HD
ATOM     64  O   UNL A   1      36.763  23.228  22.690  1.00  0.00    -0.273 OA
BRANCH  62  65
ATOM     65  C   UNL A   1      35.194  23.230  24.533  1.00  0.00     0.175 C 
ATOM     66  C   UNL A   1      34.696  24.612  24.061  1.00  0.00     0.044 C 
ATOM     67  N   UNL A   1      33.896  22.556  24.725  1.00  0.00    -0.330 N 
ATOM     68  C   UNL A   1      33.351  24.850  24.818  1.00  0.00    -0.006 C 
ATOM     69  C   UNL A   1      33.107  23.492  25.529  1.00  0.00     0.127 C 
ATOM     70  C   UNL A   1      32.162  25.131  23.867  1.00  0.00     0.030 C 
ATOM     71  C   UNL A   1      33.500  26.043  25.781  1.00  0.00     0.030 C 
ATOM     72  C   UNL A   1      32.243  26.483  23.178  1.00  0.00     0.120 C 
ATOM     73  C   UNL A   1      33.579  27.375  25.014  1.00  0.00     0.120 C 
ATOM     74  N   UNL A   1      32.406  27.546  24.153  1.00  0.00    -0.342 N 
ATOM     75  C   UNL A   1      31.625  28.692  24.337  1.00  0.00     0.225 C 
ATOM     76  O   UNL A   1      31.982  29.566  25.113  1.00  0.00    -0.275 OA
BRANCH  67  77
ATOM     77  C   UNL A   1      33.189  21.893  23.706  1.00  0.00     0.225 C 
ATOM     78  O   UNL A   1      33.133  22.284  22.540  1.00  0.00    -0.275 OA
BRANCH  77  79
ATOM     79  C   UNL A   1      32.328  20.751  24.133  1.00  0.00     0.124 C 
BRANCH  79  80
ATOM     80  C   UNL A   1      32.758  19.898  25.306  1.00  0.00     0.154 C 
BRANCH  80  81
ATOM     81  N   UNL A   1      32.905  18.489  25.011  1.00  0.00    -0.272 N 
ATOM     82  C   UNL A   1      33.459  17.948  23.888  1.00  0.00     0.108 A 
ATOM     83  N   UNL A   1      32.415  17.566  25.858  1.00  0.00    -0.182 NA
ATOM     84  C   UNL A   1      33.393  16.584  24.050  1.00  0.00     0.042 A 
ATOM     85  C   UNL A   1      32.748  16.403  25.288  1.00  0.00     0.135 A 
ENDBRANCH  80  81
ENDBRANCH  79  80
ENDBRANCH  77  79
ENDBRANCH  67  77
BRANCH  75  86
ATOM     86  C   UNL A   1      30.293  28.928  23.692  1.00  0.00     0.079 C 
ATOM     87  C   UNL A   1      29.503  30.178  23.444  1.00  0.00     0.014 C 
ATOM     88  C   UNL A   1      30.190  29.490  22.295  1.00  0.00     0.014 C 
ENDBRANCH  75  86
ENDBRANCH  62  65
ENDBRANCH  60  61
ENDBRANCH  59  60
ENDBRANCH   1  59
TORSDOF 18
ENDMDL
