MODEL 1
REMARK VINA RESULT:     -12.4      0.000      0.000
REMARK SMILES Cc1ccc(C(=O)NCCCCCCNC(=O)c2ccc(-c3c4nc(c(-c5ccccc5)c5ccc([nH]5)c(-c5ccccc5)c5nc(c(-c6ccccc6)c6ccc3[nH]6)C=C5)C=C4)cc2)c2c1N[C@H](c1ccccc1F)[C@H]1CC=C[C@@H]21
REMARK SMILES IDX 12 1 11 2 10 3 9 4 8 5 6 6 7 7 5 9 1 10 2 11 3 12 67 13 4 14
REMARK SMILES IDX 66 15 68 16 81 17 69 18 77 20 80 21 78 22 79 23 70 24 71 25
REMARK SMILES IDX 75 26 72 27 74 28 76 29 73 30 13 31 14 32 15 33 16 34 17 36
REMARK SMILES IDX 18 37 19 38 65 39 20 40 64 41 21 42 22 43 23 44 58 45 24 46
REMARK SMILES IDX 63 47 57 48 59 49 25 50 62 51 56 52 55 53 26 55 48 56 33 57
REMARK SMILES IDX 47 58 34 59 37 60 46 61 60 62 35 63 36 64 45 66 61 67 38 68
REMARK SMILES IDX 27 69 28 70 32 71 29 72 31 73 30 74 49 75 50 76 54 77 51 78
REMARK SMILES IDX 53 79 52 80 39 81 40 82 44 83 41 84 43 85 42 86
REMARK H PARENT 8 8 68 19 15 35 59 54 37 65
REMARK Flexibility Score: inf
ROOT
ATOM      1  C   UNL A   1      36.606  20.417  24.962  1.00  0.00     0.002 C 
ENDROOT
BRANCH   1   2
ATOM      2  C   UNL A   1      36.835  21.874  24.539  1.00  0.00     0.002 C 
BRANCH   2   3
ATOM      3  C   UNL A   1      36.860  22.889  25.696  1.00  0.00     0.021 C 
BRANCH   3   4
ATOM      4  C   UNL A   1      35.813  24.000  25.550  1.00  0.00     0.116 C 
BRANCH   4   5
ATOM      5  N   UNL A   1      35.380  24.059  24.171  1.00  0.00    -0.352 N 
ATOM      6  C   UNL A   1      34.160  23.964  23.551  1.00  0.00     0.251 C 
ATOM      7  O   UNL A   1      34.227  23.655  22.362  1.00  0.00    -0.269 OA
ATOM      8  H   UNL A   1      36.122  24.197  23.540  1.00  0.00     0.163 HD
BRANCH   6   9
ATOM      9  C   UNL A   1      32.837  24.254  24.214  1.00  0.00     0.045 A 
ATOM     10  C   UNL A   1      29.198  25.069  26.426  1.00  0.00     0.046 C 
ATOM     11  C   UNL A   1      30.396  24.810  25.547  1.00  0.00    -0.028 A 
ATOM     12  C   UNL A   1      31.011  23.559  25.658  1.00  0.00     0.006 A 
ATOM     13  C   UNL A   1      30.955  25.784  24.693  1.00  0.00     0.042 A 
ATOM     14  C   UNL A   1      32.183  23.273  24.962  1.00  0.00     0.014 A 
ATOM     15  C   UNL A   1      32.196  25.522  24.054  1.00  0.00    -0.005 A 
ATOM     16  N   UNL A   1      30.299  26.990  24.505  1.00  0.00    -0.377 N 
ATOM     17  C   UNL A   1      32.774  26.581  23.138  1.00  0.00     0.050 C 
ATOM     18  C   UNL A   1      30.945  28.159  23.928  1.00  0.00     0.117 C 
ATOM     19  H   UNL A   1      29.355  27.059  24.774  1.00  0.00     0.161 HD
ATOM     20  C   UNL A   1      31.835  27.737  22.752  1.00  0.00     0.031 C 
ATOM     21  C   UNL A   1      33.974  27.325  23.663  1.00  0.00    -0.023 C 
ATOM     22  C   UNL A   1      32.805  28.864  22.348  1.00  0.00     0.034 C 
ATOM     23  C   UNL A   1      34.001  28.582  23.203  1.00  0.00    -0.030 C 
BRANCH  18  24
ATOM     24  C   UNL A   1      29.872  29.207  23.634  1.00  0.00     0.010 A 
ATOM     25  C   UNL A   1      28.802  28.847  22.789  1.00  0.00     0.009 A 
ATOM     26  C   UNL A   1      29.870  30.511  24.146  1.00  0.00     0.128 A 
ATOM     27  C   UNL A   1      27.779  29.752  22.486  1.00  0.00     0.001 A 
ATOM     28  C   UNL A   1      28.850  31.415  23.851  1.00  0.00     0.039 A 
ATOM     29  F   UNL A   1      30.841  30.946  24.960  1.00  0.00    -0.207 F 
ATOM     30  C   UNL A   1      27.801  31.037  23.020  1.00  0.00     0.003 A 
ENDBRANCH  18  24
ENDBRANCH   6   9
ENDBRANCH   4   5
ENDBRANCH   3   4
ENDBRANCH   2   3
ENDBRANCH   1   2
BRANCH   1  31
ATOM     31  C   UNL A   1      37.866  19.549  24.958  1.00  0.00     0.021 C 
BRANCH  31  32
ATOM     32  C   UNL A   1      39.030  20.155  25.732  1.00  0.00     0.116 C 
BRANCH  32  33
ATOM     33  N   UNL A   1      40.162  19.245  25.780  1.00  0.00    -0.352 N 
ATOM     34  C   UNL A   1      41.478  19.545  26.039  1.00  0.00     0.251 C 
ATOM     35  H   UNL A   1      39.961  18.297  25.606  1.00  0.00     0.163 HD
ATOM     36  O   UNL A   1      42.368  18.738  25.824  1.00  0.00    -0.269 OA
BRANCH  34  37
ATOM     37  C   UNL A   1      41.797  20.880  26.579  1.00  0.00     0.039 A 
ATOM     38  C   UNL A   1      42.205  21.889  25.705  1.00  0.00     0.014 A 
ATOM     39  C   UNL A   1      41.670  21.124  27.951  1.00  0.00     0.014 A 
ATOM     40  C   UNL A   1      42.457  23.165  26.208  1.00  0.00     0.010 A 
ATOM     41  C   UNL A   1      41.873  22.408  28.442  1.00  0.00     0.010 A 
ATOM     42  C   UNL A   1      42.283  23.434  27.576  1.00  0.00    -0.014 A 
BRANCH  42  43
ATOM     43  C   UNL A   1      42.586  24.773  28.126  1.00  0.00     0.031 A 
ATOM     44  C   UNL A   1      44.003  25.122  28.478  1.00  0.00     0.074 A 
ATOM     45  C   UNL A   1      41.595  25.663  28.322  1.00  0.00     0.049 A 
ATOM     46  N   UNL A   1      44.477  26.238  28.968  1.00  0.00    -0.248 NA
ATOM     47  C   UNL A   1      45.021  24.078  28.262  1.00  0.00     0.031 C 
ATOM     48  C   UNL A   1      40.178  25.431  28.034  1.00  0.00     0.029 A 
ATOM     49  N   UNL A   1      41.634  26.947  28.804  1.00  0.00    -0.354 N 
ATOM     50  C   UNL A   1      45.841  26.031  29.116  1.00  0.00     0.074 A 
ATOM     51  C   UNL A   1      46.116  24.670  28.712  1.00  0.00     0.031 C 
ATOM     52  C   UNL A   1      39.488  26.550  28.313  1.00  0.00     0.029 A 
ATOM     53  C   UNL A   1      40.407  27.565  28.821  1.00  0.00     0.049 A 
ATOM     54  H   UNL A   1      42.461  27.383  29.110  1.00  0.00     0.167 HD
ATOM     55  C   UNL A   1      46.786  26.907  29.526  1.00  0.00     0.031 A 
ATOM     56  C   UNL A   1      40.067  28.813  29.192  1.00  0.00     0.031 A 
ATOM     57  C   UNL A   1      46.519  28.264  29.907  1.00  0.00     0.049 A 
ATOM     58  C   UNL A   1      41.131  29.758  29.675  1.00  0.00     0.074 A 
ATOM     59  C   UNL A   1      47.420  29.238  30.297  1.00  0.00     0.029 A 
ATOM     60  N   UNL A   1      45.259  28.838  29.940  1.00  0.00    -0.354 N 
ATOM     61  N   UNL A   1      42.422  29.558  29.775  1.00  0.00    -0.248 NA
ATOM     62  C   UNL A   1      40.693  31.098  30.091  1.00  0.00     0.031 C 
ATOM     63  C   UNL A   1      46.700  30.397  30.599  1.00  0.00     0.029 A 
ATOM     64  C   UNL A   1      45.356  30.151  30.362  1.00  0.00     0.049 A 
ATOM     65  H   UNL A   1      44.422  28.380  29.701  1.00  0.00     0.167 HD
ATOM     66  C   UNL A   1      42.953  30.750  30.247  1.00  0.00     0.074 A 
ATOM     67  C   UNL A   1      41.848  31.671  30.410  1.00  0.00     0.031 C 
ATOM     68  C   UNL A   1      44.246  31.051  30.517  1.00  0.00     0.031 A 
BRANCH  55  69
ATOM     69  C   UNL A   1      48.206  26.431  29.559  1.00  0.00    -0.014 A 
ATOM     70  C   UNL A   1      49.052  26.628  28.457  1.00  0.00     0.009 A 
ATOM     71  C   UNL A   1      48.725  25.848  30.725  1.00  0.00     0.009 A 
ATOM     72  C   UNL A   1      50.390  26.237  28.517  1.00  0.00     0.001 A 
ATOM     73  C   UNL A   1      50.068  25.475  30.788  1.00  0.00     0.001 A 
ATOM     74  C   UNL A   1      50.898  25.667  29.684  1.00  0.00     0.000 A 
ENDBRANCH  55  69
BRANCH  56  75
ATOM     75  C   UNL A   1      38.653  29.249  29.082  1.00  0.00    -0.014 A 
ATOM     76  C   UNL A   1      38.171  29.779  27.875  1.00  0.00     0.009 A 
ATOM     77  C   UNL A   1      37.770  29.106  30.163  1.00  0.00     0.009 A 
ATOM     78  C   UNL A   1      36.834  30.163  27.755  1.00  0.00     0.001 A 
ATOM     79  C   UNL A   1      36.429  29.476  30.035  1.00  0.00     0.001 A 
ATOM     80  C   UNL A   1      35.964  30.007  28.833  1.00  0.00     0.000 A 
ENDBRANCH  56  75
BRANCH  68  81
ATOM     81  C   UNL A   1      44.558  32.433  31.009  1.00  0.00    -0.014 A 
ATOM     82  C   UNL A   1      44.909  33.448  30.109  1.00  0.00     0.009 A 
ATOM     83  C   UNL A   1      44.364  32.750  32.363  1.00  0.00     0.009 A 
ATOM     84  C   UNL A   1      45.060  34.761  30.557  1.00  0.00     0.001 A 
ATOM     85  C   UNL A   1      44.499  34.066  32.803  1.00  0.00     0.001 A 
ATOM     86  C   UNL A   1      44.845  35.071  31.900  1.00  0.00     0.000 A 
ENDBRANCH  68  81
ENDBRANCH  42  43
ENDBRANCH  34  37
ENDBRANCH  32  33
ENDBRANCH  31  32
ENDBRANCH   1  31
TORSDOF 14
ENDMDL
MODEL 2
REMARK VINA RESULT:     -12.4      3.853      9.299
REMARK SMILES Cc1ccc(C(=O)NCCCCCCNC(=O)c2ccc(-c3c4nc(c(-c5ccccc5)c5ccc([nH]5)c(-c5ccccc5)c5nc(c(-c6ccccc6)c6ccc3[nH]6)C=C5)C=C4)cc2)c2c1N[C@H](c1ccccc1F)[C@H]1CC=C[C@@H]21
REMARK SMILES IDX 12 1 11 2 10 3 9 4 8 5 6 6 7 7 5 9 1 10 2 11 3 12 67 13 4 14
REMARK SMILES IDX 66 15 68 16 81 17 69 18 77 20 80 21 78 22 79 23 70 24 71 25
REMARK SMILES IDX 75 26 72 27 74 28 76 29 73 30 13 31 14 32 15 33 16 34 17 36
REMARK SMILES IDX 18 37 19 38 65 39 20 40 64 41 21 42 22 43 23 44 58 45 24 46
REMARK SMILES IDX 63 47 57 48 59 49 25 50 62 51 56 52 55 53 26 55 48 56 33 57
REMARK SMILES IDX 47 58 34 59 37 60 46 61 60 62 35 63 36 64 45 66 61 67 38 68
REMARK SMILES IDX 27 69 28 70 32 71 29 72 31 73 30 74 49 75 50 76 54 77 51 78
REMARK SMILES IDX 53 79 52 80 39 81 40 82 44 83 41 84 43 85 42 86
REMARK H PARENT 8 8 68 19 15 35 59 54 37 65
REMARK Flexibility Score: inf
ROOT
ATOM      1  C   UNL A   1      31.382  30.798  26.091  1.00  0.00     0.002 C 
ENDROOT
BRANCH   1   2
ATOM      2  C   UNL A   1      32.620  30.028  26.570  1.00  0.00     0.002 C 
BRANCH   2   3
ATOM      3  C   UNL A   1      33.258  29.106  25.517  1.00  0.00     0.021 C 
BRANCH   3   4
ATOM      4  C   UNL A   1      33.805  27.800  26.106  1.00  0.00     0.116 C 
BRANCH   4   5
ATOM      5  N   UNL A   1      32.699  27.005  26.594  1.00  0.00    -0.352 N 
ATOM      6  C   UNL A   1      31.812  26.143  26.002  1.00  0.00     0.251 C 
ATOM      7  O   UNL A   1      30.775  25.976  26.643  1.00  0.00    -0.269 OA
ATOM      8  H   UNL A   1      32.549  27.106  27.561  1.00  0.00     0.163 HD
BRANCH   6   9
ATOM      9  C   UNL A   1      32.066  25.405  24.712  1.00  0.00     0.045 A 
ATOM     10  C   UNL A   1      33.060  23.501  20.946  1.00  0.00     0.046 C 
ATOM     11  C   UNL A   1      32.628  24.067  22.275  1.00  0.00    -0.028 A 
ATOM     12  C   UNL A   1      32.144  25.379  22.283  1.00  0.00     0.006 A 
ATOM     13  C   UNL A   1      32.760  23.368  23.494  1.00  0.00     0.042 A 
ATOM     14  C   UNL A   1      31.822  26.015  23.480  1.00  0.00     0.014 A 
ATOM     15  C   UNL A   1      32.516  24.047  24.717  1.00  0.00    -0.005 A 
ATOM     16  N   UNL A   1      33.148  22.037  23.484  1.00  0.00    -0.377 N 
ATOM     17  C   UNL A   1      32.660  23.275  26.012  1.00  0.00     0.050 C 
ATOM     18  C   UNL A   1      33.629  21.346  24.670  1.00  0.00     0.117 C 
ATOM     19  H   UNL A   1      33.095  21.539  22.637  1.00  0.00     0.161 HD
ATOM     20  C   UNL A   1      32.784  21.746  25.887  1.00  0.00     0.031 C 
ATOM     21  C   UNL A   1      33.866  23.612  26.851  1.00  0.00    -0.023 C 
ATOM     22  C   UNL A   1      33.467  21.336  27.206  1.00  0.00     0.034 C 
ATOM     23  C   UNL A   1      34.294  22.540  27.530  1.00  0.00    -0.030 C 
BRANCH  18  24
ATOM     24  C   UNL A   1      33.714  19.853  24.357  1.00  0.00     0.010 A 
ATOM     25  C   UNL A   1      32.584  19.224  23.795  1.00  0.00     0.009 A 
ATOM     26  C   UNL A   1      34.841  19.053  24.587  1.00  0.00     0.128 A 
ATOM     27  C   UNL A   1      32.595  17.863  23.472  1.00  0.00     0.001 A 
ATOM     28  C   UNL A   1      34.859  17.697  24.263  1.00  0.00     0.039 A 
ATOM     29  F   UNL A   1      35.963  19.559  25.114  1.00  0.00    -0.207 F 
ATOM     30  C   UNL A   1      33.735  17.099  23.703  1.00  0.00     0.003 A 
ENDBRANCH  18  24
ENDBRANCH   6   9
ENDBRANCH   4   5
ENDBRANCH   3   4
ENDBRANCH   2   3
ENDBRANCH   1   2
BRANCH   1  31
ATOM     31  C   UNL A   1      31.308  32.247  26.574  1.00  0.00     0.021 C 
BRANCH  31  32
ATOM     32  C   UNL A   1      32.625  32.776  27.128  1.00  0.00     0.116 C 
BRANCH  32  33
ATOM     33  N   UNL A   1      32.450  34.078  27.751  1.00  0.00    -0.352 N 
ATOM     34  C   UNL A   1      33.172  34.626  28.783  1.00  0.00     0.251 C 
ATOM     35  H   UNL A   1      31.725  34.636  27.387  1.00  0.00     0.163 HD
ATOM     36  O   UNL A   1      32.786  35.624  29.370  1.00  0.00    -0.269 OA
BRANCH  34  37
ATOM     37  C   UNL A   1      34.433  33.971  29.179  1.00  0.00     0.039 A 
ATOM     38  C   UNL A   1      35.611  34.296  28.506  1.00  0.00     0.014 A 
ATOM     39  C   UNL A   1      34.437  33.048  30.233  1.00  0.00     0.014 A 
ATOM     40  C   UNL A   1      36.812  33.717  28.914  1.00  0.00     0.010 A 
ATOM     41  C   UNL A   1      35.642  32.511  30.669  1.00  0.00     0.010 A 
ATOM     42  C   UNL A   1      36.836  32.830  30.003  1.00  0.00    -0.014 A 
BRANCH  42  43
ATOM     43  C   UNL A   1      38.097  32.178  30.419  1.00  0.00     0.031 A 
ATOM     44  C   UNL A   1      38.925  32.800  31.504  1.00  0.00     0.074 A 
ATOM     45  C   UNL A   1      38.502  31.045  29.815  1.00  0.00     0.049 A 
ATOM     46  N   UNL A   1      40.057  32.387  32.013  1.00  0.00    -0.248 NA
ATOM     47  C   UNL A   1      38.425  34.057  32.089  1.00  0.00     0.031 C 
ATOM     48  C   UNL A   1      37.789  30.357  28.736  1.00  0.00     0.029 A 
ATOM     49  N   UNL A   1      39.611  30.268  30.032  1.00  0.00    -0.354 N 
ATOM     50  C   UNL A   1      40.400  33.328  32.974  1.00  0.00     0.074 A 
ATOM     51  C   UNL A   1      39.388  34.359  32.947  1.00  0.00     0.031 C 
ATOM     52  C   UNL A   1      38.462  29.242  28.410  1.00  0.00     0.029 A 
ATOM     53  C   UNL A   1      39.663  29.149  29.237  1.00  0.00     0.049 A 
ATOM     54  H   UNL A   1      40.305  30.492  30.694  1.00  0.00     0.167 HD
ATOM     55  C   UNL A   1      41.452  33.318  33.824  1.00  0.00     0.031 A 
ATOM     56  C   UNL A   1      40.571  28.156  29.190  1.00  0.00     0.031 A 
ATOM     57  C   UNL A   1      42.447  32.286  33.867  1.00  0.00     0.049 A 
ATOM     58  C   UNL A   1      41.749  28.186  30.122  1.00  0.00     0.074 A 
ATOM     59  C   UNL A   1      43.527  32.171  34.724  1.00  0.00     0.029 A 
ATOM     60  N   UNL A   1      42.478  31.188  33.023  1.00  0.00    -0.354 N 
ATOM     61  N   UNL A   1      42.040  29.064  31.050  1.00  0.00    -0.248 NA
ATOM     62  C   UNL A   1      42.719  27.087  30.006  1.00  0.00     0.031 C 
ATOM     63  C   UNL A   1      44.234  31.018  34.375  1.00  0.00     0.029 A 
ATOM     64  C   UNL A   1      43.572  30.398  33.326  1.00  0.00     0.049 A 
ATOM     65  H   UNL A   1      41.823  31.000  32.313  1.00  0.00     0.167 HD
ATOM     66  C   UNL A   1      43.214  28.617  31.640  1.00  0.00     0.074 A 
ATOM     67  C   UNL A   1      43.581  27.387  30.970  1.00  0.00     0.031 C 
ATOM     68  C   UNL A   1      43.920  29.178  32.649  1.00  0.00     0.031 A 
BRANCH  55  69
ATOM     69  C   UNL A   1      41.568  34.451  34.797  1.00  0.00    -0.014 A 
ATOM     70  C   UNL A   1      42.272  35.616  34.458  1.00  0.00     0.009 A 
ATOM     71  C   UNL A   1      40.909  34.385  36.034  1.00  0.00     0.009 A 
ATOM     72  C   UNL A   1      42.326  36.691  35.345  1.00  0.00     0.001 A 
ATOM     73  C   UNL A   1      40.949  35.469  36.912  1.00  0.00     0.001 A 
ATOM     74  C   UNL A   1      41.660  36.620  36.568  1.00  0.00     0.000 A 
ENDBRANCH  55  69
BRANCH  56  75
ATOM     75  C   UNL A   1      40.373  27.028  28.246  1.00  0.00    -0.014 A 
ATOM     76  C   UNL A   1      40.913  27.089  26.953  1.00  0.00     0.009 A 
ATOM     77  C   UNL A   1      39.680  25.875  28.642  1.00  0.00     0.009 A 
ATOM     78  C   UNL A   1      40.757  26.018  26.070  1.00  0.00     0.001 A 
ATOM     79  C   UNL A   1      39.540  24.798  27.763  1.00  0.00     0.001 A 
ATOM     80  C   UNL A   1      40.075  24.872  26.478  1.00  0.00     0.000 A 
ENDBRANCH  56  75
BRANCH  68  81
ATOM     81  C   UNL A   1      45.161  28.478  33.114  1.00  0.00    -0.014 A 
ATOM     82  C   UNL A   1      46.415  28.822  32.589  1.00  0.00     0.009 A 
ATOM     83  C   UNL A   1      45.089  27.568  34.181  1.00  0.00     0.009 A 
ATOM     84  C   UNL A   1      47.577  28.268  33.126  1.00  0.00     0.001 A 
ATOM     85  C   UNL A   1      46.254  27.030  34.727  1.00  0.00     0.001 A 
ATOM     86  C   UNL A   1      47.497  27.381  34.200  1.00  0.00     0.000 A 
ENDBRANCH  68  81
ENDBRANCH  42  43
ENDBRANCH  34  37
ENDBRANCH  32  33
ENDBRANCH  31  32
ENDBRANCH   1  31
TORSDOF 14
ENDMDL
MODEL 3
REMARK VINA RESULT:     -12.3      4.199      9.352
REMARK SMILES Cc1ccc(C(=O)NCCCCCCNC(=O)c2ccc(-c3c4nc(c(-c5ccccc5)c5ccc([nH]5)c(-c5ccccc5)c5nc(c(-c6ccccc6)c6ccc3[nH]6)C=C5)C=C4)cc2)c2c1N[C@H](c1ccccc1F)[C@H]1CC=C[C@@H]21
REMARK SMILES IDX 12 1 11 2 10 3 9 4 8 5 6 6 7 7 5 9 1 10 2 11 3 12 67 13 4 14
REMARK SMILES IDX 66 15 68 16 81 17 69 18 77 20 80 21 78 22 79 23 70 24 71 25
REMARK SMILES IDX 75 26 72 27 74 28 76 29 73 30 13 31 14 32 15 33 16 34 17 36
REMARK SMILES IDX 18 37 19 38 65 39 20 40 64 41 21 42 22 43 23 44 58 45 24 46
REMARK SMILES IDX 63 47 57 48 59 49 25 50 62 51 56 52 55 53 26 55 48 56 33 57
REMARK SMILES IDX 47 58 34 59 37 60 46 61 60 62 35 63 36 64 45 66 61 67 38 68
REMARK SMILES IDX 27 69 28 70 32 71 29 72 31 73 30 74 49 75 50 76 54 77 51 78
REMARK SMILES IDX 53 79 52 80 39 81 40 82 44 83 41 84 43 85 42 86
REMARK H PARENT 8 8 68 19 15 35 59 54 37 65
REMARK Flexibility Score: inf
ROOT
ATOM      1  C   UNL A   1      31.569  30.672  26.041  1.00  0.00     0.002 C 
ENDROOT
BRANCH   1   2
ATOM      2  C   UNL A   1      32.679  29.860  26.719  1.00  0.00     0.002 C 
BRANCH   2   3
ATOM      3  C   UNL A   1      33.606  29.098  25.755  1.00  0.00     0.021 C 
BRANCH   3   4
ATOM      4  C   UNL A   1      33.992  27.703  26.261  1.00  0.00     0.116 C 
BRANCH   4   5
ATOM      5  N   UNL A   1      32.793  27.007  26.678  1.00  0.00    -0.352 N 
ATOM      6  C   UNL A   1      31.859  26.245  26.025  1.00  0.00     0.251 C 
ATOM      7  O   UNL A   1      30.781  26.165  26.613  1.00  0.00    -0.269 OA
ATOM      8  H   UNL A   1      32.608  27.101  27.640  1.00  0.00     0.163 HD
BRANCH   6   9
ATOM      9  C   UNL A   1      32.103  25.514  24.729  1.00  0.00     0.045 A 
ATOM     10  C   UNL A   1      33.074  23.625  20.949  1.00  0.00     0.046 C 
ATOM     11  C   UNL A   1      32.648  24.187  22.282  1.00  0.00    -0.028 A 
ATOM     12  C   UNL A   1      32.189  25.508  22.301  1.00  0.00     0.006 A 
ATOM     13  C   UNL A   1      32.763  23.475  23.495  1.00  0.00     0.042 A 
ATOM     14  C   UNL A   1      31.874  26.139  23.501  1.00  0.00     0.014 A 
ATOM     15  C   UNL A   1      32.528  24.148  24.724  1.00  0.00    -0.005 A 
ATOM     16  N   UNL A   1      33.126  22.138  23.476  1.00  0.00    -0.377 N 
ATOM     17  C   UNL A   1      32.653  23.363  26.013  1.00  0.00     0.050 C 
ATOM     18  C   UNL A   1      33.590  21.427  24.657  1.00  0.00     0.117 C 
ATOM     19  H   UNL A   1      33.067  21.647  22.624  1.00  0.00     0.161 HD
ATOM     20  C   UNL A   1      32.749  21.833  25.874  1.00  0.00     0.031 C 
ATOM     21  C   UNL A   1      33.862  23.669  26.858  1.00  0.00    -0.023 C 
ATOM     22  C   UNL A   1      33.420  21.398  27.192  1.00  0.00     0.034 C 
ATOM     23  C   UNL A   1      34.268  22.584  27.529  1.00  0.00    -0.030 C 
BRANCH  18  24
ATOM     24  C   UNL A   1      33.648  19.936  24.331  1.00  0.00     0.010 A 
ATOM     25  C   UNL A   1      32.519  19.339  23.734  1.00  0.00     0.009 A 
ATOM     26  C   UNL A   1      34.751  19.107  24.581  1.00  0.00     0.128 A 
ATOM     27  C   UNL A   1      32.506  17.981  23.398  1.00  0.00     0.001 A 
ATOM     28  C   UNL A   1      34.745  17.755  24.244  1.00  0.00     0.039 A 
ATOM     29  F   UNL A   1      35.870  19.582  25.142  1.00  0.00    -0.207 F 
ATOM     30  C   UNL A   1      33.622  17.188  23.650  1.00  0.00     0.003 A 
ENDBRANCH  18  24
ENDBRANCH   6   9
ENDBRANCH   4   5
ENDBRANCH   3   4
ENDBRANCH   2   3
ENDBRANCH   1   2
BRANCH   1  31
ATOM     31  C   UNL A   1      31.377  32.081  26.604  1.00  0.00     0.021 C 
BRANCH  31  32
ATOM     32  C   UNL A   1      32.623  32.649  27.272  1.00  0.00     0.116 C 
BRANCH  32  33
ATOM     33  N   UNL A   1      32.447  34.051  27.613  1.00  0.00    -0.352 N 
ATOM     34  C   UNL A   1      33.095  34.773  28.585  1.00  0.00     0.251 C 
ATOM     35  H   UNL A   1      31.781  34.544  27.081  1.00  0.00     0.163 HD
ATOM     36  O   UNL A   1      32.699  35.875  28.929  1.00  0.00    -0.269 OA
BRANCH  34  37
ATOM     37  C   UNL A   1      34.288  34.179  29.219  1.00  0.00     0.039 A 
ATOM     38  C   UNL A   1      34.133  33.394  30.362  1.00  0.00     0.014 A 
ATOM     39  C   UNL A   1      35.552  34.392  28.658  1.00  0.00     0.014 A 
ATOM     40  C   UNL A   1      35.253  32.790  30.931  1.00  0.00     0.010 A 
ATOM     41  C   UNL A   1      36.659  33.749  29.197  1.00  0.00     0.010 A 
ATOM     42  C   UNL A   1      36.520  32.955  30.346  1.00  0.00    -0.014 A 
BRANCH  42  43
ATOM     43  C   UNL A   1      37.721  32.352  30.964  1.00  0.00     0.031 A 
ATOM     44  C   UNL A   1      38.328  31.123  30.351  1.00  0.00     0.074 A 
ATOM     45  C   UNL A   1      38.254  32.894  32.074  1.00  0.00     0.049 A 
ATOM     46  N   UNL A   1      39.377  30.445  30.737  1.00  0.00    -0.248 NA
ATOM     47  C   UNL A   1      37.663  30.576  29.155  1.00  0.00     0.031 C 
ATOM     48  C   UNL A   1      37.742  34.078  32.769  1.00  0.00     0.029 A 
ATOM     49  N   UNL A   1      39.352  32.523  32.809  1.00  0.00    -0.354 N 
ATOM     50  C   UNL A   1      39.498  29.399  29.833  1.00  0.00     0.074 A 
ATOM     51  C   UNL A   1      38.391  29.498  28.910  1.00  0.00     0.031 C 
ATOM     52  C   UNL A   1      38.546  34.355  33.809  1.00  0.00     0.029 A 
ATOM     53  C   UNL A   1      39.612  33.357  33.868  1.00  0.00     0.049 A 
ATOM     54  H   UNL A   1      39.900  31.734  32.597  1.00  0.00     0.167 HD
ATOM     55  C   UNL A   1      40.464  28.455  29.763  1.00  0.00     0.031 A 
ATOM     56  C   UNL A   1      40.605  33.327  34.776  1.00  0.00     0.031 A 
ATOM     57  C   UNL A   1      41.575  28.367  30.665  1.00  0.00     0.049 A 
ATOM     58  C   UNL A   1      41.648  32.248  34.696  1.00  0.00     0.074 A 
ATOM     59  C   UNL A   1      42.626  27.467  30.646  1.00  0.00     0.029 A 
ATOM     60  N   UNL A   1      41.783  29.212  31.743  1.00  0.00    -0.354 N 
ATOM     61  N   UNL A   1      41.768  31.286  33.815  1.00  0.00    -0.248 NA
ATOM     62  C   UNL A   1      42.692  32.252  35.731  1.00  0.00     0.031 C 
ATOM     63  C   UNL A   1      43.455  27.748  31.736  1.00  0.00     0.029 A 
ATOM     64  C   UNL A   1      42.937  28.844  32.408  1.00  0.00     0.049 A 
ATOM     65  H   UNL A   1      41.196  29.960  31.997  1.00  0.00     0.167 HD
ATOM     66  C   UNL A   1      42.909  30.583  34.175  1.00  0.00     0.074 A 
ATOM     67  C   UNL A   1      43.449  31.229  35.353  1.00  0.00     0.031 C 
ATOM     68  C   UNL A   1      43.458  29.499  33.578  1.00  0.00     0.031 A 
BRANCH  55  69
ATOM     69  C   UNL A   1      40.375  27.451  28.653  1.00  0.00    -0.014 A 
ATOM     70  C   UNL A   1      39.655  26.260  28.825  1.00  0.00     0.009 A 
ATOM     71  C   UNL A   1      40.953  27.730  27.406  1.00  0.00     0.009 A 
ATOM     72  C   UNL A   1      39.525  25.357  27.768  1.00  0.00     0.001 A 
ATOM     73  C   UNL A   1      40.805  26.834  26.346  1.00  0.00     0.001 A 
ATOM     74  C   UNL A   1      40.094  25.648  26.529  1.00  0.00     0.000 A 
ENDBRANCH  55  69
BRANCH  56  75
ATOM     75  C   UNL A   1      40.678  34.382  35.818  1.00  0.00    -0.014 A 
ATOM     76  C   UNL A   1      41.466  35.523  35.610  1.00  0.00     0.009 A 
ATOM     77  C   UNL A   1      39.935  34.272  37.003  1.00  0.00     0.009 A 
ATOM     78  C   UNL A   1      41.515  36.534  36.573  1.00  0.00     0.001 A 
ATOM     79  C   UNL A   1      39.973  35.292  37.957  1.00  0.00     0.001 A 
ATOM     80  C   UNL A   1      40.764  36.419  37.743  1.00  0.00     0.000 A 
ENDBRANCH  56  75
BRANCH  68  81
ATOM     81  C   UNL A   1      44.715  28.932  34.167  1.00  0.00    -0.014 A 
ATOM     82  C   UNL A   1      44.658  27.883  35.095  1.00  0.00     0.009 A 
ATOM     83  C   UNL A   1      45.963  29.357  33.685  1.00  0.00     0.009 A 
ATOM     84  C   UNL A   1      45.832  27.267  35.530  1.00  0.00     0.001 A 
ATOM     85  C   UNL A   1      47.133  28.727  34.109  1.00  0.00     0.001 A 
ATOM     86  C   UNL A   1      47.067  27.683  35.030  1.00  0.00     0.000 A 
ENDBRANCH  68  81
ENDBRANCH  42  43
ENDBRANCH  34  37
ENDBRANCH  32  33
ENDBRANCH  31  32
ENDBRANCH   1  31
TORSDOF 14
ENDMDL
