MODEL 1
REMARK VINA RESULT:      -9.2      0.000      0.000
REMARK SMILES NS(=O)(=O)c1ccc(-n2nc(NC(=O)NCCCCCCCCCCC(=O)NCCCCCCNC(=O)c3ccc(-c4c5nc(c(-c6ccccc6)c6ccc([nH]6)c(-c6ccccc6)c6nc(c(-c7ccccc7)c7ccc4[nH]7)C=C6)C=C5)cc3)cc2-c2ccccc2)cc1
REMARK SMILES IDX 23 1 22 2 21 3 20 4 19 5 18 6 17 7 16 8 15 9 12 10 13 11
REMARK SMILES IDX 14 13 11 15 9 16 10 17 87 18 86 19 8 20 5 21 6 22 95 23 7 24
REMARK SMILES IDX 94 25 2 26 3 27 4 28 1 29 88 32 89 33 93 34 90 35 92 36
REMARK SMILES IDX 91 37 24 38 25 39 26 40 27 41 28 42 29 44 30 45 31 46 32 47
REMARK SMILES IDX 33 48 34 49 35 50 36 51 37 53 38 54 39 55 85 56 40 57 84 58
REMARK SMILES IDX 41 59 42 60 43 61 78 62 44 63 83 64 77 65 79 66 45 67 82 68
REMARK SMILES IDX 76 69 75 70 46 72 68 73 53 74 67 75 54 76 57 77 66 78 80 79
REMARK SMILES IDX 55 80 56 81 65 83 81 84 58 85 47 86 48 87 52 88 49 89 51 90
REMARK SMILES IDX 50 91 69 92 70 93 74 94 71 95 73 96 72 97 59 98 60 99 64 100
REMARK SMILES IDX 61 101 63 102 62 103
REMARK H PARENT 12 12 15 14 1 30 1 31 28 43 35 52 79 71 57 82
REMARK Flexibility Score: inf
ROOT
ATOM      1  C   UNL A   1      35.906  23.750  24.674  1.00  0.00     0.001 C 
ENDROOT
BRANCH   1   2
ATOM      2  C   UNL A   1      36.685  22.638  23.961  1.00  0.00     0.000 C 
BRANCH   2   3
ATOM      3  C   UNL A   1      36.536  21.279  24.610  1.00  0.00     0.000 C 
BRANCH   3   4
ATOM      4  C   UNL A   1      37.719  20.880  25.481  1.00  0.00     0.000 C 
BRANCH   4   5
ATOM      5  C   UNL A   1      38.675  19.833  24.902  1.00  0.00     0.000 C 
BRANCH   5   6
ATOM      6  C   UNL A   1      39.861  19.433  25.787  1.00  0.00     0.002 C 
BRANCH   6   7
ATOM      7  C   UNL A   1      40.532  20.552  26.582  1.00  0.00     0.021 C 
BRANCH   7   8
ATOM      8  C   UNL A   1      41.948  20.286  27.065  1.00  0.00     0.117 C 
BRANCH   8   9
ATOM      9  N   UNL A   1      42.675  19.240  26.395  1.00  0.00    -0.338 N 
ATOM     10  N   UNL A   1      43.944  20.533  24.844  1.00  0.00    -0.291 N 
ATOM     11  C   UNL A   1      43.578  19.351  25.395  1.00  0.00     0.320 C 
ATOM     12  H   UNL A   1      44.303  20.451  23.931  1.00  0.00     0.173 HD
ATOM     13  O   UNL A   1      43.997  18.305  24.887  1.00  0.00    -0.248 OA
ATOM     14  H   UNL A   1      42.490  18.324  26.706  1.00  0.00     0.165 HD
BRANCH  10  15
ATOM     15  C   UNL A   1      43.911  21.829  25.316  1.00  0.00     0.157 A 
ATOM     16  N   UNL A   1      44.159  23.492  26.609  1.00  0.00    -0.231 N 
ATOM     17  N   UNL A   1      44.779  22.373  26.174  1.00  0.00    -0.149 NA
ATOM     18  C   UNL A   1      43.174  23.896  25.719  1.00  0.00     0.076 A 
ATOM     19  C   UNL A   1      42.963  22.798  24.906  1.00  0.00     0.078 A 
BRANCH  16  20
ATOM     20  C   UNL A   1      44.473  24.047  27.882  1.00  0.00     0.065 A 
ATOM     21  C   UNL A   1      45.077  25.173  30.366  1.00  0.00     0.082 A 
ATOM     22  C   UNL A   1      45.884  25.465  29.265  1.00  0.00     0.024 A 
ATOM     23  C   UNL A   1      43.974  24.319  30.232  1.00  0.00     0.024 A 
ATOM     24  C   UNL A   1      45.589  24.890  28.026  1.00  0.00     0.030 A 
ATOM     25  C   UNL A   1      43.653  23.778  28.982  1.00  0.00     0.030 A 
BRANCH  21  26
ATOM     26  S   UNL A   1      45.428  25.885  31.949  1.00  0.00     0.238 S 
ATOM     27  O   UNL A   1      46.685  25.326  32.429  1.00  0.00    -0.207 OA
ATOM     28  O   UNL A   1      44.231  25.890  32.732  1.00  0.00    -0.207 OA
BRANCH  26  29
ATOM     29  N   UNL A   1      45.771  27.496  31.616  1.00  0.00    -0.225 NA
ATOM     30  H   UNL A   1      45.253  28.094  32.259  1.00  0.00     0.137 HD
ATOM     31  H   UNL A   1      45.498  27.710  30.657  1.00  0.00     0.137 HD
ENDBRANCH  26  29
ENDBRANCH  21  26
ENDBRANCH  16  20
BRANCH  18  32
ATOM     32  C   UNL A   1      42.588  25.232  25.735  1.00  0.00     0.000 A 
ATOM     33  C   UNL A   1      43.273  26.285  25.105  1.00  0.00     0.010 A 
ATOM     34  C   UNL A   1      41.405  25.504  26.425  1.00  0.00     0.010 A 
ATOM     35  C   UNL A   1      42.815  27.594  25.207  1.00  0.00     0.001 A 
ATOM     36  C   UNL A   1      40.942  26.819  26.521  1.00  0.00     0.001 A 
ATOM     37  C   UNL A   1      41.652  27.862  25.922  1.00  0.00     0.000 A 
ENDBRANCH  18  32
ENDBRANCH  10  15
ENDBRANCH   8   9
ENDBRANCH   7   8
ENDBRANCH   6   7
ENDBRANCH   5   6
ENDBRANCH   4   5
ENDBRANCH   3   4
ENDBRANCH   2   3
ENDBRANCH   1   2
BRANCH   1  38
ATOM     38  C   UNL A   1      34.666  24.251  23.935  1.00  0.00     0.010 C 
BRANCH  38  39
ATOM     39  C   UNL A   1      33.569  24.897  24.783  1.00  0.00     0.100 C 
BRANCH  39  40
ATOM     40  C   UNL A   1      32.185  24.869  24.164  1.00  0.00     0.219 C 
ATOM     41  O   UNL A   1      32.017  24.450  23.016  1.00  0.00    -0.275 OA
ATOM     42  N   UNL A   1      31.090  25.276  24.861  1.00  0.00    -0.356 N 
ATOM     43  H   UNL A   1      30.236  25.186  24.377  1.00  0.00     0.163 HD
BRANCH  42  44
ATOM     44  C   UNL A   1      30.975  25.819  26.197  1.00  0.00     0.116 C 
BRANCH  44  45
ATOM     45  C   UNL A   1      31.002  27.351  26.184  1.00  0.00     0.021 C 
BRANCH  45  46
ATOM     46  C   UNL A   1      31.841  27.970  27.301  1.00  0.00     0.002 C 
BRANCH  46  47
ATOM     47  C   UNL A   1      32.513  29.308  26.956  1.00  0.00     0.002 C 
BRANCH  47  48
ATOM     48  C   UNL A   1      34.026  29.273  26.689  1.00  0.00     0.021 C 
BRANCH  48  49
ATOM     49  C   UNL A   1      34.837  30.050  27.711  1.00  0.00     0.116 C 
BRANCH  49  50
ATOM     50  N   UNL A   1      34.462  31.474  27.783  1.00  0.00    -0.352 N 
ATOM     51  C   UNL A   1      34.728  32.418  28.766  1.00  0.00     0.251 C 
ATOM     52  H   UNL A   1      33.944  31.807  27.015  1.00  0.00     0.163 HD
ATOM     53  O   UNL A   1      34.088  33.460  28.837  1.00  0.00    -0.269 OA
BRANCH  51  54
ATOM     54  C   UNL A   1      35.822  32.162  29.714  1.00  0.00     0.039 A 
ATOM     55  C   UNL A   1      35.665  31.651  31.007  1.00  0.00     0.014 A 
ATOM     56  C   UNL A   1      37.086  32.404  29.227  1.00  0.00     0.014 A 
ATOM     57  C   UNL A   1      36.816  31.441  31.768  1.00  0.00     0.010 A 
ATOM     58  C   UNL A   1      38.077  31.651  29.747  1.00  0.00     0.010 A 
ATOM     59  C   UNL A   1      38.044  31.513  31.111  1.00  0.00    -0.014 A 
BRANCH  59  60
ATOM     60  C   UNL A   1      39.350  31.416  31.727  1.00  0.00     0.031 A 
ATOM     61  C   UNL A   1      39.843  32.685  32.288  1.00  0.00     0.074 A 
ATOM     62  C   UNL A   1      39.901  30.223  32.053  1.00  0.00     0.049 A 
ATOM     63  N   UNL A   1      40.782  33.431  31.819  1.00  0.00    -0.248 NA
ATOM     64  C   UNL A   1      39.094  33.277  33.406  1.00  0.00     0.031 C 
ATOM     65  C   UNL A   1      39.349  28.861  31.930  1.00  0.00     0.029 A 
ATOM     66  N   UNL A   1      41.069  29.996  32.702  1.00  0.00    -0.354 N 
ATOM     67  C   UNL A   1      40.882  34.498  32.702  1.00  0.00     0.074 A 
ATOM     68  C   UNL A   1      39.690  34.466  33.510  1.00  0.00     0.031 C 
ATOM     69  C   UNL A   1      40.074  28.006  32.690  1.00  0.00     0.029 A 
ATOM     70  C   UNL A   1      41.225  28.716  33.215  1.00  0.00     0.049 A 
ATOM     71  H   UNL A   1      41.759  30.691  32.802  1.00  0.00     0.167 HD
ATOM     72  C   UNL A   1      42.056  35.160  32.882  1.00  0.00     0.031 A 
ATOM     73  C   UNL A   1      42.209  28.310  34.056  1.00  0.00     0.031 A 
ATOM     74  C   UNL A   1      43.033  34.788  31.885  1.00  0.00     0.049 A 
ATOM     75  C   UNL A   1      43.313  29.301  33.935  1.00  0.00     0.074 A 
ATOM     76  C   UNL A   1      43.079  34.849  30.507  1.00  0.00     0.029 A 
ATOM     77  N   UNL A   1      43.967  33.841  32.248  1.00  0.00    -0.354 N 
ATOM     78  N   UNL A   1      43.985  29.483  32.831  1.00  0.00    -0.248 NA
ATOM     79  C   UNL A   1      43.311  30.431  34.854  1.00  0.00     0.031 C 
ATOM     80  C   UNL A   1      43.641  33.597  30.107  1.00  0.00     0.029 A 
ATOM     81  C   UNL A   1      43.982  32.887  31.260  1.00  0.00     0.049 A 
ATOM     82  H   UNL A   1      44.520  33.848  33.063  1.00  0.00     0.167 HD
ATOM     83  C   UNL A   1      44.121  30.862  32.714  1.00  0.00     0.074 A 
ATOM     84  C   UNL A   1      43.759  31.388  34.033  1.00  0.00     0.031 C 
ATOM     85  C   UNL A   1      44.213  31.475  31.494  1.00  0.00     0.031 A 
BRANCH  72  86
ATOM     86  C   UNL A   1      42.451  35.819  34.175  1.00  0.00    -0.014 A 
ATOM     87  C   UNL A   1      42.841  37.168  34.148  1.00  0.00     0.009 A 
ATOM     88  C   UNL A   1      42.698  35.110  35.366  1.00  0.00     0.009 A 
ATOM     89  C   UNL A   1      43.504  37.753  35.233  1.00  0.00     0.001 A 
ATOM     90  C   UNL A   1      43.322  35.702  36.467  1.00  0.00     0.001 A 
ATOM     91  C   UNL A   1      43.752  37.018  36.388  1.00  0.00     0.000 A 
ENDBRANCH  72  86
BRANCH  73  92
ATOM     92  C   UNL A   1      42.076  27.373  35.199  1.00  0.00    -0.014 A 
ATOM     93  C   UNL A   1      41.381  26.160  35.079  1.00  0.00     0.009 A 
ATOM     94  C   UNL A   1      42.859  27.560  36.355  1.00  0.00     0.009 A 
ATOM     95  C   UNL A   1      41.489  25.165  36.066  1.00  0.00     0.001 A 
ATOM     96  C   UNL A   1      42.967  26.570  37.339  1.00  0.00     0.001 A 
ATOM     97  C   UNL A   1      42.290  25.366  37.187  1.00  0.00     0.000 A 
ENDBRANCH  73  92
BRANCH  85  98
ATOM     98  C   UNL A   1      44.302  30.601  30.260  1.00  0.00    -0.014 A 
ATOM     99  C   UNL A   1      45.498  30.401  29.546  1.00  0.00     0.009 A 
ATOM    100  C   UNL A   1      43.198  29.806  29.923  1.00  0.00     0.009 A 
ATOM    101  C   UNL A   1      45.581  29.454  28.518  1.00  0.00     0.001 A 
ATOM    102  C   UNL A   1      43.284  28.848  28.907  1.00  0.00     0.001 A 
ATOM    103  C   UNL A   1      44.473  28.674  28.202  1.00  0.00     0.000 A 
ENDBRANCH  85  98
ENDBRANCH  59  60
ENDBRANCH  51  54
ENDBRANCH  49  50
ENDBRANCH  48  49
ENDBRANCH  47  48
ENDBRANCH  46  47
ENDBRANCH  45  46
ENDBRANCH  44  45
ENDBRANCH  42  44
ENDBRANCH  39  40
ENDBRANCH  38  39
ENDBRANCH   1  38
TORSDOF 28
ENDMDL
MODEL 2
REMARK VINA RESULT:      -8.8      3.699      9.228
REMARK SMILES NS(=O)(=O)c1ccc(-n2nc(NC(=O)NCCCCCCCCCCC(=O)NCCCCCCNC(=O)c3ccc(-c4c5nc(c(-c6ccccc6)c6ccc([nH]6)c(-c6ccccc6)c6nc(c(-c7ccccc7)c7ccc4[nH]7)C=C6)C=C5)cc3)cc2-c2ccccc2)cc1
REMARK SMILES IDX 23 1 22 2 21 3 20 4 19 5 18 6 17 7 16 8 15 9 12 10 13 11
REMARK SMILES IDX 14 13 11 15 9 16 10 17 87 18 86 19 8 20 5 21 6 22 95 23 7 24
REMARK SMILES IDX 94 25 2 26 3 27 4 28 1 29 88 32 89 33 93 34 90 35 92 36
REMARK SMILES IDX 91 37 24 38 25 39 26 40 27 41 28 42 29 44 30 45 31 46 32 47
REMARK SMILES IDX 33 48 34 49 35 50 36 51 37 53 38 54 39 55 85 56 40 57 84 58
REMARK SMILES IDX 41 59 42 60 43 61 78 62 44 63 83 64 77 65 79 66 45 67 82 68
REMARK SMILES IDX 76 69 75 70 46 72 68 73 53 74 67 75 54 76 57 77 66 78 80 79
REMARK SMILES IDX 55 80 56 81 65 83 81 84 58 85 47 86 48 87 52 88 49 89 51 90
REMARK SMILES IDX 50 91 69 92 70 93 74 94 71 95 73 96 72 97 59 98 60 99 64 100
REMARK SMILES IDX 61 101 63 102 62 103
REMARK H PARENT 12 12 15 14 1 30 1 31 28 43 35 52 79 71 57 82
REMARK Flexibility Score: inf
ROOT
ATOM      1  C   UNL A   1      31.777  23.086  25.718  1.00  0.00     0.001 C 
ENDROOT
BRANCH   1   2
ATOM      2  C   UNL A   1      30.361  23.411  26.210  1.00  0.00     0.000 C 
BRANCH   2   3
ATOM      3  C   UNL A   1      30.146  24.877  26.519  1.00  0.00     0.000 C 
BRANCH   3   4
ATOM      4  C   UNL A   1      29.966  25.746  25.281  1.00  0.00     0.000 C 
BRANCH   4   5
ATOM      5  C   UNL A   1      28.530  25.959  24.795  1.00  0.00     0.000 C 
BRANCH   5   6
ATOM      6  C   UNL A   1      28.356  26.838  23.552  1.00  0.00     0.002 C 
BRANCH   6   7
ATOM      7  C   UNL A   1      27.177  27.809  23.557  1.00  0.00     0.021 C 
BRANCH   7   8
ATOM      8  C   UNL A   1      27.517  29.290  23.536  1.00  0.00     0.117 C 
BRANCH   8   9
ATOM      9  N   UNL A   1      27.328  29.980  22.288  1.00  0.00    -0.338 N 
ATOM     10  N   UNL A   1      29.567  30.676  21.848  1.00  0.00    -0.291 N 
ATOM     11  C   UNL A   1      28.254  30.604  21.523  1.00  0.00     0.320 C 
ATOM     12  H   UNL A   1      30.039  31.431  21.427  1.00  0.00     0.173 HD
ATOM     13  O   UNL A   1      27.850  31.235  20.542  1.00  0.00    -0.248 OA
ATOM     14  H   UNL A   1      26.405  30.001  21.945  1.00  0.00     0.165 HD
BRANCH  10  15
ATOM     15  C   UNL A   1      30.371  29.897  22.654  1.00  0.00     0.157 A 
ATOM     16  N   UNL A   1      31.716  29.345  24.199  1.00  0.00    -0.231 N 
ATOM     17  N   UNL A   1      30.640  30.121  23.944  1.00  0.00    -0.149 NA
ATOM     18  C   UNL A   1      31.824  28.319  23.270  1.00  0.00     0.076 A 
ATOM     19  C   UNL A   1      30.993  28.697  22.231  1.00  0.00     0.078 A 
BRANCH  16  20
ATOM     20  C   UNL A   1      32.622  29.680  25.244  1.00  0.00     0.065 A 
ATOM     21  C   UNL A   1      34.415  30.368  27.272  1.00  0.00     0.082 A 
ATOM     22  C   UNL A   1      34.880  29.687  26.146  1.00  0.00     0.024 A 
ATOM     23  C   UNL A   1      33.060  30.704  27.391  1.00  0.00     0.024 A 
ATOM     24  C   UNL A   1      33.980  29.331  25.138  1.00  0.00     0.030 A 
ATOM     25  C   UNL A   1      32.166  30.385  26.362  1.00  0.00     0.030 A 
BRANCH  21  26
ATOM     26  S   UNL A   1      35.533  30.830  28.566  1.00  0.00     0.238 S 
ATOM     27  O   UNL A   1      34.905  31.882  29.354  1.00  0.00    -0.207 OA
ATOM     28  O   UNL A   1      36.850  30.950  28.020  1.00  0.00    -0.207 OA
BRANCH  26  29
ATOM     29  N   UNL A   1      35.571  29.493  29.582  1.00  0.00    -0.225 NA
ATOM     30  H   UNL A   1      34.922  28.786  29.239  1.00  0.00     0.137 HD
ATOM     31  H   UNL A   1      35.301  29.775  30.525  1.00  0.00     0.137 HD
ENDBRANCH  26  29
ENDBRANCH  21  26
ENDBRANCH  16  20
BRANCH  18  32
ATOM     32  C   UNL A   1      32.655  27.139  23.481  1.00  0.00     0.000 A 
ATOM     33  C   UNL A   1      32.899  26.274  22.401  1.00  0.00     0.010 A 
ATOM     34  C   UNL A   1      33.147  26.808  24.745  1.00  0.00     0.010 A 
ATOM     35  C   UNL A   1      33.577  25.074  22.589  1.00  0.00     0.001 A 
ATOM     36  C   UNL A   1      33.833  25.605  24.931  1.00  0.00     0.001 A 
ATOM     37  C   UNL A   1      34.039  24.736  23.857  1.00  0.00     0.000 A 
ENDBRANCH  18  32
ENDBRANCH  10  15
ENDBRANCH   8   9
ENDBRANCH   7   8
ENDBRANCH   6   7
ENDBRANCH   5   6
ENDBRANCH   4   5
ENDBRANCH   3   4
ENDBRANCH   2   3
ENDBRANCH   1   2
BRANCH   1  38
ATOM     38  C   UNL A   1      31.902  21.795  24.910  1.00  0.00     0.010 C 
BRANCH  38  39
ATOM     39  C   UNL A   1      32.726  20.666  25.533  1.00  0.00     0.100 C 
BRANCH  39  40
ATOM     40  C   UNL A   1      33.720  21.112  26.587  1.00  0.00     0.219 C 
ATOM     41  O   UNL A   1      33.337  21.476  27.701  1.00  0.00    -0.275 OA
ATOM     42  N   UNL A   1      35.060  21.097  26.348  1.00  0.00    -0.356 N 
ATOM     43  H   UNL A   1      35.619  21.375  27.110  1.00  0.00     0.163 HD
BRANCH  42  44
ATOM     44  C   UNL A   1      35.796  20.739  25.154  1.00  0.00     0.116 C 
BRANCH  44  45
ATOM     45  C   UNL A   1      35.904  21.922  24.186  1.00  0.00     0.021 C 
BRANCH  45  46
ATOM     46  C   UNL A   1      37.162  22.769  24.375  1.00  0.00     0.002 C 
BRANCH  46  47
ATOM     47  C   UNL A   1      37.100  23.795  25.517  1.00  0.00     0.002 C 
BRANCH  47  48
ATOM     48  C   UNL A   1      38.103  23.610  26.667  1.00  0.00     0.021 C 
BRANCH  48  49
ATOM     49  C   UNL A   1      38.916  24.858  26.964  1.00  0.00     0.116 C 
BRANCH  49  50
ATOM     50  N   UNL A   1      40.060  25.032  26.051  1.00  0.00    -0.352 N 
ATOM     51  C   UNL A   1      40.978  26.070  25.960  1.00  0.00     0.251 C 
ATOM     52  H   UNL A   1      40.194  24.300  25.408  1.00  0.00     0.163 HD
ATOM     53  O   UNL A   1      41.667  26.224  24.958  1.00  0.00    -0.269 OA
BRANCH  51  54
ATOM     54  C   UNL A   1      41.138  26.975  27.107  1.00  0.00     0.039 A 
ATOM     55  C   UNL A   1      41.453  26.575  28.411  1.00  0.00     0.014 A 
ATOM     56  C   UNL A   1      41.015  28.313  26.817  1.00  0.00     0.014 A 
ATOM     57  C   UNL A   1      41.597  27.570  29.379  1.00  0.00     0.010 A 
ATOM     58  C   UNL A   1      41.723  29.158  27.596  1.00  0.00     0.010 A 
ATOM     59  C   UNL A   1      41.665  28.892  28.940  1.00  0.00    -0.014 A 
BRANCH  59  60
ATOM     60  C   UNL A   1      41.722  30.069  29.778  1.00  0.00     0.031 A 
ATOM     61  C   UNL A   1      40.429  30.442  30.376  1.00  0.00     0.074 A 
ATOM     62  C   UNL A   1      42.896  30.567  30.234  1.00  0.00     0.049 A 
ATOM     63  N   UNL A   1      39.682  31.441  30.056  1.00  0.00    -0.248 NA
ATOM     64  C   UNL A   1      39.817  29.502  31.326  1.00  0.00     0.031 C 
ATOM     65  C   UNL A   1      44.269  30.061  30.059  1.00  0.00     0.029 A 
ATOM     66  N   UNL A   1      43.084  31.605  31.085  1.00  0.00    -0.354 N 
ATOM     67  C   UNL A   1      38.588  31.373  30.908  1.00  0.00     0.074 A 
ATOM     68  C   UNL A   1      38.616  30.057  31.495  1.00  0.00     0.031 C 
ATOM     69  C   UNL A   1      45.090  30.649  30.962  1.00  0.00     0.029 A 
ATOM     70  C   UNL A   1      44.346  31.683  31.658  1.00  0.00     0.049 A 
ATOM     71  H   UNL A   1      42.376  32.259  31.283  1.00  0.00     0.167 HD
ATOM     72  C   UNL A   1      37.903  32.490  31.270  1.00  0.00     0.031 A 
ATOM     73  C   UNL A   1      44.711  32.507  32.671  1.00  0.00     0.031 A 
ATOM     74  C   UNL A   1      38.287  33.630  30.473  1.00  0.00     0.049 A 
ATOM     75  C   UNL A   1      43.707  33.605  32.715  1.00  0.00     0.074 A 
ATOM     76  C   UNL A   1      38.267  33.918  29.123  1.00  0.00     0.029 A 
ATOM     77  N   UNL A   1      39.208  34.496  31.025  1.00  0.00    -0.354 N 
ATOM     78  N   UNL A   1      43.546  34.458  31.740  1.00  0.00    -0.248 NA
ATOM     79  C   UNL A   1      42.550  33.429  33.583  1.00  0.00     0.031 C 
ATOM     80  C   UNL A   1      39.520  34.555  28.869  1.00  0.00     0.029 A 
ATOM     81  C   UNL A   1      40.191  34.695  30.085  1.00  0.00     0.049 A 
ATOM     82  H   UNL A   1      39.168  34.897  31.923  1.00  0.00     0.167 HD
ATOM     83  C   UNL A   1      42.169  34.598  31.605  1.00  0.00     0.074 A 
ATOM     84  C   UNL A   1      41.610  34.003  32.822  1.00  0.00     0.031 C 
ATOM     85  C   UNL A   1      41.591  34.897  30.402  1.00  0.00     0.031 A 
BRANCH  72  86
ATOM     86  C   UNL A   1      37.199  32.643  32.591  1.00  0.00    -0.014 A 
ATOM     87  C   UNL A   1      35.815  32.884  32.589  1.00  0.00     0.009 A 
ATOM     88  C   UNL A   1      37.872  32.814  33.816  1.00  0.00     0.009 A 
ATOM     89  C   UNL A   1      35.156  33.337  33.738  1.00  0.00     0.001 A 
ATOM     90  C   UNL A   1      37.210  33.225  34.975  1.00  0.00     0.001 A 
ATOM     91  C   UNL A   1      35.856  33.515  34.928  1.00  0.00     0.000 A 
ENDBRANCH  72  86
BRANCH  73  92
ATOM     92  C   UNL A   1      45.616  32.185  33.803  1.00  0.00    -0.014 A 
ATOM     93  C   UNL A   1      46.844  32.843  33.974  1.00  0.00     0.009 A 
ATOM     94  C   UNL A   1      45.149  31.396  34.873  1.00  0.00     0.009 A 
ATOM     95  C   UNL A   1      47.560  32.733  35.177  1.00  0.00     0.001 A 
ATOM     96  C   UNL A   1      45.862  31.286  36.072  1.00  0.00     0.001 A 
ATOM     97  C   UNL A   1      47.064  31.966  36.229  1.00  0.00     0.000 A 
ENDBRANCH  73  92
BRANCH  85  98
ATOM     98  C   UNL A   1      42.500  35.211  29.231  1.00  0.00    -0.014 A 
ATOM     99  C   UNL A   1      43.033  34.218  28.387  1.00  0.00     0.009 A 
ATOM    100  C   UNL A   1      42.666  36.550  28.854  1.00  0.00     0.009 A 
ATOM    101  C   UNL A   1      43.725  34.556  27.217  1.00  0.00     0.001 A 
ATOM    102  C   UNL A   1      43.344  36.888  27.677  1.00  0.00     0.001 A 
ATOM    103  C   UNL A   1      43.876  35.893  26.861  1.00  0.00     0.000 A 
ENDBRANCH  85  98
ENDBRANCH  59  60
ENDBRANCH  51  54
ENDBRANCH  49  50
ENDBRANCH  48  49
ENDBRANCH  47  48
ENDBRANCH  46  47
ENDBRANCH  45  46
ENDBRANCH  44  45
ENDBRANCH  42  44
ENDBRANCH  39  40
ENDBRANCH  38  39
ENDBRANCH   1  38
TORSDOF 28
ENDMDL
MODEL 3
REMARK VINA RESULT:      -8.8      2.345      4.257
REMARK SMILES NS(=O)(=O)c1ccc(-n2nc(NC(=O)NCCCCCCCCCCC(=O)NCCCCCCNC(=O)c3ccc(-c4c5nc(c(-c6ccccc6)c6ccc([nH]6)c(-c6ccccc6)c6nc(c(-c7ccccc7)c7ccc4[nH]7)C=C6)C=C5)cc3)cc2-c2ccccc2)cc1
REMARK SMILES IDX 23 1 22 2 21 3 20 4 19 5 18 6 17 7 16 8 15 9 12 10 13 11
REMARK SMILES IDX 14 13 11 15 9 16 10 17 87 18 86 19 8 20 5 21 6 22 95 23 7 24
REMARK SMILES IDX 94 25 2 26 3 27 4 28 1 29 88 32 89 33 93 34 90 35 92 36
REMARK SMILES IDX 91 37 24 38 25 39 26 40 27 41 28 42 29 44 30 45 31 46 32 47
REMARK SMILES IDX 33 48 34 49 35 50 36 51 37 53 38 54 39 55 85 56 40 57 84 58
REMARK SMILES IDX 41 59 42 60 43 61 78 62 44 63 83 64 77 65 79 66 45 67 82 68
REMARK SMILES IDX 76 69 75 70 46 72 68 73 53 74 67 75 54 76 57 77 66 78 80 79
REMARK SMILES IDX 55 80 56 81 65 83 81 84 58 85 47 86 48 87 52 88 49 89 51 90
REMARK SMILES IDX 50 91 69 92 70 93 74 94 71 95 73 96 72 97 59 98 60 99 64 100
REMARK SMILES IDX 61 101 63 102 62 103
REMARK H PARENT 12 12 15 14 1 30 1 31 28 43 35 52 79 71 57 82
REMARK Flexibility Score: inf
ROOT
ATOM      1  C   UNL A   1      33.770  24.646  24.036  1.00  0.00     0.001 C 
ENDROOT
BRANCH   1   2
ATOM      2  C   UNL A   1      34.592  23.640  23.221  1.00  0.00     0.000 C 
BRANCH   2   3
ATOM      3  C   UNL A   1      34.924  22.372  23.977  1.00  0.00     0.000 C 
BRANCH   3   4
ATOM      4  C   UNL A   1      36.410  22.197  24.262  1.00  0.00     0.000 C 
BRANCH   4   5
ATOM      5  C   UNL A   1      36.893  22.604  25.657  1.00  0.00     0.000 C 
BRANCH   5   6
ATOM      6  C   UNL A   1      38.392  22.438  25.932  1.00  0.00     0.002 C 
BRANCH   6   7
ATOM      7  C   UNL A   1      38.935  21.010  25.927  1.00  0.00     0.021 C 
BRANCH   7   8
ATOM      8  C   UNL A   1      40.377  20.832  26.374  1.00  0.00     0.117 C 
BRANCH   8   9
ATOM      9  N   UNL A   1      40.931  19.509  26.259  1.00  0.00    -0.338 N 
ATOM     10  N   UNL A   1      43.145  20.040  25.546  1.00  0.00    -0.291 N 
ATOM     11  C   UNL A   1      42.182  19.151  25.888  1.00  0.00     0.320 C 
ATOM     12  H   UNL A   1      43.849  19.662  24.971  1.00  0.00     0.173 HD
ATOM     13  O   UNL A   1      42.411  17.946  25.745  1.00  0.00    -0.248 OA
ATOM     14  H   UNL A   1      40.321  18.768  26.478  1.00  0.00     0.165 HD
BRANCH  10  15
ATOM     15  C   UNL A   1      43.330  21.374  25.848  1.00  0.00     0.157 A 
ATOM     16  N   UNL A   1      42.971  23.316  26.622  1.00  0.00    -0.231 N 
ATOM     17  N   UNL A   1      42.862  22.005  26.929  1.00  0.00    -0.149 NA
ATOM     18  C   UNL A   1      43.903  23.518  25.614  1.00  0.00     0.076 A 
ATOM     19  C   UNL A   1      44.102  22.265  25.063  1.00  0.00     0.078 A 
BRANCH  16  20
ATOM     20  C   UNL A   1      42.118  24.278  27.235  1.00  0.00     0.065 A 
ATOM     21  C   UNL A   1      40.471  26.194  28.424  1.00  0.00     0.082 A 
ATOM     22  C   UNL A   1      41.677  25.850  29.036  1.00  0.00     0.024 A 
ATOM     23  C   UNL A   1      40.083  25.583  27.225  1.00  0.00     0.024 A 
ATOM     24  C   UNL A   1      42.494  24.882  28.447  1.00  0.00     0.030 A 
ATOM     25  C   UNL A   1      40.922  24.644  26.612  1.00  0.00     0.030 A 
BRANCH  21  26
ATOM     26  S   UNL A   1      39.415  27.417  29.149  1.00  0.00     0.238 S 
ATOM     27  O   UNL A   1      38.717  26.805  30.273  1.00  0.00    -0.207 OA
ATOM     28  O   UNL A   1      38.737  28.122  28.106  1.00  0.00    -0.207 OA
BRANCH  26  29
ATOM     29  N   UNL A   1      40.471  28.521  29.847  1.00  0.00    -0.225 NA
ATOM     30  H   UNL A   1      40.054  29.452  29.824  1.00  0.00     0.137 HD
ATOM     31  H   UNL A   1      41.348  28.528  29.326  1.00  0.00     0.137 HD
ENDBRANCH  26  29
ENDBRANCH  21  26
ENDBRANCH  16  20
BRANCH  18  32
ATOM     32  C   UNL A   1      44.485  24.822  25.319  1.00  0.00     0.000 A 
ATOM     33  C   UNL A   1      45.883  24.941  25.230  1.00  0.00     0.010 A 
ATOM     34  C   UNL A   1      43.694  25.967  25.201  1.00  0.00     0.010 A 
ATOM     35  C   UNL A   1      46.483  26.187  25.078  1.00  0.00     0.001 A 
ATOM     36  C   UNL A   1      44.299  27.217  25.043  1.00  0.00     0.001 A 
ATOM     37  C   UNL A   1      45.690  27.326  24.992  1.00  0.00     0.000 A 
ENDBRANCH  18  32
ENDBRANCH  10  15
ENDBRANCH   8   9
ENDBRANCH   7   8
ENDBRANCH   6   7
ENDBRANCH   5   6
ENDBRANCH   4   5
ENDBRANCH   3   4
ENDBRANCH   2   3
ENDBRANCH   1   2
BRANCH   1  38
ATOM     38  C   UNL A   1      33.087  25.741  23.217  1.00  0.00     0.010 C 
BRANCH  38  39
ATOM     39  C   UNL A   1      31.651  26.100  23.605  1.00  0.00     0.100 C 
BRANCH  39  40
ATOM     40  C   UNL A   1      30.759  24.913  23.911  1.00  0.00     0.219 C 
ATOM     41  O   UNL A   1      30.443  24.117  23.024  1.00  0.00    -0.275 OA
ATOM     42  N   UNL A   1      30.305  24.676  25.172  1.00  0.00    -0.356 N 
ATOM     43  H   UNL A   1      29.759  23.861  25.268  1.00  0.00     0.163 HD
BRANCH  42  44
ATOM     44  C   UNL A   1      30.494  25.427  26.395  1.00  0.00     0.116 C 
BRANCH  44  45
ATOM     45  C   UNL A   1      30.873  26.883  26.105  1.00  0.00     0.021 C 
BRANCH  45  46
ATOM     46  C   UNL A   1      32.021  27.412  26.965  1.00  0.00     0.002 C 
BRANCH  46  47
ATOM     47  C   UNL A   1      32.921  28.459  26.291  1.00  0.00     0.002 C 
BRANCH  47  48
ATOM     48  C   UNL A   1      34.413  28.427  26.658  1.00  0.00     0.021 C 
BRANCH  48  49
ATOM     49  C   UNL A   1      34.839  29.580  27.550  1.00  0.00     0.116 C 
BRANCH  49  50
ATOM     50  N   UNL A   1      34.200  30.858  27.186  1.00  0.00    -0.352 N 
ATOM     51  C   UNL A   1      34.117  32.048  27.896  1.00  0.00     0.251 C 
ATOM     52  H   UNL A   1      33.766  30.868  26.302  1.00  0.00     0.163 HD
ATOM     53  O   UNL A   1      33.292  32.906  27.605  1.00  0.00    -0.269 OA
BRANCH  51  54
ATOM     54  C   UNL A   1      35.064  32.282  28.995  1.00  0.00     0.039 A 
ATOM     55  C   UNL A   1      34.730  32.312  30.354  1.00  0.00     0.014 A 
ATOM     56  C   UNL A   1      36.379  32.420  28.615  1.00  0.00     0.014 A 
ATOM     57  C   UNL A   1      35.761  32.518  31.272  1.00  0.00     0.010 A 
ATOM     58  C   UNL A   1      37.303  32.023  29.514  1.00  0.00     0.010 A 
ATOM     59  C   UNL A   1      37.070  32.431  30.801  1.00  0.00    -0.014 A 
BRANCH  59  60
ATOM     60  C   UNL A   1      38.272  32.699  31.562  1.00  0.00     0.031 A 
ATOM     61  C   UNL A   1      39.290  33.465  30.824  1.00  0.00     0.074 A 
ATOM     62  C   UNL A   1      38.312  32.558  32.909  1.00  0.00     0.049 A 
ATOM     63  N   UNL A   1      40.406  33.026  30.354  1.00  0.00    -0.248 NA
ATOM     64  C   UNL A   1      38.954  34.837  30.417  1.00  0.00     0.031 C 
ATOM     65  C   UNL A   1      37.243  32.190  33.854  1.00  0.00     0.029 A 
ATOM     66  N   UNL A   1      39.339  32.851  33.744  1.00  0.00    -0.354 N 
ATOM     67  C   UNL A   1      41.013  34.123  29.760  1.00  0.00     0.074 A 
ATOM     68  C   UNL A   1      39.991  35.131  29.632  1.00  0.00     0.031 C 
ATOM     69  C   UNL A   1      37.619  32.511  35.115  1.00  0.00     0.029 A 
ATOM     70  C   UNL A   1      39.003  32.947  35.087  1.00  0.00     0.049 A 
ATOM     71  H   UNL A   1      40.259  32.985  33.421  1.00  0.00     0.167 HD
ATOM     72  C   UNL A   1      42.367  34.218  29.666  1.00  0.00     0.031 A 
ATOM     73  C   UNL A   1      39.805  33.411  36.078  1.00  0.00     0.031 A 
ATOM     74  C   UNL A   1      43.011  32.971  30.004  1.00  0.00     0.049 A 
ATOM     75  C   UNL A   1      41.202  33.329  35.571  1.00  0.00     0.074 A 
ATOM     76  C   UNL A   1      42.953  31.686  29.503  1.00  0.00     0.029 A 
ATOM     77  N   UNL A   1      43.503  32.849  31.286  1.00  0.00    -0.354 N 
ATOM     78  N   UNL A   1      41.787  32.199  35.281  1.00  0.00    -0.248 NA
ATOM     79  C   UNL A   1      41.747  34.500  34.897  1.00  0.00     0.031 C 
ATOM     80  C   UNL A   1      42.914  30.847  30.659  1.00  0.00     0.029 A 
ATOM     81  C   UNL A   1      43.036  31.659  31.788  1.00  0.00     0.049 A 
ATOM     82  H   UNL A   1      44.082  33.494  31.754  1.00  0.00     0.167 HD
ATOM     83  C   UNL A   1      42.465  32.437  34.091  1.00  0.00     0.074 A 
ATOM     84  C   UNL A   1      42.471  33.895  33.948  1.00  0.00     0.031 C 
ATOM     85  C   UNL A   1      42.689  31.442  33.179  1.00  0.00     0.031 A 
BRANCH  72  86
ATOM     86  C   UNL A   1      43.112  35.525  29.671  1.00  0.00    -0.014 A 
ATOM     87  C   UNL A   1      43.571  36.031  30.898  1.00  0.00     0.009 A 
ATOM     88  C   UNL A   1      43.160  36.398  28.567  1.00  0.00     0.009 A 
ATOM     89  C   UNL A   1      43.991  37.361  31.024  1.00  0.00     0.001 A 
ATOM     90  C   UNL A   1      43.617  37.712  28.679  1.00  0.00     0.001 A 
ATOM     91  C   UNL A   1      44.005  38.202  29.916  1.00  0.00     0.000 A 
ENDBRANCH  72  86
BRANCH  73  92
ATOM     92  C   UNL A   1      39.404  34.255  37.231  1.00  0.00    -0.014 A 
ATOM     93  C   UNL A   1      39.002  33.690  38.451  1.00  0.00     0.009 A 
ATOM     94  C   UNL A   1      39.662  35.639  37.211  1.00  0.00     0.009 A 
ATOM     95  C   UNL A   1      38.888  34.478  39.608  1.00  0.00     0.001 A 
ATOM     96  C   UNL A   1      39.550  36.425  38.364  1.00  0.00     0.001 A 
ATOM     97  C   UNL A   1      39.174  35.841  39.567  1.00  0.00     0.000 A 
ENDBRANCH  73  92
BRANCH  85  98
ATOM     98  C   UNL A   1      42.300  30.027  33.556  1.00  0.00    -0.014 A 
ATOM     99  C   UNL A   1      41.002  29.514  33.370  1.00  0.00     0.009 A 
ATOM    100  C   UNL A   1      43.311  29.131  33.925  1.00  0.00     0.009 A 
ATOM    101  C   UNL A   1      40.723  28.156  33.567  1.00  0.00     0.001 A 
ATOM    102  C   UNL A   1      43.038  27.771  34.108  1.00  0.00     0.001 A 
ATOM    103  C   UNL A   1      41.745  27.284  33.932  1.00  0.00     0.000 A 
ENDBRANCH  85  98
ENDBRANCH  59  60
ENDBRANCH  51  54
ENDBRANCH  49  50
ENDBRANCH  48  49
ENDBRANCH  47  48
ENDBRANCH  46  47
ENDBRANCH  45  46
ENDBRANCH  44  45
ENDBRANCH  42  44
ENDBRANCH  39  40
ENDBRANCH  38  39
ENDBRANCH   1  38
TORSDOF 28
ENDMDL
