MODEL 1
REMARK VINA RESULT:     -12.8      0.000      0.000
REMARK SMILES Cc1ccccc1/C=C1\SC(=O)N(CC(=O)Nc2ccccc2C(=O)NCCCCCCNC(=O)c2ccc(-c3c4nc(c(-c5ccccc5)c5ccc([nH]5)c(-c5ccccc5)c5nc(c(-c6ccccc6)c6ccc3[nH]6)C=C5)C=C4)cc2)C1=O
REMARK SMILES IDX 28 1 27 2 26 3 24 4 25 5 23 7 18 8 19 9 20 10 22 11 21 12
REMARK SMILES IDX 17 13 15 14 16 15 14 17 13 18 8 19 9 20 10 21 84 22 11 23
REMARK SMILES IDX 85 24 12 25 7 26 1 27 2 28 3 29 4 30 6 31 5 32 29 33 30 34
REMARK SMILES IDX 31 35 32 36 33 37 34 38 35 40 36 41 37 42 83 43 38 44 82 45
REMARK SMILES IDX 39 46 40 47 41 48 76 49 42 50 81 51 75 52 77 53 43 54 80 55
REMARK SMILES IDX 74 56 73 57 44 59 66 60 51 61 65 62 52 63 55 64 64 65 78 66
REMARK SMILES IDX 53 67 54 68 63 70 79 71 56 72 45 73 46 74 50 75 47 76 49 77
REMARK SMILES IDX 48 78 67 79 68 80 72 81 69 82 71 83 70 84 57 85 58 86 62 87
REMARK SMILES IDX 59 88 61 89 60 90
REMARK H PARENT 26 6 17 16 33 39 77 58 55 69
REMARK Flexibility Score: inf
ROOT
ATOM      1  C   UNL A   1      37.158  22.010  24.452  1.00  0.00     0.021 C 
ENDROOT
BRANCH   1   2
ATOM      2  C   UNL A   1      36.881  20.784  25.322  1.00  0.00     0.116 C 
BRANCH   2   3
ATOM      3  N   UNL A   1      35.759  19.926  24.967  1.00  0.00    -0.352 N 
ATOM      4  C   UNL A   1      34.391  20.145  24.951  1.00  0.00     0.253 C 
ATOM      5  O   UNL A   1      33.676  19.316  24.395  1.00  0.00    -0.269 OA
ATOM      6  H   UNL A   1      36.022  19.020  24.684  1.00  0.00     0.163 HD
BRANCH   4   7
ATOM      7  C   UNL A   1      33.761  21.336  25.570  1.00  0.00     0.063 A 
ATOM      8  C   UNL A   1      33.447  22.525  24.877  1.00  0.00     0.054 A 
ATOM      9  C   UNL A   1      32.978  23.629  25.624  1.00  0.00     0.027 A 
ATOM     10  C   UNL A   1      32.809  23.575  27.008  1.00  0.00     0.002 A 
ATOM     11  C   UNL A   1      33.714  21.359  26.982  1.00  0.00     0.016 A 
ATOM     12  C   UNL A   1      33.198  22.440  27.693  1.00  0.00     0.001 A 
BRANCH   8  13
ATOM     13  N   UNL A   1      33.738  22.867  23.541  1.00  0.00    -0.324 N 
ATOM     14  C   UNL A   1      33.134  23.514  22.509  1.00  0.00     0.244 C 
ATOM     15  O   UNL A   1      33.713  23.448  21.415  1.00  0.00    -0.273 OA
ATOM     16  H   UNL A   1      34.633  22.548  23.282  1.00  0.00     0.170 HD
BRANCH  14  17
ATOM     17  C   UNL A   1      31.969  24.471  22.682  1.00  0.00     0.230 C 
BRANCH  17  18
ATOM     18  N   UNL A   1      32.229  25.784  23.214  1.00  0.00    -0.259 N 
ATOM     19  C   UNL A   1      32.173  28.092  25.878  1.00  0.00     0.029 C 
ATOM     20  C   UNL A   1      32.145  27.660  24.605  1.00  0.00     0.083 C 
ATOM     21  S   UNL A   1      33.051  28.197  23.261  1.00  0.00    -0.022 SA
ATOM     22  C   UNL A   1      31.494  26.362  24.232  1.00  0.00     0.268 C 
ATOM     23  C   UNL A   1      33.050  26.622  22.523  1.00  0.00     0.294 C 
ATOM     24  O   UNL A   1      30.481  25.932  24.754  1.00  0.00    -0.268 OA
ATOM     25  O   UNL A   1      33.690  26.370  21.505  1.00  0.00    -0.261 OA
BRANCH  19  26
ATOM     26  C   UNL A   1      33.083  29.066  26.541  1.00  0.00    -0.021 A 
ATOM     27  C   UNL A   1      31.570  31.154  26.518  1.00  0.00     0.045 C 
ATOM     28  C   UNL A   1      32.847  30.427  26.829  1.00  0.00    -0.044 A 
ATOM     29  C   UNL A   1      33.885  31.207  27.393  1.00  0.00     0.004 A 
ATOM     30  C   UNL A   1      35.120  30.656  27.720  1.00  0.00     0.000 A 
ATOM     31  C   UNL A   1      34.336  28.526  26.913  1.00  0.00     0.008 A 
ATOM     32  C   UNL A   1      35.340  29.306  27.496  1.00  0.00     0.001 A 
ENDBRANCH  19  26
ENDBRANCH  17  18
ENDBRANCH  14  17
ENDBRANCH   8  13
ENDBRANCH   4   7
ENDBRANCH   2   3
ENDBRANCH   1   2
BRANCH   1  33
ATOM     33  C   UNL A   1      36.823  23.431  24.923  1.00  0.00     0.002 C 
BRANCH  33  34
ATOM     34  C   UNL A   1      37.453  23.957  26.211  1.00  0.00     0.002 C 
BRANCH  34  35
ATOM     35  C   UNL A   1      38.972  24.067  26.240  1.00  0.00     0.021 C 
BRANCH  35  36
ATOM     36  C   UNL A   1      39.631  23.030  27.128  1.00  0.00     0.116 C 
BRANCH  36  37
ATOM     37  N   UNL A   1      40.208  21.865  26.470  1.00  0.00    -0.352 N 
ATOM     38  C   UNL A   1      41.548  21.548  26.282  1.00  0.00     0.251 C 
ATOM     39  H   UNL A   1      39.561  21.214  26.112  1.00  0.00     0.163 HD
ATOM     40  O   UNL A   1      41.852  20.549  25.634  1.00  0.00    -0.269 OA
BRANCH  38  41
ATOM     41  C   UNL A   1      42.610  22.299  27.015  1.00  0.00     0.039 A 
ATOM     42  C   UNL A   1      42.587  22.207  28.412  1.00  0.00     0.014 A 
ATOM     43  C   UNL A   1      43.236  23.378  26.413  1.00  0.00     0.014 A 
ATOM     44  C   UNL A   1      42.789  23.358  29.161  1.00  0.00     0.010 A 
ATOM     45  C   UNL A   1      43.239  24.560  27.107  1.00  0.00     0.010 A 
ATOM     46  C   UNL A   1      42.944  24.553  28.467  1.00  0.00    -0.014 A 
BRANCH  46  47
ATOM     47  C   UNL A   1      42.951  25.862  29.078  1.00  0.00     0.031 A 
ATOM     48  C   UNL A   1      41.732  26.651  28.906  1.00  0.00     0.074 A 
ATOM     49  C   UNL A   1      43.995  26.260  29.835  1.00  0.00     0.049 A 
ATOM     50  N   UNL A   1      41.698  27.932  28.885  1.00  0.00    -0.248 NA
ATOM     51  C   UNL A   1      40.435  26.030  28.642  1.00  0.00     0.031 C 
ATOM     52  C   UNL A   1      44.099  27.424  30.707  1.00  0.00     0.029 A 
ATOM     53  N   UNL A   1      45.286  25.754  29.795  1.00  0.00    -0.354 N 
ATOM     54  C   UNL A   1      40.372  28.291  28.946  1.00  0.00     0.074 A 
ATOM     55  C   UNL A   1      39.632  27.094  28.642  1.00  0.00     0.031 C 
ATOM     56  C   UNL A   1      45.402  27.700  30.908  1.00  0.00     0.029 A 
ATOM     57  C   UNL A   1      46.175  26.810  30.059  1.00  0.00     0.049 A 
ATOM     58  H   UNL A   1      45.537  24.820  29.613  1.00  0.00     0.167 HD
ATOM     59  C   UNL A   1      40.063  29.521  29.435  1.00  0.00     0.031 A 
ATOM     60  C   UNL A   1      47.034  27.217  29.075  1.00  0.00     0.031 A 
ATOM     61  C   UNL A   1      41.289  30.283  29.702  1.00  0.00     0.049 A 
ATOM     62  C   UNL A   1      46.669  28.570  28.501  1.00  0.00     0.074 A 
ATOM     63  C   UNL A   1      42.013  30.518  30.860  1.00  0.00     0.029 A 
ATOM     64  N   UNL A   1      42.158  30.550  28.647  1.00  0.00    -0.354 N 
ATOM     65  N   UNL A   1      45.557  29.210  28.745  1.00  0.00    -0.248 NA
ATOM     66  C   UNL A   1      47.529  29.290  27.574  1.00  0.00     0.031 C 
ATOM     67  C   UNL A   1      43.342  30.878  30.485  1.00  0.00     0.029 A 
ATOM     68  C   UNL A   1      43.416  30.910  29.103  1.00  0.00     0.049 A 
ATOM     69  H   UNL A   1      41.910  30.490  27.697  1.00  0.00     0.167 HD
ATOM     70  C   UNL A   1      45.527  30.393  28.051  1.00  0.00     0.074 A 
ATOM     71  C   UNL A   1      46.788  30.382  27.321  1.00  0.00     0.031 C 
ATOM     72  C   UNL A   1      44.465  31.259  28.137  1.00  0.00     0.031 A 
BRANCH  59  73
ATOM     73  C   UNL A   1      38.692  29.889  29.957  1.00  0.00    -0.014 A 
ATOM     74  C   UNL A   1      38.270  31.227  29.879  1.00  0.00     0.009 A 
ATOM     75  C   UNL A   1      37.796  29.003  30.586  1.00  0.00     0.009 A 
ATOM     76  C   UNL A   1      37.066  31.662  30.453  1.00  0.00     0.001 A 
ATOM     77  C   UNL A   1      36.603  29.434  31.185  1.00  0.00     0.001 A 
ATOM     78  C   UNL A   1      36.241  30.769  31.123  1.00  0.00     0.000 A 
ENDBRANCH  59  73
BRANCH  60  79
ATOM     79  C   UNL A   1      47.575  26.048  28.304  1.00  0.00    -0.014 A 
ATOM     80  C   UNL A   1      47.029  25.863  27.014  1.00  0.00     0.009 A 
ATOM     81  C   UNL A   1      48.879  25.597  28.550  1.00  0.00     0.009 A 
ATOM     82  C   UNL A   1      47.862  25.549  25.939  1.00  0.00     0.001 A 
ATOM     83  C   UNL A   1      49.690  25.223  27.471  1.00  0.00     0.001 A 
ATOM     84  C   UNL A   1      49.209  25.289  26.162  1.00  0.00     0.000 A 
ENDBRANCH  60  79
BRANCH  72  85
ATOM     85  C   UNL A   1      44.265  32.539  27.334  1.00  0.00    -0.014 A 
ATOM     86  C   UNL A   1      44.307  32.643  25.941  1.00  0.00     0.009 A 
ATOM     87  C   UNL A   1      44.014  33.754  28.020  1.00  0.00     0.009 A 
ATOM     88  C   UNL A   1      44.039  33.849  25.275  1.00  0.00     0.001 A 
ATOM     89  C   UNL A   1      43.735  34.957  27.369  1.00  0.00     0.001 A 
ATOM     90  C   UNL A   1      43.734  35.001  25.987  1.00  0.00     0.000 A 
ENDBRANCH  72  85
ENDBRANCH  46  47
ENDBRANCH  38  41
ENDBRANCH  36  37
ENDBRANCH  35  36
ENDBRANCH  34  35
ENDBRANCH  33  34
ENDBRANCH   1  33
TORSDOF 17
ENDMDL
MODEL 2
REMARK VINA RESULT:     -12.4      3.447      8.901
REMARK SMILES Cc1ccccc1/C=C1\SC(=O)N(CC(=O)Nc2ccccc2C(=O)NCCCCCCNC(=O)c2ccc(-c3c4nc(c(-c5ccccc5)c5ccc([nH]5)c(-c5ccccc5)c5nc(c(-c6ccccc6)c6ccc3[nH]6)C=C5)C=C4)cc2)C1=O
REMARK SMILES IDX 28 1 27 2 26 3 24 4 25 5 23 7 18 8 19 9 20 10 22 11 21 12
REMARK SMILES IDX 17 13 15 14 16 15 14 17 13 18 8 19 9 20 10 21 84 22 11 23
REMARK SMILES IDX 85 24 12 25 7 26 1 27 2 28 3 29 4 30 6 31 5 32 29 33 30 34
REMARK SMILES IDX 31 35 32 36 33 37 34 38 35 40 36 41 37 42 83 43 38 44 82 45
REMARK SMILES IDX 39 46 40 47 41 48 76 49 42 50 81 51 75 52 77 53 43 54 80 55
REMARK SMILES IDX 74 56 73 57 44 59 66 60 51 61 65 62 52 63 55 64 64 65 78 66
REMARK SMILES IDX 53 67 54 68 63 70 79 71 56 72 45 73 46 74 50 75 47 76 49 77
REMARK SMILES IDX 48 78 67 79 68 80 72 81 69 82 71 83 70 84 57 85 58 86 62 87
REMARK SMILES IDX 59 88 61 89 60 90
REMARK H PARENT 26 6 17 16 33 39 77 58 55 69
REMARK Flexibility Score: inf
ROOT
ATOM      1  C   UNL A   1      32.895  28.711  25.204  1.00  0.00     0.021 C 
ENDROOT
BRANCH   1   2
ATOM      2  C   UNL A   1      33.344  27.281  24.903  1.00  0.00     0.116 C 
BRANCH   2   3
ATOM      3  N   UNL A   1      33.212  26.790  23.538  1.00  0.00    -0.352 N 
ATOM      4  C   UNL A   1      32.145  26.782  22.653  1.00  0.00     0.253 C 
ATOM      5  O   UNL A   1      32.367  26.505  21.478  1.00  0.00    -0.269 OA
ATOM      6  H   UNL A   1      34.035  26.390  23.175  1.00  0.00     0.163 HD
BRANCH   4   7
ATOM      7  C   UNL A   1      30.757  27.099  23.066  1.00  0.00     0.063 A 
ATOM      8  C   UNL A   1      29.856  26.166  23.625  1.00  0.00     0.054 A 
ATOM      9  C   UNL A   1      28.521  26.574  23.841  1.00  0.00     0.027 A 
ATOM     10  C   UNL A   1      28.075  27.860  23.533  1.00  0.00     0.002 A 
ATOM     11  C   UNL A   1      30.242  28.342  22.635  1.00  0.00     0.016 A 
ATOM     12  C   UNL A   1      28.935  28.742  22.908  1.00  0.00     0.001 A 
BRANCH   8  13
ATOM     13  N   UNL A   1      30.029  24.780  23.809  1.00  0.00    -0.324 N 
ATOM     14  C   UNL A   1      30.887  23.945  24.451  1.00  0.00     0.244 C 
ATOM     15  O   UNL A   1      30.752  22.736  24.210  1.00  0.00    -0.273 OA
ATOM     16  H   UNL A   1      29.328  24.271  23.340  1.00  0.00     0.170 HD
BRANCH  14  17
ATOM     17  C   UNL A   1      31.799  24.383  25.583  1.00  0.00     0.230 C 
BRANCH  17  18
ATOM     18  N   UNL A   1      33.041  23.680  25.779  1.00  0.00    -0.259 N 
ATOM     19  C   UNL A   1      36.461  23.214  25.064  1.00  0.00     0.029 C 
ATOM     20  C   UNL A   1      35.208  22.883  25.420  1.00  0.00     0.083 C 
ATOM     21  S   UNL A   1      34.670  21.990  26.774  1.00  0.00    -0.022 SA
ATOM     22  C   UNL A   1      34.015  23.550  24.806  1.00  0.00     0.268 C 
ATOM     23  C   UNL A   1      33.170  22.866  26.862  1.00  0.00     0.294 C 
ATOM     24  O   UNL A   1      33.951  23.894  23.640  1.00  0.00    -0.268 OA
ATOM     25  O   UNL A   1      32.367  22.707  27.779  1.00  0.00    -0.261 OA
BRANCH  19  26
ATOM     26  C   UNL A   1      37.747  23.030  25.791  1.00  0.00    -0.021 A 
ATOM     27  C   UNL A   1      38.312  20.622  25.066  1.00  0.00     0.045 C 
ATOM     28  C   UNL A   1      38.582  21.894  25.818  1.00  0.00    -0.044 A 
ATOM     29  C   UNL A   1      39.728  21.894  26.648  1.00  0.00     0.004 A 
ATOM     30  C   UNL A   1      40.085  23.007  27.403  1.00  0.00     0.000 A 
ATOM     31  C   UNL A   1      38.151  24.157  26.543  1.00  0.00     0.008 A 
ATOM     32  C   UNL A   1      39.304  24.150  27.337  1.00  0.00     0.001 A 
ENDBRANCH  19  26
ENDBRANCH  17  18
ENDBRANCH  14  17
ENDBRANCH   8  13
ENDBRANCH   4   7
ENDBRANCH   2   3
ENDBRANCH   1   2
BRANCH   1  33
ATOM     33  C   UNL A   1      33.708  29.642  26.111  1.00  0.00     0.002 C 
BRANCH  33  34
ATOM     34  C   UNL A   1      34.913  29.081  26.866  1.00  0.00     0.002 C 
BRANCH  34  35
ATOM     35  C   UNL A   1      35.263  29.743  28.192  1.00  0.00     0.021 C 
BRANCH  35  36
ATOM     36  C   UNL A   1      35.640  31.204  28.051  1.00  0.00     0.116 C 
BRANCH  36  37
ATOM     37  N   UNL A   1      34.620  32.188  28.393  1.00  0.00    -0.352 N 
ATOM     38  C   UNL A   1      34.631  33.133  29.412  1.00  0.00     0.251 C 
ATOM     39  H   UNL A   1      33.816  32.182  27.825  1.00  0.00     0.163 HD
ATOM     40  O   UNL A   1      33.642  33.838  29.599  1.00  0.00    -0.269 OA
BRANCH  38  41
ATOM     41  C   UNL A   1      35.894  33.427  30.153  1.00  0.00     0.039 A 
ATOM     42  C   UNL A   1      36.916  34.044  29.421  1.00  0.00     0.014 A 
ATOM     43  C   UNL A   1      36.210  32.710  31.295  1.00  0.00     0.014 A 
ATOM     44  C   UNL A   1      38.219  33.590  29.580  1.00  0.00     0.010 A 
ATOM     45  C   UNL A   1      37.440  32.106  31.328  1.00  0.00     0.010 A 
ATOM     46  C   UNL A   1      38.418  32.501  30.420  1.00  0.00    -0.014 A 
BRANCH  46  47
ATOM     47  C   UNL A   1      39.659  31.771  30.537  1.00  0.00     0.031 A 
ATOM     48  C   UNL A   1      39.699  30.473  29.864  1.00  0.00     0.074 A 
ATOM     49  C   UNL A   1      40.725  32.324  31.153  1.00  0.00     0.049 A 
ATOM     50  N   UNL A   1      40.423  29.485  30.243  1.00  0.00    -0.248 NA
ATOM     51  C   UNL A   1      38.827  30.155  28.735  1.00  0.00     0.031 C 
ATOM     52  C   UNL A   1      42.107  31.859  31.179  1.00  0.00     0.029 A 
ATOM     53  N   UNL A   1      40.702  33.360  32.074  1.00  0.00    -0.354 N 
ATOM     54  C   UNL A   1      40.369  28.550  29.237  1.00  0.00     0.074 A 
ATOM     55  C   UNL A   1      39.259  28.938  28.406  1.00  0.00     0.031 C 
ATOM     56  C   UNL A   1      42.731  32.413  32.236  1.00  0.00     0.029 A 
ATOM     57  C   UNL A   1      41.733  33.139  33.003  1.00  0.00     0.049 A 
ATOM     58  H   UNL A   1      40.074  34.118  32.079  1.00  0.00     0.167 HD
ATOM     59  C   UNL A   1      41.395  27.664  29.129  1.00  0.00     0.031 A 
ATOM     60  C   UNL A   1      41.409  32.882  34.307  1.00  0.00     0.031 A 
ATOM     61  C   UNL A   1      42.336  27.840  30.242  1.00  0.00     0.049 A 
ATOM     62  C   UNL A   1      41.667  31.443  34.702  1.00  0.00     0.074 A 
ATOM     63  C   UNL A   1      43.543  28.512  30.352  1.00  0.00     0.029 A 
ATOM     64  N   UNL A   1      41.876  27.664  31.545  1.00  0.00    -0.354 N 
ATOM     65  N   UNL A   1      41.969  30.482  33.871  1.00  0.00    -0.248 NA
ATOM     66  C   UNL A   1      41.570  30.975  36.077  1.00  0.00     0.031 C 
ATOM     67  C   UNL A   1      43.774  28.783  31.733  1.00  0.00     0.029 A 
ATOM     68  C   UNL A   1      42.737  28.235  32.469  1.00  0.00     0.049 A 
ATOM     69  H   UNL A   1      41.044  27.194  31.780  1.00  0.00     0.167 HD
ATOM     70  C   UNL A   1      42.114  29.297  34.547  1.00  0.00     0.074 A 
ATOM     71  C   UNL A   1      41.837  29.666  35.929  1.00  0.00     0.031 C 
ATOM     72  C   UNL A   1      42.437  28.129  33.902  1.00  0.00     0.031 A 
BRANCH  59  73
ATOM     73  C   UNL A   1      41.693  26.885  27.868  1.00  0.00    -0.014 A 
ATOM     74  C   UNL A   1      42.579  25.796  27.932  1.00  0.00     0.009 A 
ATOM     75  C   UNL A   1      41.198  27.193  26.586  1.00  0.00     0.009 A 
ATOM     76  C   UNL A   1      42.996  25.107  26.784  1.00  0.00     0.001 A 
ATOM     77  C   UNL A   1      41.630  26.526  25.429  1.00  0.00     0.001 A 
ATOM     78  C   UNL A   1      42.536  25.484  25.529  1.00  0.00     0.000 A 
ENDBRANCH  59  73
BRANCH  60  79
ATOM     79  C   UNL A   1      40.254  33.728  34.760  1.00  0.00    -0.014 A 
ATOM     80  C   UNL A   1      38.973  33.161  34.573  1.00  0.00     0.009 A 
ATOM     81  C   UNL A   1      40.433  34.649  35.800  1.00  0.00     0.009 A 
ATOM     82  C   UNL A   1      38.011  33.256  35.582  1.00  0.00     0.001 A 
ATOM     83  C   UNL A   1      39.437  34.786  36.774  1.00  0.00     0.001 A 
ATOM     84  C   UNL A   1      38.270  34.021  36.713  1.00  0.00     0.000 A 
ENDBRANCH  60  79
BRANCH  72  85
ATOM     85  C   UNL A   1      42.514  26.737  34.520  1.00  0.00    -0.014 A 
ATOM     86  C   UNL A   1      41.452  26.048  35.113  1.00  0.00     0.009 A 
ATOM     87  C   UNL A   1      43.751  26.047  34.519  1.00  0.00     0.009 A 
ATOM     88  C   UNL A   1      41.591  24.737  35.595  1.00  0.00     0.001 A 
ATOM     89  C   UNL A   1      43.900  24.739  34.984  1.00  0.00     0.001 A 
ATOM     90  C   UNL A   1      42.808  24.075  35.513  1.00  0.00     0.000 A 
ENDBRANCH  72  85
ENDBRANCH  46  47
ENDBRANCH  38  41
ENDBRANCH  36  37
ENDBRANCH  35  36
ENDBRANCH  34  35
ENDBRANCH  33  34
ENDBRANCH   1  33
TORSDOF 17
ENDMDL
MODEL 3
REMARK VINA RESULT:     -12.3      1.613      2.420
REMARK SMILES Cc1ccccc1/C=C1\SC(=O)N(CC(=O)Nc2ccccc2C(=O)NCCCCCCNC(=O)c2ccc(-c3c4nc(c(-c5ccccc5)c5ccc([nH]5)c(-c5ccccc5)c5nc(c(-c6ccccc6)c6ccc3[nH]6)C=C5)C=C4)cc2)C1=O
REMARK SMILES IDX 28 1 27 2 26 3 24 4 25 5 23 7 18 8 19 9 20 10 22 11 21 12
REMARK SMILES IDX 17 13 15 14 16 15 14 17 13 18 8 19 9 20 10 21 84 22 11 23
REMARK SMILES IDX 85 24 12 25 7 26 1 27 2 28 3 29 4 30 6 31 5 32 29 33 30 34
REMARK SMILES IDX 31 35 32 36 33 37 34 38 35 40 36 41 37 42 83 43 38 44 82 45
REMARK SMILES IDX 39 46 40 47 41 48 76 49 42 50 81 51 75 52 77 53 43 54 80 55
REMARK SMILES IDX 74 56 73 57 44 59 66 60 51 61 65 62 52 63 55 64 64 65 78 66
REMARK SMILES IDX 53 67 54 68 63 70 79 71 56 72 45 73 46 74 50 75 47 76 49 77
REMARK SMILES IDX 48 78 67 79 68 80 72 81 69 82 71 83 70 84 57 85 58 86 62 87
REMARK SMILES IDX 59 88 61 89 60 90
REMARK H PARENT 26 6 17 16 33 39 77 58 55 69
REMARK Flexibility Score: inf
ROOT
ATOM      1  C   UNL A   1      39.721  21.512  25.789  1.00  0.00     0.021 C 
ENDROOT
BRANCH   1   2
ATOM      2  C   UNL A   1      38.194  21.572  25.740  1.00  0.00     0.116 C 
BRANCH   2   3
ATOM      3  N   UNL A   1      37.566  22.817  25.318  1.00  0.00    -0.352 N 
ATOM      4  C   UNL A   1      36.238  23.204  25.231  1.00  0.00     0.253 C 
ATOM      5  O   UNL A   1      35.990  24.393  25.053  1.00  0.00    -0.269 OA
ATOM      6  H   UNL A   1      38.205  23.514  25.043  1.00  0.00     0.163 HD
BRANCH   4   7
ATOM      7  C   UNL A   1      35.113  22.246  25.351  1.00  0.00     0.063 A 
ATOM      8  C   UNL A   1      34.228  21.917  24.302  1.00  0.00     0.054 A 
ATOM      9  C   UNL A   1      33.117  21.095  24.598  1.00  0.00     0.027 A 
ATOM     10  C   UNL A   1      32.879  20.597  25.879  1.00  0.00     0.002 A 
ATOM     11  C   UNL A   1      34.768  21.843  26.661  1.00  0.00     0.016 A 
ATOM     12  C   UNL A   1      33.698  20.989  26.921  1.00  0.00     0.001 A 
BRANCH   8  13
ATOM     13  N   UNL A   1      34.154  22.471  23.008  1.00  0.00    -0.324 N 
ATOM     14  C   UNL A   1      33.266  23.180  22.262  1.00  0.00     0.244 C 
ATOM     15  O   UNL A   1      33.561  23.332  21.068  1.00  0.00    -0.273 OA
ATOM     16  H   UNL A   1      34.980  22.296  22.501  1.00  0.00     0.170 HD
BRANCH  14  17
ATOM     17  C   UNL A   1      32.108  23.964  22.851  1.00  0.00     0.230 C 
BRANCH  17  18
ATOM     18  N   UNL A   1      32.394  25.002  23.808  1.00  0.00    -0.259 N 
ATOM     19  C   UNL A   1      33.293  28.324  24.569  1.00  0.00     0.029 C 
ATOM     20  C   UNL A   1      33.192  26.994  24.734  1.00  0.00     0.083 C 
ATOM     21  S   UNL A   1      32.646  26.111  26.090  1.00  0.00    -0.022 SA
ATOM     22  C   UNL A   1      33.261  26.052  23.569  1.00  0.00     0.268 C 
ATOM     23  C   UNL A   1      32.025  24.819  25.105  1.00  0.00     0.294 C 
ATOM     24  O   UNL A   1      33.981  26.216  22.601  1.00  0.00    -0.268 OA
ATOM     25  O   UNL A   1      31.380  23.883  25.575  1.00  0.00    -0.261 OA
BRANCH  19  26
ATOM     26  C   UNL A   1      32.844  29.437  25.449  1.00  0.00    -0.021 A 
ATOM     27  C   UNL A   1      30.538  29.914  24.400  1.00  0.00     0.045 C 
ATOM     28  C   UNL A   1      31.637  30.164  25.393  1.00  0.00    -0.044 A 
ATOM     29  C   UNL A   1      31.439  31.252  26.277  1.00  0.00     0.004 A 
ATOM     30  C   UNL A   1      32.384  31.595  27.239  1.00  0.00     0.000 A 
ATOM     31  C   UNL A   1      33.772  29.788  26.457  1.00  0.00     0.008 A 
ATOM     32  C   UNL A   1      33.547  30.849  27.341  1.00  0.00     0.001 A 
ENDBRANCH  19  26
ENDBRANCH  17  18
ENDBRANCH  14  17
ENDBRANCH   8  13
ENDBRANCH   4   7
ENDBRANCH   2   3
ENDBRANCH   1   2
BRANCH   1  33
ATOM     33  C   UNL A   1      40.464  20.496  26.663  1.00  0.00     0.002 C 
BRANCH  33  34
ATOM     34  C   UNL A   1      41.089  19.265  26.008  1.00  0.00     0.002 C 
BRANCH  34  35
ATOM     35  C   UNL A   1      42.553  18.985  26.323  1.00  0.00     0.021 C 
BRANCH  35  36
ATOM     36  C   UNL A   1      43.467  19.161  25.127  1.00  0.00     0.116 C 
BRANCH  36  37
ATOM     37  N   UNL A   1      44.761  19.787  25.368  1.00  0.00    -0.352 N 
ATOM     38  C   UNL A   1      45.058  21.136  25.523  1.00  0.00     0.251 C 
ATOM     39  H   UNL A   1      45.527  19.171  25.428  1.00  0.00     0.163 HD
ATOM     40  O   UNL A   1      46.228  21.491  25.647  1.00  0.00    -0.269 OA
BRANCH  38  41
ATOM     41  C   UNL A   1      43.963  22.129  25.732  1.00  0.00     0.039 A 
ATOM     42  C   UNL A   1      44.018  23.291  24.952  1.00  0.00     0.014 A 
ATOM     43  C   UNL A   1      43.256  22.141  26.923  1.00  0.00     0.014 A 
ATOM     44  C   UNL A   1      43.755  24.514  25.555  1.00  0.00     0.010 A 
ATOM     45  C   UNL A   1      43.189  23.334  27.593  1.00  0.00     0.010 A 
ATOM     46  C   UNL A   1      43.508  24.512  26.923  1.00  0.00    -0.014 A 
BRANCH  46  47
ATOM     47  C   UNL A   1      43.426  25.697  27.744  1.00  0.00     0.031 A 
ATOM     48  C   UNL A   1      42.141  26.396  27.726  1.00  0.00     0.074 A 
ATOM     49  C   UNL A   1      44.456  26.054  28.540  1.00  0.00     0.049 A 
ATOM     50  N   UNL A   1      42.001  27.655  27.920  1.00  0.00    -0.248 NA
ATOM     51  C   UNL A   1      40.892  25.717  27.384  1.00  0.00     0.031 C 
ATOM     52  C   UNL A   1      44.491  27.062  29.592  1.00  0.00     0.029 A 
ATOM     53  N   UNL A   1      45.783  25.675  28.394  1.00  0.00    -0.354 N 
ATOM     54  C   UNL A   1      40.653  27.883  28.062  1.00  0.00     0.074 A 
ATOM     55  C   UNL A   1      40.005  26.694  27.574  1.00  0.00     0.031 C 
ATOM     56  C   UNL A   1      45.772  27.413  29.815  1.00  0.00     0.029 A 
ATOM     57  C   UNL A   1      46.589  26.745  28.816  1.00  0.00     0.049 A 
ATOM     58  H   UNL A   1      46.104  24.809  28.054  1.00  0.00     0.167 HD
ATOM     59  C   UNL A   1      40.258  28.985  28.755  1.00  0.00     0.031 A 
ATOM     60  C   UNL A   1      47.382  27.382  27.900  1.00  0.00     0.031 A 
ATOM     61  C   UNL A   1      41.425  29.795  29.126  1.00  0.00     0.049 A 
ATOM     62  C   UNL A   1      46.889  28.774  27.566  1.00  0.00     0.074 A 
ATOM     63  C   UNL A   1      42.163  29.897  30.294  1.00  0.00     0.029 A 
ATOM     64  N   UNL A   1      42.236  30.306  28.115  1.00  0.00    -0.354 N 
ATOM     65  N   UNL A   1      45.736  29.267  27.932  1.00  0.00    -0.248 NA
ATOM     66  C   UNL A   1      47.658  29.709  26.759  1.00  0.00     0.031 C 
ATOM     67  C   UNL A   1      43.445  30.427  29.963  1.00  0.00     0.029 A 
ATOM     68  C   UNL A   1      43.474  30.694  28.605  1.00  0.00     0.049 A 
ATOM     69  H   UNL A   1      41.965  30.383  27.173  1.00  0.00     0.167 HD
ATOM     70  C   UNL A   1      45.588  30.542  27.446  1.00  0.00     0.074 A 
ATOM     71  C   UNL A   1      46.822  30.760  26.704  1.00  0.00     0.031 C 
ATOM     72  C   UNL A   1      44.461  31.286  27.693  1.00  0.00     0.031 A 
BRANCH  59  73
ATOM     73  C   UNL A   1      38.879  29.142  29.353  1.00  0.00    -0.014 A 
ATOM     74  C   UNL A   1      37.805  29.479  28.512  1.00  0.00     0.009 A 
ATOM     75  C   UNL A   1      38.570  29.039  30.723  1.00  0.00     0.009 A 
ATOM     76  C   UNL A   1      36.526  29.761  29.014  1.00  0.00     0.001 A 
ATOM     77  C   UNL A   1      37.301  29.346  31.237  1.00  0.00     0.001 A 
ATOM     78  C   UNL A   1      36.278  29.714  30.379  1.00  0.00     0.000 A 
ENDBRANCH  59  73
BRANCH  60  79
ATOM     79  C   UNL A   1      47.993  26.407  26.936  1.00  0.00    -0.014 A 
ATOM     80  C   UNL A   1      47.550  26.514  25.598  1.00  0.00     0.009 A 
ATOM     81  C   UNL A   1      49.278  25.905  27.177  1.00  0.00     0.009 A 
ATOM     82  C   UNL A   1      48.468  26.438  24.548  1.00  0.00     0.001 A 
ATOM     83  C   UNL A   1      50.174  25.771  26.110  1.00  0.00     0.001 A 
ATOM     84  C   UNL A   1      49.796  26.127  24.814  1.00  0.00     0.000 A 
ENDBRANCH  60  79
BRANCH  72  85
ATOM     85  C   UNL A   1      44.131  32.659  27.119  1.00  0.00    -0.014 A 
ATOM     86  C   UNL A   1      44.125  32.996  25.763  1.00  0.00     0.009 A 
ATOM     87  C   UNL A   1      43.799  33.717  28.002  1.00  0.00     0.009 A 
ATOM     88  C   UNL A   1      43.738  34.268  25.312  1.00  0.00     0.001 A 
ATOM     89  C   UNL A   1      43.402  34.982  27.566  1.00  0.00     0.001 A 
ATOM     90  C   UNL A   1      43.359  35.254  26.211  1.00  0.00     0.000 A 
ENDBRANCH  72  85
ENDBRANCH  46  47
ENDBRANCH  38  41
ENDBRANCH  36  37
ENDBRANCH  35  36
ENDBRANCH  34  35
ENDBRANCH  33  34
ENDBRANCH   1  33
TORSDOF 17
ENDMDL
