MODEL 1
REMARK VINA RESULT:     -11.0      0.000      0.000
REMARK SMILES C[NH2+][C@@]1(C(=O)NCCCCCCNC(=O)c2ccc(-c3c4nc(c(-c5ccccc5)c5ccc([nH]5)c(-c5ccccc5)c5nc(c(-c6ccccc6)c6ccc3[nH]6)C=C5)C=C4)cc2)CCC[C@H](Oc2cccc(OC)c2)C1
REMARK SMILES IDX 9 1 8 2 7 3 6 4 4 5 5 6 3 8 64 9 77 10 65 11 67 12 66 13
REMARK SMILES IDX 2 14 1 15 68 18 69 19 70 20 76 21 71 22 73 23 72 24 74 25
REMARK SMILES IDX 75 26 10 27 11 28 12 29 13 30 14 31 15 33 16 34 17 35 63 36
REMARK SMILES IDX 18 37 62 38 19 39 20 40 21 41 56 42 22 43 61 44 55 45 57 46
REMARK SMILES IDX 23 47 60 48 54 49 53 50 24 52 46 53 31 54 45 55 32 56 35 57
REMARK SMILES IDX 44 58 58 59 33 60 34 61 43 63 59 64 36 65 25 66 26 67 30 68
REMARK SMILES IDX 27 69 29 70 28 71 47 72 48 73 52 74 49 75 51 76 50 77 37 78
REMARK SMILES IDX 38 79 42 80 39 81 41 82 40 83
REMARK H PARENT 6 7 2 16 2 17 13 32 57 51 35 62
REMARK Flexibility Score: inf
ROOT
ATOM      1  C   UNL A   1      36.688  21.803  23.998  1.00  0.00     0.002 C 
ENDROOT
BRANCH   1   2
ATOM      2  C   UNL A   1      36.491  23.225  24.518  1.00  0.00     0.021 C 
BRANCH   2   3
ATOM      3  C   UNL A   1      36.433  23.449  26.035  1.00  0.00     0.116 C 
BRANCH   3   4
ATOM      4  N   UNL A   1      35.267  22.769  26.613  1.00  0.00    -0.351 N 
ATOM      5  C   UNL A   1      34.029  23.205  26.998  1.00  0.00     0.281 C 
ATOM      6  O   UNL A   1      33.633  22.690  28.056  1.00  0.00    -0.268 OA
ATOM      7  H   UNL A   1      35.404  21.804  26.750  1.00  0.00     0.163 HD
BRANCH   5   8
ATOM      8  C   UNL A   1      33.080  24.168  26.158  1.00  0.00     0.178 C 
ATOM      9  C   UNL A   1      31.775  24.601  26.851  1.00  0.00     0.079 C 
ATOM     10  C   UNL A   1      32.765  23.533  24.778  1.00  0.00     0.124 C 
ATOM     11  C   UNL A   1      30.515  23.859  26.402  1.00  0.00     0.011 C 
ATOM     12  C   UNL A   1      31.904  22.271  24.863  1.00  0.00     0.180 C 
ATOM     13  C   UNL A   1      30.697  22.472  25.791  1.00  0.00     0.046 C 
BRANCH   8  14
ATOM     14  N   UNL A   1      33.806  25.434  25.764  1.00  0.00    -0.336 N 
ATOM     15  C   UNL A   1      33.793  25.839  24.371  1.00  0.00     0.331 C 
ATOM     16  H   UNL A   1      33.393  26.197  26.302  1.00  0.00     0.346 HD
ATOM     17  H   UNL A   1      34.787  25.228  25.953  1.00  0.00     0.346 HD
ENDBRANCH   8  14
BRANCH  12  18
ATOM     18  O   UNL A   1      32.788  21.224  25.288  1.00  0.00    -0.490 OA
BRANCH  18  19
ATOM     19  C   UNL A   1      32.867  20.022  24.650  1.00  0.00     0.123 A 
ATOM     20  C   UNL A   1      32.456  19.756  23.348  1.00  0.00     0.047 A 
ATOM     21  C   UNL A   1      33.294  18.965  25.473  1.00  0.00     0.092 A 
ATOM     22  C   UNL A   1      32.411  18.437  22.891  1.00  0.00     0.008 A 
ATOM     23  C   UNL A   1      33.223  17.648  25.027  1.00  0.00     0.122 A 
ATOM     24  C   UNL A   1      32.792  17.388  23.729  1.00  0.00     0.046 A 
BRANCH  23  25
ATOM     25  O   UNL A   1      33.579  16.555  25.767  1.00  0.00    -0.497 OA
ATOM     26  C   UNL A   1      34.714  15.846  25.273  1.00  0.00     0.278 C 
ENDBRANCH  23  25
ENDBRANCH  18  19
ENDBRANCH  12  18
ENDBRANCH   5   8
ENDBRANCH   3   4
ENDBRANCH   2   3
ENDBRANCH   1   2
BRANCH   1  27
ATOM     27  C   UNL A   1      36.940  20.718  25.040  1.00  0.00     0.002 C 
BRANCH  27  28
ATOM     28  C   UNL A   1      38.157  19.806  24.840  1.00  0.00     0.021 C 
BRANCH  28  29
ATOM     29  C   UNL A   1      39.383  19.956  25.752  1.00  0.00     0.116 C 
BRANCH  29  30
ATOM     30  N   UNL A   1      40.343  18.868  25.742  1.00  0.00    -0.352 N 
ATOM     31  C   UNL A   1      41.669  18.902  26.120  1.00  0.00     0.251 C 
ATOM     32  H   UNL A   1      40.006  17.998  25.428  1.00  0.00     0.163 HD
ATOM     33  O   UNL A   1      42.348  17.878  26.123  1.00  0.00    -0.269 OA
BRANCH  31  34
ATOM     34  C   UNL A   1      42.298  20.193  26.472  1.00  0.00     0.039 A 
ATOM     35  C   UNL A   1      42.903  20.942  25.459  1.00  0.00     0.014 A 
ATOM     36  C   UNL A   1      42.264  20.682  27.780  1.00  0.00     0.014 A 
ATOM     37  C   UNL A   1      43.394  22.221  25.739  1.00  0.00     0.010 A 
ATOM     38  C   UNL A   1      42.725  21.973  28.053  1.00  0.00     0.010 A 
ATOM     39  C   UNL A   1      43.269  22.765  27.030  1.00  0.00    -0.014 A 
BRANCH  39  40
ATOM     40  C   UNL A   1      43.619  24.187  27.289  1.00  0.00     0.031 A 
ATOM     41  C   UNL A   1      45.024  24.691  27.117  1.00  0.00     0.074 A 
ATOM     42  C   UNL A   1      42.665  25.025  27.744  1.00  0.00     0.049 A 
ATOM     43  N   UNL A   1      45.492  25.902  27.301  1.00  0.00    -0.248 NA
ATOM     44  C   UNL A   1      46.037  23.709  26.702  1.00  0.00     0.031 C 
ATOM     45  C   UNL A   1      41.272  24.657  28.004  1.00  0.00     0.029 A 
ATOM     46  N   UNL A   1      42.724  26.357  28.071  1.00  0.00    -0.354 N 
ATOM     47  C   UNL A   1      46.852  25.828  27.028  1.00  0.00     0.074 A 
ATOM     48  C   UNL A   1      47.140  24.446  26.708  1.00  0.00     0.031 C 
ATOM     49  C   UNL A   1      40.604  25.742  28.426  1.00  0.00     0.029 A 
ATOM     50  C   UNL A   1      41.523  26.874  28.491  1.00  0.00     0.049 A 
ATOM     51  H   UNL A   1      43.549  26.891  28.009  1.00  0.00     0.167 HD
ATOM     52  C   UNL A   1      47.775  26.821  27.029  1.00  0.00     0.031 A 
ATOM     53  C   UNL A   1      41.191  28.120  28.883  1.00  0.00     0.031 A 
ATOM     54  C   UNL A   1      47.498  28.198  27.349  1.00  0.00     0.049 A 
ATOM     55  C   UNL A   1      42.234  29.201  28.880  1.00  0.00     0.074 A 
ATOM     56  C   UNL A   1      48.361  29.280  27.322  1.00  0.00     0.029 A 
ATOM     57  N   UNL A   1      46.266  28.681  27.762  1.00  0.00    -0.354 N 
ATOM     58  N   UNL A   1      43.497  29.130  28.540  1.00  0.00    -0.248 NA
ATOM     59  C   UNL A   1      41.798  30.541  29.303  1.00  0.00     0.031 C 
ATOM     60  C   UNL A   1      47.663  30.411  27.759  1.00  0.00     0.029 A 
ATOM     61  C   UNL A   1      46.353  30.041  28.014  1.00  0.00     0.049 A 
ATOM     62  H   UNL A   1      45.451  28.139  27.862  1.00  0.00     0.167 HD
ATOM     63  C   UNL A   1      44.000  30.416  28.681  1.00  0.00     0.074 A 
ATOM     64  C   UNL A   1      42.903  31.252  29.125  1.00  0.00     0.031 C 
ATOM     65  C   UNL A   1      45.259  30.864  28.458  1.00  0.00     0.031 A 
BRANCH  52  66
ATOM     66  C   UNL A   1      49.186  26.449  26.672  1.00  0.00    -0.014 A 
ATOM     67  C   UNL A   1      50.027  25.821  27.605  1.00  0.00     0.009 A 
ATOM     68  C   UNL A   1      49.669  26.689  25.376  1.00  0.00     0.009 A 
ATOM     69  C   UNL A   1      51.335  25.475  27.259  1.00  0.00     0.001 A 
ATOM     70  C   UNL A   1      50.969  26.319  25.025  1.00  0.00     0.001 A 
ATOM     71  C   UNL A   1      51.803  25.721  25.969  1.00  0.00     0.000 A 
ENDBRANCH  52  66
BRANCH  53  72
ATOM     72  C   UNL A   1      39.795  28.424  29.285  1.00  0.00    -0.014 A 
ATOM     73  C   UNL A   1      38.881  28.929  28.349  1.00  0.00     0.009 A 
ATOM     74  C   UNL A   1      39.371  28.216  30.607  1.00  0.00     0.009 A 
ATOM     75  C   UNL A   1      37.577  29.246  28.734  1.00  0.00     0.001 A 
ATOM     76  C   UNL A   1      38.060  28.511  30.982  1.00  0.00     0.001 A 
ATOM     77  C   UNL A   1      37.166  29.034  30.049  1.00  0.00     0.000 A 
ENDBRANCH  53  72
BRANCH  65  78
ATOM     78  C   UNL A   1      45.513  32.330  28.666  1.00  0.00    -0.014 A 
ATOM     79  C   UNL A   1      45.961  32.824  29.901  1.00  0.00     0.009 A 
ATOM     80  C   UNL A   1      45.334  33.225  27.600  1.00  0.00     0.009 A 
ATOM     81  C   UNL A   1      46.197  34.190  30.072  1.00  0.00     0.001 A 
ATOM     82  C   UNL A   1      45.593  34.587  27.766  1.00  0.00     0.001 A 
ATOM     83  C   UNL A   1      46.016  35.069  29.003  1.00  0.00     0.000 A 
ENDBRANCH  65  78
ENDBRANCH  39  40
ENDBRANCH  31  34
ENDBRANCH  29  30
ENDBRANCH  28  29
ENDBRANCH  27  28
ENDBRANCH   1  27
TORSDOF 17
ENDMDL
MODEL 2
REMARK VINA RESULT:     -11.0      5.923     11.105
REMARK SMILES C[NH2+][C@@]1(C(=O)NCCCCCCNC(=O)c2ccc(-c3c4nc(c(-c5ccccc5)c5ccc([nH]5)c(-c5ccccc5)c5nc(c(-c6ccccc6)c6ccc3[nH]6)C=C5)C=C4)cc2)CCC[C@H](Oc2cccc(OC)c2)C1
REMARK SMILES IDX 9 1 8 2 7 3 6 4 4 5 5 6 3 8 64 9 77 10 65 11 67 12 66 13
REMARK SMILES IDX 2 14 1 15 68 18 69 19 70 20 76 21 71 22 73 23 72 24 74 25
REMARK SMILES IDX 75 26 10 27 11 28 12 29 13 30 14 31 15 33 16 34 17 35 63 36
REMARK SMILES IDX 18 37 62 38 19 39 20 40 21 41 56 42 22 43 61 44 55 45 57 46
REMARK SMILES IDX 23 47 60 48 54 49 53 50 24 52 46 53 31 54 45 55 32 56 35 57
REMARK SMILES IDX 44 58 58 59 33 60 34 61 43 63 59 64 36 65 25 66 26 67 30 68
REMARK SMILES IDX 27 69 29 70 28 71 47 72 48 73 52 74 49 75 51 76 50 77 37 78
REMARK SMILES IDX 38 79 42 80 39 81 41 82 40 83
REMARK H PARENT 6 7 2 16 2 17 13 32 57 51 35 62
REMARK Flexibility Score: inf
ROOT
ATOM      1  C   UNL A   1      32.425  29.481  27.256  1.00  0.00     0.002 C 
ENDROOT
BRANCH   1   2
ATOM      2  C   UNL A   1      31.584  28.261  27.625  1.00  0.00     0.021 C 
BRANCH   2   3
ATOM      3  C   UNL A   1      31.404  27.152  26.580  1.00  0.00     0.116 C 
BRANCH   3   4
ATOM      4  N   UNL A   1      32.236  27.415  25.399  1.00  0.00    -0.351 N 
ATOM      5  C   UNL A   1      32.989  26.610  24.589  1.00  0.00     0.281 C 
ATOM      6  O   UNL A   1      34.074  27.117  24.261  1.00  0.00    -0.268 OA
ATOM      7  H   UNL A   1      32.255  28.364  25.136  1.00  0.00     0.163 HD
BRANCH   5   8
ATOM      8  C   UNL A   1      32.530  25.212  23.982  1.00  0.00     0.178 C 
ATOM      9  C   UNL A   1      33.422  24.634  22.868  1.00  0.00     0.079 C 
ATOM     10  C   UNL A   1      31.060  25.301  23.495  1.00  0.00     0.124 C 
ATOM     11  C   UNL A   1      32.893  24.813  21.444  1.00  0.00     0.011 C 
ATOM     12  C   UNL A   1      30.866  26.225  22.290  1.00  0.00     0.180 C 
ATOM     13  C   UNL A   1      31.912  25.955  21.197  1.00  0.00     0.046 C 
BRANCH   8  14
ATOM     14  N   UNL A   1      32.440  24.156  25.060  1.00  0.00    -0.336 N 
ATOM     15  C   UNL A   1      31.132  23.652  25.433  1.00  0.00     0.331 C 
ATOM     16  H   UNL A   1      32.991  23.358  24.746  1.00  0.00     0.346 HD
ATOM     17  H   UNL A   1      32.771  24.631  25.901  1.00  0.00     0.346 HD
ENDBRANCH   8  14
BRANCH  12  18
ATOM     18  O   UNL A   1      30.911  27.560  22.811  1.00  0.00    -0.490 OA
BRANCH  18  19
ATOM     19  C   UNL A   1      29.807  28.355  22.897  1.00  0.00     0.123 A 
ATOM     20  C   UNL A   1      28.531  27.949  23.273  1.00  0.00     0.047 A 
ATOM     21  C   UNL A   1      30.008  29.666  22.431  1.00  0.00     0.092 A 
ATOM     22  C   UNL A   1      27.452  28.824  23.125  1.00  0.00     0.008 A 
ATOM     23  C   UNL A   1      28.929  30.530  22.258  1.00  0.00     0.122 A 
ATOM     24  C   UNL A   1      27.652  30.109  22.618  1.00  0.00     0.046 A 
BRANCH  23  25
ATOM     25  O   UNL A   1      29.022  31.806  21.776  1.00  0.00    -0.497 OA
ATOM     26  C   UNL A   1      28.776  32.825  22.742  1.00  0.00     0.278 C 
ENDBRANCH  23  25
ENDBRANCH  18  19
ENDBRANCH  12  18
ENDBRANCH   5   8
ENDBRANCH   3   4
ENDBRANCH   2   3
ENDBRANCH   1   2
BRANCH   1  27
ATOM     27  C   UNL A   1      31.805  30.476  26.280  1.00  0.00     0.002 C 
BRANCH  27  28
ATOM     28  C   UNL A   1      31.467  31.876  26.806  1.00  0.00     0.021 C 
BRANCH  28  29
ATOM     29  C   UNL A   1      32.592  32.805  27.284  1.00  0.00     0.116 C 
BRANCH  29  30
ATOM     30  N   UNL A   1      32.215  34.161  27.637  1.00  0.00    -0.352 N 
ATOM     31  C   UNL A   1      32.897  35.050  28.440  1.00  0.00     0.251 C 
ATOM     32  H   UNL A   1      31.368  34.487  27.255  1.00  0.00     0.163 HD
ATOM     33  O   UNL A   1      32.488  36.199  28.596  1.00  0.00    -0.269 OA
BRANCH  31  34
ATOM     34  C   UNL A   1      34.105  34.603  29.167  1.00  0.00     0.039 A 
ATOM     35  C   UNL A   1      33.967  34.159  30.485  1.00  0.00     0.014 A 
ATOM     36  C   UNL A   1      35.358  34.588  28.550  1.00  0.00     0.014 A 
ATOM     37  C   UNL A   1      35.067  33.613  31.153  1.00  0.00     0.010 A 
ATOM     38  C   UNL A   1      36.450  34.014  29.206  1.00  0.00     0.010 A 
ATOM     39  C   UNL A   1      36.309  33.496  30.503  1.00  0.00    -0.014 A 
BRANCH  39  40
ATOM     40  C   UNL A   1      37.429  32.753  31.140  1.00  0.00     0.031 A 
ATOM     41  C   UNL A   1      37.991  33.172  32.469  1.00  0.00     0.074 A 
ATOM     42  C   UNL A   1      37.988  31.718  30.480  1.00  0.00     0.049 A 
ATOM     43  N   UNL A   1      38.966  32.628  33.158  1.00  0.00    -0.248 NA
ATOM     44  C   UNL A   1      37.397  34.360  33.098  1.00  0.00     0.031 C 
ATOM     45  C   UNL A   1      37.576  31.237  29.159  1.00  0.00     0.029 A 
ATOM     46  N   UNL A   1      39.025  30.889  30.828  1.00  0.00    -0.354 N 
ATOM     47  C   UNL A   1      39.104  33.409  34.298  1.00  0.00     0.074 A 
ATOM     48  C   UNL A   1      38.143  34.486  34.187  1.00  0.00     0.031 C 
ATOM     49  C   UNL A   1      38.335  30.181  28.821  1.00  0.00     0.029 A 
ATOM     50  C   UNL A   1      39.302  29.928  29.885  1.00  0.00     0.049 A 
ATOM     51  H   UNL A   1      39.523  30.973  31.673  1.00  0.00     0.167 HD
ATOM     52  C   UNL A   1      39.943  33.238  35.349  1.00  0.00     0.031 A 
ATOM     53  C   UNL A   1      40.226  28.948  29.874  1.00  0.00     0.031 A 
ATOM     54  C   UNL A   1      40.904  32.172  35.466  1.00  0.00     0.049 A 
ATOM     55  C   UNL A   1      41.147  28.783  31.049  1.00  0.00     0.074 A 
ATOM     56  C   UNL A   1      41.756  31.890  36.522  1.00  0.00     0.029 A 
ATOM     57  N   UNL A   1      41.147  31.215  34.493  1.00  0.00    -0.354 N 
ATOM     58  N   UNL A   1      41.208  29.481  32.155  1.00  0.00    -0.248 NA
ATOM     59  C   UNL A   1      42.121  27.683  30.977  1.00  0.00     0.031 C 
ATOM     60  C   UNL A   1      42.544  30.790  36.169  1.00  0.00     0.029 A 
ATOM     61  C   UNL A   1      42.150  30.358  34.914  1.00  0.00     0.049 A 
ATOM     62  H   UNL A   1      40.676  31.155  33.631  1.00  0.00     0.167 HD
ATOM     63  C   UNL A   1      42.203  28.891  32.922  1.00  0.00     0.074 A 
ATOM     64  C   UNL A   1      42.712  27.769  32.160  1.00  0.00     0.031 C 
ATOM     65  C   UNL A   1      42.653  29.246  34.150  1.00  0.00     0.031 A 
BRANCH  52  66
ATOM     66  C   UNL A   1      39.859  34.239  36.467  1.00  0.00    -0.014 A 
ATOM     67  C   UNL A   1      40.582  35.442  36.417  1.00  0.00     0.009 A 
ATOM     68  C   UNL A   1      39.015  33.999  37.563  1.00  0.00     0.009 A 
ATOM     69  C   UNL A   1      40.490  36.367  37.459  1.00  0.00     0.001 A 
ATOM     70  C   UNL A   1      38.906  34.937  38.591  1.00  0.00     0.001 A 
ATOM     71  C   UNL A   1      39.651  36.115  38.543  1.00  0.00     0.000 A 
ENDBRANCH  52  66
BRANCH  53  72
ATOM     72  C   UNL A   1      40.310  28.021  28.718  1.00  0.00    -0.014 A 
ATOM     73  C   UNL A   1      41.076  28.358  27.592  1.00  0.00     0.009 A 
ATOM     74  C   UNL A   1      39.622  26.798  28.731  1.00  0.00     0.009 A 
ATOM     75  C   UNL A   1      41.130  27.501  26.491  1.00  0.00     0.001 A 
ATOM     76  C   UNL A   1      39.698  25.933  27.639  1.00  0.00     0.001 A 
ATOM     77  C   UNL A   1      40.444  26.288  26.516  1.00  0.00     0.000 A 
ENDBRANCH  53  72
BRANCH  65  78
ATOM     78  C   UNL A   1      43.732  28.396  34.759  1.00  0.00    -0.014 A 
ATOM     79  C   UNL A   1      43.421  27.277  35.544  1.00  0.00     0.009 A 
ATOM     80  C   UNL A   1      45.079  28.704  34.513  1.00  0.00     0.009 A 
ATOM     81  C   UNL A   1      44.440  26.497  36.097  1.00  0.00     0.001 A 
ATOM     82  C   UNL A   1      46.096  27.909  35.047  1.00  0.00     0.001 A 
ATOM     83  C   UNL A   1      45.775  26.812  35.844  1.00  0.00     0.000 A 
ENDBRANCH  65  78
ENDBRANCH  39  40
ENDBRANCH  31  34
ENDBRANCH  29  30
ENDBRANCH  28  29
ENDBRANCH  27  28
ENDBRANCH   1  27
TORSDOF 17
ENDMDL
MODEL 3
REMARK VINA RESULT:     -11.0      4.613      9.427
REMARK SMILES C[NH2+][C@@]1(C(=O)NCCCCCCNC(=O)c2ccc(-c3c4nc(c(-c5ccccc5)c5ccc([nH]5)c(-c5ccccc5)c5nc(c(-c6ccccc6)c6ccc3[nH]6)C=C5)C=C4)cc2)CCC[C@H](Oc2cccc(OC)c2)C1
REMARK SMILES IDX 9 1 8 2 7 3 6 4 4 5 5 6 3 8 64 9 77 10 65 11 67 12 66 13
REMARK SMILES IDX 2 14 1 15 68 18 69 19 70 20 76 21 71 22 73 23 72 24 74 25
REMARK SMILES IDX 75 26 10 27 11 28 12 29 13 30 14 31 15 33 16 34 17 35 63 36
REMARK SMILES IDX 18 37 62 38 19 39 20 40 21 41 56 42 22 43 61 44 55 45 57 46
REMARK SMILES IDX 23 47 60 48 54 49 53 50 24 52 46 53 31 54 45 55 32 56 35 57
REMARK SMILES IDX 44 58 58 59 33 60 34 61 43 63 59 64 36 65 25 66 26 67 30 68
REMARK SMILES IDX 27 69 29 70 28 71 47 72 48 73 52 74 49 75 51 76 50 77 37 78
REMARK SMILES IDX 38 79 42 80 39 81 41 82 40 83
REMARK H PARENT 6 7 2 16 2 17 13 32 57 51 35 62
REMARK Flexibility Score: inf
ROOT
ATOM      1  C   UNL A   1      32.565  27.939  26.528  1.00  0.00     0.002 C 
ENDROOT
BRANCH   1   2
ATOM      2  C   UNL A   1      33.880  27.409  25.963  1.00  0.00     0.021 C 
BRANCH   2   3
ATOM      3  C   UNL A   1      33.923  25.970  25.431  1.00  0.00     0.116 C 
BRANCH   3   4
ATOM      4  N   UNL A   1      33.085  25.090  26.256  1.00  0.00    -0.351 N 
ATOM      5  C   UNL A   1      32.051  24.243  25.963  1.00  0.00     0.281 C 
ATOM      6  O   UNL A   1      31.131  24.282  26.796  1.00  0.00    -0.268 OA
ATOM      7  H   UNL A   1      33.314  25.114  27.213  1.00  0.00     0.163 HD
BRANCH   5   8
ATOM      8  C   UNL A   1      32.021  23.191  24.769  1.00  0.00     0.178 C 
ATOM      9  C   UNL A   1      33.366  22.931  24.066  1.00  0.00     0.079 C 
ATOM     10  C   UNL A   1      30.945  23.596  23.729  1.00  0.00     0.124 C 
ATOM     11  C   UNL A   1      33.550  23.636  22.720  1.00  0.00     0.011 C 
ATOM     12  C   UNL A   1      31.273  24.888  22.976  1.00  0.00     0.180 C 
ATOM     13  C   UNL A   1      32.722  24.892  22.467  1.00  0.00     0.046 C 
BRANCH   8  14
ATOM     14  N   UNL A   1      31.511  21.849  25.244  1.00  0.00    -0.336 N 
ATOM     15  C   UNL A   1      32.244  20.654  24.868  1.00  0.00     0.331 C 
ATOM     16  H   UNL A   1      31.489  21.879  26.263  1.00  0.00     0.346 HD
ATOM     17  H   UNL A   1      30.611  21.745  24.775  1.00  0.00     0.346 HD
ENDBRANCH   8  14
BRANCH  12  18
ATOM     18  O   UNL A   1      30.980  25.955  23.887  1.00  0.00    -0.490 OA
BRANCH  18  19
ATOM     19  C   UNL A   1      29.979  26.855  23.671  1.00  0.00     0.123 A 
ATOM     20  C   UNL A   1      28.646  26.703  24.039  1.00  0.00     0.047 A 
ATOM     21  C   UNL A   1      30.362  27.960  22.892  1.00  0.00     0.092 A 
ATOM     22  C   UNL A   1      27.692  27.614  23.579  1.00  0.00     0.008 A 
ATOM     23  C   UNL A   1      29.407  28.853  22.411  1.00  0.00     0.122 A 
ATOM     24  C   UNL A   1      28.072  28.682  22.767  1.00  0.00     0.046 A 
BRANCH  23  25
ATOM     25  O   UNL A   1      29.679  29.932  21.617  1.00  0.00    -0.497 OA
ATOM     26  C   UNL A   1      28.542  30.725  21.282  1.00  0.00     0.278 C 
ENDBRANCH  23  25
ENDBRANCH  18  19
ENDBRANCH  12  18
ENDBRANCH   5   8
ENDBRANCH   3   4
ENDBRANCH   2   3
ENDBRANCH   1   2
BRANCH   1  27
ATOM     27  C   UNL A   1      32.037  29.243  25.938  1.00  0.00     0.002 C 
BRANCH  27  28
ATOM     28  C   UNL A   1      31.785  30.411  26.898  1.00  0.00     0.021 C 
BRANCH  28  29
ATOM     29  C   UNL A   1      32.840  31.516  27.051  1.00  0.00     0.116 C 
BRANCH  29  30
ATOM     30  N   UNL A   1      32.361  32.829  27.441  1.00  0.00    -0.352 N 
ATOM     31  C   UNL A   1      33.039  33.809  28.135  1.00  0.00     0.251 C 
ATOM     32  H   UNL A   1      31.438  33.048  27.177  1.00  0.00     0.163 HD
ATOM     33  O   UNL A   1      32.525  34.907  28.336  1.00  0.00    -0.269 OA
BRANCH  31  34
ATOM     34  C   UNL A   1      34.378  33.520  28.691  1.00  0.00     0.039 A 
ATOM     35  C   UNL A   1      34.464  32.906  29.944  1.00  0.00     0.014 A 
ATOM     36  C   UNL A   1      35.540  33.817  27.976  1.00  0.00     0.014 A 
ATOM     37  C   UNL A   1      35.710  32.507  30.438  1.00  0.00     0.010 A 
ATOM     38  C   UNL A   1      36.782  33.390  28.455  1.00  0.00     0.010 A 
ATOM     39  C   UNL A   1      36.875  32.706  29.677  1.00  0.00    -0.014 A 
BRANCH  39  40
ATOM     40  C   UNL A   1      38.172  32.122  30.112  1.00  0.00     0.031 A 
ATOM     41  C   UNL A   1      38.647  30.795  29.592  1.00  0.00     0.074 A 
ATOM     42  C   UNL A   1      38.907  32.773  31.037  1.00  0.00     0.049 A 
ATOM     43  N   UNL A   1      39.754  30.150  29.871  1.00  0.00    -0.248 NA
ATOM     44  C   UNL A   1      37.760  30.093  28.652  1.00  0.00     0.031 C 
ATOM     45  C   UNL A   1      38.541  34.044  31.665  1.00  0.00     0.029 A 
ATOM     46  N   UNL A   1      40.111  32.452  31.612  1.00  0.00    -0.354 N 
ATOM     47  C   UNL A   1      39.696  28.967  29.145  1.00  0.00     0.074 A 
ATOM     48  C   UNL A   1      38.427  28.965  28.448  1.00  0.00     0.031 C 
ATOM     49  C   UNL A   1      39.512  34.407  32.518  1.00  0.00     0.029 A 
ATOM     50  C   UNL A   1      40.554  33.385  32.518  1.00  0.00     0.049 A 
ATOM     51  H   UNL A   1      40.610  31.631  31.396  1.00  0.00     0.167 HD
ATOM     52  C   UNL A   1      40.620  27.979  29.055  1.00  0.00     0.031 A 
ATOM     53  C   UNL A   1      41.674  33.421  33.265  1.00  0.00     0.031 A 
ATOM     54  C   UNL A   1      41.883  27.971  29.748  1.00  0.00     0.049 A 
ATOM     55  C   UNL A   1      42.680  32.312  33.151  1.00  0.00     0.074 A 
ATOM     56  C   UNL A   1      42.902  27.037  29.671  1.00  0.00     0.029 A 
ATOM     57  N   UNL A   1      42.296  28.938  30.649  1.00  0.00    -0.354 N 
ATOM     58  N   UNL A   1      42.646  31.241  32.397  1.00  0.00    -0.248 NA
ATOM     59  C   UNL A   1      43.887  32.424  33.983  1.00  0.00     0.031 C 
ATOM     60  C   UNL A   1      43.915  27.417  30.559  1.00  0.00     0.029 A 
ATOM     61  C   UNL A   1      43.545  28.612  31.153  1.00  0.00     0.049 A 
ATOM     62  H   UNL A   1      41.779  29.739  30.896  1.00  0.00     0.167 HD
ATOM     63  C   UNL A   1      43.835  30.567  32.642  1.00  0.00     0.074 A 
ATOM     64  C   UNL A   1      44.575  31.356  33.605  1.00  0.00     0.031 C 
ATOM     65  C   UNL A   1      44.274  29.400  32.112  1.00  0.00     0.031 A 
BRANCH  52  66
ATOM     66  C   UNL A   1      40.293  26.810  28.168  1.00  0.00    -0.014 A 
ATOM     67  C   UNL A   1      40.740  26.764  26.838  1.00  0.00     0.009 A 
ATOM     68  C   UNL A   1      39.568  25.722  28.679  1.00  0.00     0.009 A 
ATOM     69  C   UNL A   1      40.436  25.670  26.026  1.00  0.00     0.001 A 
ATOM     70  C   UNL A   1      39.287  24.617  27.873  1.00  0.00     0.001 A 
ATOM     71  C   UNL A   1      39.713  24.597  26.545  1.00  0.00     0.000 A 
ENDBRANCH  52  66
BRANCH  53  72
ATOM     72  C   UNL A   1      41.924  34.569  34.174  1.00  0.00    -0.014 A 
ATOM     73  C   UNL A   1      41.478  34.531  35.503  1.00  0.00     0.009 A 
ATOM     74  C   UNL A   1      42.602  35.709  33.715  1.00  0.00     0.009 A 
ATOM     75  C   UNL A   1      41.683  35.623  36.349  1.00  0.00     0.001 A 
ATOM     76  C   UNL A   1      42.827  36.789  34.570  1.00  0.00     0.001 A 
ATOM     77  C   UNL A   1      42.360  36.749  35.883  1.00  0.00     0.000 A 
ENDBRANCH  53  72
BRANCH  65  78
ATOM     78  C   UNL A   1      45.630  28.917  32.543  1.00  0.00    -0.014 A 
ATOM     79  C   UNL A   1      45.782  28.055  33.638  1.00  0.00     0.009 A 
ATOM     80  C   UNL A   1      46.768  29.306  31.818  1.00  0.00     0.009 A 
ATOM     81  C   UNL A   1      47.051  27.613  34.019  1.00  0.00     0.001 A 
ATOM     82  C   UNL A   1      48.033  28.844  32.186  1.00  0.00     0.001 A 
ATOM     83  C   UNL A   1      48.174  28.005  33.290  1.00  0.00     0.000 A 
ENDBRANCH  65  78
ENDBRANCH  39  40
ENDBRANCH  31  34
ENDBRANCH  29  30
ENDBRANCH  28  29
ENDBRANCH  27  28
ENDBRANCH   1  27
TORSDOF 17
ENDMDL
