MODEL 1
REMARK VINA RESULT:     -11.5      0.000      0.000
REMARK SMILES C/C(=N\Nc1ccccc1C(=O)NCCCCCCNC(=O)c1ccc(-c2c3nc(c(-c4ccccc4)c4ccc([nH]4)c(-c4ccccc4)c4nc(c(-c5ccccc5)c5ccc2[nH]5)C=C4)C=C3)cc1)c1ccc(S(C)(=O)=O)cc1
REMARK SMILES IDX 15 1 14 2 13 3 11 4 12 5 10 7 5 8 6 9 7 10 9 11 8 12 4 13
REMARK SMILES IDX 3 15 1 16 2 17 71 18 72 19 80 20 73 21 79 22 74 23 75 24
REMARK SMILES IDX 76 25 77 26 78 27 16 28 17 29 18 30 19 31 20 32 21 33 22 35
REMARK SMILES IDX 23 36 24 37 70 38 25 39 69 40 26 41 27 42 28 43 63 44 29 45
REMARK SMILES IDX 68 46 62 47 64 48 30 49 67 50 61 51 60 52 31 54 53 55 38 56
REMARK SMILES IDX 52 57 39 58 42 59 51 60 65 61 40 62 41 63 50 65 66 66 43 67
REMARK SMILES IDX 32 68 33 69 37 70 34 71 36 72 35 73 54 74 55 75 59 76 56 77
REMARK SMILES IDX 58 78 57 79 44 80 45 81 49 82 46 83 48 84 47 85
REMARK H PARENT 13 6 4 14 20 34 64 53 42 64
REMARK Flexibility Score: inf
ROOT
ATOM      1  C   UNL A   1      36.375  23.319  26.115  1.00  0.00     0.021 C 
ENDROOT
BRANCH   1   2
ATOM      2  C   UNL A   1      35.428  24.157  25.260  1.00  0.00     0.116 C 
BRANCH   2   3
ATOM      3  N   UNL A   1      34.292  24.670  25.998  1.00  0.00    -0.352 N 
ATOM      4  C   UNL A   1      33.325  25.560  25.596  1.00  0.00     0.253 C 
ATOM      5  O   UNL A   1      32.398  25.804  26.370  1.00  0.00    -0.269 OA
ATOM      6  H   UNL A   1      34.200  24.334  26.918  1.00  0.00     0.163 HD
BRANCH   4   7
ATOM      7  C   UNL A   1      33.416  26.323  24.321  1.00  0.00     0.064 A 
ATOM      8  C   UNL A   1      33.100  25.831  23.042  1.00  0.00     0.069 A 
ATOM      9  C   UNL A   1      33.345  26.670  21.931  1.00  0.00     0.028 A 
ATOM     10  C   UNL A   1      33.770  27.991  22.083  1.00  0.00     0.002 A 
ATOM     11  C   UNL A   1      33.811  27.669  24.465  1.00  0.00     0.016 A 
ATOM     12  C   UNL A   1      33.968  28.503  23.356  1.00  0.00     0.001 A 
BRANCH   8  13
ATOM     13  N   UNL A   1      32.367  24.661  22.752  1.00  0.00    -0.277 N 
ATOM     14  H   UNL A   1      31.461  24.783  22.384  1.00  0.00     0.190 HD
BRANCH  13  15
ATOM     15  N   UNL A   1      32.787  23.391  22.927  1.00  0.00    -0.180 NA
ATOM     16  C   UNL A   1      31.051  22.977  24.705  1.00  0.00     0.069 C 
ATOM     17  C   UNL A   1      32.189  22.605  23.777  1.00  0.00     0.065 C 
BRANCH  17  18
ATOM     18  C   UNL A   1      32.678  21.203  23.862  1.00  0.00    -0.002 A 
ATOM     19  C   UNL A   1      32.140  20.233  23.011  1.00  0.00     0.011 A 
ATOM     20  C   UNL A   1      33.639  20.849  24.815  1.00  0.00     0.011 A 
ATOM     21  C   UNL A   1      32.561  18.906  23.104  1.00  0.00     0.021 A 
ATOM     22  C   UNL A   1      34.072  19.526  24.905  1.00  0.00     0.021 A 
ATOM     23  C   UNL A   1      33.523  18.559  24.056  1.00  0.00     0.067 A 
BRANCH  23  24
ATOM     24  S   UNL A   1      34.110  16.884  24.137  1.00  0.00     0.175 S 
ATOM     25  C   UNL A   1      32.903  16.062  25.143  1.00  0.00     0.163 C 
ATOM     26  O   UNL A   1      34.037  16.338  22.797  1.00  0.00    -0.224 OA
ATOM     27  O   UNL A   1      35.363  16.896  24.872  1.00  0.00    -0.224 OA
ENDBRANCH  23  24
ENDBRANCH  17  18
ENDBRANCH  13  15
ENDBRANCH   8  13
ENDBRANCH   4   7
ENDBRANCH   2   3
ENDBRANCH   1   2
BRANCH   1  28
ATOM     28  C   UNL A   1      37.571  22.699  25.379  1.00  0.00     0.002 C 
BRANCH  28  29
ATOM     29  C   UNL A   1      37.266  21.617  24.340  1.00  0.00     0.002 C 
BRANCH  29  30
ATOM     30  C   UNL A   1      37.806  20.216  24.617  1.00  0.00     0.021 C 
BRANCH  30  31
ATOM     31  C   UNL A   1      38.581  20.051  25.915  1.00  0.00     0.116 C 
BRANCH  31  32
ATOM     32  N   UNL A   1      39.775  19.237  25.769  1.00  0.00    -0.352 N 
ATOM     33  C   UNL A   1      41.087  19.554  26.004  1.00  0.00     0.251 C 
ATOM     34  H   UNL A   1      39.617  18.318  25.455  1.00  0.00     0.163 HD
ATOM     35  O   UNL A   1      41.970  18.753  25.711  1.00  0.00    -0.269 OA
BRANCH  33  36
ATOM     36  C   UNL A   1      41.452  20.868  26.580  1.00  0.00     0.039 A 
ATOM     37  C   UNL A   1      41.901  21.870  25.715  1.00  0.00     0.014 A 
ATOM     38  C   UNL A   1      41.381  21.114  27.954  1.00  0.00     0.014 A 
ATOM     39  C   UNL A   1      42.234  23.128  26.222  1.00  0.00     0.010 A 
ATOM     40  C   UNL A   1      41.632  22.392  28.447  1.00  0.00     0.010 A 
ATOM     41  C   UNL A   1      42.078  23.407  27.588  1.00  0.00    -0.014 A 
BRANCH  41  42
ATOM     42  C   UNL A   1      42.405  24.748  28.133  1.00  0.00     0.031 A 
ATOM     43  C   UNL A   1      43.817  25.077  28.536  1.00  0.00     0.074 A 
ATOM     44  C   UNL A   1      41.425  25.658  28.295  1.00  0.00     0.049 A 
ATOM     45  N   UNL A   1      44.294  26.192  29.032  1.00  0.00    -0.248 NA
ATOM     46  C   UNL A   1      44.819  24.010  28.387  1.00  0.00     0.031 C 
ATOM     47  C   UNL A   1      40.010  25.445  27.983  1.00  0.00     0.029 A 
ATOM     48  N   UNL A   1      41.473  26.949  28.758  1.00  0.00    -0.354 N 
ATOM     49  C   UNL A   1      45.643  25.953  29.264  1.00  0.00     0.074 A 
ATOM     50  C   UNL A   1      45.896  24.573  28.912  1.00  0.00     0.031 C 
ATOM     51  C   UNL A   1      39.332  26.578  28.228  1.00  0.00     0.029 A 
ATOM     52  C   UNL A   1      40.254  27.582  28.746  1.00  0.00     0.049 A 
ATOM     53  H   UNL A   1      42.302  27.380  29.069  1.00  0.00     0.167 HD
ATOM     54  C   UNL A   1      46.593  26.810  29.708  1.00  0.00     0.031 A 
ATOM     55  C   UNL A   1      39.919  28.834  29.109  1.00  0.00     0.031 A 
ATOM     56  C   UNL A   1      46.343  28.185  30.048  1.00  0.00     0.049 A 
ATOM     57  C   UNL A   1      40.989  29.765  29.605  1.00  0.00     0.074 A 
ATOM     58  C   UNL A   1      47.247  29.152  30.451  1.00  0.00     0.029 A 
ATOM     59  N   UNL A   1      45.095  28.788  30.023  1.00  0.00    -0.354 N 
ATOM     60  N   UNL A   1      42.274  29.545  29.748  1.00  0.00    -0.248 NA
ATOM     61  C   UNL A   1      40.564  31.121  29.977  1.00  0.00     0.031 C 
ATOM     62  C   UNL A   1      46.537  30.326  30.724  1.00  0.00     0.029 A 
ATOM     63  C   UNL A   1      45.200  30.107  30.432  1.00  0.00     0.049 A 
ATOM     64  H   UNL A   1      44.258  28.344  29.756  1.00  0.00     0.167 HD
ATOM     65  C   UNL A   1      42.814  30.741  30.202  1.00  0.00     0.074 A 
ATOM     66  C   UNL A   1      41.722  31.688  30.289  1.00  0.00     0.031 C 
ATOM     67  C   UNL A   1      44.100  31.031  30.521  1.00  0.00     0.031 A 
BRANCH  54  68
ATOM     68  C   UNL A   1      47.992  26.276  29.857  1.00  0.00    -0.014 A 
ATOM     69  C   UNL A   1      48.458  25.787  31.089  1.00  0.00     0.009 A 
ATOM     70  C   UNL A   1      48.847  26.234  28.746  1.00  0.00     0.009 A 
ATOM     71  C   UNL A   1      49.764  25.306  31.213  1.00  0.00     0.001 A 
ATOM     72  C   UNL A   1      50.142  25.724  28.864  1.00  0.00     0.001 A 
ATOM     73  C   UNL A   1      50.602  25.271  30.100  1.00  0.00     0.000 A 
ENDBRANCH  54  68
BRANCH  55  74
ATOM     74  C   UNL A   1      38.508  29.290  28.998  1.00  0.00    -0.014 A 
ATOM     75  C   UNL A   1      37.668  29.291  30.123  1.00  0.00     0.009 A 
ATOM     76  C   UNL A   1      37.990  29.720  27.766  1.00  0.00     0.009 A 
ATOM     77  C   UNL A   1      36.332  29.685  30.011  1.00  0.00     0.001 A 
ATOM     78  C   UNL A   1      36.663  30.142  27.663  1.00  0.00     0.001 A 
ATOM     79  C   UNL A   1      35.833  30.114  28.782  1.00  0.00     0.000 A 
ENDBRANCH  55  74
BRANCH  67  80
ATOM     80  C   UNL A   1      44.392  32.436  30.968  1.00  0.00    -0.014 A 
ATOM     81  C   UNL A   1      44.351  32.793  32.324  1.00  0.00     0.009 A 
ATOM     82  C   UNL A   1      44.744  33.408  30.019  1.00  0.00     0.009 A 
ATOM     83  C   UNL A   1      44.617  34.107  32.717  1.00  0.00     0.001 A 
ATOM     84  C   UNL A   1      45.041  34.712  30.416  1.00  0.00     0.001 A 
ATOM     85  C   UNL A   1      44.965  35.063  31.764  1.00  0.00     0.000 A 
ENDBRANCH  67  80
ENDBRANCH  41  42
ENDBRANCH  33  36
ENDBRANCH  31  32
ENDBRANCH  30  31
ENDBRANCH  29  30
ENDBRANCH  28  29
ENDBRANCH   1  28
TORSDOF 17
ENDMDL
MODEL 2
REMARK VINA RESULT:     -11.3      3.859      8.960
REMARK SMILES C/C(=N\Nc1ccccc1C(=O)NCCCCCCNC(=O)c1ccc(-c2c3nc(c(-c4ccccc4)c4ccc([nH]4)c(-c4ccccc4)c4nc(c(-c5ccccc5)c5ccc2[nH]5)C=C4)C=C3)cc1)c1ccc(S(C)(=O)=O)cc1
REMARK SMILES IDX 15 1 14 2 13 3 11 4 12 5 10 7 5 8 6 9 7 10 9 11 8 12 4 13
REMARK SMILES IDX 3 15 1 16 2 17 71 18 72 19 80 20 73 21 79 22 74 23 75 24
REMARK SMILES IDX 76 25 77 26 78 27 16 28 17 29 18 30 19 31 20 32 21 33 22 35
REMARK SMILES IDX 23 36 24 37 70 38 25 39 69 40 26 41 27 42 28 43 63 44 29 45
REMARK SMILES IDX 68 46 62 47 64 48 30 49 67 50 61 51 60 52 31 54 53 55 38 56
REMARK SMILES IDX 52 57 39 58 42 59 51 60 65 61 40 62 41 63 50 65 66 66 43 67
REMARK SMILES IDX 32 68 33 69 37 70 34 71 36 72 35 73 54 74 55 75 59 76 56 77
REMARK SMILES IDX 58 78 57 79 44 80 45 81 49 82 46 83 48 84 47 85
REMARK H PARENT 13 6 4 14 20 34 64 53 42 64
REMARK Flexibility Score: inf
ROOT
ATOM      1  C   UNL A   1      32.622  27.753  26.675  1.00  0.00     0.021 C 
ENDROOT
BRANCH   1   2
ATOM      2  C   UNL A   1      32.695  26.331  26.124  1.00  0.00     0.116 C 
BRANCH   2   3
ATOM      3  N   UNL A   1      31.737  25.431  26.732  1.00  0.00    -0.352 N 
ATOM      4  C   UNL A   1      31.751  24.058  26.791  1.00  0.00     0.253 C 
ATOM      5  O   UNL A   1      30.862  23.492  27.431  1.00  0.00    -0.269 OA
ATOM      6  H   UNL A   1      30.967  25.865  27.166  1.00  0.00     0.163 HD
BRANCH   4   7
ATOM      7  C   UNL A   1      32.721  23.231  26.023  1.00  0.00     0.064 A 
ATOM      8  C   UNL A   1      32.523  22.718  24.729  1.00  0.00     0.069 A 
ATOM      9  C   UNL A   1      33.517  21.866  24.195  1.00  0.00     0.028 A 
ATOM     10  C   UNL A   1      34.719  21.627  24.863  1.00  0.00     0.002 A 
ATOM     11  C   UNL A   1      33.954  23.013  26.672  1.00  0.00     0.016 A 
ATOM     12  C   UNL A   1      34.954  22.232  26.088  1.00  0.00     0.001 A 
BRANCH   8  13
ATOM     13  N   UNL A   1      31.533  23.123  23.809  1.00  0.00    -0.277 N 
ATOM     14  H   UNL A   1      31.260  22.464  23.130  1.00  0.00     0.190 HD
BRANCH  13  15
ATOM     15  N   UNL A   1      30.922  24.325  23.771  1.00  0.00    -0.180 NA
ATOM     16  C   UNL A   1      32.726  25.285  22.299  1.00  0.00     0.069 C 
ATOM     17  C   UNL A   1      31.423  25.303  23.071  1.00  0.00     0.065 C 
BRANCH  17  18
ATOM     18  C   UNL A   1      30.653  26.575  23.035  1.00  0.00    -0.002 A 
ATOM     19  C   UNL A   1      29.373  26.620  23.597  1.00  0.00     0.011 A 
ATOM     20  C   UNL A   1      31.187  27.705  22.408  1.00  0.00     0.011 A 
ATOM     21  C   UNL A   1      28.622  27.795  23.539  1.00  0.00     0.021 A 
ATOM     22  C   UNL A   1      30.446  28.885  22.357  1.00  0.00     0.021 A 
ATOM     23  C   UNL A   1      29.163  28.921  22.914  1.00  0.00     0.067 A 
BRANCH  23  24
ATOM     24  S   UNL A   1      28.238  30.439  22.892  1.00  0.00     0.175 S 
ATOM     25  C   UNL A   1      28.057  30.798  21.166  1.00  0.00     0.163 C 
ATOM     26  O   UNL A   1      26.928  30.151  23.440  1.00  0.00    -0.224 OA
ATOM     27  O   UNL A   1      29.080  31.470  23.472  1.00  0.00    -0.224 OA
ENDBRANCH  23  24
ENDBRANCH  17  18
ENDBRANCH  13  15
ENDBRANCH   8  13
ENDBRANCH   4   7
ENDBRANCH   2   3
ENDBRANCH   1   2
BRANCH   1  28
ATOM     28  C   UNL A   1      31.403  28.578  26.242  1.00  0.00     0.002 C 
BRANCH  28  29
ATOM     29  C   UNL A   1      31.676  29.918  25.553  1.00  0.00     0.002 C 
BRANCH  29  30
ATOM     30  C   UNL A   1      31.439  31.183  26.374  1.00  0.00     0.021 C 
BRANCH  30  31
ATOM     31  C   UNL A   1      32.688  31.945  26.788  1.00  0.00     0.116 C 
BRANCH  31  32
ATOM     32  N   UNL A   1      32.399  33.246  27.365  1.00  0.00    -0.352 N 
ATOM     33  C   UNL A   1      33.112  33.980  28.277  1.00  0.00     0.251 C 
ATOM     34  H   UNL A   1      31.565  33.665  27.053  1.00  0.00     0.163 HD
ATOM     35  O   UNL A   1      32.639  35.019  28.728  1.00  0.00    -0.269 OA
BRANCH  33  36
ATOM     36  C   UNL A   1      34.437  33.514  28.746  1.00  0.00     0.039 A 
ATOM     37  C   UNL A   1      34.494  32.741  29.909  1.00  0.00     0.014 A 
ATOM     38  C   UNL A   1      35.615  33.849  28.073  1.00  0.00     0.014 A 
ATOM     39  C   UNL A   1      35.725  32.268  30.369  1.00  0.00     0.010 A 
ATOM     40  C   UNL A   1      36.830  33.307  28.483  1.00  0.00     0.010 A 
ATOM     41  C   UNL A   1      36.900  32.526  29.646  1.00  0.00    -0.014 A 
BRANCH  41  42
ATOM     42  C   UNL A   1      38.210  32.006  30.112  1.00  0.00     0.031 A 
ATOM     43  C   UNL A   1      38.743  30.706  29.574  1.00  0.00     0.074 A 
ATOM     44  C   UNL A   1      38.904  32.689  31.043  1.00  0.00     0.049 A 
ATOM     45  N   UNL A   1      39.864  30.092  29.862  1.00  0.00    -0.248 NA
ATOM     46  C   UNL A   1      37.897  29.988  28.607  1.00  0.00     0.031 C 
ATOM     47  C   UNL A   1      38.474  33.939  31.674  1.00  0.00     0.029 A 
ATOM     48  N   UNL A   1      40.123  32.429  31.617  1.00  0.00    -0.354 N 
ATOM     49  C   UNL A   1      39.849  28.915  29.123  1.00  0.00     0.074 A 
ATOM     50  C   UNL A   1      38.585  28.872  28.421  1.00  0.00     0.031 C 
ATOM     51  C   UNL A   1      39.431  34.356  32.518  1.00  0.00     0.029 A 
ATOM     52  C   UNL A   1      40.523  33.388  32.516  1.00  0.00     0.049 A 
ATOM     53  H   UNL A   1      40.660  31.631  31.404  1.00  0.00     0.167 HD
ATOM     54  C   UNL A   1      40.809  27.966  29.018  1.00  0.00     0.031 A 
ATOM     55  C   UNL A   1      41.645  33.478  33.253  1.00  0.00     0.031 A 
ATOM     56  C   UNL A   1      42.070  28.016  29.708  1.00  0.00     0.049 A 
ATOM     57  C   UNL A   1      42.694  32.409  33.124  1.00  0.00     0.074 A 
ATOM     58  C   UNL A   1      43.134  27.135  29.624  1.00  0.00     0.029 A 
ATOM     59  N   UNL A   1      42.436  29.003  30.610  1.00  0.00    -0.354 N 
ATOM     60  N   UNL A   1      42.695  31.340  32.364  1.00  0.00    -0.248 NA
ATOM     61  C   UNL A   1      43.901  32.567  33.946  1.00  0.00     0.031 C 
ATOM     62  C   UNL A   1      44.122  27.559  30.518  1.00  0.00     0.029 A 
ATOM     63  C   UNL A   1      43.698  28.737  31.113  1.00  0.00     0.049 A 
ATOM     64  H   UNL A   1      41.880  29.777  30.857  1.00  0.00     0.167 HD
ATOM     65  C   UNL A   1      43.912  30.712  32.597  1.00  0.00     0.074 A 
ATOM     66  C   UNL A   1      44.630  31.531  33.552  1.00  0.00     0.031 C 
ATOM     67  C   UNL A   1      44.393  29.560  32.069  1.00  0.00     0.031 A 
BRANCH  54  68
ATOM     68  C   UNL A   1      40.523  26.789  28.126  1.00  0.00    -0.014 A 
ATOM     69  C   UNL A   1      40.988  26.748  26.801  1.00  0.00     0.009 A 
ATOM     70  C   UNL A   1      39.804  25.691  28.625  1.00  0.00     0.009 A 
ATOM     71  C   UNL A   1      40.703  25.652  25.983  1.00  0.00     0.001 A 
ATOM     72  C   UNL A   1      39.548  24.583  27.815  1.00  0.00     0.001 A 
ATOM     73  C   UNL A   1      39.988  24.569  26.493  1.00  0.00     0.000 A 
ENDBRANCH  54  68
BRANCH  55  74
ATOM     74  C   UNL A   1      41.847  34.634  34.165  1.00  0.00    -0.014 A 
ATOM     75  C   UNL A   1      41.441  34.563  35.507  1.00  0.00     0.009 A 
ATOM     76  C   UNL A   1      42.441  35.817  33.698  1.00  0.00     0.009 A 
ATOM     77  C   UNL A   1      41.599  35.663  36.354  1.00  0.00     0.001 A 
ATOM     78  C   UNL A   1      42.625  36.904  34.556  1.00  0.00     0.001 A 
ATOM     79  C   UNL A   1      42.194  36.830  35.879  1.00  0.00     0.000 A 
ENDBRANCH  55  74
BRANCH  67  80
ATOM     80  C   UNL A   1      45.769  29.134  32.498  1.00  0.00    -0.014 A 
ATOM     81  C   UNL A   1      45.961  28.288  33.601  1.00  0.00     0.009 A 
ATOM     82  C   UNL A   1      46.888  29.564  31.767  1.00  0.00     0.009 A 
ATOM     83  C   UNL A   1      47.249  27.913  33.987  1.00  0.00     0.001 A 
ATOM     84  C   UNL A   1      48.172  29.162  32.136  1.00  0.00     0.001 A 
ATOM     85  C   UNL A   1      48.352  28.347  33.253  1.00  0.00     0.000 A 
ENDBRANCH  67  80
ENDBRANCH  41  42
ENDBRANCH  33  36
ENDBRANCH  31  32
ENDBRANCH  30  31
ENDBRANCH  29  30
ENDBRANCH  28  29
ENDBRANCH   1  28
TORSDOF 17
ENDMDL
MODEL 3
REMARK VINA RESULT:     -11.2      1.002      5.822
REMARK SMILES C/C(=N\Nc1ccccc1C(=O)NCCCCCCNC(=O)c1ccc(-c2c3nc(c(-c4ccccc4)c4ccc([nH]4)c(-c4ccccc4)c4nc(c(-c5ccccc5)c5ccc2[nH]5)C=C4)C=C3)cc1)c1ccc(S(C)(=O)=O)cc1
REMARK SMILES IDX 15 1 14 2 13 3 11 4 12 5 10 7 5 8 6 9 7 10 9 11 8 12 4 13
REMARK SMILES IDX 3 15 1 16 2 17 71 18 72 19 80 20 73 21 79 22 74 23 75 24
REMARK SMILES IDX 76 25 77 26 78 27 16 28 17 29 18 30 19 31 20 32 21 33 22 35
REMARK SMILES IDX 23 36 24 37 70 38 25 39 69 40 26 41 27 42 28 43 63 44 29 45
REMARK SMILES IDX 68 46 62 47 64 48 30 49 67 50 61 51 60 52 31 54 53 55 38 56
REMARK SMILES IDX 52 57 39 58 42 59 51 60 65 61 40 62 41 63 50 65 66 66 43 67
REMARK SMILES IDX 32 68 33 69 37 70 34 71 36 72 35 73 54 74 55 75 59 76 56 77
REMARK SMILES IDX 58 78 57 79 44 80 45 81 49 82 46 83 48 84 47 85
REMARK H PARENT 13 6 4 14 20 34 64 53 42 64
REMARK Flexibility Score: inf
ROOT
ATOM      1  C   UNL A   1      35.591  22.993  25.797  1.00  0.00     0.021 C 
ENDROOT
BRANCH   1   2
ATOM      2  C   UNL A   1      34.856  24.261  25.371  1.00  0.00     0.116 C 
BRANCH   2   3
ATOM      3  N   UNL A   1      34.692  24.374  23.937  1.00  0.00    -0.352 N 
ATOM      4  C   UNL A   1      33.975  25.296  23.214  1.00  0.00     0.253 C 
ATOM      5  O   UNL A   1      34.034  25.249  21.983  1.00  0.00    -0.269 OA
ATOM      6  H   UNL A   1      35.162  23.693  23.403  1.00  0.00     0.163 HD
BRANCH   4   7
ATOM      7  C   UNL A   1      33.045  26.268  23.851  1.00  0.00     0.064 A 
ATOM      8  C   UNL A   1      31.671  26.070  24.074  1.00  0.00     0.069 A 
ATOM      9  C   UNL A   1      30.924  27.148  24.602  1.00  0.00     0.028 A 
ATOM     10  C   UNL A   1      31.531  28.336  25.011  1.00  0.00     0.002 A 
ATOM     11  C   UNL A   1      33.653  27.459  24.301  1.00  0.00     0.016 A 
ATOM     12  C   UNL A   1      32.905  28.478  24.894  1.00  0.00     0.001 A 
BRANCH   8  13
ATOM     13  N   UNL A   1      30.983  24.840  24.024  1.00  0.00    -0.277 N 
ATOM     14  H   UNL A   1      30.000  24.877  24.073  1.00  0.00     0.190 HD
BRANCH  13  15
ATOM     15  N   UNL A   1      31.540  23.617  23.912  1.00  0.00    -0.180 NA
ATOM     16  C   UNL A   1      31.029  23.076  26.319  1.00  0.00     0.069 C 
ATOM     17  C   UNL A   1      31.544  22.793  24.923  1.00  0.00     0.065 C 
BRANCH  17  18
ATOM     18  C   UNL A   1      32.125  21.443  24.694  1.00  0.00    -0.002 A 
ATOM     19  C   UNL A   1      32.130  20.906  23.404  1.00  0.00     0.011 A 
ATOM     20  C   UNL A   1      32.625  20.701  25.769  1.00  0.00     0.011 A 
ATOM     21  C   UNL A   1      32.637  19.625  23.178  1.00  0.00     0.021 A 
ATOM     22  C   UNL A   1      33.144  19.425  25.548  1.00  0.00     0.021 A 
ATOM     23  C   UNL A   1      33.138  18.890  24.255  1.00  0.00     0.067 A 
BRANCH  23  24
ATOM     24  S   UNL A   1      33.843  17.284  23.966  1.00  0.00     0.175 S 
ATOM     25  C   UNL A   1      32.859  16.204  24.970  1.00  0.00     0.163 C 
ATOM     26  O   UNL A   1      33.609  16.956  22.575  1.00  0.00    -0.224 OA
ATOM     27  O   UNL A   1      35.187  17.294  24.516  1.00  0.00    -0.224 OA
ENDBRANCH  23  24
ENDBRANCH  17  18
ENDBRANCH  13  15
ENDBRANCH   8  13
ENDBRANCH   4   7
ENDBRANCH   2   3
ENDBRANCH   1   2
BRANCH   1  28
ATOM     28  C   UNL A   1      36.253  22.191  24.667  1.00  0.00     0.002 C 
BRANCH  28  29
ATOM     29  C   UNL A   1      36.395  20.680  24.875  1.00  0.00     0.002 C 
BRANCH  29  30
ATOM     30  C   UNL A   1      37.788  20.082  24.694  1.00  0.00     0.021 C 
BRANCH  30  31
ATOM     31  C   UNL A   1      38.740  20.257  25.868  1.00  0.00     0.116 C 
BRANCH  31  32
ATOM     32  N   UNL A   1      39.879  19.357  25.819  1.00  0.00    -0.352 N 
ATOM     33  C   UNL A   1      41.199  19.597  26.099  1.00  0.00     0.251 C 
ATOM     34  H   UNL A   1      39.671  18.436  25.544  1.00  0.00     0.163 HD
ATOM     35  O   UNL A   1      42.036  18.723  25.888  1.00  0.00    -0.269 OA
BRANCH  33  36
ATOM     36  C   UNL A   1      41.630  20.912  26.624  1.00  0.00     0.039 A 
ATOM     37  C   UNL A   1      42.087  21.872  25.717  1.00  0.00     0.014 A 
ATOM     38  C   UNL A   1      41.611  21.200  27.992  1.00  0.00     0.014 A 
ATOM     39  C   UNL A   1      42.482  23.130  26.176  1.00  0.00     0.010 A 
ATOM     40  C   UNL A   1      41.924  22.480  28.439  1.00  0.00     0.010 A 
ATOM     41  C   UNL A   1      42.380  23.454  27.538  1.00  0.00    -0.014 A 
BRANCH  41  42
ATOM     42  C   UNL A   1      42.773  24.797  28.033  1.00  0.00     0.031 A 
ATOM     43  C   UNL A   1      41.727  25.852  28.267  1.00  0.00     0.074 A 
ATOM     44  C   UNL A   1      44.074  25.075  28.241  1.00  0.00     0.049 A 
ATOM     45  N   UNL A   1      41.877  27.081  28.695  1.00  0.00    -0.248 NA
ATOM     46  C   UNL A   1      40.334  25.491  27.958  1.00  0.00     0.031 C 
ATOM     47  C   UNL A   1      45.186  24.151  28.009  1.00  0.00     0.029 A 
ATOM     48  N   UNL A   1      44.681  26.217  28.700  1.00  0.00    -0.354 N 
ATOM     49  C   UNL A   1      40.604  27.639  28.692  1.00  0.00     0.074 A 
ATOM     50  C   UNL A   1      39.704  26.637  28.165  1.00  0.00     0.031 C 
ATOM     51  C   UNL A   1      46.335  24.749  28.364  1.00  0.00     0.029 A 
ATOM     52  C   UNL A   1      46.046  26.107  28.811  1.00  0.00     0.049 A 
ATOM     53  H   UNL A   1      44.185  27.036  28.928  1.00  0.00     0.167 HD
ATOM     54  C   UNL A   1      40.214  28.866  29.111  1.00  0.00     0.031 A 
ATOM     55  C   UNL A   1      46.960  27.001  29.231  1.00  0.00     0.031 A 
ATOM     56  C   UNL A   1      41.109  29.858  29.644  1.00  0.00     0.049 A 
ATOM     57  C   UNL A   1      46.504  28.359  29.685  1.00  0.00     0.074 A 
ATOM     58  C   UNL A   1      40.805  31.110  30.151  1.00  0.00     0.029 A 
ATOM     59  N   UNL A   1      42.484  29.709  29.739  1.00  0.00    -0.354 N 
ATOM     60  N   UNL A   1      45.286  28.844  29.746  1.00  0.00    -0.248 NA
ATOM     61  C   UNL A   1      47.547  29.287  30.141  1.00  0.00     0.031 C 
ATOM     62  C   UNL A   1      42.004  31.740  30.502  1.00  0.00     0.029 A 
ATOM     63  C   UNL A   1      43.047  30.857  30.270  1.00  0.00     0.049 A 
ATOM     64  H   UNL A   1      42.985  28.906  29.469  1.00  0.00     0.167 HD
ATOM     65  C   UNL A   1      45.415  30.123  30.269  1.00  0.00     0.074 A 
ATOM     66  C   UNL A   1      46.825  30.330  30.530  1.00  0.00     0.031 C 
ATOM     67  C   UNL A   1      44.453  31.047  30.513  1.00  0.00     0.031 A 
BRANCH  54  68
ATOM     68  C   UNL A   1      38.752  29.203  29.000  1.00  0.00    -0.014 A 
ATOM     69  C   UNL A   1      37.889  29.077  30.101  1.00  0.00     0.009 A 
ATOM     70  C   UNL A   1      38.234  29.680  27.786  1.00  0.00     0.009 A 
ATOM     71  C   UNL A   1      36.531  29.382  29.977  1.00  0.00     0.001 A 
ATOM     72  C   UNL A   1      36.883  30.014  27.673  1.00  0.00     0.001 A 
ATOM     73  C   UNL A   1      36.032  29.855  28.765  1.00  0.00     0.000 A 
ENDBRANCH  54  68
BRANCH  55  74
ATOM     74  C   UNL A   1      48.401  26.634  29.262  1.00  0.00    -0.014 A 
ATOM     75  C   UNL A   1      49.226  26.891  28.155  1.00  0.00     0.009 A 
ATOM     76  C   UNL A   1      48.958  26.020  30.394  1.00  0.00     0.009 A 
ATOM     77  C   UNL A   1      50.571  26.514  28.171  1.00  0.00     0.001 A 
ATOM     78  C   UNL A   1      50.311  25.672  30.419  1.00  0.00     0.001 A 
ATOM     79  C   UNL A   1      51.113  25.908  29.304  1.00  0.00     0.000 A 
ENDBRANCH  55  74
BRANCH  67  80
ATOM     80  C   UNL A   1      44.896  32.352  31.112  1.00  0.00    -0.014 A 
ATOM     81  C   UNL A   1      44.988  32.524  32.502  1.00  0.00     0.009 A 
ATOM     82  C   UNL A   1      45.254  33.417  30.270  1.00  0.00     0.009 A 
ATOM     83  C   UNL A   1      45.392  33.748  33.037  1.00  0.00     0.001 A 
ATOM     84  C   UNL A   1      45.688  34.630  30.807  1.00  0.00     0.001 A 
ATOM     85  C   UNL A   1      45.746  34.798  32.190  1.00  0.00     0.000 A 
ENDBRANCH  67  80
ENDBRANCH  41  42
ENDBRANCH  33  36
ENDBRANCH  31  32
ENDBRANCH  30  31
ENDBRANCH  29  30
ENDBRANCH  28  29
ENDBRANCH   1  28
TORSDOF 17
ENDMDL
