MODEL 1
REMARK VINA RESULT:     -11.6      0.000      0.000
REMARK SMILES N#C/C(=C\c1ccc(-c2cc(C(F)(F)F)ccc2Cl)o1)C(=O)NCCCCCCNC(=O)c1ccc(-c2c3nc(c(-c4ccccc4)c4ccc([nH]4)c(-c4ccccc4)c4nc(c(-c5ccccc5)c5ccc2[nH]5)C=C4)C=C3)cc1
REMARK SMILES IDX 26 1 25 2 24 3 23 4 21 5 22 6 3 8 4 9 2 10 1 11 5 12 6 13
REMARK SMILES IDX 20 14 7 15 8 16 9 17 10 18 18 19 11 20 17 21 19 22 16 23
REMARK SMILES IDX 12 24 13 25 14 26 15 27 27 28 28 29 29 30 30 31 31 32 32 34
REMARK SMILES IDX 33 35 34 36 80 37 35 38 79 39 36 40 37 41 38 42 73 43 39 44
REMARK SMILES IDX 78 45 72 46 74 47 40 48 77 49 71 50 70 51 41 53 63 54 48 55
REMARK SMILES IDX 62 56 49 57 52 58 61 59 75 60 50 61 51 62 60 64 76 65 53 66
REMARK SMILES IDX 42 67 43 68 47 69 44 70 46 71 45 72 64 73 65 74 69 75 66 76
REMARK SMILES IDX 68 77 67 78 54 79 55 80 59 81 56 82 58 83 57 84
REMARK H PARENT 23 7 30 33 74 52 52 63
REMARK Flexibility Score: inf
ROOT
ATOM      1  C   UNL A   1      31.705  28.679  24.800  1.00  0.00     0.002 C 
ENDROOT
BRANCH   1   2
ATOM      2  C   UNL A   1      31.382  28.820  23.315  1.00  0.00     0.021 C 
BRANCH   2   3
ATOM      3  C   UNL A   1      30.828  27.552  22.684  1.00  0.00     0.116 C 
BRANCH   3   4
ATOM      4  N   UNL A   1      31.621  27.080  21.564  1.00  0.00    -0.351 N 
ATOM      5  C   UNL A   1      32.487  26.044  21.380  1.00  0.00     0.262 C 
ATOM      6  O   UNL A   1      33.007  25.939  20.267  1.00  0.00    -0.268 OA
ATOM      7  H   UNL A   1      31.508  27.631  20.756  1.00  0.00     0.163 HD
BRANCH   5   8
ATOM      8  C   UNL A   1      32.855  25.090  22.450  1.00  0.00     0.120 C 
ATOM      9  C   UNL A   1      33.956  25.113  23.248  1.00  0.00     0.072 C 
BRANCH   8  10
ATOM     10  C   UNL A   1      31.782  24.205  23.064  1.00  0.00     0.105 C 
ATOM     11  N   UNL A   1      30.892  23.471  23.573  1.00  0.00    -0.192 NA
ENDBRANCH   8  10
BRANCH   9  12
ATOM     12  C   UNL A   1      34.276  24.127  24.253  1.00  0.00     0.129 A 
ATOM     13  C   UNL A   1      34.324  24.224  25.644  1.00  0.00     0.051 A 
ATOM     14  O   UNL A   1      34.551  22.805  23.937  1.00  0.00    -0.457 OA
ATOM     15  C   UNL A   1      34.691  22.967  26.168  1.00  0.00     0.051 A 
ATOM     16  C   UNL A   1      34.787  22.117  25.093  1.00  0.00     0.136 A 
BRANCH  16  17
ATOM     17  C   UNL A   1      35.070  20.691  24.981  1.00  0.00     0.036 A 
ATOM     18  C   UNL A   1      34.013  19.792  24.753  1.00  0.00     0.026 A 
ATOM     19  C   UNL A   1      36.383  20.183  25.021  1.00  0.00     0.052 A 
ATOM     20  C   UNL A   1      34.250  18.419  24.541  1.00  0.00     0.056 A 
ATOM     21  C   UNL A   1      36.626  18.820  24.821  1.00  0.00     0.022 A 
ATOM     22  Cl  UNL A   1      37.762  21.182  25.336  1.00  0.00    -0.084 Cl
ATOM     23  C   UNL A   1      35.568  17.944  24.578  1.00  0.00     0.014 A 
BRANCH  20  24
ATOM     24  C   UNL A   1      33.098  17.480  24.269  1.00  0.00     0.416 C 
ATOM     25  F   UNL A   1      31.889  18.094  24.387  1.00  0.00    -0.166 F 
ATOM     26  F   UNL A   1      33.136  16.959  23.012  1.00  0.00    -0.166 F 
ATOM     27  F   UNL A   1      33.058  16.412  25.114  1.00  0.00    -0.166 F 
ENDBRANCH  20  24
ENDBRANCH  16  17
ENDBRANCH   9  12
ENDBRANCH   5   8
ENDBRANCH   3   4
ENDBRANCH   2   3
ENDBRANCH   1   2
BRANCH   1  28
ATOM     28  C   UNL A   1      32.923  27.802  25.115  1.00  0.00     0.002 C 
BRANCH  28  29
ATOM     29  C   UNL A   1      34.004  28.465  25.975  1.00  0.00     0.021 C 
BRANCH  29  30
ATOM     30  C   UNL A   1      33.571  28.761  27.405  1.00  0.00     0.116 C 
BRANCH  30  31
ATOM     31  N   UNL A   1      33.627  30.184  27.697  1.00  0.00    -0.352 N 
ATOM     32  C   UNL A   1      34.623  30.901  28.312  1.00  0.00     0.251 C 
ATOM     33  H   UNL A   1      32.842  30.706  27.413  1.00  0.00     0.163 HD
ATOM     34  O   UNL A   1      34.428  32.044  28.696  1.00  0.00    -0.269 OA
BRANCH  32  35
ATOM     35  C   UNL A   1      35.938  30.260  28.514  1.00  0.00     0.039 A 
ATOM     36  C   UNL A   1      36.861  30.249  27.467  1.00  0.00     0.014 A 
ATOM     37  C   UNL A   1      36.255  29.694  29.751  1.00  0.00     0.014 A 
ATOM     38  C   UNL A   1      38.135  29.721  27.681  1.00  0.00     0.010 A 
ATOM     39  C   UNL A   1      37.545  29.239  29.984  1.00  0.00     0.010 A 
ATOM     40  C   UNL A   1      38.496  29.244  28.951  1.00  0.00    -0.014 A 
BRANCH  40  41
ATOM     41  C   UNL A   1      39.859  28.739  29.240  1.00  0.00     0.031 A 
ATOM     42  C   UNL A   1      40.890  29.668  29.814  1.00  0.00     0.074 A 
ATOM     43  C   UNL A   1      40.198  27.488  28.880  1.00  0.00     0.049 A 
ATOM     44  N   UNL A   1      42.170  29.471  29.998  1.00  0.00    -0.248 NA
ATOM     45  C   UNL A   1      40.425  31.011  30.198  1.00  0.00     0.031 C 
ATOM     46  C   UNL A   1      39.297  26.504  28.278  1.00  0.00     0.029 A 
ATOM     47  N   UNL A   1      41.406  26.839  28.943  1.00  0.00    -0.354 N 
ATOM     48  C   UNL A   1      42.668  30.672  30.486  1.00  0.00     0.074 A 
ATOM     49  C   UNL A   1      41.562  31.604  30.526  1.00  0.00     0.031 C 
ATOM     50  C   UNL A   1      39.982  25.376  28.030  1.00  0.00     0.029 A 
ATOM     51  C   UNL A   1      41.378  25.574  28.409  1.00  0.00     0.049 A 
ATOM     52  H   UNL A   1      42.215  27.242  29.335  1.00  0.00     0.167 HD
ATOM     53  C   UNL A   1      43.930  30.969  30.875  1.00  0.00     0.031 A 
ATOM     54  C   UNL A   1      42.369  24.682  28.218  1.00  0.00     0.031 A 
ATOM     55  C   UNL A   1      45.023  30.035  30.838  1.00  0.00     0.049 A 
ATOM     56  C   UNL A   1      43.765  25.033  28.648  1.00  0.00     0.074 A 
ATOM     57  C   UNL A   1      46.322  30.211  31.278  1.00  0.00     0.029 A 
ATOM     58  N   UNL A   1      44.944  28.750  30.322  1.00  0.00    -0.354 N 
ATOM     59  N   UNL A   1      44.208  26.147  29.179  1.00  0.00    -0.248 NA
ATOM     60  C   UNL A   1      44.796  24.003  28.461  1.00  0.00     0.031 C 
ATOM     61  C   UNL A   1      47.047  29.057  30.967  1.00  0.00     0.029 A 
ATOM     62  C   UNL A   1      46.182  28.134  30.399  1.00  0.00     0.049 A 
ATOM     63  H   UNL A   1      44.129  28.337  29.954  1.00  0.00     0.167 HD
ATOM     64  C   UNL A   1      45.561  25.942  29.417  1.00  0.00     0.074 A 
ATOM     65  C   UNL A   1      45.864  24.596  28.979  1.00  0.00     0.031 C 
ATOM     66  C   UNL A   1      46.468  26.794  29.956  1.00  0.00     0.031 A 
BRANCH  53  67
ATOM     67  C   UNL A   1      44.195  32.374  31.344  1.00  0.00    -0.014 A 
ATOM     68  C   UNL A   1      44.072  32.734  32.696  1.00  0.00     0.009 A 
ATOM     69  C   UNL A   1      44.579  33.354  30.416  1.00  0.00     0.009 A 
ATOM     70  C   UNL A   1      44.275  34.056  33.099  1.00  0.00     0.001 A 
ATOM     71  C   UNL A   1      44.815  34.666  30.826  1.00  0.00     0.001 A 
ATOM     72  C   UNL A   1      44.649  35.021  32.163  1.00  0.00     0.000 A 
ENDBRANCH  53  67
BRANCH  54  73
ATOM     73  C   UNL A   1      42.064  23.374  27.584  1.00  0.00    -0.014 A 
ATOM     74  C   UNL A   1      42.349  23.151  26.229  1.00  0.00     0.009 A 
ATOM     75  C   UNL A   1      41.518  22.326  28.343  1.00  0.00     0.009 A 
ATOM     76  C   UNL A   1      42.078  21.912  25.643  1.00  0.00     0.001 A 
ATOM     77  C   UNL A   1      41.277  21.079  27.762  1.00  0.00     0.001 A 
ATOM     78  C   UNL A   1      41.550  20.875  26.411  1.00  0.00     0.000 A 
ENDBRANCH  54  73
BRANCH  66  79
ATOM     79  C   UNL A   1      47.870  26.288  30.143  1.00  0.00    -0.014 A 
ATOM     80  C   UNL A   1      48.316  25.804  31.382  1.00  0.00     0.009 A 
ATOM     81  C   UNL A   1      48.733  26.220  29.036  1.00  0.00     0.009 A 
ATOM     82  C   UNL A   1      49.605  25.281  31.513  1.00  0.00     0.001 A 
ATOM     83  C   UNL A   1      50.009  25.670  29.162  1.00  0.00     0.001 A 
ATOM     84  C   UNL A   1      50.446  25.206  30.401  1.00  0.00     0.000 A 
ENDBRANCH  66  79
ENDBRANCH  40  41
ENDBRANCH  32  35
ENDBRANCH  30  31
ENDBRANCH  29  30
ENDBRANCH  28  29
ENDBRANCH   1  28
TORSDOF 17
ENDMDL
MODEL 2
REMARK VINA RESULT:     -11.0      4.629      6.710
REMARK SMILES N#C/C(=C\c1ccc(-c2cc(C(F)(F)F)ccc2Cl)o1)C(=O)NCCCCCCNC(=O)c1ccc(-c2c3nc(c(-c4ccccc4)c4ccc([nH]4)c(-c4ccccc4)c4nc(c(-c5ccccc5)c5ccc2[nH]5)C=C4)C=C3)cc1
REMARK SMILES IDX 26 1 25 2 24 3 23 4 21 5 22 6 3 8 4 9 2 10 1 11 5 12 6 13
REMARK SMILES IDX 20 14 7 15 8 16 9 17 10 18 18 19 11 20 17 21 19 22 16 23
REMARK SMILES IDX 12 24 13 25 14 26 15 27 27 28 28 29 29 30 30 31 31 32 32 34
REMARK SMILES IDX 33 35 34 36 80 37 35 38 79 39 36 40 37 41 38 42 73 43 39 44
REMARK SMILES IDX 78 45 72 46 74 47 40 48 77 49 71 50 70 51 41 53 63 54 48 55
REMARK SMILES IDX 62 56 49 57 52 58 61 59 75 60 50 61 51 62 60 64 76 65 53 66
REMARK SMILES IDX 42 67 43 68 47 69 44 70 46 71 45 72 64 73 65 74 69 75 66 76
REMARK SMILES IDX 68 77 67 78 54 79 55 80 59 81 56 82 58 83 57 84
REMARK H PARENT 23 7 30 33 74 52 52 63
REMARK Flexibility Score: inf
ROOT
ATOM      1  C   UNL A   1      34.975  33.165  29.078  1.00  0.00     0.002 C 
ENDROOT
BRANCH   1   2
ATOM      2  C   UNL A   1      35.382  32.171  27.994  1.00  0.00     0.021 C 
BRANCH   2   3
ATOM      3  C   UNL A   1      34.328  31.112  27.704  1.00  0.00     0.116 C 
BRANCH   3   4
ATOM      4  N   UNL A   1      33.061  31.674  27.276  1.00  0.00    -0.351 N 
ATOM      5  C   UNL A   1      31.959  31.171  26.651  1.00  0.00     0.262 C 
ATOM      6  O   UNL A   1      31.035  31.955  26.424  1.00  0.00    -0.268 OA
ATOM      7  H   UNL A   1      32.978  32.633  27.482  1.00  0.00     0.163 HD
BRANCH   5   8
ATOM      8  C   UNL A   1      31.847  29.765  26.203  1.00  0.00     0.120 C 
ATOM      9  C   UNL A   1      31.779  28.645  26.973  1.00  0.00     0.072 C 
BRANCH   8  10
ATOM     10  C   UNL A   1      31.350  29.465  24.798  1.00  0.00     0.105 C 
ATOM     11  N   UNL A   1      30.937  29.216  23.633  1.00  0.00    -0.192 NA
ENDBRANCH   8  10
BRANCH   9  12
ATOM     12  C   UNL A   1      31.708  27.293  26.471  1.00  0.00     0.129 A 
ATOM     13  C   UNL A   1      30.655  26.379  26.458  1.00  0.00     0.051 A 
ATOM     14  O   UNL A   1      32.769  26.686  25.817  1.00  0.00    -0.457 OA
ATOM     15  C   UNL A   1      31.102  25.188  25.849  1.00  0.00     0.051 A 
ATOM     16  C   UNL A   1      32.391  25.428  25.440  1.00  0.00     0.136 A 
BRANCH  16  17
ATOM     17  C   UNL A   1      33.363  24.626  24.706  1.00  0.00     0.036 A 
ATOM     18  C   UNL A   1      34.525  24.179  25.359  1.00  0.00     0.026 A 
ATOM     19  C   UNL A   1      33.145  24.218  23.376  1.00  0.00     0.052 A 
ATOM     20  C   UNL A   1      35.443  23.322  24.719  1.00  0.00     0.056 A 
ATOM     21  C   UNL A   1      34.055  23.376  22.730  1.00  0.00     0.022 A 
ATOM     22  Cl  UNL A   1      31.774  24.736  22.453  1.00  0.00    -0.084 Cl
ATOM     23  C   UNL A   1      35.194  22.926  23.398  1.00  0.00     0.014 A 
BRANCH  20  24
ATOM     24  C   UNL A   1      36.668  22.832  25.455  1.00  0.00     0.416 C 
ATOM     25  F   UNL A   1      37.094  23.715  26.399  1.00  0.00    -0.166 F 
ATOM     26  F   UNL A   1      36.451  21.658  26.107  1.00  0.00    -0.166 F 
ATOM     27  F   UNL A   1      37.738  22.614  24.639  1.00  0.00    -0.166 F 
ENDBRANCH  20  24
ENDBRANCH  16  17
ENDBRANCH   9  12
ENDBRANCH   5   8
ENDBRANCH   3   4
ENDBRANCH   2   3
ENDBRANCH   1   2
BRANCH   1  28
ATOM     28  C   UNL A   1      35.281  34.633  28.755  1.00  0.00     0.002 C 
BRANCH  28  29
ATOM     29  C   UNL A   1      34.087  35.588  28.854  1.00  0.00     0.021 C 
BRANCH  29  30
ATOM     30  C   UNL A   1      32.903  35.029  29.631  1.00  0.00     0.116 C 
BRANCH  30  31
ATOM     31  N   UNL A   1      32.441  35.962  30.647  1.00  0.00    -0.352 N 
ATOM     32  C   UNL A   1      32.755  36.008  31.983  1.00  0.00     0.251 C 
ATOM     33  H   UNL A   1      31.819  36.657  30.333  1.00  0.00     0.163 HD
ATOM     34  O   UNL A   1      32.112  36.703  32.754  1.00  0.00    -0.269 OA
BRANCH  32  35
ATOM     35  C   UNL A   1      33.883  35.193  32.476  1.00  0.00     0.039 A 
ATOM     36  C   UNL A   1      33.642  33.894  32.928  1.00  0.00     0.014 A 
ATOM     37  C   UNL A   1      35.179  35.716  32.465  1.00  0.00     0.014 A 
ATOM     38  C   UNL A   1      34.716  33.092  33.313  1.00  0.00     0.010 A 
ATOM     39  C   UNL A   1      36.251  34.892  32.776  1.00  0.00     0.010 A 
ATOM     40  C   UNL A   1      36.030  33.574  33.207  1.00  0.00    -0.014 A 
BRANCH  40  41
ATOM     41  C   UNL A   1      37.203  32.732  33.540  1.00  0.00     0.031 A 
ATOM     42  C   UNL A   1      37.979  33.000  34.798  1.00  0.00     0.074 A 
ATOM     43  C   UNL A   1      37.635  31.810  32.660  1.00  0.00     0.049 A 
ATOM     44  N   UNL A   1      39.114  32.484  35.195  1.00  0.00    -0.248 NA
ATOM     45  C   UNL A   1      37.422  34.011  35.712  1.00  0.00     0.031 C 
ATOM     46  C   UNL A   1      36.990  31.485  31.386  1.00  0.00     0.029 A 
ATOM     47  N   UNL A   1      38.740  30.997  32.692  1.00  0.00    -0.354 N 
ATOM     48  C   UNL A   1      39.422  33.131  36.386  1.00  0.00     0.074 A 
ATOM     49  C   UNL A   1      38.379  34.106  36.620  1.00  0.00     0.031 C 
ATOM     50  C   UNL A   1      37.709  30.538  30.760  1.00  0.00     0.029 A 
ATOM     51  C   UNL A   1      38.888  30.228  31.563  1.00  0.00     0.049 A 
ATOM     52  H   UNL A   1      39.367  30.967  33.451  1.00  0.00     0.167 HD
ATOM     53  C   UNL A   1      40.473  32.924  37.213  1.00  0.00     0.031 A 
ATOM     54  C   UNL A   1      39.876  29.387  31.200  1.00  0.00     0.031 A 
ATOM     55  C   UNL A   1      41.502  31.948  36.976  1.00  0.00     0.049 A 
ATOM     56  C   UNL A   1      41.039  29.176  32.128  1.00  0.00     0.074 A 
ATOM     57  C   UNL A   1      42.570  31.607  37.786  1.00  0.00     0.029 A 
ATOM     58  N   UNL A   1      41.596  31.163  35.836  1.00  0.00    -0.354 N 
ATOM     59  N   UNL A   1      41.280  29.739  33.288  1.00  0.00    -0.248 NA
ATOM     60  C   UNL A   1      42.061  28.211  31.702  1.00  0.00     0.031 C 
ATOM     61  C   UNL A   1      43.347  30.663  37.108  1.00  0.00     0.029 A 
ATOM     62  C   UNL A   1      42.725  30.364  35.905  1.00  0.00     0.049 A 
ATOM     63  H   UNL A   1      40.956  31.174  35.088  1.00  0.00     0.167 HD
ATOM     64  C   UNL A   1      42.464  29.175  33.743  1.00  0.00     0.074 A 
ATOM     65  C   UNL A   1      42.888  28.222  32.739  1.00  0.00     0.031 C 
ATOM     66  C   UNL A   1      43.134  29.422  34.896  1.00  0.00     0.031 A 
BRANCH  53  67
ATOM     67  C   UNL A   1      40.571  33.796  38.435  1.00  0.00    -0.014 A 
ATOM     68  C   UNL A   1      40.056  33.385  39.676  1.00  0.00     0.009 A 
ATOM     69  C   UNL A   1      41.194  35.050  38.344  1.00  0.00     0.009 A 
ATOM     70  C   UNL A   1      40.115  34.233  40.784  1.00  0.00     0.001 A 
ATOM     71  C   UNL A   1      41.283  35.881  39.462  1.00  0.00     0.001 A 
ATOM     72  C   UNL A   1      40.731  35.480  40.676  1.00  0.00     0.000 A 
ENDBRANCH  53  67
BRANCH  54  73
ATOM     73  C   UNL A   1      39.798  28.689  29.891  1.00  0.00    -0.014 A 
ATOM     74  C   UNL A   1      40.271  29.304  28.723  1.00  0.00     0.009 A 
ATOM     75  C   UNL A   1      39.283  27.385  29.809  1.00  0.00     0.009 A 
ATOM     76  C   UNL A   1      40.214  28.635  27.498  1.00  0.00     0.001 A 
ATOM     77  C   UNL A   1      39.255  26.707  28.589  1.00  0.00     0.001 A 
ATOM     78  C   UNL A   1      39.714  27.335  27.433  1.00  0.00     0.000 A 
ENDBRANCH  54  73
BRANCH  66  79
ATOM     79  C   UNL A   1      44.381  28.624  35.159  1.00  0.00    -0.014 A 
ATOM     80  C   UNL A   1      44.330  27.374  35.792  1.00  0.00     0.009 A 
ATOM     81  C   UNL A   1      45.616  29.100  34.691  1.00  0.00     0.009 A 
ATOM     82  C   UNL A   1      45.495  26.624  35.968  1.00  0.00     0.001 A 
ATOM     83  C   UNL A   1      46.775  28.337  34.841  1.00  0.00     0.001 A 
ATOM     84  C   UNL A   1      46.714  27.102  35.485  1.00  0.00     0.000 A 
ENDBRANCH  66  79
ENDBRANCH  40  41
ENDBRANCH  32  35
ENDBRANCH  30  31
ENDBRANCH  29  30
ENDBRANCH  28  29
ENDBRANCH   1  28
TORSDOF 17
ENDMDL
MODEL 3
REMARK VINA RESULT:     -11.0      2.424      6.591
REMARK SMILES N#C/C(=C\c1ccc(-c2cc(C(F)(F)F)ccc2Cl)o1)C(=O)NCCCCCCNC(=O)c1ccc(-c2c3nc(c(-c4ccccc4)c4ccc([nH]4)c(-c4ccccc4)c4nc(c(-c5ccccc5)c5ccc2[nH]5)C=C4)C=C3)cc1
REMARK SMILES IDX 26 1 25 2 24 3 23 4 21 5 22 6 3 8 4 9 2 10 1 11 5 12 6 13
REMARK SMILES IDX 20 14 7 15 8 16 9 17 10 18 18 19 11 20 17 21 19 22 16 23
REMARK SMILES IDX 12 24 13 25 14 26 15 27 27 28 28 29 29 30 30 31 31 32 32 34
REMARK SMILES IDX 33 35 34 36 80 37 35 38 79 39 36 40 37 41 38 42 73 43 39 44
REMARK SMILES IDX 78 45 72 46 74 47 40 48 77 49 71 50 70 51 41 53 63 54 48 55
REMARK SMILES IDX 62 56 49 57 52 58 61 59 75 60 50 61 51 62 60 64 76 65 53 66
REMARK SMILES IDX 42 67 43 68 47 69 44 70 46 71 45 72 64 73 65 74 69 75 66 76
REMARK SMILES IDX 68 77 67 78 54 79 55 80 59 81 56 82 58 83 57 84
REMARK H PARENT 23 7 30 33 74 52 52 63
REMARK Flexibility Score: inf
ROOT
ATOM      1  C   UNL A   1      30.906  28.791  24.738  1.00  0.00     0.002 C 
ENDROOT
BRANCH   1   2
ATOM      2  C   UNL A   1      31.561  28.502  23.391  1.00  0.00     0.021 C 
BRANCH   2   3
ATOM      3  C   UNL A   1      30.815  27.475  22.552  1.00  0.00     0.116 C 
BRANCH   3   4
ATOM      4  N   UNL A   1      31.593  26.983  21.430  1.00  0.00    -0.351 N 
ATOM      5  C   UNL A   1      32.460  25.947  21.255  1.00  0.00     0.262 C 
ATOM      6  O   UNL A   1      32.964  25.821  20.137  1.00  0.00    -0.268 OA
ATOM      7  H   UNL A   1      31.465  27.518  20.613  1.00  0.00     0.163 HD
BRANCH   5   8
ATOM      8  C   UNL A   1      32.848  25.017  22.338  1.00  0.00     0.120 C 
ATOM      9  C   UNL A   1      33.948  25.076  23.137  1.00  0.00     0.072 C 
BRANCH   8  10
ATOM     10  C   UNL A   1      31.795  24.118  22.965  1.00  0.00     0.105 C 
ATOM     11  N   UNL A   1      30.921  23.373  23.485  1.00  0.00    -0.192 NA
ENDBRANCH   8  10
BRANCH   9  12
ATOM     12  C   UNL A   1      34.290  24.112  24.156  1.00  0.00     0.129 A 
ATOM     13  C   UNL A   1      34.419  24.251  25.537  1.00  0.00     0.051 A 
ATOM     14  O   UNL A   1      34.499  22.771  23.871  1.00  0.00    -0.457 OA
ATOM     15  C   UNL A   1      34.770  23.000  26.084  1.00  0.00     0.051 A 
ATOM     16  C   UNL A   1      34.775  22.112  25.035  1.00  0.00     0.136 A 
BRANCH  16  17
ATOM     17  C   UNL A   1      35.000  20.673  24.957  1.00  0.00     0.036 A 
ATOM     18  C   UNL A   1      33.904  19.810  24.788  1.00  0.00     0.026 A 
ATOM     19  C   UNL A   1      36.294  20.117  24.972  1.00  0.00     0.052 A 
ATOM     20  C   UNL A   1      34.082  18.423  24.610  1.00  0.00     0.056 A 
ATOM     21  C   UNL A   1      36.479  18.741  24.806  1.00  0.00     0.022 A 
ATOM     22  Cl  UNL A   1      37.718  21.071  25.215  1.00  0.00    -0.084 Cl
ATOM     23  C   UNL A   1      35.382  17.900  24.621  1.00  0.00     0.014 A 
BRANCH  20  24
ATOM     24  C   UNL A   1      32.888  17.522  24.401  1.00  0.00     0.416 C 
ATOM     25  F   UNL A   1      32.221  17.266  25.559  1.00  0.00    -0.166 F 
ATOM     26  F   UNL A   1      31.972  18.059  23.549  1.00  0.00    -0.166 F 
ATOM     27  F   UNL A   1      33.212  16.305  23.881  1.00  0.00    -0.166 F 
ENDBRANCH  20  24
ENDBRANCH  16  17
ENDBRANCH   9  12
ENDBRANCH   5   8
ENDBRANCH   3   4
ENDBRANCH   2   3
ENDBRANCH   1   2
BRANCH   1  28
ATOM     28  C   UNL A   1      31.878  29.191  25.856  1.00  0.00     0.002 C 
BRANCH  28  29
ATOM     29  C   UNL A   1      32.283  30.668  25.876  1.00  0.00     0.021 C 
BRANCH  29  30
ATOM     30  C   UNL A   1      32.580  31.215  27.266  1.00  0.00     0.116 C 
BRANCH  30  31
ATOM     31  N   UNL A   1      32.300  32.639  27.352  1.00  0.00    -0.352 N 
ATOM     32  C   UNL A   1      32.972  33.611  28.050  1.00  0.00     0.251 C 
ATOM     33  H   UNL A   1      31.520  32.949  26.837  1.00  0.00     0.163 HD
ATOM     34  O   UNL A   1      32.483  34.719  28.212  1.00  0.00    -0.269 OA
BRANCH  32  35
ATOM     35  C   UNL A   1      34.299  33.292  28.613  1.00  0.00     0.039 A 
ATOM     36  C   UNL A   1      34.381  32.667  29.859  1.00  0.00     0.014 A 
ATOM     37  C   UNL A   1      35.455  33.594  27.889  1.00  0.00     0.014 A 
ATOM     38  C   UNL A   1      35.628  32.286  30.354  1.00  0.00     0.010 A 
ATOM     39  C   UNL A   1      36.686  33.147  28.348  1.00  0.00     0.010 A 
ATOM     40  C   UNL A   1      36.785  32.493  29.587  1.00  0.00    -0.014 A 
BRANCH  40  41
ATOM     41  C   UNL A   1      38.120  32.042  30.044  1.00  0.00     0.031 A 
ATOM     42  C   UNL A   1      38.696  30.761  29.511  1.00  0.00     0.074 A 
ATOM     43  C   UNL A   1      38.757  32.719  31.018  1.00  0.00     0.049 A 
ATOM     44  N   UNL A   1      39.770  30.116  29.890  1.00  0.00    -0.248 NA
ATOM     45  C   UNL A   1      37.942  30.099  28.434  1.00  0.00     0.031 C 
ATOM     46  C   UNL A   1      38.281  33.954  31.643  1.00  0.00     0.029 A 
ATOM     47  N   UNL A   1      39.931  32.443  31.673  1.00  0.00    -0.354 N 
ATOM     48  C   UNL A   1      39.801  28.959  29.122  1.00  0.00     0.074 A 
ATOM     49  C   UNL A   1      38.618  28.970  28.291  1.00  0.00     0.031 C 
ATOM     50  C   UNL A   1      39.156  34.332  32.589  1.00  0.00     0.029 A 
ATOM     51  C   UNL A   1      40.226  33.341  32.670  1.00  0.00     0.049 A 
ATOM     52  H   UNL A   1      40.507  31.677  31.449  1.00  0.00     0.167 HD
ATOM     53  C   UNL A   1      40.738  27.982  29.104  1.00  0.00     0.031 A 
ATOM     54  C   UNL A   1      41.229  33.353  33.568  1.00  0.00     0.031 A 
ATOM     55  C   UNL A   1      41.915  27.982  29.930  1.00  0.00     0.049 A 
ATOM     56  C   UNL A   1      42.254  32.255  33.539  1.00  0.00     0.074 A 
ATOM     57  C   UNL A   1      42.962  27.078  29.937  1.00  0.00     0.029 A 
ATOM     58  N   UNL A   1      42.195  28.930  30.903  1.00  0.00    -0.354 N 
ATOM     59  N   UNL A   1      42.315  31.205  32.756  1.00  0.00    -0.248 NA
ATOM     60  C   UNL A   1      43.353  32.346  34.510  1.00  0.00     0.031 C 
ATOM     61  C   UNL A   1      43.844  27.442  30.959  1.00  0.00     0.029 A 
ATOM     62  C   UNL A   1      43.382  28.613  31.542  1.00  0.00     0.049 A 
ATOM     63  H   UNL A   1      41.633  29.711  31.110  1.00  0.00     0.167 HD
ATOM     64  C   UNL A   1      43.471  30.527  33.118  1.00  0.00     0.074 A 
ATOM     65  C   UNL A   1      44.085  31.287  34.186  1.00  0.00     0.031 C 
ATOM     66  C   UNL A   1      43.979  29.379  32.605  1.00  0.00     0.031 A 
BRANCH  53  67
ATOM     67  C   UNL A   1      40.502  26.817  28.181  1.00  0.00    -0.014 A 
ATOM     68  C   UNL A   1      40.992  26.812  26.865  1.00  0.00     0.009 A 
ATOM     69  C   UNL A   1      39.780  25.704  28.638  1.00  0.00     0.009 A 
ATOM     70  C   UNL A   1      40.717  25.740  26.011  1.00  0.00     0.001 A 
ATOM     71  C   UNL A   1      39.537  24.620  27.795  1.00  0.00     0.001 A 
ATOM     72  C   UNL A   1      39.991  24.644  26.478  1.00  0.00     0.000 A 
ENDBRANCH  53  67
BRANCH  54  73
ATOM     73  C   UNL A   1      41.301  34.447  34.571  1.00  0.00    -0.014 A 
ATOM     74  C   UNL A   1      41.936  35.659  34.265  1.00  0.00     0.009 A 
ATOM     75  C   UNL A   1      40.699  34.297  35.831  1.00  0.00     0.009 A 
ATOM     76  C   UNL A   1      41.983  36.691  35.205  1.00  0.00     0.001 A 
ATOM     77  C   UNL A   1      40.721  35.342  36.758  1.00  0.00     0.001 A 
ATOM     78  C   UNL A   1      41.369  36.535  36.447  1.00  0.00     0.000 A 
ENDBRANCH  54  73
BRANCH  66  79
ATOM     79  C   UNL A   1      45.286  28.889  33.162  1.00  0.00    -0.014 A 
ATOM     80  C   UNL A   1      46.514  29.325  32.642  1.00  0.00     0.009 A 
ATOM     81  C   UNL A   1      45.285  28.038  34.279  1.00  0.00     0.009 A 
ATOM     82  C   UNL A   1      47.714  28.903  33.218  1.00  0.00     0.001 A 
ATOM     83  C   UNL A   1      46.484  27.641  34.872  1.00  0.00     0.001 A 
ATOM     84  C   UNL A   1      47.697  28.070  34.338  1.00  0.00     0.000 A 
ENDBRANCH  66  79
ENDBRANCH  40  41
ENDBRANCH  32  35
ENDBRANCH  30  31
ENDBRANCH  29  30
ENDBRANCH  28  29
ENDBRANCH   1  28
TORSDOF 17
ENDMDL
