MODEL 1
REMARK VINA RESULT:     -12.0      0.000      0.000
REMARK SMILES Cc1ccn2c([C@@H]3CCCC[C@@H]3C(=O)NCCCCCCNC(=O)c3ccc(-c4c5nc(c(-c6ccccc6)c6ccc([nH]6)c(-c6ccccc6)c6nc(c(-c7ccccc7)c7ccc4[nH]7)C=C6)C=C5)cc3)nnc2c1
REMARK SMILES IDX 19 1 18 2 17 3 16 4 15 5 13 6 14 7 12 9 7 10 8 11 9 12 11 13
REMARK SMILES IDX 10 14 6 15 1 16 2 17 3 18 76 19 4 20 75 21 5 22 74 23 73 24
REMARK SMILES IDX 20 25 21 26 22 27 23 28 24 30 25 31 26 32 72 33 27 34 71 35
REMARK SMILES IDX 28 36 29 37 30 38 65 39 31 40 70 41 64 42 66 43 32 44 69 45
REMARK SMILES IDX 63 46 62 47 33 49 55 50 40 51 54 52 41 53 44 54 53 55 67 56
REMARK SMILES IDX 42 57 43 58 52 60 68 61 45 62 34 63 35 64 39 65 36 66 38 67
REMARK SMILES IDX 37 68 56 69 57 70 61 71 58 72 60 73 59 74 46 75 47 76 51 77
REMARK SMILES IDX 48 78 50 79 49 80
REMARK H PARENT 15 8 22 29 66 48 44 59
REMARK Flexibility Score: inf
ROOT
ATOM      1  C   UNL A   1      40.625  21.374  27.173  1.00  0.00     0.002 C 
ENDROOT
BRANCH   1   2
ATOM      2  C   UNL A   1      39.728  22.410  26.477  1.00  0.00     0.002 C 
BRANCH   2   3
ATOM      3  C   UNL A   1      38.508  21.815  25.777  1.00  0.00     0.021 C 
BRANCH   3   4
ATOM      4  C   UNL A   1      37.366  22.815  25.676  1.00  0.00     0.116 C 
BRANCH   4   5
ATOM      5  N   UNL A   1      36.220  22.412  26.452  1.00  0.00    -0.356 N 
ATOM      6  C   UNL A   1      35.172  21.600  26.181  1.00  0.00     0.223 C 
ATOM      7  O   UNL A   1      34.407  21.388  27.129  1.00  0.00    -0.275 OA
ATOM      8  H   UNL A   1      36.195  22.805  27.354  1.00  0.00     0.163 HD
BRANCH   6   9
ATOM      9  C   UNL A   1      34.903  20.933  24.829  1.00  0.00     0.089 C 
ATOM     10  C   UNL A   1      33.768  21.478  23.949  1.00  0.00     0.071 C 
ATOM     11  C   UNL A   1      32.393  20.900  24.242  1.00  0.00     0.012 C 
ATOM     12  C   UNL A   1      32.411  19.368  24.181  1.00  0.00     0.001 C 
ATOM     13  C   UNL A   1      34.933  19.397  24.856  1.00  0.00     0.014 C 
ATOM     14  C   UNL A   1      33.591  18.662  24.856  1.00  0.00     0.001 C 
BRANCH  10  15
ATOM     15  C   UNL A   1      33.792  22.960  23.694  1.00  0.00     0.141 A 
ATOM     16  C   UNL A   1      32.745  27.704  26.482  1.00  0.00     0.044 C 
ATOM     17  C   UNL A   1      32.925  26.428  25.716  1.00  0.00    -0.046 A 
ATOM     18  C   UNL A   1      32.407  25.199  26.312  1.00  0.00     0.022 A 
ATOM     19  C   UNL A   1      33.564  26.392  24.526  1.00  0.00     0.053 A 
ATOM     20  C   UNL A   1      32.622  24.025  25.694  1.00  0.00     0.095 A 
ATOM     21  C   UNL A   1      33.769  25.151  23.865  1.00  0.00     0.161 A 
ATOM     22  N   UNL A   1      33.340  23.992  24.500  1.00  0.00    -0.286 N 
ATOM     23  N   UNL A   1      34.313  24.850  22.709  1.00  0.00    -0.130 NA
ATOM     24  N   UNL A   1      34.322  23.484  22.600  1.00  0.00    -0.134 NA
ENDBRANCH  10  15
ENDBRANCH   6   9
ENDBRANCH   4   5
ENDBRANCH   3   4
ENDBRANCH   2   3
ENDBRANCH   1   2
BRANCH   1  25
ATOM     25  C   UNL A   1      40.866  20.074  26.391  1.00  0.00     0.021 C 
BRANCH  25  26
ATOM     26  C   UNL A   1      42.236  19.439  26.641  1.00  0.00     0.116 C 
BRANCH  26  27
ATOM     27  N   UNL A   1      43.109  19.521  25.489  1.00  0.00    -0.352 N 
ATOM     28  C   UNL A   1      43.891  20.482  24.929  1.00  0.00     0.251 C 
ATOM     29  H   UNL A   1      43.144  18.673  24.989  1.00  0.00     0.163 HD
ATOM     30  O   UNL A   1      44.499  20.150  23.902  1.00  0.00    -0.269 OA
BRANCH  28  31
ATOM     31  C   UNL A   1      44.018  21.883  25.405  1.00  0.00     0.039 A 
ATOM     32  C   UNL A   1      44.839  22.320  26.444  1.00  0.00     0.014 A 
ATOM     33  C   UNL A   1      43.158  22.814  24.789  1.00  0.00     0.014 A 
ATOM     34  C   UNL A   1      44.702  23.609  26.944  1.00  0.00     0.010 A 
ATOM     35  C   UNL A   1      43.037  24.111  25.269  1.00  0.00     0.010 A 
ATOM     36  C   UNL A   1      43.755  24.480  26.397  1.00  0.00    -0.014 A 
BRANCH  36  37
ATOM     37  C   UNL A   1      43.541  25.758  27.063  1.00  0.00     0.031 A 
ATOM     38  C   UNL A   1      44.590  26.792  26.850  1.00  0.00     0.074 A 
ATOM     39  C   UNL A   1      42.472  26.017  27.841  1.00  0.00     0.049 A 
ATOM     40  N   UNL A   1      45.413  27.269  27.726  1.00  0.00    -0.248 NA
ATOM     41  C   UNL A   1      44.813  27.280  25.483  1.00  0.00     0.031 C 
ATOM     42  C   UNL A   1      41.239  25.246  28.030  1.00  0.00     0.029 A 
ATOM     43  N   UNL A   1      42.258  27.120  28.608  1.00  0.00    -0.354 N 
ATOM     44  C   UNL A   1      46.195  28.208  27.060  1.00  0.00     0.074 A 
ATOM     45  C   UNL A   1      45.836  28.118  25.665  1.00  0.00     0.031 C 
ATOM     46  C   UNL A   1      40.325  26.010  28.675  1.00  0.00     0.029 A 
ATOM     47  C   UNL A   1      40.966  27.243  29.092  1.00  0.00     0.049 A 
ATOM     48  H   UNL A   1      42.964  27.777  28.805  1.00  0.00     0.167 HD
ATOM     49  C   UNL A   1      47.001  29.088  27.717  1.00  0.00     0.031 A 
ATOM     50  C   UNL A   1      40.463  28.300  29.773  1.00  0.00     0.031 A 
ATOM     51  C   UNL A   1      47.235  28.701  29.080  1.00  0.00     0.049 A 
ATOM     52  C   UNL A   1      41.610  29.000  30.397  1.00  0.00     0.074 A 
ATOM     53  C   UNL A   1      47.896  27.652  29.688  1.00  0.00     0.029 A 
ATOM     54  N   UNL A   1      46.441  29.256  30.052  1.00  0.00    -0.354 N 
ATOM     55  N   UNL A   1      42.334  28.476  31.343  1.00  0.00    -0.248 NA
ATOM     56  C   UNL A   1      42.227  30.096  29.666  1.00  0.00     0.031 C 
ATOM     57  C   UNL A   1      47.092  27.324  30.817  1.00  0.00     0.029 A 
ATOM     58  C   UNL A   1      46.027  28.227  30.859  1.00  0.00     0.049 A 
ATOM     59  H   UNL A   1      46.212  30.209  30.151  1.00  0.00     0.167 HD
ATOM     60  C   UNL A   1      43.632  28.875  31.059  1.00  0.00     0.074 A 
ATOM     61  C   UNL A   1      43.493  29.938  30.065  1.00  0.00     0.031 C 
ATOM     62  C   UNL A   1      44.708  28.131  31.448  1.00  0.00     0.031 A 
BRANCH  49  63
ATOM     63  C   UNL A   1      47.370  30.450  27.201  1.00  0.00    -0.014 A 
ATOM     64  C   UNL A   1      46.406  31.384  26.782  1.00  0.00     0.009 A 
ATOM     65  C   UNL A   1      48.684  30.921  27.372  1.00  0.00     0.009 A 
ATOM     66  C   UNL A   1      46.731  32.723  26.547  1.00  0.00     0.001 A 
ATOM     67  C   UNL A   1      49.005  32.270  27.172  1.00  0.00     0.001 A 
ATOM     68  C   UNL A   1      48.027  33.170  26.763  1.00  0.00     0.000 A 
ENDBRANCH  49  63
BRANCH  50  69
ATOM     69  C   UNL A   1      39.185  28.990  29.485  1.00  0.00    -0.014 A 
ATOM     70  C   UNL A   1      38.153  28.989  30.443  1.00  0.00     0.009 A 
ATOM     71  C   UNL A   1      38.864  29.381  28.176  1.00  0.00     0.009 A 
ATOM     72  C   UNL A   1      36.840  29.322  30.097  1.00  0.00     0.001 A 
ATOM     73  C   UNL A   1      37.547  29.718  27.830  1.00  0.00     0.001 A 
ATOM     74  C   UNL A   1      36.534  29.672  28.786  1.00  0.00     0.000 A 
ENDBRANCH  50  69
BRANCH  62  75
ATOM     75  C   UNL A   1      44.471  26.929  32.335  1.00  0.00    -0.014 A 
ATOM     76  C   UNL A   1      44.554  27.098  33.725  1.00  0.00     0.009 A 
ATOM     77  C   UNL A   1      44.395  25.619  31.828  1.00  0.00     0.009 A 
ATOM     78  C   UNL A   1      44.585  25.995  34.582  1.00  0.00     0.001 A 
ATOM     79  C   UNL A   1      44.403  24.513  32.687  1.00  0.00     0.001 A 
ATOM     80  C   UNL A   1      44.513  24.703  34.063  1.00  0.00     0.000 A 
ENDBRANCH  62  75
ENDBRANCH  36  37
ENDBRANCH  28  31
ENDBRANCH  26  27
ENDBRANCH  25  26
ENDBRANCH   1  25
TORSDOF 14
ENDMDL
MODEL 2
REMARK VINA RESULT:     -11.7      2.767      7.637
REMARK SMILES Cc1ccn2c([C@@H]3CCCC[C@@H]3C(=O)NCCCCCCNC(=O)c3ccc(-c4c5nc(c(-c6ccccc6)c6ccc([nH]6)c(-c6ccccc6)c6nc(c(-c7ccccc7)c7ccc4[nH]7)C=C6)C=C5)cc3)nnc2c1
REMARK SMILES IDX 19 1 18 2 17 3 16 4 15 5 13 6 14 7 12 9 7 10 8 11 9 12 11 13
REMARK SMILES IDX 10 14 6 15 1 16 2 17 3 18 76 19 4 20 75 21 5 22 74 23 73 24
REMARK SMILES IDX 20 25 21 26 22 27 23 28 24 30 25 31 26 32 72 33 27 34 71 35
REMARK SMILES IDX 28 36 29 37 30 38 65 39 31 40 70 41 64 42 66 43 32 44 69 45
REMARK SMILES IDX 63 46 62 47 33 49 55 50 40 51 54 52 41 53 44 54 53 55 67 56
REMARK SMILES IDX 42 57 43 58 52 60 68 61 45 62 34 63 35 64 39 65 36 66 38 67
REMARK SMILES IDX 37 68 56 69 57 70 61 71 58 72 60 73 59 74 46 75 47 76 51 77
REMARK SMILES IDX 48 78 50 79 49 80
REMARK H PARENT 15 8 22 29 66 48 44 59
REMARK Flexibility Score: inf
ROOT
ATOM      1  C   UNL A   1      32.333  28.144  26.663  1.00  0.00     0.002 C 
ENDROOT
BRANCH   1   2
ATOM      2  C   UNL A   1      33.754  27.781  26.201  1.00  0.00     0.002 C 
BRANCH   2   3
ATOM      3  C   UNL A   1      33.803  26.784  25.045  1.00  0.00     0.021 C 
BRANCH   3   4
ATOM      4  C   UNL A   1      34.327  25.426  25.486  1.00  0.00     0.116 C 
BRANCH   4   5
ATOM      5  N   UNL A   1      33.269  24.554  25.930  1.00  0.00    -0.356 N 
ATOM      6  C   UNL A   1      32.926  23.288  25.595  1.00  0.00     0.223 C 
ATOM      7  O   UNL A   1      32.007  22.794  26.259  1.00  0.00    -0.275 OA
ATOM      8  H   UNL A   1      32.681  24.957  26.609  1.00  0.00     0.163 HD
BRANCH   6   9
ATOM      9  C   UNL A   1      33.600  22.454  24.501  1.00  0.00     0.089 C 
ATOM     10  C   UNL A   1      33.008  22.477  23.085  1.00  0.00     0.071 C 
ATOM     11  C   UNL A   1      31.896  21.470  22.836  1.00  0.00     0.012 C 
ATOM     12  C   UNL A   1      32.345  20.048  23.192  1.00  0.00     0.001 C 
ATOM     13  C   UNL A   1      34.015  21.041  24.938  1.00  0.00     0.014 C 
ATOM     14  C   UNL A   1      33.125  19.876  24.500  1.00  0.00     0.001 C 
BRANCH  10  15
ATOM     15  C   UNL A   1      32.774  23.840  22.495  1.00  0.00     0.141 A 
ATOM     16  C   UNL A   1      29.444  28.260  23.365  1.00  0.00     0.044 C 
ATOM     17  C   UNL A   1      30.259  27.035  23.077  1.00  0.00    -0.046 A 
ATOM     18  C   UNL A   1      29.854  25.784  23.713  1.00  0.00     0.022 A 
ATOM     19  C   UNL A   1      31.350  27.073  22.280  1.00  0.00     0.053 A 
ATOM     20  C   UNL A   1      30.609  24.684  23.544  1.00  0.00     0.095 A 
ATOM     21  C   UNL A   1      32.131  25.902  22.086  1.00  0.00     0.161 A 
ATOM     22  N   UNL A   1      31.767  24.750  22.774  1.00  0.00    -0.286 N 
ATOM     23  N   UNL A   1      33.190  25.664  21.349  1.00  0.00    -0.130 NA
ATOM     24  N   UNL A   1      33.587  24.377  21.599  1.00  0.00    -0.134 NA
ENDBRANCH  10  15
ENDBRANCH   6   9
ENDBRANCH   4   5
ENDBRANCH   3   4
ENDBRANCH   2   3
ENDBRANCH   1   2
BRANCH   1  25
ATOM     25  C   UNL A   1      32.169  29.551  27.257  1.00  0.00     0.021 C 
BRANCH  25  26
ATOM     26  C   UNL A   1      33.311  30.510  26.916  1.00  0.00     0.116 C 
BRANCH  26  27
ATOM     27  N   UNL A   1      33.645  31.395  28.013  1.00  0.00    -0.352 N 
ATOM     28  C   UNL A   1      34.771  31.686  28.717  1.00  0.00     0.251 C 
ATOM     29  H   UNL A   1      32.866  31.911  28.324  1.00  0.00     0.163 HD
ATOM     30  O   UNL A   1      34.639  32.524  29.619  1.00  0.00    -0.269 OA
BRANCH  28  31
ATOM     31  C   UNL A   1      36.098  31.045  28.535  1.00  0.00     0.039 A 
ATOM     32  C   UNL A   1      36.332  29.810  27.930  1.00  0.00     0.014 A 
ATOM     33  C   UNL A   1      37.187  31.730  29.108  1.00  0.00     0.014 A 
ATOM     34  C   UNL A   1      37.584  29.216  28.022  1.00  0.00     0.010 A 
ATOM     35  C   UNL A   1      38.447  31.152  29.179  1.00  0.00     0.010 A 
ATOM     36  C   UNL A   1      38.621  29.860  28.703  1.00  0.00    -0.014 A 
BRANCH  36  37
ATOM     37  C   UNL A   1      39.861  29.124  28.909  1.00  0.00     0.031 A 
ATOM     38  C   UNL A   1      40.202  28.795  30.320  1.00  0.00     0.074 A 
ATOM     39  C   UNL A   1      40.680  28.758  27.904  1.00  0.00     0.049 A 
ATOM     40  N   UNL A   1      41.183  29.261  31.022  1.00  0.00    -0.248 NA
ATOM     41  C   UNL A   1      39.289  27.919  31.065  1.00  0.00     0.031 C 
ATOM     42  C   UNL A   1      40.460  28.792  26.454  1.00  0.00     0.029 A 
ATOM     43  N   UNL A   1      41.915  28.197  28.008  1.00  0.00    -0.354 N 
ATOM     44  C   UNL A   1      41.093  28.659  32.273  1.00  0.00     0.074 A 
ATOM     45  C   UNL A   1      39.864  27.902  32.270  1.00  0.00     0.031 C 
ATOM     46  C   UNL A   1      41.426  28.072  25.835  1.00  0.00     0.029 A 
ATOM     47  C   UNL A   1      42.416  27.683  26.823  1.00  0.00     0.049 A 
ATOM     48  H   UNL A   1      42.413  28.160  28.856  1.00  0.00     0.167 HD
ATOM     49  C   UNL A   1      42.098  28.722  33.190  1.00  0.00     0.031 A 
ATOM     50  C   UNL A   1      43.558  26.971  26.678  1.00  0.00     0.031 A 
ATOM     51  C   UNL A   1      43.051  29.751  32.885  1.00  0.00     0.049 A 
ATOM     52  C   UNL A   1      44.435  27.320  27.820  1.00  0.00     0.074 A 
ATOM     53  C   UNL A   1      43.008  31.130  32.849  1.00  0.00     0.029 A 
ATOM     54  N   UNL A   1      44.185  29.395  32.198  1.00  0.00    -0.354 N 
ATOM     55  N   UNL A   1      44.953  28.504  27.984  1.00  0.00    -0.248 NA
ATOM     56  C   UNL A   1      44.375  26.491  29.013  1.00  0.00     0.031 C 
ATOM     57  C   UNL A   1      43.812  31.489  31.730  1.00  0.00     0.029 A 
ATOM     58  C   UNL A   1      44.341  30.314  31.191  1.00  0.00     0.049 A 
ATOM     59  H   UNL A   1      44.773  28.629  32.390  1.00  0.00     0.167 HD
ATOM     60  C   UNL A   1      44.896  28.731  29.351  1.00  0.00     0.074 A 
ATOM     61  C   UNL A   1      44.608  27.424  29.940  1.00  0.00     0.031 C 
ATOM     62  C   UNL A   1      44.817  29.995  29.862  1.00  0.00     0.031 A 
BRANCH  49  63
ATOM     63  C   UNL A   1      42.365  27.671  34.230  1.00  0.00    -0.014 A 
ATOM     64  C   UNL A   1      41.658  27.613  35.444  1.00  0.00     0.009 A 
ATOM     65  C   UNL A   1      43.156  26.556  33.899  1.00  0.00     0.009 A 
ATOM     66  C   UNL A   1      41.728  26.501  36.287  1.00  0.00     0.001 A 
ATOM     67  C   UNL A   1      43.201  25.424  34.724  1.00  0.00     0.001 A 
ATOM     68  C   UNL A   1      42.484  25.397  35.915  1.00  0.00     0.000 A 
ENDBRANCH  49  63
BRANCH  50  69
ATOM     69  C   UNL A   1      43.698  25.692  25.945  1.00  0.00    -0.014 A 
ATOM     70  C   UNL A   1      42.739  24.675  26.116  1.00  0.00     0.009 A 
ATOM     71  C   UNL A   1      44.910  25.354  25.324  1.00  0.00     0.009 A 
ATOM     72  C   UNL A   1      43.000  23.359  25.723  1.00  0.00     0.001 A 
ATOM     73  C   UNL A   1      45.169  24.034  24.928  1.00  0.00     0.001 A 
ATOM     74  C   UNL A   1      44.221  23.035  25.142  1.00  0.00     0.000 A 
ENDBRANCH  50  69
BRANCH  62  75
ATOM     75  C   UNL A   1      44.947  31.165  28.913  1.00  0.00    -0.014 A 
ATOM     76  C   UNL A   1      43.889  31.431  28.031  1.00  0.00     0.009 A 
ATOM     77  C   UNL A   1      46.160  31.852  28.721  1.00  0.00     0.009 A 
ATOM     78  C   UNL A   1      44.043  32.334  26.976  1.00  0.00     0.001 A 
ATOM     79  C   UNL A   1      46.308  32.774  27.678  1.00  0.00     0.001 A 
ATOM     80  C   UNL A   1      45.253  33.004  26.798  1.00  0.00     0.000 A 
ENDBRANCH  62  75
ENDBRANCH  36  37
ENDBRANCH  28  31
ENDBRANCH  26  27
ENDBRANCH  25  26
ENDBRANCH   1  25
TORSDOF 14
ENDMDL
MODEL 3
REMARK VINA RESULT:     -11.6      2.557      4.595
REMARK SMILES Cc1ccn2c([C@@H]3CCCC[C@@H]3C(=O)NCCCCCCNC(=O)c3ccc(-c4c5nc(c(-c6ccccc6)c6ccc([nH]6)c(-c6ccccc6)c6nc(c(-c7ccccc7)c7ccc4[nH]7)C=C6)C=C5)cc3)nnc2c1
REMARK SMILES IDX 19 1 18 2 17 3 16 4 15 5 13 6 14 7 12 9 7 10 8 11 9 12 11 13
REMARK SMILES IDX 10 14 6 15 1 16 2 17 3 18 76 19 4 20 75 21 5 22 74 23 73 24
REMARK SMILES IDX 20 25 21 26 22 27 23 28 24 30 25 31 26 32 72 33 27 34 71 35
REMARK SMILES IDX 28 36 29 37 30 38 65 39 31 40 70 41 64 42 66 43 32 44 69 45
REMARK SMILES IDX 63 46 62 47 33 49 55 50 40 51 54 52 41 53 44 54 53 55 67 56
REMARK SMILES IDX 42 57 43 58 52 60 68 61 45 62 34 63 35 64 39 65 36 66 38 67
REMARK SMILES IDX 37 68 56 69 57 70 61 71 58 72 60 73 59 74 46 75 47 76 51 77
REMARK SMILES IDX 48 78 50 79 49 80
REMARK H PARENT 15 8 22 29 66 48 44 59
REMARK Flexibility Score: inf
ROOT
ATOM      1  C   UNL A   1      35.778  22.757  24.456  1.00  0.00     0.002 C 
ENDROOT
BRANCH   1   2
ATOM      2  C   UNL A   1      35.149  24.151  24.301  1.00  0.00     0.002 C 
BRANCH   2   3
ATOM      3  C   UNL A   1      34.667  24.772  25.611  1.00  0.00     0.021 C 
BRANCH   3   4
ATOM      4  C   UNL A   1      34.090  26.163  25.401  1.00  0.00     0.116 C 
BRANCH   4   5
ATOM      5  N   UNL A   1      33.605  26.355  24.058  1.00  0.00    -0.356 N 
ATOM      6  C   UNL A   1      32.482  26.927  23.563  1.00  0.00     0.223 C 
ATOM      7  O   UNL A   1      32.431  27.016  22.331  1.00  0.00    -0.275 OA
ATOM      8  H   UNL A   1      34.207  26.001  23.365  1.00  0.00     0.163 HD
BRANCH   6   9
ATOM      9  C   UNL A   1      31.327  27.472  24.409  1.00  0.00     0.089 C 
ATOM     10  C   UNL A   1      30.189  26.521  24.807  1.00  0.00     0.071 C 
ATOM     11  C   UNL A   1      29.070  26.395  23.785  1.00  0.00     0.012 C 
ATOM     12  C   UNL A   1      28.497  27.769  23.417  1.00  0.00     0.001 C 
ATOM     13  C   UNL A   1      30.809  28.851  23.971  1.00  0.00     0.014 C 
ATOM     14  C   UNL A   1      29.506  28.895  23.170  1.00  0.00     0.001 C 
BRANCH  10  15
ATOM     15  C   UNL A   1      30.611  25.228  25.448  1.00  0.00     0.141 A 
ATOM     16  C   UNL A   1      32.917  20.356  23.924  1.00  0.00     0.044 C 
ATOM     17  C   UNL A   1      32.209  21.621  24.304  1.00  0.00    -0.046 A 
ATOM     18  C   UNL A   1      31.665  22.445  23.227  1.00  0.00     0.022 A 
ATOM     19  C   UNL A   1      32.090  22.016  25.591  1.00  0.00     0.053 A 
ATOM     20  C   UNL A   1      31.096  23.627  23.524  1.00  0.00     0.095 A 
ATOM     21  C   UNL A   1      31.468  23.255  25.901  1.00  0.00     0.161 A 
ATOM     22  N   UNL A   1      31.038  24.054  24.848  1.00  0.00    -0.286 N 
ATOM     23  N   UNL A   1      31.196  23.841  27.044  1.00  0.00    -0.130 NA
ATOM     24  N   UNL A   1      30.657  25.068  26.761  1.00  0.00    -0.134 NA
ENDBRANCH  10  15
ENDBRANCH   6   9
ENDBRANCH   4   5
ENDBRANCH   3   4
ENDBRANCH   2   3
ENDBRANCH   1   2
BRANCH   1  25
ATOM     25  C   UNL A   1      37.307  22.733  24.605  1.00  0.00     0.021 C 
BRANCH  25  26
ATOM     26  C   UNL A   1      37.812  21.819  25.723  1.00  0.00     0.116 C 
BRANCH  26  27
ATOM     27  N   UNL A   1      39.253  21.674  25.719  1.00  0.00    -0.352 N 
ATOM     28  C   UNL A   1      40.298  22.354  26.261  1.00  0.00     0.251 C 
ATOM     29  H   UNL A   1      39.546  20.893  25.197  1.00  0.00     0.163 HD
ATOM     30  O   UNL A   1      41.423  21.900  26.010  1.00  0.00    -0.269 OA
BRANCH  28  31
ATOM     31  C   UNL A   1      40.201  23.604  27.057  1.00  0.00     0.039 A 
ATOM     32  C   UNL A   1      39.190  24.559  26.957  1.00  0.00     0.014 A 
ATOM     33  C   UNL A   1      41.285  23.860  27.920  1.00  0.00     0.014 A 
ATOM     34  C   UNL A   1      39.329  25.789  27.588  1.00  0.00     0.010 A 
ATOM     35  C   UNL A   1      41.415  25.077  28.574  1.00  0.00     0.010 A 
ATOM     36  C   UNL A   1      40.473  26.069  28.342  1.00  0.00    -0.014 A 
BRANCH  36  37
ATOM     37  C   UNL A   1      40.641  27.425  28.845  1.00  0.00     0.031 A 
ATOM     38  C   UNL A   1      41.698  28.241  28.187  1.00  0.00     0.074 A 
ATOM     39  C   UNL A   1      39.908  27.937  29.853  1.00  0.00     0.049 A 
ATOM     40  N   UNL A   1      42.805  28.661  28.707  1.00  0.00    -0.248 NA
ATOM     41  C   UNL A   1      41.549  28.544  26.759  1.00  0.00     0.031 C 
ATOM     42  C   UNL A   1      38.706  27.406  30.502  1.00  0.00     0.029 A 
ATOM     43  N   UNL A   1      40.086  29.132  30.478  1.00  0.00    -0.354 N 
ATOM     44  C   UNL A   1      43.458  29.383  27.712  1.00  0.00     0.074 A 
ATOM     45  C   UNL A   1      42.678  29.213  26.510  1.00  0.00     0.031 C 
ATOM     46  C   UNL A   1      38.142  28.373  31.264  1.00  0.00     0.029 A 
ATOM     47  C   UNL A   1      39.034  29.518  31.292  1.00  0.00     0.049 A 
ATOM     48  H   UNL A   1      40.897  29.678  30.362  1.00  0.00     0.167 HD
ATOM     49  C   UNL A   1      44.534  30.177  27.971  1.00  0.00     0.031 A 
ATOM     50  C   UNL A   1      38.906  30.708  31.926  1.00  0.00     0.031 A 
ATOM     51  C   UNL A   1      45.125  29.897  29.249  1.00  0.00     0.049 A 
ATOM     52  C   UNL A   1      40.270  31.265  32.081  1.00  0.00     0.074 A 
ATOM     53  C   UNL A   1      45.801  28.819  29.786  1.00  0.00     0.029 A 
ATOM     54  N   UNL A   1      44.749  30.672  30.317  1.00  0.00    -0.354 N 
ATOM     55  N   UNL A   1      41.178  30.725  32.843  1.00  0.00    -0.248 NA
ATOM     56  C   UNL A   1      40.768  32.163  31.050  1.00  0.00     0.031 C 
ATOM     57  C   UNL A   1      45.350  28.746  31.135  1.00  0.00     0.029 A 
ATOM     58  C   UNL A   1      44.476  29.814  31.351  1.00  0.00     0.049 A 
ATOM     59  H   UNL A   1      44.687  31.655  30.337  1.00  0.00     0.167 HD
ATOM     60  C   UNL A   1      42.364  30.871  32.140  1.00  0.00     0.074 A 
ATOM     61  C   UNL A   1      42.063  31.836  31.083  1.00  0.00     0.031 C 
ATOM     62  C   UNL A   1      43.403  30.000  32.304  1.00  0.00     0.031 A 
BRANCH  49  63
ATOM     63  C   UNL A   1      44.898  31.399  27.176  1.00  0.00    -0.014 A 
ATOM     64  C   UNL A   1      43.951  32.373  26.813  1.00  0.00     0.009 A 
ATOM     65  C   UNL A   1      46.254  31.730  26.998  1.00  0.00     0.009 A 
ATOM     66  C   UNL A   1      44.331  33.617  26.302  1.00  0.00     0.001 A 
ATOM     67  C   UNL A   1      46.639  32.989  26.520  1.00  0.00     0.001 A 
ATOM     68  C   UNL A   1      45.677  33.932  26.176  1.00  0.00     0.000 A 
ENDBRANCH  49  63
BRANCH  50  69
ATOM     69  C   UNL A   1      37.702  31.569  31.923  1.00  0.00    -0.014 A 
ATOM     70  C   UNL A   1      37.427  32.398  33.027  1.00  0.00     0.009 A 
ATOM     71  C   UNL A   1      36.676  31.358  30.989  1.00  0.00     0.009 A 
ATOM     72  C   UNL A   1      36.160  32.959  33.217  1.00  0.00     0.001 A 
ATOM     73  C   UNL A   1      35.406  31.923  31.179  1.00  0.00     0.001 A 
ATOM     74  C   UNL A   1      35.145  32.708  32.299  1.00  0.00     0.000 A 
ENDBRANCH  50  69
BRANCH  62  75
ATOM     75  C   UNL A   1      43.298  28.951  33.388  1.00  0.00    -0.014 A 
ATOM     76  C   UNL A   1      43.972  29.172  34.599  1.00  0.00     0.009 A 
ATOM     77  C   UNL A   1      42.747  27.677  33.157  1.00  0.00     0.009 A 
ATOM     78  C   UNL A   1      44.115  28.147  35.539  1.00  0.00     0.001 A 
ATOM     79  C   UNL A   1      42.870  26.657  34.108  1.00  0.00     0.001 A 
ATOM     80  C   UNL A   1      43.566  26.890  35.292  1.00  0.00     0.000 A 
ENDBRANCH  62  75
ENDBRANCH  36  37
ENDBRANCH  28  31
ENDBRANCH  26  27
ENDBRANCH  25  26
ENDBRANCH   1  25
TORSDOF 14
ENDMDL
