MODEL 1
REMARK VINA RESULT:     -11.4      0.000      0.000
REMARK SMILES O=C(NCCCCCCNC(=O)c1sccc1S(=O)(=O)Nc1ccccc1N1CCCCC1)c1ccc(-c2c3nc(c(-c4ccccc4)c4ccc([nH]4)c(-c4ccccc4)c4nc(c(-c5ccccc5)c5ccc2[nH]5)C=C4)C=C3)cc1
REMARK SMILES IDX 7 1 6 2 5 3 4 4 3 5 1 6 2 7 34 9 35 10 81 11 36 12 80 13
REMARK SMILES IDX 37 14 38 15 39 16 74 17 40 18 79 19 73 20 75 21 41 22 78 23
REMARK SMILES IDX 72 24 71 25 42 27 64 28 49 29 63 30 50 31 53 32 62 33 76 34
REMARK SMILES IDX 51 35 52 36 61 38 77 39 54 40 43 41 44 42 48 43 45 44 47 45
REMARK SMILES IDX 46 46 65 47 66 48 70 49 67 50 69 51 68 52 55 53 56 54 60 55
REMARK SMILES IDX 57 56 59 57 58 58 8 59 9 60 10 61 11 62 12 64 13 65 14 66
REMARK SMILES IDX 17 67 15 68 16 69 18 70 19 71 20 72 21 73 22 75 23 76 27 77
REMARK SMILES IDX 24 78 26 79 25 80 28 81 29 82 33 83 30 84 32 85 31 86
REMARK H PARENT 3 8 75 26 53 37 10 63 21 74
REMARK Flexibility Score: inf
ROOT
ATOM      1  C   UNL A   1      32.872  29.775  27.268  1.00  0.00     0.002 C 
ENDROOT
BRANCH   1   2
ATOM      2  C   UNL A   1      31.922  30.515  26.318  1.00  0.00     0.002 C 
BRANCH   2   3
ATOM      3  C   UNL A   1      31.541  31.941  26.692  1.00  0.00     0.021 C 
BRANCH   3   4
ATOM      4  C   UNL A   1      32.644  32.747  27.344  1.00  0.00     0.116 C 
BRANCH   4   5
ATOM      5  N   UNL A   1      32.279  34.119  27.648  1.00  0.00    -0.352 N 
ATOM      6  O   UNL A   1      32.495  36.101  28.728  1.00  0.00    -0.269 OA
ATOM      7  C   UNL A   1      32.926  34.980  28.508  1.00  0.00     0.251 C 
ATOM      8  H   UNL A   1      31.484  34.473  27.189  1.00  0.00     0.163 HD
BRANCH   7   9
ATOM      9  C   UNL A   1      34.139  34.489  29.200  1.00  0.00     0.039 A 
ATOM     10  C   UNL A   1      35.392  34.647  28.607  1.00  0.00     0.014 A 
ATOM     11  C   UNL A   1      34.006  33.783  30.398  1.00  0.00     0.014 A 
ATOM     12  C   UNL A   1      36.478  33.951  29.112  1.00  0.00     0.010 A 
ATOM     13  C   UNL A   1      35.130  33.181  30.972  1.00  0.00     0.010 A 
ATOM     14  C   UNL A   1      36.369  33.233  30.316  1.00  0.00    -0.014 A 
BRANCH  14  15
ATOM     15  C   UNL A   1      37.599  32.633  30.891  1.00  0.00     0.031 A 
ATOM     16  C   UNL A   1      38.178  33.101  32.197  1.00  0.00     0.074 A 
ATOM     17  C   UNL A   1      38.156  31.597  30.233  1.00  0.00     0.049 A 
ATOM     18  N   UNL A   1      39.213  32.629  32.848  1.00  0.00    -0.248 NA
ATOM     19  C   UNL A   1      37.528  34.245  32.856  1.00  0.00     0.031 C 
ATOM     20  C   UNL A   1      37.687  31.067  28.949  1.00  0.00     0.029 A 
ATOM     21  N   UNL A   1      39.201  30.777  30.567  1.00  0.00    -0.354 N 
ATOM     22  C   UNL A   1      39.350  33.425  33.978  1.00  0.00     0.074 A 
ATOM     23  C   UNL A   1      38.306  34.425  33.915  1.00  0.00     0.031 C 
ATOM     24  C   UNL A   1      38.386  29.966  28.645  1.00  0.00     0.029 A 
ATOM     25  C   UNL A   1      39.403  29.760  29.666  1.00  0.00     0.049 A 
ATOM     26  H   UNL A   1      39.752  30.903  31.373  1.00  0.00     0.167 HD
ATOM     27  C   UNL A   1      40.263  33.326  34.976  1.00  0.00     0.031 A 
ATOM     28  C   UNL A   1      40.316  28.774  29.649  1.00  0.00     0.031 A 
ATOM     29  C   UNL A   1      41.300  32.327  35.031  1.00  0.00     0.049 A 
ATOM     30  C   UNL A   1      41.312  28.695  30.763  1.00  0.00     0.074 A 
ATOM     31  C   UNL A   1      42.274  32.145  36.000  1.00  0.00     0.029 A 
ATOM     32  N   UNL A   1      41.498  31.339  34.079  1.00  0.00    -0.354 N 
ATOM     33  N   UNL A   1      41.423  29.456  31.824  1.00  0.00    -0.248 NA
ATOM     34  C   UNL A   1      42.312  27.624  30.676  1.00  0.00     0.031 C 
ATOM     35  C   UNL A   1      43.082  31.072  35.613  1.00  0.00     0.029 A 
ATOM     36  C   UNL A   1      42.583  30.553  34.430  1.00  0.00     0.049 A 
ATOM     37  H   UNL A   1      40.947  31.214  33.272  1.00  0.00     0.167 HD
ATOM     38  C   UNL A   1      42.506  28.959  32.532  1.00  0.00     0.074 A 
ATOM     39  C   UNL A   1      42.990  27.805  31.800  1.00  0.00     0.031 C 
ATOM     40  C   UNL A   1      43.060  29.422  33.678  1.00  0.00     0.031 A 
BRANCH  27  41
ATOM     41  C   UNL A   1      40.196  34.339  36.086  1.00  0.00    -0.014 A 
ATOM     42  C   UNL A   1      40.880  35.560  35.999  1.00  0.00     0.009 A 
ATOM     43  C   UNL A   1      39.386  34.093  37.208  1.00  0.00     0.009 A 
ATOM     44  C   UNL A   1      40.773  36.507  37.023  1.00  0.00     0.001 A 
ATOM     45  C   UNL A   1      39.262  35.049  38.218  1.00  0.00     0.001 A 
ATOM     46  C   UNL A   1      39.960  36.253  38.127  1.00  0.00     0.000 A 
ENDBRANCH  27  41
BRANCH  28  47
ATOM     47  C   UNL A   1      40.340  27.811  28.518  1.00  0.00    -0.014 A 
ATOM     48  C   UNL A   1      41.092  28.076  27.364  1.00  0.00     0.009 A 
ATOM     49  C   UNL A   1      39.624  26.606  28.601  1.00  0.00     0.009 A 
ATOM     50  C   UNL A   1      41.106  27.162  26.308  1.00  0.00     0.001 A 
ATOM     51  C   UNL A   1      39.668  25.681  27.559  1.00  0.00     0.001 A 
ATOM     52  C   UNL A   1      40.401  25.964  26.409  1.00  0.00     0.000 A 
ENDBRANCH  28  47
BRANCH  40  53
ATOM     53  C   UNL A   1      44.245  28.663  34.201  1.00  0.00    -0.014 A 
ATOM     54  C   UNL A   1      44.080  27.584  35.085  1.00  0.00     0.009 A 
ATOM     55  C   UNL A   1      45.540  29.035  33.812  1.00  0.00     0.009 A 
ATOM     56  C   UNL A   1      45.194  26.922  35.604  1.00  0.00     0.001 A 
ATOM     57  C   UNL A   1      46.650  28.353  34.310  1.00  0.00     0.001 A 
ATOM     58  C   UNL A   1      46.476  27.306  35.215  1.00  0.00     0.000 A 
ENDBRANCH  40  53
ENDBRANCH  14  15
ENDBRANCH   7   9
ENDBRANCH   4   5
ENDBRANCH   3   4
ENDBRANCH   2   3
ENDBRANCH   1   2
BRANCH   1  59
ATOM     59  C   UNL A   1      34.168  29.226  26.654  1.00  0.00     0.021 C 
BRANCH  59  60
ATOM     60  C   UNL A   1      34.049  27.817  26.092  1.00  0.00     0.116 C 
BRANCH  60  61
ATOM     61  N   UNL A   1      32.943  27.100  26.673  1.00  0.00    -0.351 N 
ATOM     62  C   UNL A   1      32.226  26.057  26.159  1.00  0.00     0.262 C 
ATOM     63  H   UNL A   1      32.666  27.405  27.568  1.00  0.00     0.163 HD
ATOM     64  O   UNL A   1      31.163  25.798  26.731  1.00  0.00    -0.268 OA
BRANCH  62  65
ATOM     65  C   UNL A   1      32.661  25.368  24.964  1.00  0.00     0.112 A 
ATOM     66  S   UNL A   1      33.325  23.792  25.265  1.00  0.00    -0.137 S 
ATOM     67  C   UNL A   1      32.748  25.695  23.618  1.00  0.00     0.111 A 
ATOM     68  C   UNL A   1      33.692  23.534  23.629  1.00  0.00     0.067 A 
ATOM     69  C   UNL A   1      33.325  24.608  22.857  1.00  0.00     0.035 A 
BRANCH  67  70
ATOM     70  S   UNL A   1      32.210  27.108  22.761  1.00  0.00     0.263 S 
ATOM     71  O   UNL A   1      33.426  27.879  22.581  1.00  0.00    -0.201 OA
ATOM     72  O   UNL A   1      31.601  26.539  21.573  1.00  0.00    -0.201 OA
BRANCH  70  73
ATOM     73  N   UNL A   1      31.089  28.188  23.369  1.00  0.00    -0.277 N 
ATOM     74  H   UNL A   1      31.420  29.062  23.679  1.00  0.00     0.180 HD
BRANCH  73  75
ATOM     75  C   UNL A   1      29.691  27.938  23.473  1.00  0.00     0.072 A 
ATOM     76  C   UNL A   1      29.308  26.627  23.791  1.00  0.00     0.029 A 
ATOM     77  C   UNL A   1      28.719  28.924  23.206  1.00  0.00     0.061 A 
ATOM     78  C   UNL A   1      27.971  26.300  23.989  1.00  0.00     0.002 A 
ATOM     79  C   UNL A   1      27.375  28.569  23.419  1.00  0.00     0.028 A 
ATOM     80  C   UNL A   1      27.004  27.281  23.825  1.00  0.00     0.002 A 
BRANCH  77  81
ATOM     81  N   UNL A   1      29.049  30.174  22.706  1.00  0.00    -0.370 N 
ATOM     82  C   UNL A   1      29.199  31.340  23.575  1.00  0.00     0.116 C 
ATOM     83  C   UNL A   1      29.043  30.385  21.255  1.00  0.00     0.116 C 
ATOM     84  C   UNL A   1      28.228  32.447  23.184  1.00  0.00     0.021 C 
ATOM     85  C   UNL A   1      28.048  31.481  20.885  1.00  0.00     0.021 C 
ATOM     86  C   UNL A   1      28.315  32.749  21.691  1.00  0.00     0.004 C 
ENDBRANCH  77  81
ENDBRANCH  73  75
ENDBRANCH  70  73
ENDBRANCH  67  70
ENDBRANCH  62  65
ENDBRANCH  60  61
ENDBRANCH  59  60
ENDBRANCH   1  59
TORSDOF 17
ENDMDL
MODEL 2
REMARK VINA RESULT:     -11.3      1.811      4.432
REMARK SMILES O=C(NCCCCCCNC(=O)c1sccc1S(=O)(=O)Nc1ccccc1N1CCCCC1)c1ccc(-c2c3nc(c(-c4ccccc4)c4ccc([nH]4)c(-c4ccccc4)c4nc(c(-c5ccccc5)c5ccc2[nH]5)C=C4)C=C3)cc1
REMARK SMILES IDX 7 1 6 2 5 3 4 4 3 5 1 6 2 7 34 9 35 10 81 11 36 12 80 13
REMARK SMILES IDX 37 14 38 15 39 16 74 17 40 18 79 19 73 20 75 21 41 22 78 23
REMARK SMILES IDX 72 24 71 25 42 27 64 28 49 29 63 30 50 31 53 32 62 33 76 34
REMARK SMILES IDX 51 35 52 36 61 38 77 39 54 40 43 41 44 42 48 43 45 44 47 45
REMARK SMILES IDX 46 46 65 47 66 48 70 49 67 50 69 51 68 52 55 53 56 54 60 55
REMARK SMILES IDX 57 56 59 57 58 58 8 59 9 60 10 61 11 62 12 64 13 65 14 66
REMARK SMILES IDX 17 67 15 68 16 69 18 70 19 71 20 72 21 73 22 75 23 76 27 77
REMARK SMILES IDX 24 78 26 79 25 80 28 81 29 82 33 83 30 84 32 85 31 86
REMARK H PARENT 3 8 75 26 53 37 10 63 21 74
REMARK Flexibility Score: inf
ROOT
ATOM      1  C   UNL A   1      33.172  29.909  27.627  1.00  0.00     0.002 C 
ENDROOT
BRANCH   1   2
ATOM      2  C   UNL A   1      31.860  30.143  26.868  1.00  0.00     0.002 C 
BRANCH   2   3
ATOM      3  C   UNL A   1      31.425  31.588  26.669  1.00  0.00     0.021 C 
BRANCH   3   4
ATOM      4  C   UNL A   1      32.543  32.606  26.720  1.00  0.00     0.116 C 
BRANCH   4   5
ATOM      5  N   UNL A   1      32.196  33.839  27.404  1.00  0.00    -0.352 N 
ATOM      6  O   UNL A   1      32.488  35.473  28.948  1.00  0.00    -0.269 OA
ATOM      7  C   UNL A   1      32.907  34.463  28.406  1.00  0.00     0.251 C 
ATOM      8  H   UNL A   1      31.361  34.277  27.121  1.00  0.00     0.163 HD
BRANCH   7   9
ATOM      9  C   UNL A   1      34.178  33.844  28.845  1.00  0.00     0.039 A 
ATOM     10  C   UNL A   1      34.161  32.792  29.761  1.00  0.00     0.014 A 
ATOM     11  C   UNL A   1      35.391  34.386  28.410  1.00  0.00     0.014 A 
ATOM     12  C   UNL A   1      35.340  32.405  30.376  1.00  0.00     0.010 A 
ATOM     13  C   UNL A   1      36.590  33.907  28.945  1.00  0.00     0.010 A 
ATOM     14  C   UNL A   1      36.572  32.935  29.956  1.00  0.00    -0.014 A 
BRANCH  14  15
ATOM     15  C   UNL A   1      37.816  32.374  30.541  1.00  0.00     0.031 A 
ATOM     16  C   UNL A   1      38.385  32.878  31.838  1.00  0.00     0.074 A 
ATOM     17  C   UNL A   1      38.396  31.339  29.902  1.00  0.00     0.049 A 
ATOM     18  N   UNL A   1      39.431  32.442  32.496  1.00  0.00    -0.248 NA
ATOM     19  C   UNL A   1      37.709  34.018  32.476  1.00  0.00     0.031 C 
ATOM     20  C   UNL A   1      37.939  30.775  28.627  1.00  0.00     0.029 A 
ATOM     21  N   UNL A   1      39.460  30.549  30.249  1.00  0.00    -0.354 N 
ATOM     22  C   UNL A   1      39.550  33.261  33.611  1.00  0.00     0.074 A 
ATOM     23  C   UNL A   1      38.483  34.236  33.532  1.00  0.00     0.031 C 
ATOM     24  C   UNL A   1      38.663  29.685  28.343  1.00  0.00     0.029 A 
ATOM     25  C   UNL A   1      39.685  29.521  29.366  1.00  0.00     0.049 A 
ATOM     26  H   UNL A   1      40.009  30.703  31.052  1.00  0.00     0.167 HD
ATOM     27  C   UNL A   1      40.465  33.201  34.610  1.00  0.00     0.031 A 
ATOM     28  C   UNL A   1      40.621  28.556  29.366  1.00  0.00     0.031 A 
ATOM     29  C   UNL A   1      41.526  32.228  34.682  1.00  0.00     0.049 A 
ATOM     30  C   UNL A   1      41.619  28.521  30.481  1.00  0.00     0.074 A 
ATOM     31  C   UNL A   1      42.503  32.086  35.654  1.00  0.00     0.029 A 
ATOM     32  N   UNL A   1      41.745  31.227  33.748  1.00  0.00    -0.354 N 
ATOM     33  N   UNL A   1      41.713  29.303  31.528  1.00  0.00    -0.248 NA
ATOM     34  C   UNL A   1      42.643  27.471  30.412  1.00  0.00     0.031 C 
ATOM     35  C   UNL A   1      43.337  31.024  35.285  1.00  0.00     0.029 A 
ATOM     36  C   UNL A   1      42.849  30.473  34.113  1.00  0.00     0.049 A 
ATOM     37  H   UNL A   1      41.197  31.075  32.944  1.00  0.00     0.167 HD
ATOM     38  C   UNL A   1      42.808  28.843  32.243  1.00  0.00     0.074 A 
ATOM     39  C   UNL A   1      43.318  27.687  31.532  1.00  0.00     0.031 C 
ATOM     40  C   UNL A   1      43.351  29.339  33.381  1.00  0.00     0.031 A 
BRANCH  27  41
ATOM     41  C   UNL A   1      40.376  34.232  35.702  1.00  0.00    -0.014 A 
ATOM     42  C   UNL A   1      41.008  35.478  35.581  1.00  0.00     0.009 A 
ATOM     43  C   UNL A   1      39.596  33.976  36.842  1.00  0.00     0.009 A 
ATOM     44  C   UNL A   1      40.880  36.439  36.588  1.00  0.00     0.001 A 
ATOM     45  C   UNL A   1      39.449  34.946  37.836  1.00  0.00     0.001 A 
ATOM     46  C   UNL A   1      40.097  36.175  37.711  1.00  0.00     0.000 A 
ENDBRANCH  27  41
BRANCH  28  47
ATOM     47  C   UNL A   1      40.667  27.574  28.253  1.00  0.00    -0.014 A 
ATOM     48  C   UNL A   1      40.000  26.344  28.352  1.00  0.00     0.009 A 
ATOM     49  C   UNL A   1      41.365  27.876  27.073  1.00  0.00     0.009 A 
ATOM     50  C   UNL A   1      40.052  25.428  27.298  1.00  0.00     0.001 A 
ATOM     51  C   UNL A   1      41.385  26.975  26.009  1.00  0.00     0.001 A 
ATOM     52  C   UNL A   1      40.738  25.747  26.127  1.00  0.00     0.000 A 
ENDBRANCH  28  47
BRANCH  40  53
ATOM     53  C   UNL A   1      44.553  28.617  33.916  1.00  0.00    -0.014 A 
ATOM     54  C   UNL A   1      44.415  27.555  34.824  1.00  0.00     0.009 A 
ATOM     55  C   UNL A   1      45.839  29.009  33.514  1.00  0.00     0.009 A 
ATOM     56  C   UNL A   1      45.543  26.928  35.353  1.00  0.00     0.001 A 
ATOM     57  C   UNL A   1      46.965  28.362  34.024  1.00  0.00     0.001 A 
ATOM     58  C   UNL A   1      46.816  27.331  34.952  1.00  0.00     0.000 A 
ENDBRANCH  40  53
ENDBRANCH  14  15
ENDBRANCH   7   9
ENDBRANCH   4   5
ENDBRANCH   3   4
ENDBRANCH   2   3
ENDBRANCH   1   2
BRANCH   1  59
ATOM     59  C   UNL A   1      34.291  29.188  26.861  1.00  0.00     0.021 C 
BRANCH  59  60
ATOM     60  C   UNL A   1      33.800  28.259  25.759  1.00  0.00     0.116 C 
BRANCH  60  61
ATOM     61  N   UNL A   1      33.828  28.896  24.469  1.00  0.00    -0.351 N 
ATOM     62  C   UNL A   1      33.118  28.592  23.341  1.00  0.00     0.262 C 
ATOM     63  H   UNL A   1      34.445  29.659  24.388  1.00  0.00     0.163 HD
ATOM     64  O   UNL A   1      33.517  29.111  22.295  1.00  0.00    -0.268 OA
BRANCH  62  65
ATOM     65  C   UNL A   1      32.023  27.648  23.380  1.00  0.00     0.112 A 
ATOM     66  S   UNL A   1      30.470  28.384  23.628  1.00  0.00    -0.137 S 
ATOM     67  C   UNL A   1      31.917  26.265  23.342  1.00  0.00     0.111 A 
ATOM     68  C   UNL A   1      29.664  26.891  23.650  1.00  0.00     0.067 A 
ATOM     69  C   UNL A   1      30.537  25.847  23.474  1.00  0.00     0.035 A 
BRANCH  67  70
ATOM     70  S   UNL A   1      33.127  25.045  23.082  1.00  0.00     0.263 S 
ATOM     71  O   UNL A   1      33.130  24.872  21.641  1.00  0.00    -0.201 OA
ATOM     72  O   UNL A   1      34.305  25.641  23.682  1.00  0.00    -0.201 OA
BRANCH  70  73
ATOM     73  N   UNL A   1      33.034  23.499  23.711  1.00  0.00    -0.277 N 
ATOM     74  H   UNL A   1      32.984  22.751  23.074  1.00  0.00     0.180 HD
BRANCH  73  75
ATOM     75  C   UNL A   1      33.019  23.185  25.100  1.00  0.00     0.072 A 
ATOM     76  C   UNL A   1      31.846  23.495  25.802  1.00  0.00     0.029 A 
ATOM     77  C   UNL A   1      34.139  22.655  25.772  1.00  0.00     0.061 A 
ATOM     78  C   UNL A   1      31.706  23.158  27.145  1.00  0.00     0.002 A 
ATOM     79  C   UNL A   1      33.969  22.319  27.127  1.00  0.00     0.028 A 
ATOM     80  C   UNL A   1      32.764  22.547  27.802  1.00  0.00     0.002 A 
BRANCH  77  81
ATOM     81  N   UNL A   1      35.374  22.513  25.158  1.00  0.00    -0.370 N 
ATOM     82  C   UNL A   1      35.788  21.257  24.535  1.00  0.00     0.116 C 
ATOM     83  C   UNL A   1      36.374  23.573  25.317  1.00  0.00     0.116 C 
ATOM     84  C   UNL A   1      37.062  20.719  25.172  1.00  0.00     0.021 C 
ATOM     85  C   UNL A   1      37.633  23.016  25.977  1.00  0.00     0.021 C 
ATOM     86  C   UNL A   1      38.144  21.793  25.222  1.00  0.00     0.004 C 
ENDBRANCH  77  81
ENDBRANCH  73  75
ENDBRANCH  70  73
ENDBRANCH  67  70
ENDBRANCH  62  65
ENDBRANCH  60  61
ENDBRANCH  59  60
ENDBRANCH   1  59
TORSDOF 17
ENDMDL
MODEL 3
REMARK VINA RESULT:     -11.2      1.863      6.990
REMARK SMILES O=C(NCCCCCCNC(=O)c1sccc1S(=O)(=O)Nc1ccccc1N1CCCCC1)c1ccc(-c2c3nc(c(-c4ccccc4)c4ccc([nH]4)c(-c4ccccc4)c4nc(c(-c5ccccc5)c5ccc2[nH]5)C=C4)C=C3)cc1
REMARK SMILES IDX 7 1 6 2 5 3 4 4 3 5 1 6 2 7 34 9 35 10 81 11 36 12 80 13
REMARK SMILES IDX 37 14 38 15 39 16 74 17 40 18 79 19 73 20 75 21 41 22 78 23
REMARK SMILES IDX 72 24 71 25 42 27 64 28 49 29 63 30 50 31 53 32 62 33 76 34
REMARK SMILES IDX 51 35 52 36 61 38 77 39 54 40 43 41 44 42 48 43 45 44 47 45
REMARK SMILES IDX 46 46 65 47 66 48 70 49 67 50 69 51 68 52 55 53 56 54 60 55
REMARK SMILES IDX 57 56 59 57 58 58 8 59 9 60 10 61 11 62 12 64 13 65 14 66
REMARK SMILES IDX 17 67 15 68 16 69 18 70 19 71 20 72 21 73 22 75 23 76 27 77
REMARK SMILES IDX 24 78 26 79 25 80 28 81 29 82 33 83 30 84 32 85 31 86
REMARK H PARENT 3 8 75 26 53 37 10 63 21 74
REMARK Flexibility Score: inf
ROOT
ATOM      1  C   UNL A   1      33.162  29.724  26.950  1.00  0.00     0.002 C 
ENDROOT
BRANCH   1   2
ATOM      2  C   UNL A   1      31.763  30.353  26.943  1.00  0.00     0.002 C 
BRANCH   2   3
ATOM      3  C   UNL A   1      31.680  31.852  26.693  1.00  0.00     0.021 C 
BRANCH   3   4
ATOM      4  C   UNL A   1      32.839  32.657  27.240  1.00  0.00     0.116 C 
BRANCH   4   5
ATOM      5  N   UNL A   1      32.479  33.989  27.693  1.00  0.00    -0.352 N 
ATOM      6  O   UNL A   1      32.709  35.845  28.974  1.00  0.00    -0.269 OA
ATOM      7  C   UNL A   1      33.137  34.755  28.630  1.00  0.00     0.251 C 
ATOM      8  H   UNL A   1      31.677  34.388  27.285  1.00  0.00     0.163 HD
BRANCH   7   9
ATOM      9  C   UNL A   1      34.360  34.195  29.250  1.00  0.00     0.039 A 
ATOM     10  C   UNL A   1      35.606  34.435  28.672  1.00  0.00     0.014 A 
ATOM     11  C   UNL A   1      34.241  33.347  30.354  1.00  0.00     0.014 A 
ATOM     12  C   UNL A   1      36.702  33.693  29.081  1.00  0.00     0.010 A 
ATOM     13  C   UNL A   1      35.375  32.690  30.843  1.00  0.00     0.010 A 
ATOM     14  C   UNL A   1      36.608  32.834  30.190  1.00  0.00    -0.014 A 
BRANCH  14  15
ATOM     15  C   UNL A   1      37.848  32.180  30.681  1.00  0.00     0.031 A 
ATOM     16  C   UNL A   1      38.402  30.940  30.038  1.00  0.00     0.074 A 
ATOM     17  C   UNL A   1      38.509  32.775  31.693  1.00  0.00     0.049 A 
ATOM     18  N   UNL A   1      39.507  30.295  30.324  1.00  0.00    -0.248 NA
ATOM     19  C   UNL A   1      37.623  30.335  28.946  1.00  0.00     0.031 C 
ATOM     20  C   UNL A   1      38.056  33.975  32.403  1.00  0.00     0.029 A 
ATOM     21  N   UNL A   1      39.716  32.485  32.273  1.00  0.00    -0.354 N 
ATOM     22  C   UNL A   1      39.547  29.205  29.466  1.00  0.00     0.074 A 
ATOM     23  C   UNL A   1      38.346  29.260  28.661  1.00  0.00     0.031 C 
ATOM     24  C   UNL A   1      39.007  34.365  33.262  1.00  0.00     0.029 A 
ATOM     25  C   UNL A   1      40.096  33.400  33.224  1.00  0.00     0.049 A 
ATOM     26  H   UNL A   1      40.257  31.700  32.030  1.00  0.00     0.167 HD
ATOM     27  C   UNL A   1      40.503  28.248  29.358  1.00  0.00     0.031 A 
ATOM     28  C   UNL A   1      41.194  33.453  33.998  1.00  0.00     0.031 A 
ATOM     29  C   UNL A   1      41.696  28.199  30.163  1.00  0.00     0.049 A 
ATOM     30  C   UNL A   1      42.227  32.380  33.858  1.00  0.00     0.074 A 
ATOM     31  C   UNL A   1      42.724  27.269  30.131  1.00  0.00     0.029 A 
ATOM     32  N   UNL A   1      42.027  29.121  31.145  1.00  0.00    -0.354 N 
ATOM     33  N   UNL A   1      42.248  31.358  33.037  1.00  0.00    -0.248 NA
ATOM     34  C   UNL A   1      43.388  32.464  34.753  1.00  0.00     0.031 C 
ATOM     35  C   UNL A   1      43.654  27.608  31.119  1.00  0.00     0.029 A 
ATOM     36  C   UNL A   1      43.233  28.776  31.732  1.00  0.00     0.049 A 
ATOM     37  H   UNL A   1      41.484  29.906  31.388  1.00  0.00     0.167 HD
ATOM     38  C   UNL A   1      43.420  30.674  33.318  1.00  0.00     0.074 A 
ATOM     39  C   UNL A   1      44.104  31.423  34.354  1.00  0.00     0.031 C 
ATOM     40  C   UNL A   1      43.886  29.524  32.775  1.00  0.00     0.031 A 
BRANCH  27  41
ATOM     41  C   UNL A   1      40.288  27.157  28.344  1.00  0.00    -0.014 A 
ATOM     42  C   UNL A   1      40.820  27.252  27.050  1.00  0.00     0.009 A 
ATOM     43  C   UNL A   1      39.597  25.990  28.710  1.00  0.00     0.009 A 
ATOM     44  C   UNL A   1      40.645  26.210  26.134  1.00  0.00     0.001 A 
ATOM     45  C   UNL A   1      39.445  24.941  27.801  1.00  0.00     0.001 A 
ATOM     46  C   UNL A   1      39.964  25.054  26.512  1.00  0.00     0.000 A 
ENDBRANCH  27  41
BRANCH  28  47
ATOM     47  C   UNL A   1      41.343  34.548  34.990  1.00  0.00    -0.014 A 
ATOM     48  C   UNL A   1      40.832  34.415  36.289  1.00  0.00     0.009 A 
ATOM     49  C   UNL A   1      42.022  35.727  34.644  1.00  0.00     0.009 A 
ATOM     50  C   UNL A   1      40.979  35.453  37.214  1.00  0.00     0.001 A 
ATOM     51  C   UNL A   1      42.197  36.746  35.580  1.00  0.00     0.001 A 
ATOM     52  C   UNL A   1      41.666  36.613  36.860  1.00  0.00     0.000 A 
ENDBRANCH  28  47
BRANCH  40  53
ATOM     53  C   UNL A   1      45.200  29.023  33.299  1.00  0.00    -0.014 A 
ATOM     54  C   UNL A   1      46.412  29.421  32.712  1.00  0.00     0.009 A 
ATOM     55  C   UNL A   1      45.227  28.138  34.387  1.00  0.00     0.009 A 
ATOM     56  C   UNL A   1      47.623  28.905  33.176  1.00  0.00     0.001 A 
ATOM     57  C   UNL A   1      46.441  27.646  34.867  1.00  0.00     0.001 A 
ATOM     58  C   UNL A   1      47.636  28.020  34.254  1.00  0.00     0.000 A 
ENDBRANCH  40  53
ENDBRANCH  14  15
ENDBRANCH   7   9
ENDBRANCH   4   5
ENDBRANCH   3   4
ENDBRANCH   2   3
ENDBRANCH   1   2
BRANCH   1  59
ATOM     59  C   UNL A   1      33.227  28.191  27.029  1.00  0.00     0.021 C 
BRANCH  59  60
ATOM     60  C   UNL A   1      33.735  27.518  25.762  1.00  0.00     0.116 C 
BRANCH  60  61
ATOM     61  N   UNL A   1      34.062  28.478  24.740  1.00  0.00    -0.351 N 
ATOM     62  C   UNL A   1      33.438  28.714  23.547  1.00  0.00     0.262 C 
ATOM     63  H   UNL A   1      34.845  29.044  24.927  1.00  0.00     0.163 HD
ATOM     64  O   UNL A   1      34.066  29.397  22.734  1.00  0.00    -0.268 OA
BRANCH  62  65
ATOM     65  C   UNL A   1      32.155  28.117  23.244  1.00  0.00     0.112 A 
ATOM     66  S   UNL A   1      30.802  29.147  23.595  1.00  0.00    -0.137 S 
ATOM     67  C   UNL A   1      31.731  26.871  22.804  1.00  0.00     0.111 A 
ATOM     68  C   UNL A   1      29.670  27.968  23.137  1.00  0.00     0.067 A 
ATOM     69  C   UNL A   1      30.287  26.814  22.724  1.00  0.00     0.035 A 
BRANCH  67  70
ATOM     70  S   UNL A   1      32.642  25.487  22.282  1.00  0.00     0.263 S 
ATOM     71  O   UNL A   1      32.288  25.357  20.881  1.00  0.00    -0.201 OA
ATOM     72  O   UNL A   1      34.005  25.876  22.589  1.00  0.00    -0.201 OA
BRANCH  70  73
ATOM     73  N   UNL A   1      32.453  23.957  22.927  1.00  0.00    -0.277 N 
ATOM     74  H   UNL A   1      32.510  23.192  22.310  1.00  0.00     0.180 HD
BRANCH  73  75
ATOM     75  C   UNL A   1      32.215  23.678  24.304  1.00  0.00     0.072 A 
ATOM     76  C   UNL A   1      30.932  23.963  24.790  1.00  0.00     0.029 A 
ATOM     77  C   UNL A   1      33.222  23.204  25.169  1.00  0.00     0.061 A 
ATOM     78  C   UNL A   1      30.578  23.656  26.100  1.00  0.00     0.002 A 
ATOM     79  C   UNL A   1      32.837  22.897  26.486  1.00  0.00     0.028 A 
ATOM     80  C   UNL A   1      31.529  23.099  26.943  1.00  0.00     0.002 A 
BRANCH  77  81
ATOM     81  N   UNL A   1      34.546  23.091  24.775  1.00  0.00    -0.370 N 
ATOM     82  C   UNL A   1      35.093  21.840  24.254  1.00  0.00     0.116 C 
ATOM     83  C   UNL A   1      35.476  24.182  25.080  1.00  0.00     0.116 C 
ATOM     84  C   UNL A   1      36.256  21.349  25.107  1.00  0.00     0.021 C 
ATOM     85  C   UNL A   1      36.619  23.673  25.954  1.00  0.00     0.021 C 
ATOM     86  C   UNL A   1      37.284  22.455  25.319  1.00  0.00     0.004 C 
ENDBRANCH  77  81
ENDBRANCH  73  75
ENDBRANCH  70  73
ENDBRANCH  67  70
ENDBRANCH  62  65
ENDBRANCH  60  61
ENDBRANCH  59  60
ENDBRANCH   1  59
TORSDOF 17
ENDMDL
