MODEL 1
REMARK VINA RESULT:     -10.7      0.000      0.000
REMARK SMILES CCOc1cc(C[NH+]2CCC3(CC2)[C@H](C(=O)NCCCCCCNC(=O)c2ccc(-c4c5nc(c(-c6ccccc6)c6ccc([nH]6)c(-c6ccccc6)c6nc(c(-c7ccccc7)c7ccc4[nH]7)C=C6)C=C5)cc2)CC(=O)N3C)ccc1OC
REMARK SMILES IDX 19 1 18 2 17 3 15 4 16 5 14 7 8 8 9 9 13 10 10 12 12 13
REMARK SMILES IDX 11 14 78 15 75 16 76 17 79 18 77 19 7 20 6 21 4 22 5 23
REMARK SMILES IDX 82 24 81 25 80 26 3 27 2 28 1 29 83 30 84 31 20 32 21 33
REMARK SMILES IDX 22 34 23 35 24 36 25 37 26 39 27 40 28 41 74 42 29 43 73 44
REMARK SMILES IDX 30 45 31 46 32 47 67 48 33 49 72 50 66 51 68 52 34 53 71 54
REMARK SMILES IDX 65 55 64 56 35 58 57 59 42 60 56 61 43 62 46 63 55 64 69 65
REMARK SMILES IDX 44 66 45 67 54 69 70 70 47 71 36 72 37 73 41 74 38 75 40 76
REMARK SMILES IDX 39 77 58 78 59 79 63 80 60 81 62 82 61 83 48 84 49 85 53 86
REMARK SMILES IDX 50 87 52 88 51 89
REMARK H PARENT 17 6 8 11 24 38 68 57 46 68
REMARK Flexibility Score: inf
ROOT
ATOM      1  C   UNL A   1      35.115  29.003  26.890  1.00  0.00     0.021 C 
ENDROOT
BRANCH   1   2
ATOM      2  C   UNL A   1      34.041  28.438  25.959  1.00  0.00     0.116 C 
BRANCH   2   3
ATOM      3  N   UNL A   1      32.944  29.357  25.817  1.00  0.00    -0.356 N 
ATOM      4  C   UNL A   1      31.889  29.431  24.986  1.00  0.00     0.226 C 
ATOM      5  O   UNL A   1      31.093  30.330  25.277  1.00  0.00    -0.275 OA
ATOM      6  H   UNL A   1      32.970  30.092  26.471  1.00  0.00     0.163 HD
BRANCH   4   7
ATOM      7  C   UNL A   1      31.555  28.462  23.849  1.00  0.00     0.114 C 
ATOM      8  N   UNL A   1      31.026  24.393  25.101  1.00  0.00    -0.331 N 
ATOM      9  C   UNL A   1      30.298  25.358  25.894  1.00  0.00     0.265 C 
ATOM     10  C   UNL A   1      30.856  24.614  23.675  1.00  0.00     0.265 C 
ATOM     11  H   UNL A   1      30.565  23.496  25.251  1.00  0.00     0.348 HD
ATOM     12  C   UNL A   1      30.598  26.804  25.534  1.00  0.00     0.091 C 
ATOM     13  C   UNL A   1      31.142  26.030  23.151  1.00  0.00     0.091 C 
ATOM     14  C   UNL A   1      30.652  27.201  24.048  1.00  0.00     0.065 C 
ATOM     15  N   UNL A   1      29.377  27.697  23.497  1.00  0.00    -0.339 N 
ATOM     16  C   UNL A   1      30.956  29.241  22.686  1.00  0.00     0.116 C 
ATOM     17  C   UNL A   1      29.515  28.829  22.695  1.00  0.00     0.223 C 
ATOM     18  C   UNL A   1      28.122  26.982  23.515  1.00  0.00     0.147 C 
ATOM     19  O   UNL A   1      28.631  29.381  22.071  1.00  0.00    -0.275 OA
BRANCH   8  20
ATOM     20  C   UNL A   1      32.337  23.963  25.608  1.00  0.00     0.299 C 
BRANCH  20  21
ATOM     21  C   UNL A   1      32.844  22.611  25.153  1.00  0.00     0.010 A 
ATOM     22  C   UNL A   1      34.728  21.119  24.767  1.00  0.00     0.161 A 
ATOM     23  C   UNL A   1      34.200  22.414  24.846  1.00  0.00     0.060 A 
ATOM     24  C   UNL A   1      33.873  20.011  24.788  1.00  0.00     0.160 A 
ATOM     25  C   UNL A   1      32.496  20.224  24.906  1.00  0.00     0.051 A 
ATOM     26  C   UNL A   1      31.986  21.504  25.127  1.00  0.00     0.013 A 
BRANCH  22  27
ATOM     27  O   UNL A   1      36.053  20.916  25.007  1.00  0.00    -0.490 OA
BRANCH  27  28
ATOM     28  C   UNL A   1      36.790  21.860  25.761  1.00  0.00     0.226 C 
ATOM     29  C   UNL A   1      38.243  21.592  25.384  1.00  0.00     0.049 C 
ENDBRANCH  27  28
ENDBRANCH  22  27
BRANCH  24  30
ATOM     30  O   UNL A   1      34.203  18.683  24.740  1.00  0.00    -0.493 OA
ATOM     31  C   UNL A   1      33.211  17.707  25.029  1.00  0.00     0.278 C 
ENDBRANCH  24  30
ENDBRANCH  20  21
ENDBRANCH   8  20
ENDBRANCH   4   7
ENDBRANCH   2   3
ENDBRANCH   1   2
BRANCH   1  32
ATOM     32  C   UNL A   1      34.597  29.933  27.986  1.00  0.00     0.002 C 
BRANCH  32  33
ATOM     33  C   UNL A   1      34.834  31.420  27.738  1.00  0.00     0.002 C 
BRANCH  33  34
ATOM     34  C   UNL A   1      33.602  32.304  27.930  1.00  0.00     0.021 C 
BRANCH  34  35
ATOM     35  C   UNL A   1      33.880  33.797  27.874  1.00  0.00     0.116 C 
BRANCH  35  36
ATOM     36  N   UNL A   1      33.382  34.493  29.042  1.00  0.00    -0.352 N 
ATOM     37  C   UNL A   1      33.838  34.389  30.329  1.00  0.00     0.251 C 
ATOM     38  H   UNL A   1      32.630  35.111  28.895  1.00  0.00     0.163 HD
ATOM     39  O   UNL A   1      33.225  34.896  31.261  1.00  0.00    -0.269 OA
BRANCH  37  40
ATOM     40  C   UNL A   1      35.077  33.627  30.573  1.00  0.00     0.039 A 
ATOM     41  C   UNL A   1      36.277  34.121  30.067  1.00  0.00     0.014 A 
ATOM     42  C   UNL A   1      35.048  32.454  31.338  1.00  0.00     0.014 A 
ATOM     43  C   UNL A   1      37.461  33.439  30.340  1.00  0.00     0.010 A 
ATOM     44  C   UNL A   1      36.239  31.829  31.682  1.00  0.00     0.010 A 
ATOM     45  C   UNL A   1      37.452  32.297  31.158  1.00  0.00    -0.014 A 
BRANCH  45  46
ATOM     46  C   UNL A   1      38.706  31.550  31.418  1.00  0.00     0.031 A 
ATOM     47  C   UNL A   1      39.552  31.903  32.611  1.00  0.00     0.074 A 
ATOM     48  C   UNL A   1      39.083  30.564  30.583  1.00  0.00     0.049 A 
ATOM     49  N   UNL A   1      40.659  31.346  33.031  1.00  0.00    -0.248 NA
ATOM     50  C   UNL A   1      39.111  33.046  33.429  1.00  0.00     0.031 C 
ATOM     51  C   UNL A   1      38.367  30.158  29.371  1.00  0.00     0.029 A 
ATOM     52  N   UNL A   1      40.158  29.713  30.637  1.00  0.00    -0.354 N 
ATOM     53  C   UNL A   1      41.046  32.076  34.149  1.00  0.00     0.074 A 
ATOM     54  C   UNL A   1      40.097  33.154  34.303  1.00  0.00     0.031 C 
ATOM     55  C   UNL A   1      38.998  29.107  28.822  1.00  0.00     0.029 A 
ATOM     56  C   UNL A   1      40.178  28.790  29.621  1.00  0.00     0.049 A 
ATOM     57  H   UNL A   1      40.848  29.761  31.337  1.00  0.00     0.167 HD
ATOM     58  C   UNL A   1      42.083  31.852  34.991  1.00  0.00     0.031 A 
ATOM     59  C   UNL A   1      41.047  27.795  29.367  1.00  0.00     0.031 A 
ATOM     60  C   UNL A   1      43.022  30.773  34.839  1.00  0.00     0.049 A 
ATOM     61  C   UNL A   1      42.198  27.574  30.310  1.00  0.00     0.074 A 
ATOM     62  C   UNL A   1      44.080  30.429  35.660  1.00  0.00     0.029 A 
ATOM     63  N   UNL A   1      43.013  29.865  33.791  1.00  0.00    -0.354 N 
ATOM     64  N   UNL A   1      42.510  28.227  31.404  1.00  0.00    -0.248 NA
ATOM     65  C   UNL A   1      43.105  26.463  29.992  1.00  0.00     0.031 C 
ATOM     66  C   UNL A   1      44.747  29.346  35.079  1.00  0.00     0.029 A 
ATOM     67  C   UNL A   1      44.063  28.973  33.932  1.00  0.00     0.049 A 
ATOM     68  H   UNL A   1      42.358  29.854  33.056  1.00  0.00     0.167 HD
ATOM     69  C   UNL A   1      43.629  27.586  31.922  1.00  0.00     0.074 A 
ATOM     70  C   UNL A   1      43.926  26.483  31.031  1.00  0.00     0.031 C 
ATOM     71  C   UNL A   1      44.345  27.882  33.034  1.00  0.00     0.031 A 
BRANCH  58  72
ATOM     72  C   UNL A   1      42.253  32.801  36.145  1.00  0.00    -0.014 A 
ATOM     73  C   UNL A   1      41.664  32.546  37.394  1.00  0.00     0.009 A 
ATOM     74  C   UNL A   1      43.031  33.959  35.987  1.00  0.00     0.009 A 
ATOM     75  C   UNL A   1      41.816  33.451  38.447  1.00  0.00     0.001 A 
ATOM     76  C   UNL A   1      43.209  34.845  37.052  1.00  0.00     0.001 A 
ATOM     77  C   UNL A   1      42.593  34.595  38.277  1.00  0.00     0.000 A 
ENDBRANCH  58  72
BRANCH  59  78
ATOM     78  C   UNL A   1      40.851  26.913  28.186  1.00  0.00    -0.014 A 
ATOM     79  C   UNL A   1      41.465  27.213  26.960  1.00  0.00     0.009 A 
ATOM     80  C   UNL A   1      40.038  25.772  28.275  1.00  0.00     0.009 A 
ATOM     81  C   UNL A   1      41.242  26.408  25.840  1.00  0.00     0.001 A 
ATOM     82  C   UNL A   1      39.843  24.951  27.162  1.00  0.00     0.001 A 
ATOM     83  C   UNL A   1      40.436  25.277  25.943  1.00  0.00     0.000 A 
ENDBRANCH  59  78
BRANCH  71  84
ATOM     84  C   UNL A   1      45.493  26.973  33.371  1.00  0.00    -0.014 A 
ATOM     85  C   UNL A   1      45.315  25.830  34.167  1.00  0.00     0.009 A 
ATOM     86  C   UNL A   1      46.771  27.254  32.860  1.00  0.00     0.009 A 
ATOM     87  C   UNL A   1      46.404  25.014  34.481  1.00  0.00     0.001 A 
ATOM     88  C   UNL A   1      47.849  26.417  33.147  1.00  0.00     0.001 A 
ATOM     89  C   UNL A   1      47.668  25.306  33.968  1.00  0.00     0.000 A 
ENDBRANCH  71  84
ENDBRANCH  45  46
ENDBRANCH  37  40
ENDBRANCH  35  36
ENDBRANCH  34  35
ENDBRANCH  33  34
ENDBRANCH  32  33
ENDBRANCH   1  32
TORSDOF 18
ENDMDL
MODEL 2
REMARK VINA RESULT:     -10.6      1.827      6.265
REMARK SMILES CCOc1cc(C[NH+]2CCC3(CC2)[C@H](C(=O)NCCCCCCNC(=O)c2ccc(-c4c5nc(c(-c6ccccc6)c6ccc([nH]6)c(-c6ccccc6)c6nc(c(-c7ccccc7)c7ccc4[nH]7)C=C6)C=C5)cc2)CC(=O)N3C)ccc1OC
REMARK SMILES IDX 19 1 18 2 17 3 15 4 16 5 14 7 8 8 9 9 13 10 10 12 12 13
REMARK SMILES IDX 11 14 78 15 75 16 76 17 79 18 77 19 7 20 6 21 4 22 5 23
REMARK SMILES IDX 82 24 81 25 80 26 3 27 2 28 1 29 83 30 84 31 20 32 21 33
REMARK SMILES IDX 22 34 23 35 24 36 25 37 26 39 27 40 28 41 74 42 29 43 73 44
REMARK SMILES IDX 30 45 31 46 32 47 67 48 33 49 72 50 66 51 68 52 34 53 71 54
REMARK SMILES IDX 65 55 64 56 35 58 57 59 42 60 56 61 43 62 46 63 55 64 69 65
REMARK SMILES IDX 44 66 45 67 54 69 70 70 47 71 36 72 37 73 41 74 38 75 40 76
REMARK SMILES IDX 39 77 58 78 59 79 63 80 60 81 62 82 61 83 48 84 49 85 53 86
REMARK SMILES IDX 50 87 52 88 51 89
REMARK H PARENT 17 6 8 11 24 38 68 57 46 68
REMARK Flexibility Score: inf
ROOT
ATOM      1  C   UNL A   1      35.186  31.108  27.933  1.00  0.00     0.021 C 
ENDROOT
BRANCH   1   2
ATOM      2  C   UNL A   1      34.838  29.660  27.588  1.00  0.00     0.116 C 
BRANCH   2   3
ATOM      3  N   UNL A   1      33.417  29.443  27.638  1.00  0.00    -0.356 N 
ATOM      4  C   UNL A   1      32.554  28.723  26.899  1.00  0.00     0.226 C 
ATOM      5  O   UNL A   1      31.407  28.708  27.354  1.00  0.00    -0.275 OA
ATOM      6  H   UNL A   1      32.980  29.927  28.375  1.00  0.00     0.163 HD
BRANCH   4   7
ATOM      7  C   UNL A   1      32.896  27.868  25.676  1.00  0.00     0.114 C 
ATOM      8  N   UNL A   1      31.165  23.943  25.732  1.00  0.00    -0.331 N 
ATOM      9  C   UNL A   1      30.234  25.008  26.031  1.00  0.00     0.265 C 
ATOM     10  C   UNL A   1      31.971  24.232  24.558  1.00  0.00     0.265 C 
ATOM     11  H   UNL A   1      30.602  23.147  25.433  1.00  0.00     0.348 HD
ATOM     12  C   UNL A   1      30.880  26.379  26.146  1.00  0.00     0.091 C 
ATOM     13  C   UNL A   1      32.706  25.581  24.533  1.00  0.00     0.091 C 
ATOM     14  C   UNL A   1      31.918  26.798  25.090  1.00  0.00     0.065 C 
ATOM     15  N   UNL A   1      31.362  27.546  23.945  1.00  0.00    -0.339 N 
ATOM     16  C   UNL A   1      33.281  28.780  24.518  1.00  0.00     0.116 C 
ATOM     17  C   UNL A   1      32.125  28.652  23.574  1.00  0.00     0.223 C 
ATOM     18  C   UNL A   1      30.301  27.085  23.079  1.00  0.00     0.147 C 
ATOM     19  O   UNL A   1      31.921  29.381  22.624  1.00  0.00    -0.275 OA
BRANCH   8  20
ATOM     20  C   UNL A   1      31.784  23.256  26.874  1.00  0.00     0.299 C 
BRANCH  20  21
ATOM     21  C   UNL A   1      33.004  22.404  26.590  1.00  0.00     0.010 A 
ATOM     22  C   UNL A   1      33.994  20.518  25.414  1.00  0.00     0.161 A 
ATOM     23  C   UNL A   1      32.880  21.142  25.988  1.00  0.00     0.060 A 
ATOM     24  C   UNL A   1      35.275  21.046  25.616  1.00  0.00     0.160 A 
ATOM     25  C   UNL A   1      35.412  22.209  26.380  1.00  0.00     0.051 A 
ATOM     26  C   UNL A   1      34.289  22.906  26.829  1.00  0.00     0.013 A 
BRANCH  22  27
ATOM     27  O   UNL A   1      33.819  19.618  24.406  1.00  0.00    -0.490 OA
BRANCH  27  28
ATOM     28  C   UNL A   1      32.525  19.123  24.115  1.00  0.00     0.226 C 
ATOM     29  C   UNL A   1      32.477  17.766  24.809  1.00  0.00     0.049 C 
ENDBRANCH  27  28
ENDBRANCH  22  27
BRANCH  24  30
ATOM     30  O   UNL A   1      36.469  20.588  25.126  1.00  0.00    -0.493 OA
ATOM     31  C   UNL A   1      37.417  21.519  24.621  1.00  0.00     0.278 C 
ENDBRANCH  24  30
ENDBRANCH  20  21
ENDBRANCH   8  20
ENDBRANCH   4   7
ENDBRANCH   2   3
ENDBRANCH   1   2
BRANCH   1  32
ATOM     32  C   UNL A   1      33.987  32.021  28.184  1.00  0.00     0.002 C 
BRANCH  32  33
ATOM     33  C   UNL A   1      34.333  33.428  28.660  1.00  0.00     0.002 C 
BRANCH  33  34
ATOM     34  C   UNL A   1      33.161  34.407  28.668  1.00  0.00     0.021 C 
BRANCH  34  35
ATOM     35  C   UNL A   1      33.471  35.762  29.281  1.00  0.00     0.116 C 
BRANCH  35  36
ATOM     36  N   UNL A   1      32.551  36.109  30.344  1.00  0.00    -0.352 N 
ATOM     37  C   UNL A   1      32.604  35.710  31.653  1.00  0.00     0.251 C 
ATOM     38  H   UNL A   1      31.802  36.698  30.098  1.00  0.00     0.163 HD
ATOM     39  O   UNL A   1      31.674  35.927  32.419  1.00  0.00    -0.269 OA
BRANCH  37  40
ATOM     40  C   UNL A   1      33.803  34.986  32.115  1.00  0.00     0.039 A 
ATOM     41  C   UNL A   1      33.696  33.626  32.397  1.00  0.00     0.014 A 
ATOM     42  C   UNL A   1      35.033  35.647  32.222  1.00  0.00     0.014 A 
ATOM     43  C   UNL A   1      34.834  32.919  32.779  1.00  0.00     0.010 A 
ATOM     44  C   UNL A   1      36.180  34.921  32.515  1.00  0.00     0.010 A 
ATOM     45  C   UNL A   1      36.085  33.558  32.830  1.00  0.00    -0.014 A 
BRANCH  45  46
ATOM     46  C   UNL A   1      37.289  32.816  33.272  1.00  0.00     0.031 A 
ATOM     47  C   UNL A   1      37.904  31.782  32.368  1.00  0.00     0.074 A 
ATOM     48  C   UNL A   1      37.824  33.068  34.481  1.00  0.00     0.049 A 
ATOM     49  N   UNL A   1      38.976  31.056  32.554  1.00  0.00    -0.248 NA
ATOM     50  C   UNL A   1      37.211  31.510  31.096  1.00  0.00     0.031 C 
ATOM     51  C   UNL A   1      37.294  34.018  35.462  1.00  0.00     0.029 A 
ATOM     52  N   UNL A   1      38.944  32.554  35.085  1.00  0.00    -0.354 N 
ATOM     53  C   UNL A   1      39.077  30.240  31.433  1.00  0.00     0.074 A 
ATOM     54  C   UNL A   1      37.925  30.510  30.605  1.00  0.00     0.031 C 
ATOM     55  C   UNL A   1      38.114  34.051  36.525  1.00  0.00     0.029 A 
ATOM     56  C   UNL A   1      39.203  33.103  36.316  1.00  0.00     0.049 A 
ATOM     57  H   UNL A   1      39.506  31.859  34.674  1.00  0.00     0.167 HD
ATOM     58  C   UNL A   1      40.057  29.364  31.107  1.00  0.00     0.031 A 
ATOM     59  C   UNL A   1      40.212  32.871  37.176  1.00  0.00     0.031 A 
ATOM     60  C   UNL A   1      41.207  29.103  31.931  1.00  0.00     0.049 A 
ATOM     61  C   UNL A   1      41.282  31.885  36.796  1.00  0.00     0.074 A 
ATOM     62  C   UNL A   1      42.280  28.270  31.673  1.00  0.00     0.029 A 
ATOM     63  N   UNL A   1      41.428  29.673  33.175  1.00  0.00    -0.354 N 
ATOM     64  N   UNL A   1      41.402  31.174  35.700  1.00  0.00    -0.248 NA
ATOM     65  C   UNL A   1      42.366  31.684  37.767  1.00  0.00     0.031 C 
ATOM     66  C   UNL A   1      43.125  28.292  32.787  1.00  0.00     0.029 A 
ATOM     67  C   UNL A   1      42.611  29.191  33.709  1.00  0.00     0.049 A 
ATOM     68  H   UNL A   1      40.833  30.323  33.614  1.00  0.00     0.167 HD
ATOM     69  C   UNL A   1      42.591  30.468  35.836  1.00  0.00     0.074 A 
ATOM     70  C   UNL A   1      43.161  30.853  37.111  1.00  0.00     0.031 C 
ATOM     71  C   UNL A   1      43.162  29.583  34.982  1.00  0.00     0.031 A 
BRANCH  58  72
ATOM     72  C   UNL A   1      39.916  28.623  29.806  1.00  0.00    -0.014 A 
ATOM     73  C   UNL A   1      40.301  29.206  28.588  1.00  0.00     0.009 A 
ATOM     74  C   UNL A   1      39.408  27.314  29.799  1.00  0.00     0.009 A 
ATOM     75  C   UNL A   1      40.143  28.510  27.387  1.00  0.00     0.001 A 
ATOM     76  C   UNL A   1      39.282  26.609  28.601  1.00  0.00     0.001 A 
ATOM     77  C   UNL A   1      39.639  27.211  27.396  1.00  0.00     0.000 A 
ENDBRANCH  58  72
BRANCH  59  78
ATOM     78  C   UNL A   1      40.276  33.604  38.469  1.00  0.00    -0.014 A 
ATOM     79  C   UNL A   1      39.663  33.082  39.618  1.00  0.00     0.009 A 
ATOM     80  C   UNL A   1      40.941  34.837  38.557  1.00  0.00     0.009 A 
ATOM     81  C   UNL A   1      39.686  33.794  40.819  1.00  0.00     0.001 A 
ATOM     82  C   UNL A   1      40.990  35.532  39.767  1.00  0.00     0.001 A 
ATOM     83  C   UNL A   1      40.353  35.015  40.894  1.00  0.00     0.000 A 
ENDBRANCH  59  78
BRANCH  71  84
ATOM     84  C   UNL A   1      44.489  29.004  35.382  1.00  0.00    -0.014 A 
ATOM     85  C   UNL A   1      44.578  27.844  36.167  1.00  0.00     0.009 A 
ATOM     86  C   UNL A   1      45.673  29.620  34.942  1.00  0.00     0.009 A 
ATOM     87  C   UNL A   1      45.825  27.339  36.541  1.00  0.00     0.001 A 
ATOM     88  C   UNL A   1      46.917  29.094  35.288  1.00  0.00     0.001 A 
ATOM     89  C   UNL A   1      46.993  27.962  36.098  1.00  0.00     0.000 A 
ENDBRANCH  71  84
ENDBRANCH  45  46
ENDBRANCH  37  40
ENDBRANCH  35  36
ENDBRANCH  34  35
ENDBRANCH  33  34
ENDBRANCH  32  33
ENDBRANCH   1  32
TORSDOF 18
ENDMDL
MODEL 3
REMARK VINA RESULT:     -10.4      2.060      3.078
REMARK SMILES CCOc1cc(C[NH+]2CCC3(CC2)[C@H](C(=O)NCCCCCCNC(=O)c2ccc(-c4c5nc(c(-c6ccccc6)c6ccc([nH]6)c(-c6ccccc6)c6nc(c(-c7ccccc7)c7ccc4[nH]7)C=C6)C=C5)cc2)CC(=O)N3C)ccc1OC
REMARK SMILES IDX 19 1 18 2 17 3 15 4 16 5 14 7 8 8 9 9 13 10 10 12 12 13
REMARK SMILES IDX 11 14 78 15 75 16 76 17 79 18 77 19 7 20 6 21 4 22 5 23
REMARK SMILES IDX 82 24 81 25 80 26 3 27 2 28 1 29 83 30 84 31 20 32 21 33
REMARK SMILES IDX 22 34 23 35 24 36 25 37 26 39 27 40 28 41 74 42 29 43 73 44
REMARK SMILES IDX 30 45 31 46 32 47 67 48 33 49 72 50 66 51 68 52 34 53 71 54
REMARK SMILES IDX 65 55 64 56 35 58 57 59 42 60 56 61 43 62 46 63 55 64 69 65
REMARK SMILES IDX 44 66 45 67 54 69 70 70 47 71 36 72 37 73 41 74 38 75 40 76
REMARK SMILES IDX 39 77 58 78 59 79 63 80 60 81 62 82 61 83 48 84 49 85 53 86
REMARK SMILES IDX 50 87 52 88 51 89
REMARK H PARENT 17 6 8 11 24 38 68 57 46 68
REMARK Flexibility Score: inf
ROOT
ATOM      1  C   UNL A   1      34.458  31.209  28.396  1.00  0.00     0.021 C 
ENDROOT
BRANCH   1   2
ATOM      2  C   UNL A   1      34.167  30.153  27.329  1.00  0.00     0.116 C 
BRANCH   2   3
ATOM      3  N   UNL A   1      32.959  29.433  27.628  1.00  0.00    -0.356 N 
ATOM      4  C   UNL A   1      32.179  28.585  26.934  1.00  0.00     0.226 C 
ATOM      5  O   UNL A   1      31.275  28.081  27.608  1.00  0.00    -0.275 OA
ATOM      6  H   UNL A   1      32.630  29.596  28.542  1.00  0.00     0.163 HD
BRANCH   4   7
ATOM      7  C   UNL A   1      32.391  28.130  25.488  1.00  0.00     0.114 C 
ATOM      8  N   UNL A   1      34.465  24.394  25.105  1.00  0.00    -0.331 N 
ATOM      9  C   UNL A   1      33.374  24.374  26.054  1.00  0.00     0.265 C 
ATOM     10  C   UNL A   1      34.084  25.006  23.844  1.00  0.00     0.265 C 
ATOM     11  H   UNL A   1      34.635  23.423  24.846  1.00  0.00     0.348 HD
ATOM     12  C   UNL A   1      32.734  25.733  26.287  1.00  0.00     0.091 C 
ATOM     13  C   UNL A   1      33.437  26.398  23.913  1.00  0.00     0.091 C 
ATOM     14  C   UNL A   1      32.425  26.623  25.071  1.00  0.00     0.065 C 
ATOM     15  N   UNL A   1      31.063  26.468  24.525  1.00  0.00    -0.339 N 
ATOM     16  C   UNL A   1      31.357  28.801  24.594  1.00  0.00     0.116 C 
ATOM     17  C   UNL A   1      30.443  27.677  24.212  1.00  0.00     0.223 C 
ATOM     18  C   UNL A   1      30.477  25.226  24.076  1.00  0.00     0.147 C 
ATOM     19  O   UNL A   1      29.357  27.813  23.686  1.00  0.00    -0.275 OA
BRANCH   8  20
ATOM     20  C   UNL A   1      35.812  24.635  25.641  1.00  0.00     0.299 C 
BRANCH  20  21
ATOM     21  C   UNL A   1      36.840  23.541  25.441  1.00  0.00     0.010 A 
ATOM     22  C   UNL A   1      38.900  22.466  26.166  1.00  0.00     0.161 A 
ATOM     23  C   UNL A   1      38.098  23.609  26.061  1.00  0.00     0.060 A 
ATOM     24  C   UNL A   1      38.550  21.298  25.476  1.00  0.00     0.160 A 
ATOM     25  C   UNL A   1      37.385  21.296  24.704  1.00  0.00     0.051 A 
ATOM     26  C   UNL A   1      36.515  22.387  24.715  1.00  0.00     0.013 A 
BRANCH  22  27
ATOM     27  O   UNL A   1      39.810  22.370  27.175  1.00  0.00    -0.490 OA
BRANCH  27  28
ATOM     28  C   UNL A   1      40.899  23.272  27.234  1.00  0.00     0.226 C 
ATOM     29  C   UNL A   1      41.881  22.745  26.192  1.00  0.00     0.049 C 
ENDBRANCH  27  28
ENDBRANCH  22  27
BRANCH  24  30
ATOM     30  O   UNL A   1      39.194  20.090  25.472  1.00  0.00    -0.493 OA
ATOM     31  C   UNL A   1      38.429  18.893  25.426  1.00  0.00     0.278 C 
ENDBRANCH  24  30
ENDBRANCH  20  21
ENDBRANCH   8  20
ENDBRANCH   4   7
ENDBRANCH   2   3
ENDBRANCH   1   2
BRANCH   1  32
ATOM     32  C   UNL A   1      34.229  32.654  27.956  1.00  0.00     0.002 C 
BRANCH  32  33
ATOM     33  C   UNL A   1      34.202  33.678  29.086  1.00  0.00     0.002 C 
BRANCH  33  34
ATOM     34  C   UNL A   1      33.024  34.649  29.041  1.00  0.00     0.021 C 
BRANCH  34  35
ATOM     35  C   UNL A   1      33.288  35.996  29.692  1.00  0.00     0.116 C 
BRANCH  35  36
ATOM     36  N   UNL A   1      32.489  36.197  30.883  1.00  0.00    -0.352 N 
ATOM     37  C   UNL A   1      32.692  35.652  32.123  1.00  0.00     0.251 C 
ATOM     38  H   UNL A   1      31.711  36.793  30.791  1.00  0.00     0.163 HD
ATOM     39  O   UNL A   1      31.850  35.758  33.006  1.00  0.00    -0.269 OA
BRANCH  37  40
ATOM     40  C   UNL A   1      33.942  34.908  32.364  1.00  0.00     0.039 A 
ATOM     41  C   UNL A   1      35.154  35.586  32.264  1.00  0.00     0.014 A 
ATOM     42  C   UNL A   1      33.903  33.557  32.730  1.00  0.00     0.014 A 
ATOM     43  C   UNL A   1      36.338  34.908  32.546  1.00  0.00     0.010 A 
ATOM     44  C   UNL A   1      35.075  32.910  33.096  1.00  0.00     0.010 A 
ATOM     45  C   UNL A   1      36.307  33.570  32.975  1.00  0.00    -0.014 A 
BRANCH  45  46
ATOM     46  C   UNL A   1      37.567  32.837  33.238  1.00  0.00     0.031 A 
ATOM     47  C   UNL A   1      38.324  33.086  34.514  1.00  0.00     0.074 A 
ATOM     48  C   UNL A   1      38.030  31.954  32.333  1.00  0.00     0.049 A 
ATOM     49  N   UNL A   1      39.422  32.521  34.946  1.00  0.00    -0.248 NA
ATOM     50  C   UNL A   1      37.793  34.125  35.414  1.00  0.00     0.031 C 
ATOM     51  C   UNL A   1      37.406  31.657  31.041  1.00  0.00     0.029 A 
ATOM     52  N   UNL A   1      39.129  31.134  32.369  1.00  0.00    -0.354 N 
ATOM     53  C   UNL A   1      39.713  33.140  36.156  1.00  0.00     0.074 A 
ATOM     54  C   UNL A   1      38.719  34.169  36.358  1.00  0.00     0.031 C 
ATOM     55  C   UNL A   1      38.107  30.689  30.430  1.00  0.00     0.029 A 
ATOM     56  C   UNL A   1      39.245  30.324  31.267  1.00  0.00     0.049 A 
ATOM     57  H   UNL A   1      39.772  31.128  33.114  1.00  0.00     0.167 HD
ATOM     58  C   UNL A   1      40.703  32.859  37.036  1.00  0.00     0.031 A 
ATOM     59  C   UNL A   1      40.163  29.385  30.970  1.00  0.00     0.031 A 
ATOM     60  C   UNL A   1      41.686  31.829  36.836  1.00  0.00     0.049 A 
ATOM     61  C   UNL A   1      41.260  29.100  31.959  1.00  0.00     0.074 A 
ATOM     62  C   UNL A   1      42.703  31.431  37.686  1.00  0.00     0.029 A 
ATOM     63  N   UNL A   1      41.775  31.036  35.703  1.00  0.00    -0.354 N 
ATOM     64  N   UNL A   1      41.479  29.644  33.132  1.00  0.00    -0.248 NA
ATOM     65  C   UNL A   1      42.224  28.055  31.588  1.00  0.00     0.031 C 
ATOM     66  C   UNL A   1      43.442  30.435  37.042  1.00  0.00     0.029 A 
ATOM     67  C   UNL A   1      42.845  30.165  35.820  1.00  0.00     0.049 A 
ATOM     68  H   UNL A   1      41.167  31.084  34.929  1.00  0.00     0.167 HD
ATOM     69  C   UNL A   1      42.586  28.985  33.653  1.00  0.00     0.074 A 
ATOM     70  C   UNL A   1      42.977  27.990  32.676  1.00  0.00     0.031 C 
ATOM     71  C   UNL A   1      43.221  29.183  34.835  1.00  0.00     0.031 A 
BRANCH  58  72
ATOM     72  C   UNL A   1      40.767  33.687  38.291  1.00  0.00    -0.014 A 
ATOM     73  C   UNL A   1      41.417  34.932  38.312  1.00  0.00     0.009 A 
ATOM     74  C   UNL A   1      40.151  33.224  39.465  1.00  0.00     0.009 A 
ATOM     75  C   UNL A   1      41.484  35.675  39.492  1.00  0.00     0.001 A 
ATOM     76  C   UNL A   1      40.191  33.986  40.634  1.00  0.00     0.001 A 
ATOM     77  C   UNL A   1      40.867  35.205  40.649  1.00  0.00     0.000 A 
ENDBRANCH  58  72
BRANCH  59  78
ATOM     78  C   UNL A   1      40.072  28.627  29.694  1.00  0.00    -0.014 A 
ATOM     79  C   UNL A   1      39.436  27.376  29.649  1.00  0.00     0.009 A 
ATOM     80  C   UNL A   1      40.632  29.145  28.516  1.00  0.00     0.009 A 
ATOM     81  C   UNL A   1      39.393  26.647  28.459  1.00  0.00     0.001 A 
ATOM     82  C   UNL A   1      40.558  28.427  27.320  1.00  0.00     0.001 A 
ATOM     83  C   UNL A   1      39.949  27.174  27.296  1.00  0.00     0.000 A 
ENDBRANCH  59  78
BRANCH  71  84
ATOM     84  C   UNL A   1      44.377  28.277  35.151  1.00  0.00    -0.014 A 
ATOM     85  C   UNL A   1      45.693  28.616  34.802  1.00  0.00     0.009 A 
ATOM     86  C   UNL A   1      44.144  27.072  35.835  1.00  0.00     0.009 A 
ATOM     87  C   UNL A   1      46.746  27.746  35.091  1.00  0.00     0.001 A 
ATOM     88  C   UNL A   1      45.202  26.221  36.153  1.00  0.00     0.001 A 
ATOM     89  C   UNL A   1      46.501  26.552  35.769  1.00  0.00     0.000 A 
ENDBRANCH  71  84
ENDBRANCH  45  46
ENDBRANCH  37  40
ENDBRANCH  35  36
ENDBRANCH  34  35
ENDBRANCH  33  34
ENDBRANCH  32  33
ENDBRANCH   1  32
TORSDOF 18
ENDMDL
