MODEL 1
REMARK VINA RESULT:     -12.0      0.000      0.000
REMARK SMILES CC1(C)S[C@@H](c2cccc3c2sc2ccccc23)[NH2+][C@@H]1C(=O)NCCCCCCNC(=O)c1ccc(-c2c3nc(c(-c4ccccc4)c4ccc([nH]4)c(-c4ccccc4)c4nc(c(-c5ccccc5)c5ccc2[nH]5)C=C4)C=C3)cc1
REMARK SMILES IDX 27 1 26 2 25 3 24 4 23 5 21 6 22 7 20 9 1 10 2 11 3 12 4 13
REMARK SMILES IDX 5 14 19 15 6 18 7 19 11 20 8 21 10 22 12 23 9 24 18 25 13 26
REMARK SMILES IDX 17 27 14 28 16 29 15 30 28 31 29 32 30 33 31 34 32 36 33 37
REMARK SMILES IDX 34 38 80 39 35 40 79 41 36 42 37 43 38 44 73 45 39 46 78 47
REMARK SMILES IDX 72 48 74 49 40 50 77 51 71 52 70 53 41 55 63 56 48 57 62 58
REMARK SMILES IDX 49 59 52 60 61 61 75 62 50 63 51 64 60 66 76 67 53 68 42 69
REMARK SMILES IDX 43 70 47 71 44 72 46 73 45 74 64 75 65 76 69 77 66 78 68 79
REMARK SMILES IDX 67 80 54 81 55 82 59 83 56 84 58 85 57 86
REMARK H PARENT 23 8 19 16 19 17 30 35 74 54 52 65
REMARK Flexibility Score: inf
ROOT
ATOM      1  C   UNL A   1      34.076  30.936  27.420  1.00  0.00     0.002 C 
ENDROOT
BRANCH   1   2
ATOM      2  C   UNL A   1      33.862  29.487  26.975  1.00  0.00     0.002 C 
BRANCH   2   3
ATOM      3  C   UNL A   1      32.685  28.749  27.622  1.00  0.00     0.021 C 
BRANCH   3   4
ATOM      4  C   UNL A   1      31.531  28.374  26.694  1.00  0.00     0.116 C 
BRANCH   4   5
ATOM      5  N   UNL A   1      31.107  26.999  26.866  1.00  0.00    -0.351 N 
ATOM      6  C   UNL A   1      31.640  25.838  26.384  1.00  0.00     0.279 C 
ATOM      7  O   UNL A   1      31.051  24.810  26.726  1.00  0.00    -0.268 OA
ATOM      8  H   UNL A   1      30.303  26.883  27.421  1.00  0.00     0.163 HD
BRANCH   6   9
ATOM      9  C   UNL A   1      32.818  25.843  25.366  1.00  0.00     0.289 C 
ATOM     10  C   UNL A   1      33.585  26.236  22.963  1.00  0.00     0.030 C 
ATOM     11  C   UNL A   1      32.452  25.689  23.859  1.00  0.00     0.077 C 
ATOM     12  C   UNL A   1      31.140  26.315  23.385  1.00  0.00     0.030 C 
ATOM     13  S   UNL A   1      32.399  23.873  23.616  1.00  0.00    -0.081 SA
ATOM     14  C   UNL A   1      33.249  23.509  25.179  1.00  0.00     0.276 C 
ATOM     15  N   UNL A   1      33.812  24.771  25.674  1.00  0.00    -0.320 N 
ATOM     16  H   UNL A   1      34.696  24.968  25.206  1.00  0.00     0.348 HD
ATOM     17  H   UNL A   1      33.993  24.721  26.677  1.00  0.00     0.348 HD
BRANCH  14  18
ATOM     18  C   UNL A   1      34.326  22.444  25.058  1.00  0.00     0.038 A 
ATOM     19  C   UNL A   1      35.696  22.807  25.086  1.00  0.00     0.012 A 
ATOM     20  C   UNL A   1      34.041  21.051  24.955  1.00  0.00     0.046 A 
ATOM     21  C   UNL A   1      36.712  21.869  24.997  1.00  0.00     0.001 A 
ATOM     22  C   UNL A   1      35.049  20.085  24.848  1.00  0.00     0.001 A 
ATOM     23  S   UNL A   1      32.490  20.294  24.952  1.00  0.00    -0.135 S 
ATOM     24  C   UNL A   1      36.398  20.521  24.871  1.00  0.00     0.010 A 
ATOM     25  C   UNL A   1      34.520  18.738  24.715  1.00  0.00     0.000 A 
ATOM     26  C   UNL A   1      33.129  18.719  24.760  1.00  0.00     0.036 A 
ATOM     27  C   UNL A   1      35.194  17.498  24.550  1.00  0.00     0.010 A 
ATOM     28  C   UNL A   1      32.401  17.516  24.653  1.00  0.00     0.019 A 
ATOM     29  C   UNL A   1      34.478  16.304  24.434  1.00  0.00     0.001 A 
ATOM     30  C   UNL A   1      33.092  16.314  24.488  1.00  0.00     0.002 A 
ENDBRANCH  14  18
ENDBRANCH   6   9
ENDBRANCH   4   5
ENDBRANCH   3   4
ENDBRANCH   2   3
ENDBRANCH   1   2
BRANCH   1  31
ATOM     31  C   UNL A   1      32.808  31.764  27.638  1.00  0.00     0.021 C 
BRANCH  31  32
ATOM     32  C   UNL A   1      32.814  33.161  27.026  1.00  0.00     0.116 C 
BRANCH  32  33
ATOM     33  N   UNL A   1      32.516  34.209  27.985  1.00  0.00    -0.352 N 
ATOM     34  C   UNL A   1      33.199  34.576  29.115  1.00  0.00     0.251 C 
ATOM     35  H   UNL A   1      31.702  34.732  27.798  1.00  0.00     0.163 HD
ATOM     36  O   UNL A   1      32.725  35.428  29.866  1.00  0.00    -0.269 OA
BRANCH  34  37
ATOM     37  C   UNL A   1      34.491  33.941  29.461  1.00  0.00     0.039 A 
ATOM     38  C   UNL A   1      35.608  34.233  28.672  1.00  0.00     0.014 A 
ATOM     39  C   UNL A   1      34.606  33.032  30.518  1.00  0.00     0.014 A 
ATOM     40  C   UNL A   1      36.841  33.646  28.961  1.00  0.00     0.010 A 
ATOM     41  C   UNL A   1      35.852  32.496  30.845  1.00  0.00     0.010 A 
ATOM     42  C   UNL A   1      36.978  32.782  30.060  1.00  0.00    -0.014 A 
BRANCH  42  43
ATOM     43  C   UNL A   1      38.285  32.150  30.366  1.00  0.00     0.031 A 
ATOM     44  C   UNL A   1      39.246  32.815  31.313  1.00  0.00     0.074 A 
ATOM     45  C   UNL A   1      38.621  30.985  29.779  1.00  0.00     0.049 A 
ATOM     46  N   UNL A   1      40.425  32.409  31.714  1.00  0.00    -0.248 NA
ATOM     47  C   UNL A   1      38.841  34.118  31.864  1.00  0.00     0.031 C 
ATOM     48  C   UNL A   1      37.799  30.257  28.810  1.00  0.00     0.029 A 
ATOM     49  N   UNL A   1      39.742  30.207  29.916  1.00  0.00    -0.354 N 
ATOM     50  C   UNL A   1      40.906  33.411  32.550  1.00  0.00     0.074 A 
ATOM     51  C   UNL A   1      39.914  34.464  32.559  1.00  0.00     0.031 C 
ATOM     52  C   UNL A   1      38.430  29.122  28.465  1.00  0.00     0.029 A 
ATOM     53  C   UNL A   1      39.708  29.056  29.168  1.00  0.00     0.049 A 
ATOM     54  H   UNL A   1      40.500  30.452  30.495  1.00  0.00     0.167 HD
ATOM     55  C   UNL A   1      42.056  33.444  33.263  1.00  0.00     0.031 A 
ATOM     56  C   UNL A   1      40.601  28.053  29.068  1.00  0.00     0.031 A 
ATOM     57  C   UNL A   1      43.036  32.391  33.272  1.00  0.00     0.049 A 
ATOM     58  C   UNL A   1      41.863  28.105  29.883  1.00  0.00     0.074 A 
ATOM     59  C   UNL A   1      44.207  32.307  34.006  1.00  0.00     0.029 A 
ATOM     60  N   UNL A   1      42.958  31.237  32.510  1.00  0.00    -0.354 N 
ATOM     61  N   UNL A   1      42.268  29.027  30.720  1.00  0.00    -0.248 NA
ATOM     62  C   UNL A   1      42.780  26.965  29.748  1.00  0.00     0.031 C 
ATOM     63  C   UNL A   1      44.857  31.117  33.658  1.00  0.00     0.029 A 
ATOM     64  C   UNL A   1      44.067  30.441  32.742  1.00  0.00     0.049 A 
ATOM     65  H   UNL A   1      42.223  31.015  31.894  1.00  0.00     0.167 HD
ATOM     66  C   UNL A   1      43.476  28.569  31.231  1.00  0.00     0.074 A 
ATOM     67  C   UNL A   1      43.726  27.279  30.622  1.00  0.00     0.031 C 
ATOM     68  C   UNL A   1      44.305  29.164  32.123  1.00  0.00     0.031 A 
BRANCH  55  69
ATOM     69  C   UNL A   1      42.315  34.669  34.094  1.00  0.00    -0.014 A 
ATOM     70  C   UNL A   1      41.929  34.725  35.444  1.00  0.00     0.009 A 
ATOM     71  C   UNL A   1      42.970  35.774  33.529  1.00  0.00     0.009 A 
ATOM     72  C   UNL A   1      42.160  35.877  36.198  1.00  0.00     0.001 A 
ATOM     73  C   UNL A   1      43.224  36.914  34.293  1.00  0.00     0.001 A 
ATOM     74  C   UNL A   1      42.810  36.969  35.623  1.00  0.00     0.000 A 
ENDBRANCH  55  69
BRANCH  56  75
ATOM     75  C   UNL A   1      40.318  26.892  28.186  1.00  0.00    -0.014 A 
ATOM     76  C   UNL A   1      39.541  25.821  28.649  1.00  0.00     0.009 A 
ATOM     77  C   UNL A   1      40.832  26.847  26.881  1.00  0.00     0.009 A 
ATOM     78  C   UNL A   1      39.305  24.713  27.833  1.00  0.00     0.001 A 
ATOM     79  C   UNL A   1      40.574  25.749  26.058  1.00  0.00     0.001 A 
ATOM     80  C   UNL A   1      39.818  24.679  26.537  1.00  0.00     0.000 A 
ENDBRANCH  56  75
BRANCH  68  81
ATOM     81  C   UNL A   1      45.546  28.410  32.508  1.00  0.00    -0.014 A 
ATOM     82  C   UNL A   1      46.745  28.575  31.797  1.00  0.00     0.009 A 
ATOM     83  C   UNL A   1      45.518  27.540  33.608  1.00  0.00     0.009 A 
ATOM     84  C   UNL A   1      47.884  27.851  32.158  1.00  0.00     0.001 A 
ATOM     85  C   UNL A   1      46.665  26.839  33.983  1.00  0.00     0.001 A 
ATOM     86  C   UNL A   1      47.843  26.987  33.252  1.00  0.00     0.000 A 
ENDBRANCH  68  81
ENDBRANCH  42  43
ENDBRANCH  34  37
ENDBRANCH  32  33
ENDBRANCH  31  32
ENDBRANCH   1  31
TORSDOF 14
ENDMDL
MODEL 2
REMARK VINA RESULT:     -11.8      0.651      5.801
REMARK SMILES CC1(C)S[C@@H](c2cccc3c2sc2ccccc23)[NH2+][C@@H]1C(=O)NCCCCCCNC(=O)c1ccc(-c2c3nc(c(-c4ccccc4)c4ccc([nH]4)c(-c4ccccc4)c4nc(c(-c5ccccc5)c5ccc2[nH]5)C=C4)C=C3)cc1
REMARK SMILES IDX 27 1 26 2 25 3 24 4 23 5 21 6 22 7 20 9 1 10 2 11 3 12 4 13
REMARK SMILES IDX 5 14 19 15 6 18 7 19 11 20 8 21 10 22 12 23 9 24 18 25 13 26
REMARK SMILES IDX 17 27 14 28 16 29 15 30 28 31 29 32 30 33 31 34 32 36 33 37
REMARK SMILES IDX 34 38 80 39 35 40 79 41 36 42 37 43 38 44 73 45 39 46 78 47
REMARK SMILES IDX 72 48 74 49 40 50 77 51 71 52 70 53 41 55 63 56 48 57 62 58
REMARK SMILES IDX 49 59 52 60 61 61 75 62 50 63 51 64 60 66 76 67 53 68 42 69
REMARK SMILES IDX 43 70 47 71 44 72 46 73 45 74 64 75 65 76 69 77 66 78 68 79
REMARK SMILES IDX 67 80 54 81 55 82 59 83 56 84 58 85 57 86
REMARK H PARENT 23 8 19 16 19 17 30 35 74 54 52 65
REMARK Flexibility Score: inf
ROOT
ATOM      1  C   UNL A   1      31.059  31.178  25.507  1.00  0.00     0.002 C 
ENDROOT
BRANCH   1   2
ATOM      2  C   UNL A   1      31.304  29.671  25.399  1.00  0.00     0.002 C 
BRANCH   2   3
ATOM      3  C   UNL A   1      32.479  29.117  26.212  1.00  0.00     0.021 C 
BRANCH   3   4
ATOM      4  C   UNL A   1      32.122  28.373  27.497  1.00  0.00     0.116 C 
BRANCH   4   5
ATOM      5  N   UNL A   1      31.349  27.174  27.244  1.00  0.00    -0.351 N 
ATOM      6  C   UNL A   1      31.594  26.115  26.418  1.00  0.00     0.279 C 
ATOM      7  O   UNL A   1      30.741  25.225  26.437  1.00  0.00    -0.268 OA
ATOM      8  H   UNL A   1      30.508  27.111  27.752  1.00  0.00     0.163 HD
BRANCH   6   9
ATOM      9  C   UNL A   1      32.798  26.117  25.429  1.00  0.00     0.289 C 
ATOM     10  C   UNL A   1      33.624  26.508  23.046  1.00  0.00     0.030 C 
ATOM     11  C   UNL A   1      32.468  25.965  23.913  1.00  0.00     0.077 C 
ATOM     12  C   UNL A   1      31.170  26.596  23.408  1.00  0.00     0.030 C 
ATOM     13  S   UNL A   1      32.414  24.149  23.668  1.00  0.00    -0.081 SA
ATOM     14  C   UNL A   1      33.224  23.781  25.251  1.00  0.00     0.276 C 
ATOM     15  N   UNL A   1      33.779  25.041  25.761  1.00  0.00    -0.320 N 
ATOM     16  H   UNL A   1      34.676  25.234  25.315  1.00  0.00     0.348 HD
ATOM     17  H   UNL A   1      33.936  24.989  26.767  1.00  0.00     0.348 HD
BRANCH  14  18
ATOM     18  C   UNL A   1      34.301  22.712  25.156  1.00  0.00     0.038 A 
ATOM     19  C   UNL A   1      35.667  23.060  25.295  1.00  0.00     0.012 A 
ATOM     20  C   UNL A   1      34.014  21.328  24.969  1.00  0.00     0.046 A 
ATOM     21  C   UNL A   1      36.680  22.117  25.233  1.00  0.00     0.001 A 
ATOM     22  C   UNL A   1      35.021  20.358  24.888  1.00  0.00     0.001 A 
ATOM     23  S   UNL A   1      32.461  20.587  24.824  1.00  0.00    -0.135 S 
ATOM     24  C   UNL A   1      36.367  20.779  25.024  1.00  0.00     0.010 A 
ATOM     25  C   UNL A   1      34.493  19.024  24.657  1.00  0.00     0.000 A 
ATOM     26  C   UNL A   1      33.102  19.016  24.605  1.00  0.00     0.036 A 
ATOM     27  C   UNL A   1      35.168  17.786  24.482  1.00  0.00     0.010 A 
ATOM     28  C   UNL A   1      32.375  17.827  24.393  1.00  0.00     0.019 A 
ATOM     29  C   UNL A   1      34.454  16.606  24.262  1.00  0.00     0.001 A 
ATOM     30  C   UNL A   1      33.068  16.627  24.220  1.00  0.00     0.002 A 
ENDBRANCH  14  18
ENDBRANCH   6   9
ENDBRANCH   4   5
ENDBRANCH   3   4
ENDBRANCH   2   3
ENDBRANCH   1   2
BRANCH   1  31
ATOM     31  C   UNL A   1      31.327  31.804  26.877  1.00  0.00     0.021 C 
BRANCH  31  32
ATOM     32  C   UNL A   1      32.615  32.614  26.995  1.00  0.00     0.116 C 
BRANCH  32  33
ATOM     33  N   UNL A   1      32.425  33.901  27.638  1.00  0.00    -0.352 N 
ATOM     34  C   UNL A   1      33.193  34.524  28.587  1.00  0.00     0.251 C 
ATOM     35  H   UNL A   1      31.625  34.401  27.352  1.00  0.00     0.163 HD
ATOM     36  O   UNL A   1      32.805  35.578  29.092  1.00  0.00    -0.269 OA
BRANCH  34  37
ATOM     37  C   UNL A   1      34.475  33.933  29.034  1.00  0.00     0.039 A 
ATOM     38  C   UNL A   1      34.462  33.078  30.141  1.00  0.00     0.014 A 
ATOM     39  C   UNL A   1      35.687  34.242  28.411  1.00  0.00     0.014 A 
ATOM     40  C   UNL A   1      35.652  32.509  30.599  1.00  0.00     0.010 A 
ATOM     41  C   UNL A   1      36.866  33.624  28.828  1.00  0.00     0.010 A 
ATOM     42  C   UNL A   1      36.863  32.766  29.938  1.00  0.00    -0.014 A 
BRANCH  42  43
ATOM     43  C   UNL A   1      38.132  32.170  30.425  1.00  0.00     0.031 A 
ATOM     44  C   UNL A   1      38.629  30.870  29.853  1.00  0.00     0.074 A 
ATOM     45  C   UNL A   1      38.831  32.784  31.400  1.00  0.00     0.049 A 
ATOM     46  N   UNL A   1      39.719  30.205  30.140  1.00  0.00    -0.248 NA
ATOM     47  C   UNL A   1      37.780  30.222  28.841  1.00  0.00     0.031 C 
ATOM     48  C   UNL A   1      38.439  34.025  32.070  1.00  0.00     0.029 A 
ATOM     49  N   UNL A   1      40.022  32.447  31.991  1.00  0.00    -0.354 N 
ATOM     50  C   UNL A   1      39.678  29.056  29.357  1.00  0.00     0.074 A 
ATOM     51  C   UNL A   1      38.434  29.092  28.621  1.00  0.00     0.031 C 
ATOM     52  C   UNL A   1      39.389  34.362  32.958  1.00  0.00     0.029 A 
ATOM     53  C   UNL A   1      40.441  33.350  32.936  1.00  0.00     0.049 A 
ATOM     54  H   UNL A   1      40.527  31.635  31.760  1.00  0.00     0.167 HD
ATOM     55  C   UNL A   1      40.601  28.071  29.243  1.00  0.00     0.031 A 
ATOM     56  C   UNL A   1      41.555  33.369  33.693  1.00  0.00     0.031 A 
ATOM     57  C   UNL A   1      41.848  28.041  29.959  1.00  0.00     0.049 A 
ATOM     58  C   UNL A   1      42.572  32.274  33.536  1.00  0.00     0.074 A 
ATOM     59  C   UNL A   1      42.873  27.114  29.869  1.00  0.00     0.029 A 
ATOM     60  N   UNL A   1      42.240  28.980  30.898  1.00  0.00    -0.354 N 
ATOM     61  N   UNL A   1      42.548  31.232  32.741  1.00  0.00    -0.248 NA
ATOM     62  C   UNL A   1      43.776  32.370  34.371  1.00  0.00     0.031 C 
ATOM     63  C   UNL A   1      43.870  27.475  30.783  1.00  0.00     0.029 A 
ATOM     64  C   UNL A   1      43.484  28.649  31.408  1.00  0.00     0.049 A 
ATOM     65  H   UNL A   1      41.712  29.768  31.164  1.00  0.00     0.167 HD
ATOM     66  C   UNL A   1      43.744  30.561  32.962  1.00  0.00     0.074 A 
ATOM     67  C   UNL A   1      44.476  31.324  33.952  1.00  0.00     0.031 C 
ATOM     68  C   UNL A   1      44.195  29.414  32.397  1.00  0.00     0.031 A 
BRANCH  55  69
ATOM     69  C   UNL A   1      40.287  26.941  28.305  1.00  0.00    -0.014 A 
ATOM     70  C   UNL A   1      40.756  26.944  26.981  1.00  0.00     0.009 A 
ATOM     71  C   UNL A   1      39.529  25.847  28.754  1.00  0.00     0.009 A 
ATOM     72  C   UNL A   1      40.441  25.895  26.115  1.00  0.00     0.001 A 
ATOM     73  C   UNL A   1      39.238  24.787  27.893  1.00  0.00     0.001 A 
ATOM     74  C   UNL A   1      39.685  24.816  26.573  1.00  0.00     0.000 A 
ENDBRANCH  55  69
BRANCH  56  75
ATOM     75  C   UNL A   1      41.787  34.483  34.646  1.00  0.00    -0.014 A 
ATOM     76  C   UNL A   1      41.341  34.388  35.973  1.00  0.00     0.009 A 
ATOM     77  C   UNL A   1      42.447  35.651  34.233  1.00  0.00     0.009 A 
ATOM     78  C   UNL A   1      41.527  35.449  36.860  1.00  0.00     0.001 A 
ATOM     79  C   UNL A   1      42.654  36.701  35.129  1.00  0.00     0.001 A 
ATOM     80  C   UNL A   1      42.186  36.603  36.439  1.00  0.00     0.000 A 
ENDBRANCH  56  75
BRANCH  68  81
ATOM     81  C   UNL A   1      45.553  28.934  32.823  1.00  0.00    -0.014 A 
ATOM     82  C   UNL A   1      45.698  27.970  33.833  1.00  0.00     0.009 A 
ATOM     83  C   UNL A   1      46.699  29.438  32.191  1.00  0.00     0.009 A 
ATOM     84  C   UNL A   1      46.971  27.549  34.228  1.00  0.00     0.001 A 
ATOM     85  C   UNL A   1      47.968  28.995  32.569  1.00  0.00     0.001 A 
ATOM     86  C   UNL A   1      48.102  28.060  33.594  1.00  0.00     0.000 A 
ENDBRANCH  68  81
ENDBRANCH  42  43
ENDBRANCH  34  37
ENDBRANCH  32  33
ENDBRANCH  31  32
ENDBRANCH   1  31
TORSDOF 14
ENDMDL
MODEL 3
REMARK VINA RESULT:     -11.8      3.330      9.257
REMARK SMILES CC1(C)S[C@@H](c2cccc3c2sc2ccccc23)[NH2+][C@@H]1C(=O)NCCCCCCNC(=O)c1ccc(-c2c3nc(c(-c4ccccc4)c4ccc([nH]4)c(-c4ccccc4)c4nc(c(-c5ccccc5)c5ccc2[nH]5)C=C4)C=C3)cc1
REMARK SMILES IDX 27 1 26 2 25 3 24 4 23 5 21 6 22 7 20 9 1 10 2 11 3 12 4 13
REMARK SMILES IDX 5 14 19 15 6 18 7 19 11 20 8 21 10 22 12 23 9 24 18 25 13 26
REMARK SMILES IDX 17 27 14 28 16 29 15 30 28 31 29 32 30 33 31 34 32 36 33 37
REMARK SMILES IDX 34 38 80 39 35 40 79 41 36 42 37 43 38 44 73 45 39 46 78 47
REMARK SMILES IDX 72 48 74 49 40 50 77 51 71 52 70 53 41 55 63 56 48 57 62 58
REMARK SMILES IDX 49 59 52 60 61 61 75 62 50 63 51 64 60 66 76 67 53 68 42 69
REMARK SMILES IDX 43 70 47 71 44 72 46 73 45 74 64 75 65 76 69 77 66 78 68 79
REMARK SMILES IDX 67 80 54 81 55 82 59 83 56 84 58 85 57 86
REMARK H PARENT 23 8 19 16 19 17 30 35 74 54 52 65
REMARK Flexibility Score: inf
ROOT
ATOM      1  C   UNL A   1      36.216  19.953  25.061  1.00  0.00     0.002 C 
ENDROOT
BRANCH   1   2
ATOM      2  C   UNL A   1      35.155  19.001  24.506  1.00  0.00     0.002 C 
BRANCH   2   3
ATOM      3  C   UNL A   1      33.743  19.152  25.083  1.00  0.00     0.021 C 
BRANCH   3   4
ATOM      4  C   UNL A   1      32.707  19.807  24.172  1.00  0.00     0.116 C 
BRANCH   4   5
ATOM      5  N   UNL A   1      31.852  20.734  24.885  1.00  0.00    -0.351 N 
ATOM      6  C   UNL A   1      31.987  22.074  25.112  1.00  0.00     0.279 C 
ATOM      7  O   UNL A   1      31.068  22.593  25.748  1.00  0.00    -0.268 OA
ATOM      8  H   UNL A   1      31.040  20.333  25.269  1.00  0.00     0.163 HD
BRANCH   6   9
ATOM      9  C   UNL A   1      33.283  22.841  24.712  1.00  0.00     0.289 C 
ATOM     10  C   UNL A   1      35.596  23.668  25.405  1.00  0.00     0.030 C 
ATOM     11  C   UNL A   1      34.142  23.431  25.869  1.00  0.00     0.077 C 
ATOM     12  C   UNL A   1      34.194  22.645  27.180  1.00  0.00     0.030 C 
ATOM     13  S   UNL A   1      33.392  25.078  26.161  1.00  0.00    -0.081 SA
ATOM     14  C   UNL A   1      32.458  25.071  24.603  1.00  0.00     0.276 C 
ATOM     15  N   UNL A   1      32.983  23.972  23.784  1.00  0.00    -0.320 N 
ATOM     16  H   UNL A   1      33.833  24.268  23.305  1.00  0.00     0.348 HD
ATOM     17  H   UNL A   1      32.306  23.691  23.075  1.00  0.00     0.348 HD
BRANCH  14  18
ATOM     18  C   UNL A   1      32.515  26.388  23.847  1.00  0.00     0.038 A 
ATOM     19  C   UNL A   1      33.759  26.910  23.414  1.00  0.00     0.012 A 
ATOM     20  C   UNL A   1      31.355  27.140  23.497  1.00  0.00     0.046 A 
ATOM     21  C   UNL A   1      33.858  28.097  22.707  1.00  0.00     0.001 A 
ATOM     22  C   UNL A   1      31.429  28.351  22.796  1.00  0.00     0.001 A 
ATOM     23  S   UNL A   1      29.708  26.745  23.827  1.00  0.00    -0.135 S 
ATOM     24  C   UNL A   1      32.709  28.819  22.404  1.00  0.00     0.010 A 
ATOM     25  C   UNL A   1      30.125  28.956  22.588  1.00  0.00     0.000 A 
ATOM     26  C   UNL A   1      29.098  28.171  23.105  1.00  0.00     0.036 A 
ATOM     27  C   UNL A   1      29.770  30.181  21.962  1.00  0.00     0.010 A 
ATOM     28  C   UNL A   1      27.747  28.563  23.012  1.00  0.00     0.019 A 
ATOM     29  C   UNL A   1      28.434  30.580  21.875  1.00  0.00     0.001 A 
ATOM     30  C   UNL A   1      27.431  29.774  22.395  1.00  0.00     0.002 A 
ENDBRANCH  14  18
ENDBRANCH   6   9
ENDBRANCH   4   5
ENDBRANCH   3   4
ENDBRANCH   2   3
ENDBRANCH   1   2
BRANCH   1  31
ATOM     31  C   UNL A   1      37.664  19.645  24.671  1.00  0.00     0.021 C 
BRANCH  31  32
ATOM     32  C   UNL A   1      38.731  20.131  25.646  1.00  0.00     0.116 C 
BRANCH  32  33
ATOM     33  N   UNL A   1      39.925  19.304  25.648  1.00  0.00    -0.352 N 
ATOM     34  C   UNL A   1      41.203  19.620  26.025  1.00  0.00     0.251 C 
ATOM     35  H   UNL A   1      39.797  18.381  25.329  1.00  0.00     0.163 HD
ATOM     36  O   UNL A   1      42.110  18.806  25.852  1.00  0.00    -0.269 OA
BRANCH  34  37
ATOM     37  C   UNL A   1      41.516  20.941  26.617  1.00  0.00     0.039 A 
ATOM     38  C   UNL A   1      41.987  21.952  25.773  1.00  0.00     0.014 A 
ATOM     39  C   UNL A   1      41.396  21.182  27.989  1.00  0.00     0.014 A 
ATOM     40  C   UNL A   1      42.303  23.208  26.296  1.00  0.00     0.010 A 
ATOM     41  C   UNL A   1      41.650  22.454  28.500  1.00  0.00     0.010 A 
ATOM     42  C   UNL A   1      42.124  23.475  27.663  1.00  0.00    -0.014 A 
BRANCH  42  43
ATOM     43  C   UNL A   1      42.465  24.806  28.224  1.00  0.00     0.031 A 
ATOM     44  C   UNL A   1      43.887  25.133  28.591  1.00  0.00     0.074 A 
ATOM     45  C   UNL A   1      41.494  25.717  28.426  1.00  0.00     0.049 A 
ATOM     46  N   UNL A   1      44.380  26.244  29.078  1.00  0.00    -0.248 NA
ATOM     47  C   UNL A   1      44.883  24.065  28.407  1.00  0.00     0.031 C 
ATOM     48  C   UNL A   1      40.070  25.513  28.153  1.00  0.00     0.029 A 
ATOM     49  N   UNL A   1      41.561  27.002  28.902  1.00  0.00    -0.354 N 
ATOM     50  C   UNL A   1      45.735  26.003  29.272  1.00  0.00     0.074 A 
ATOM     51  C   UNL A   1      45.977  24.628  28.897  1.00  0.00     0.031 C 
ATOM     52  C   UNL A   1      39.403  26.644  28.437  1.00  0.00     0.029 A 
ATOM     53  C   UNL A   1      40.347  27.642  28.933  1.00  0.00     0.049 A 
ATOM     54  H   UNL A   1      42.401  27.425  29.196  1.00  0.00     0.167 HD
ATOM     55  C   UNL A   1      46.697  26.854  29.702  1.00  0.00     0.031 A 
ATOM     56  C   UNL A   1      40.029  28.896  29.307  1.00  0.00     0.031 A 
ATOM     57  C   UNL A   1      46.464  28.228  30.059  1.00  0.00     0.049 A 
ATOM     58  C   UNL A   1      41.117  29.826  29.765  1.00  0.00     0.074 A 
ATOM     59  C   UNL A   1      47.384  29.186  30.453  1.00  0.00     0.029 A 
ATOM     60  N   UNL A   1      45.222  28.840  30.065  1.00  0.00    -0.354 N 
ATOM     61  N   UNL A   1      42.403  29.603  29.876  1.00  0.00    -0.248 NA
ATOM     62  C   UNL A   1      40.706  31.188  30.132  1.00  0.00     0.031 C 
ATOM     63  C   UNL A   1      46.690  30.368  30.733  1.00  0.00     0.029 A 
ATOM     64  C   UNL A   1      45.346  30.158  30.471  1.00  0.00     0.049 A 
ATOM     65  H   UNL A   1      44.375  28.403  29.818  1.00  0.00     0.167 HD
ATOM     66  C   UNL A   1      42.959  30.802  30.303  1.00  0.00     0.074 A 
ATOM     67  C   UNL A   1      41.872  31.753  30.412  1.00  0.00     0.031 C 
ATOM     68  C   UNL A   1      44.254  31.089  30.581  1.00  0.00     0.031 A 
BRANCH  55  69
ATOM     69  C   UNL A   1      48.094  26.313  29.811  1.00  0.00    -0.014 A 
ATOM     70  C   UNL A   1      48.554  25.724  31.001  1.00  0.00     0.009 A 
ATOM     71  C   UNL A   1      48.957  26.373  28.706  1.00  0.00     0.009 A 
ATOM     72  C   UNL A   1      49.861  25.242  31.093  1.00  0.00     0.001 A 
ATOM     73  C   UNL A   1      50.255  25.866  28.792  1.00  0.00     0.001 A 
ATOM     74  C   UNL A   1      50.710  25.311  29.987  1.00  0.00     0.000 A 
ENDBRANCH  55  69
BRANCH  56  75
ATOM     75  C   UNL A   1      38.621  29.359  29.233  1.00  0.00    -0.014 A 
ATOM     76  C   UNL A   1      38.137  29.979  28.071  1.00  0.00     0.009 A 
ATOM     77  C   UNL A   1      37.755  29.193  30.325  1.00  0.00     0.009 A 
ATOM     78  C   UNL A   1      36.824  30.447  28.013  1.00  0.00     0.001 A 
ATOM     79  C   UNL A   1      36.435  29.640  30.255  1.00  0.00     0.001 A 
ATOM     80  C   UNL A   1      35.972  30.274  29.103  1.00  0.00     0.000 A 
ENDBRANCH  56  75
BRANCH  68  81
ATOM     81  C   UNL A   1      44.564  32.496  31.007  1.00  0.00    -0.014 A 
ATOM     82  C   UNL A   1      44.562  32.861  32.362  1.00  0.00     0.009 A 
ATOM     83  C   UNL A   1      44.879  33.462  30.040  1.00  0.00     0.009 A 
ATOM     84  C   UNL A   1      44.834  34.179  32.737  1.00  0.00     0.001 A 
ATOM     85  C   UNL A   1      45.177  34.772  30.420  1.00  0.00     0.001 A 
ATOM     86  C   UNL A   1      45.143  35.131  31.767  1.00  0.00     0.000 A 
ENDBRANCH  68  81
ENDBRANCH  42  43
ENDBRANCH  34  37
ENDBRANCH  32  33
ENDBRANCH  31  32
ENDBRANCH   1  31
TORSDOF 14
ENDMDL
