MODEL 1
REMARK VINA RESULT:     -10.0      0.000      0.000
REMARK SMILES COc1ccc(-n2c(SCC(=O)NCCCCCCNC(=O)c3ccc(-c4c5nc(c(-c6ccccc6)c6ccc([nH]6)c(-c6ccccc6)c6nc(c(-c7ccccc7)c7ccc4[nH]7)C=C6)C=C5)cc3)nc3sc4c(c3c2=O)CC[N@H+](C)C4)cc1
REMARK SMILES IDX 15 1 14 2 13 3 11 4 12 5 10 7 9 8 8 9 7 10 77 11 71 12 76 13
REMARK SMILES IDX 78 14 72 15 75 16 73 17 74 18 79 19 83 20 80 21 81 22 82 23
REMARK SMILES IDX 6 25 3 26 4 27 85 28 5 29 84 30 2 31 1 32 16 33 17 34 18 35
REMARK SMILES IDX 19 36 20 37 21 38 22 40 23 41 24 42 70 43 25 44 69 45 26 46
REMARK SMILES IDX 27 47 28 48 63 49 29 50 68 51 62 52 64 53 30 54 67 55 61 56
REMARK SMILES IDX 60 57 31 59 53 60 38 61 52 62 39 63 42 64 51 65 65 66 40 67
REMARK SMILES IDX 41 68 50 70 66 71 43 72 32 73 33 74 37 75 34 76 36 77 35 78
REMARK SMILES IDX 54 79 55 80 59 81 56 82 58 83 57 84 44 85 45 86 49 87 46 88
REMARK SMILES IDX 48 89 47 90
REMARK H PARENT 13 6 81 24 20 39 64 58 42 69
REMARK Flexibility Score: inf
ROOT
ATOM      1  C   UNL A   1      42.627  28.401  34.780  1.00  0.00     0.021 C 
ENDROOT
BRANCH   1   2
ATOM      2  C   UNL A   1      41.219  28.656  34.237  1.00  0.00     0.116 C 
BRANCH   2   3
ATOM      3  N   UNL A   1      40.374  29.419  35.135  1.00  0.00    -0.355 N 
ATOM      4  C   UNL A   1      39.424  30.349  34.838  1.00  0.00     0.230 C 
ATOM      5  O   UNL A   1      38.483  30.438  35.636  1.00  0.00    -0.274 OA
ATOM      6  H   UNL A   1      40.506  29.240  36.094  1.00  0.00     0.163 HD
BRANCH   4   7
ATOM      7  C   UNL A   1      39.417  31.191  33.572  1.00  0.00     0.178 C 
BRANCH   7   8
ATOM      8  S   UNL A   1      40.233  32.766  33.627  1.00  0.00    -0.077 SA
BRANCH   8   9
ATOM      9  C   UNL A   1      40.528  33.524  32.080  1.00  0.00     0.177 A 
ATOM     10  N   UNL A   1      39.582  33.872  31.107  1.00  0.00    -0.255 N 
ATOM     11  C   UNL A   1      39.979  34.457  29.884  1.00  0.00     0.267 A 
ATOM     12  N   UNL A   1      41.806  33.735  31.944  1.00  0.00    -0.212 NA
ATOM     13  C   UNL A   1      41.394  34.720  29.770  1.00  0.00     0.081 A 
ATOM     14  O   UNL A   1      39.215  34.754  28.965  1.00  0.00    -0.268 OA
ATOM     15  C   UNL A   1      42.205  34.332  30.804  1.00  0.00     0.132 A 
ATOM     16  C   UNL A   1      42.119  35.354  28.719  1.00  0.00    -0.008 A 
ATOM     17  S   UNL A   1      43.847  34.691  30.500  1.00  0.00    -0.114 S 
ATOM     18  C   UNL A   1      43.476  35.363  28.983  1.00  0.00     0.065 A 
ATOM     19  C   UNL A   1      41.579  35.912  27.437  1.00  0.00     0.099 C 
ATOM     20  C   UNL A   1      44.520  35.918  28.057  1.00  0.00     0.310 C 
ATOM     21  C   UNL A   1      42.674  36.676  26.656  1.00  0.00     0.267 C 
ATOM     22  N   UNL A   1      44.016  36.048  26.667  1.00  0.00    -0.333 N 
ATOM     23  C   UNL A   1      44.012  34.756  25.979  1.00  0.00     0.333 C 
ATOM     24  H   UNL A   1      44.652  36.657  26.153  1.00  0.00     0.348 HD
BRANCH  10  25
ATOM     25  C   UNL A   1      38.183  33.785  31.259  1.00  0.00     0.052 A 
ATOM     26  C   UNL A   1      35.486  33.365  31.897  1.00  0.00     0.119 A 
ATOM     27  C   UNL A   1      36.169  34.474  32.404  1.00  0.00     0.048 A 
ATOM     28  C   UNL A   1      36.169  32.446  31.096  1.00  0.00     0.048 A 
ATOM     29  C   UNL A   1      37.517  34.678  32.104  1.00  0.00     0.030 A 
ATOM     30  C   UNL A   1      37.516  32.652  30.779  1.00  0.00     0.030 A 
BRANCH  26  31
ATOM     31  O   UNL A   1      34.170  33.290  32.263  1.00  0.00    -0.497 OA
ATOM     32  C   UNL A   1      33.611  34.442  32.879  1.00  0.00     0.278 C 
ENDBRANCH  26  31
ENDBRANCH  10  25
ENDBRANCH   8   9
ENDBRANCH   7   8
ENDBRANCH   4   7
ENDBRANCH   2   3
ENDBRANCH   1   2
BRANCH   1  33
ATOM     33  C   UNL A   1      42.771  27.207  35.730  1.00  0.00     0.002 C 
BRANCH  33  34
ATOM     34  C   UNL A   1      42.186  25.881  35.235  1.00  0.00     0.002 C 
BRANCH  34  35
ATOM     35  C   UNL A   1      42.446  24.654  36.126  1.00  0.00     0.021 C 
BRANCH  35  36
ATOM     36  C   UNL A   1      43.721  24.715  36.980  1.00  0.00     0.116 C 
BRANCH  36  37
ATOM     37  N   UNL A   1      44.539  23.538  36.751  1.00  0.00    -0.352 N 
ATOM     38  C   UNL A   1      44.963  22.938  35.600  1.00  0.00     0.251 C 
ATOM     39  H   UNL A   1      44.843  23.091  37.574  1.00  0.00     0.163 HD
ATOM     40  O   UNL A   1      45.332  21.766  35.665  1.00  0.00    -0.269 OA
BRANCH  38  41
ATOM     41  C   UNL A   1      45.028  23.636  34.294  1.00  0.00     0.039 A 
ATOM     42  C   UNL A   1      45.778  24.818  34.246  1.00  0.00     0.014 A 
ATOM     43  C   UNL A   1      44.246  23.272  33.191  1.00  0.00     0.014 A 
ATOM     44  C   UNL A   1      45.748  25.631  33.116  1.00  0.00     0.010 A 
ATOM     45  C   UNL A   1      44.226  24.083  32.048  1.00  0.00     0.010 A 
ATOM     46  C   UNL A   1      44.972  25.269  32.006  1.00  0.00    -0.014 A 
BRANCH  46  47
ATOM     47  C   UNL A   1      45.058  26.149  30.823  1.00  0.00     0.031 A 
ATOM     48  C   UNL A   1      45.002  25.446  29.498  1.00  0.00     0.074 A 
ATOM     49  C   UNL A   1      44.601  27.419  30.892  1.00  0.00     0.049 A 
ATOM     50  N   UNL A   1      43.909  25.097  28.883  1.00  0.00    -0.248 NA
ATOM     51  C   UNL A   1      46.216  24.882  28.906  1.00  0.00     0.031 C 
ATOM     52  C   UNL A   1      43.303  27.786  31.469  1.00  0.00     0.029 A 
ATOM     53  N   UNL A   1      45.029  28.564  30.256  1.00  0.00    -0.354 N 
ATOM     54  C   UNL A   1      44.275  24.250  27.845  1.00  0.00     0.074 A 
ATOM     55  C   UNL A   1      45.716  24.142  27.906  1.00  0.00     0.031 C 
ATOM     56  C   UNL A   1      42.967  29.014  31.028  1.00  0.00     0.029 A 
ATOM     57  C   UNL A   1      44.066  29.570  30.238  1.00  0.00     0.049 A 
ATOM     58  H   UNL A   1      45.924  28.662  29.856  1.00  0.00     0.167 HD
ATOM     59  C   UNL A   1      43.389  23.694  26.974  1.00  0.00     0.031 A 
ATOM     60  C   UNL A   1      43.924  30.479  29.231  1.00  0.00     0.031 A 
ATOM     61  C   UNL A   1      42.029  24.106  27.135  1.00  0.00     0.049 A 
ATOM     62  C   UNL A   1      43.183  29.654  28.210  1.00  0.00     0.074 A 
ATOM     63  C   UNL A   1      40.858  23.620  27.673  1.00  0.00     0.029 A 
ATOM     64  N   UNL A   1      41.686  25.330  26.617  1.00  0.00    -0.354 N 
ATOM     65  N   UNL A   1      41.908  29.378  28.201  1.00  0.00    -0.248 NA
ATOM     66  C   UNL A   1      44.002  28.789  27.356  1.00  0.00     0.031 C 
ATOM     67  C   UNL A   1      40.021  24.767  27.855  1.00  0.00     0.029 A 
ATOM     68  C   UNL A   1      40.757  25.881  27.454  1.00  0.00     0.049 A 
ATOM     69  H   UNL A   1      42.044  25.736  25.795  1.00  0.00     0.167 HD
ATOM     70  C   UNL A   1      41.807  28.118  27.605  1.00  0.00     0.074 A 
ATOM     71  C   UNL A   1      43.130  27.828  27.083  1.00  0.00     0.031 C 
ATOM     72  C   UNL A   1      40.724  27.297  27.742  1.00  0.00     0.031 A 
BRANCH  59  73
ATOM     73  C   UNL A   1      43.741  22.874  25.790  1.00  0.00    -0.014 A 
ATOM     74  C   UNL A   1      43.743  21.475  25.937  1.00  0.00     0.009 A 
ATOM     75  C   UNL A   1      44.292  23.434  24.634  1.00  0.00     0.009 A 
ATOM     76  C   UNL A   1      44.338  20.654  24.982  1.00  0.00     0.001 A 
ATOM     77  C   UNL A   1      44.875  22.604  23.666  1.00  0.00     0.001 A 
ATOM     78  C   UNL A   1      44.914  21.220  23.849  1.00  0.00     0.000 A 
ENDBRANCH  59  73
BRANCH  60  79
ATOM     79  C   UNL A   1      45.122  31.311  28.890  1.00  0.00    -0.014 A 
ATOM     80  C   UNL A   1      45.982  31.692  29.941  1.00  0.00     0.009 A 
ATOM     81  C   UNL A   1      45.447  31.766  27.603  1.00  0.00     0.009 A 
ATOM     82  C   UNL A   1      47.164  32.403  29.702  1.00  0.00     0.001 A 
ATOM     83  C   UNL A   1      46.645  32.452  27.356  1.00  0.00     0.001 A 
ATOM     84  C   UNL A   1      47.508  32.757  28.403  1.00  0.00     0.000 A 
ENDBRANCH  60  79
BRANCH  72  85
ATOM     85  C   UNL A   1      39.535  27.861  28.449  1.00  0.00    -0.014 A 
ATOM     86  C   UNL A   1      39.323  27.587  29.805  1.00  0.00     0.009 A 
ATOM     87  C   UNL A   1      38.658  28.737  27.787  1.00  0.00     0.009 A 
ATOM     88  C   UNL A   1      38.278  28.206  30.493  1.00  0.00     0.001 A 
ATOM     89  C   UNL A   1      37.627  29.370  28.481  1.00  0.00     0.001 A 
ATOM     90  C   UNL A   1      37.442  29.108  29.836  1.00  0.00     0.000 A 
ENDBRANCH  72  85
ENDBRANCH  46  47
ENDBRANCH  38  41
ENDBRANCH  36  37
ENDBRANCH  35  36
ENDBRANCH  34  35
ENDBRANCH  33  34
ENDBRANCH   1  33
TORSDOF 17
ENDMDL
MODEL 2
REMARK VINA RESULT:      -9.5      3.419      8.865
REMARK SMILES COc1ccc(-n2c(SCC(=O)NCCCCCCNC(=O)c3ccc(-c4c5nc(c(-c6ccccc6)c6ccc([nH]6)c(-c6ccccc6)c6nc(c(-c7ccccc7)c7ccc4[nH]7)C=C6)C=C5)cc3)nc3sc4c(c3c2=O)CC[N@H+](C)C4)cc1
REMARK SMILES IDX 15 1 14 2 13 3 11 4 12 5 10 7 9 8 8 9 7 10 77 11 71 12 76 13
REMARK SMILES IDX 78 14 72 15 75 16 73 17 74 18 79 19 83 20 80 21 81 22 82 23
REMARK SMILES IDX 6 25 3 26 4 27 85 28 5 29 84 30 2 31 1 32 16 33 17 34 18 35
REMARK SMILES IDX 19 36 20 37 21 38 22 40 23 41 24 42 70 43 25 44 69 45 26 46
REMARK SMILES IDX 27 47 28 48 63 49 29 50 68 51 62 52 64 53 30 54 67 55 61 56
REMARK SMILES IDX 60 57 31 59 53 60 38 61 52 62 39 63 42 64 51 65 65 66 40 67
REMARK SMILES IDX 41 68 50 70 66 71 43 72 32 73 33 74 37 75 34 76 36 77 35 78
REMARK SMILES IDX 54 79 55 80 59 81 56 82 58 83 57 84 44 85 45 86 49 87 46 88
REMARK SMILES IDX 48 89 47 90
REMARK H PARENT 13 6 81 24 20 39 64 58 42 69
REMARK Flexibility Score: inf
ROOT
ATOM      1  C   UNL A   1      45.237  23.950  33.363  1.00  0.00     0.021 C 
ENDROOT
BRANCH   1   2
ATOM      2  C   UNL A   1      45.430  25.276  32.624  1.00  0.00     0.116 C 
BRANCH   2   3
ATOM      3  N   UNL A   1      46.780  25.485  32.136  1.00  0.00    -0.355 N 
ATOM      4  C   UNL A   1      47.295  26.551  31.462  1.00  0.00     0.230 C 
ATOM      5  O   UNL A   1      48.496  26.781  31.647  1.00  0.00    -0.274 OA
ATOM      6  H   UNL A   1      47.413  24.753  32.318  1.00  0.00     0.163 HD
BRANCH   4   7
ATOM      7  C   UNL A   1      46.475  27.492  30.595  1.00  0.00     0.178 C 
BRANCH   7   8
ATOM      8  S   UNL A   1      46.695  27.396  28.837  1.00  0.00    -0.077 SA
BRANCH   8   9
ATOM      9  C   UNL A   1      45.696  26.227  28.009  1.00  0.00     0.177 A 
ATOM     10  N   UNL A   1      45.644  25.973  26.632  1.00  0.00    -0.255 N 
ATOM     11  C   UNL A   1      44.757  25.008  26.103  1.00  0.00     0.267 A 
ATOM     12  N   UNL A   1      44.971  25.588  28.882  1.00  0.00    -0.212 NA
ATOM     13  C   UNL A   1      43.993  24.285  27.091  1.00  0.00     0.081 A 
ATOM     14  O   UNL A   1      44.624  24.757  24.905  1.00  0.00    -0.268 OA
ATOM     15  C   UNL A   1      44.148  24.632  28.406  1.00  0.00     0.132 A 
ATOM     16  C   UNL A   1      43.070  23.211  26.918  1.00  0.00    -0.008 A 
ATOM     17  S   UNL A   1      43.156  23.700  29.438  1.00  0.00    -0.114 S 
ATOM     18  C   UNL A   1      42.515  22.831  28.124  1.00  0.00     0.065 A 
ATOM     19  C   UNL A   1      42.648  22.560  25.635  1.00  0.00     0.099 C 
ATOM     20  C   UNL A   1      41.475  21.759  28.283  1.00  0.00     0.310 C 
ATOM     21  C   UNL A   1      41.770  21.315  25.904  1.00  0.00     0.267 C 
ATOM     22  N   UNL A   1      40.786  21.460  27.003  1.00  0.00    -0.333 N 
ATOM     23  C   UNL A   1      39.775  22.472  26.692  1.00  0.00     0.333 C 
ATOM     24  H   UNL A   1      40.296  20.571  27.105  1.00  0.00     0.348 HD
BRANCH  10  25
ATOM     25  C   UNL A   1      46.497  26.541  25.663  1.00  0.00     0.052 A 
ATOM     26  C   UNL A   1      47.998  27.408  23.461  1.00  0.00     0.119 A 
ATOM     27  C   UNL A   1      46.822  28.071  23.820  1.00  0.00     0.048 A 
ATOM     28  C   UNL A   1      48.404  26.286  24.188  1.00  0.00     0.048 A 
ATOM     29  C   UNL A   1      46.060  27.632  24.905  1.00  0.00     0.030 A 
ATOM     30  C   UNL A   1      47.653  25.849  25.285  1.00  0.00     0.030 A 
BRANCH  26  31
ATOM     31  O   UNL A   1      48.649  27.947  22.385  1.00  0.00    -0.497 OA
ATOM     32  C   UNL A   1      49.630  27.131  21.758  1.00  0.00     0.278 C 
ENDBRANCH  26  31
ENDBRANCH  10  25
ENDBRANCH   8   9
ENDBRANCH   7   8
ENDBRANCH   4   7
ENDBRANCH   2   3
ENDBRANCH   1   2
BRANCH   1  33
ATOM     33  C   UNL A   1      43.827  23.683  33.900  1.00  0.00     0.002 C 
BRANCH  33  34
ATOM     34  C   UNL A   1      43.673  23.706  35.422  1.00  0.00     0.002 C 
BRANCH  34  35
ATOM     35  C   UNL A   1      44.474  24.788  36.166  1.00  0.00     0.021 C 
BRANCH  35  36
ATOM     36  C   UNL A   1      44.000  25.099  37.594  1.00  0.00     0.116 C 
BRANCH  36  37
ATOM     37  N   UNL A   1      42.553  25.039  37.670  1.00  0.00    -0.352 N 
ATOM     38  C   UNL A   1      41.585  25.887  37.212  1.00  0.00     0.251 C 
ATOM     39  H   UNL A   1      42.205  24.245  38.135  1.00  0.00     0.163 HD
ATOM     40  O   UNL A   1      40.463  25.803  37.712  1.00  0.00    -0.269 OA
BRANCH  38  41
ATOM     41  C   UNL A   1      41.812  26.873  36.129  1.00  0.00     0.039 A 
ATOM     42  C   UNL A   1      42.292  28.133  36.512  1.00  0.00     0.014 A 
ATOM     43  C   UNL A   1      41.406  26.664  34.806  1.00  0.00     0.014 A 
ATOM     44  C   UNL A   1      42.363  29.173  35.589  1.00  0.00     0.010 A 
ATOM     45  C   UNL A   1      41.490  27.709  33.873  1.00  0.00     0.010 A 
ATOM     46  C   UNL A   1      41.964  28.970  34.262  1.00  0.00    -0.014 A 
BRANCH  46  47
ATOM     47  C   UNL A   1      42.144  30.105  33.334  1.00  0.00     0.031 A 
ATOM     48  C   UNL A   1      42.076  29.756  31.876  1.00  0.00     0.074 A 
ATOM     49  C   UNL A   1      41.777  31.349  33.711  1.00  0.00     0.049 A 
ATOM     50  N   UNL A   1      40.978  29.652  31.184  1.00  0.00    -0.248 NA
ATOM     51  C   UNL A   1      43.263  29.265  31.174  1.00  0.00     0.031 C 
ATOM     52  C   UNL A   1      40.493  31.660  34.349  1.00  0.00     0.029 A 
ATOM     53  N   UNL A   1      42.303  32.580  33.382  1.00  0.00    -0.354 N 
ATOM     54  C   UNL A   1      41.311  29.062  29.971  1.00  0.00     0.074 A 
ATOM     55  C   UNL A   1      42.739  28.834  30.017  1.00  0.00     0.031 C 
ATOM     56  C   UNL A   1      40.257  32.981  34.223  1.00  0.00     0.029 A 
ATOM     57  C   UNL A   1      41.414  33.629  33.606  1.00  0.00     0.049 A 
ATOM     58  H   UNL A   1      43.213  32.705  33.027  1.00  0.00     0.167 HD
ATOM     59  C   UNL A   1      40.413  28.806  28.982  1.00  0.00     0.031 A 
ATOM     60  C   UNL A   1      41.365  34.766  32.853  1.00  0.00     0.031 A 
ATOM     61  C   UNL A   1      39.081  29.268  29.227  1.00  0.00     0.049 A 
ATOM     62  C   UNL A   1      40.595  34.276  31.653  1.00  0.00     0.074 A 
ATOM     63  C   UNL A   1      37.865  28.754  29.618  1.00  0.00     0.029 A 
ATOM     64  N   UNL A   1      38.840  30.603  29.025  1.00  0.00    -0.354 N 
ATOM     65  N   UNL A   1      39.304  34.108  31.565  1.00  0.00    -0.248 NA
ATOM     66  C   UNL A   1      41.374  33.589  30.619  1.00  0.00     0.031 C 
ATOM     67  C   UNL A   1      37.106  29.880  30.070  1.00  0.00     0.029 A 
ATOM     68  C   UNL A   1      37.930  31.000  29.964  1.00  0.00     0.049 A 
ATOM     69  H   UNL A   1      39.248  31.171  28.333  1.00  0.00     0.167 HD
ATOM     70  C   UNL A   1      39.131  33.045  30.674  1.00  0.00     0.074 A 
ATOM     71  C   UNL A   1      40.444  32.794  30.108  1.00  0.00     0.031 C 
ATOM     72  C   UNL A   1      37.989  32.300  30.594  1.00  0.00     0.031 A 
BRANCH  59  73
ATOM     73  C   UNL A   1      40.737  28.279  27.635  1.00  0.00    -0.014 A 
ATOM     74  C   UNL A   1      40.543  26.905  27.403  1.00  0.00     0.009 A 
ATOM     75  C   UNL A   1      41.441  29.032  26.690  1.00  0.00     0.009 A 
ATOM     76  C   UNL A   1      41.092  26.282  26.285  1.00  0.00     0.001 A 
ATOM     77  C   UNL A   1      41.978  28.405  25.557  1.00  0.00     0.001 A 
ATOM     78  C   UNL A   1      41.819  27.031  25.366  1.00  0.00     0.000 A 
ENDBRANCH  59  73
BRANCH  60  79
ATOM     79  C   UNL A   1      42.627  35.564  32.741  1.00  0.00    -0.014 A 
ATOM     80  C   UNL A   1      42.882  36.540  33.726  1.00  0.00     0.009 A 
ATOM     81  C   UNL A   1      43.573  35.433  31.713  1.00  0.00     0.009 A 
ATOM     82  C   UNL A   1      44.072  37.276  33.740  1.00  0.00     0.001 A 
ATOM     83  C   UNL A   1      44.780  36.146  31.741  1.00  0.00     0.001 A 
ATOM     84  C   UNL A   1      45.034  37.056  32.762  1.00  0.00     0.000 A 
ENDBRANCH  60  79
BRANCH  72  85
ATOM     85  C   UNL A   1      36.824  32.760  31.407  1.00  0.00    -0.014 A 
ATOM     86  C   UNL A   1      35.782  33.477  30.807  1.00  0.00     0.009 A 
ATOM     87  C   UNL A   1      36.716  32.411  32.764  1.00  0.00     0.009 A 
ATOM     88  C   UNL A   1      34.641  33.806  31.540  1.00  0.00     0.001 A 
ATOM     89  C   UNL A   1      35.566  32.723  33.489  1.00  0.00     0.001 A 
ATOM     90  C   UNL A   1      34.526  33.415  32.874  1.00  0.00     0.000 A 
ENDBRANCH  72  85
ENDBRANCH  46  47
ENDBRANCH  38  41
ENDBRANCH  36  37
ENDBRANCH  35  36
ENDBRANCH  34  35
ENDBRANCH  33  34
ENDBRANCH   1  33
TORSDOF 17
ENDMDL
MODEL 3
REMARK VINA RESULT:      -9.4      6.408     11.269
REMARK SMILES COc1ccc(-n2c(SCC(=O)NCCCCCCNC(=O)c3ccc(-c4c5nc(c(-c6ccccc6)c6ccc([nH]6)c(-c6ccccc6)c6nc(c(-c7ccccc7)c7ccc4[nH]7)C=C6)C=C5)cc3)nc3sc4c(c3c2=O)CC[N@H+](C)C4)cc1
REMARK SMILES IDX 15 1 14 2 13 3 11 4 12 5 10 7 9 8 8 9 7 10 77 11 71 12 76 13
REMARK SMILES IDX 78 14 72 15 75 16 73 17 74 18 79 19 83 20 80 21 81 22 82 23
REMARK SMILES IDX 6 25 3 26 4 27 85 28 5 29 84 30 2 31 1 32 16 33 17 34 18 35
REMARK SMILES IDX 19 36 20 37 21 38 22 40 23 41 24 42 70 43 25 44 69 45 26 46
REMARK SMILES IDX 27 47 28 48 63 49 29 50 68 51 62 52 64 53 30 54 67 55 61 56
REMARK SMILES IDX 60 57 31 59 53 60 38 61 52 62 39 63 42 64 51 65 65 66 40 67
REMARK SMILES IDX 41 68 50 70 66 71 43 72 32 73 33 74 37 75 34 76 36 77 35 78
REMARK SMILES IDX 54 79 55 80 59 81 56 82 58 83 57 84 44 85 45 86 49 87 46 88
REMARK SMILES IDX 48 89 47 90
REMARK H PARENT 13 6 81 24 20 39 64 58 42 69
REMARK Flexibility Score: inf
ROOT
ATOM      1  C   UNL A   1      32.932  26.154  26.501  1.00  0.00     0.021 C 
ENDROOT
BRANCH   1   2
ATOM      2  C   UNL A   1      34.307  25.637  26.074  1.00  0.00     0.116 C 
BRANCH   2   3
ATOM      3  N   UNL A   1      34.439  24.195  26.147  1.00  0.00    -0.355 N 
ATOM      4  C   UNL A   1      35.352  23.383  25.542  1.00  0.00     0.230 C 
ATOM      5  O   UNL A   1      35.641  22.345  26.149  1.00  0.00    -0.274 OA
ATOM      6  H   UNL A   1      33.775  23.737  26.711  1.00  0.00     0.163 HD
BRANCH   4   7
ATOM      7  C   UNL A   1      36.074  23.723  24.248  1.00  0.00     0.178 C 
BRANCH   7   8
ATOM      8  S   UNL A   1      35.102  23.837  22.768  1.00  0.00    -0.077 SA
BRANCH   8   9
ATOM      9  C   UNL A   1      33.548  24.617  22.937  1.00  0.00     0.177 A 
ATOM     10  N   UNL A   1      32.308  24.006  23.166  1.00  0.00    -0.255 N 
ATOM     11  C   UNL A   1      31.124  24.773  23.251  1.00  0.00     0.267 A 
ATOM     12  N   UNL A   1      33.700  25.905  22.817  1.00  0.00    -0.212 NA
ATOM     13  C   UNL A   1      31.320  26.200  23.156  1.00  0.00     0.081 A 
ATOM     14  O   UNL A   1      29.995  24.308  23.410  1.00  0.00    -0.268 OA
ATOM     15  C   UNL A   1      32.591  26.661  22.938  1.00  0.00     0.132 A 
ATOM     16  C   UNL A   1      30.370  27.257  23.269  1.00  0.00    -0.008 A 
ATOM     17  S   UNL A   1      32.645  28.365  22.825  1.00  0.00    -0.114 S 
ATOM     18  C   UNL A   1      30.966  28.488  23.067  1.00  0.00     0.065 A 
ATOM     19  C   UNL A   1      28.895  27.145  23.511  1.00  0.00     0.099 C 
ATOM     20  C   UNL A   1      30.235  29.799  23.075  1.00  0.00     0.310 C 
ATOM     21  C   UNL A   1      28.261  28.536  23.748  1.00  0.00     0.267 C 
ATOM     22  N   UNL A   1      28.775  29.622  22.880  1.00  0.00    -0.333 N 
ATOM     23  C   UNL A   1      28.450  29.386  21.472  1.00  0.00     0.333 C 
ATOM     24  H   UNL A   1      28.309  30.488  23.152  1.00  0.00     0.348 HD
BRANCH  10  25
ATOM     25  C   UNL A   1      32.108  22.635  23.431  1.00  0.00     0.052 A 
ATOM     26  C   UNL A   1      32.135  19.879  23.940  1.00  0.00     0.119 A 
ATOM     27  C   UNL A   1      32.146  20.794  24.996  1.00  0.00     0.048 A 
ATOM     28  C   UNL A   1      32.146  20.350  22.624  1.00  0.00     0.048 A 
ATOM     29  C   UNL A   1      32.151  22.168  24.749  1.00  0.00     0.030 A 
ATOM     30  C   UNL A   1      32.136  21.726  22.368  1.00  0.00     0.030 A 
BRANCH  26  31
ATOM     31  O   UNL A   1      32.124  18.566  24.324  1.00  0.00    -0.497 OA
ATOM     32  C   UNL A   1      32.689  18.267  25.593  1.00  0.00     0.278 C 
ENDBRANCH  26  31
ENDBRANCH  10  25
ENDBRANCH   8   9
ENDBRANCH   7   8
ENDBRANCH   4   7
ENDBRANCH   2   3
ENDBRANCH   1   2
BRANCH   1  33
ATOM     33  C   UNL A   1      32.771  27.678  26.529  1.00  0.00     0.002 C 
BRANCH  33  34
ATOM     34  C   UNL A   1      34.010  28.491  26.149  1.00  0.00     0.002 C 
BRANCH  34  35
ATOM     35  C   UNL A   1      34.400  29.622  27.117  1.00  0.00     0.021 C 
BRANCH  35  36
ATOM     36  C   UNL A   1      33.240  30.498  27.612  1.00  0.00     0.116 C 
BRANCH  36  37
ATOM     37  N   UNL A   1      33.545  31.902  27.410  1.00  0.00    -0.352 N 
ATOM     38  C   UNL A   1      34.378  32.754  28.078  1.00  0.00     0.251 C 
ATOM     39  H   UNL A   1      33.066  32.316  26.656  1.00  0.00     0.163 HD
ATOM     40  O   UNL A   1      34.190  33.963  27.947  1.00  0.00    -0.269 OA
BRANCH  38  41
ATOM     41  C   UNL A   1      35.507  32.295  28.921  1.00  0.00     0.039 A 
ATOM     42  C   UNL A   1      36.687  31.935  28.256  1.00  0.00     0.014 A 
ATOM     43  C   UNL A   1      35.386  32.040  30.292  1.00  0.00     0.014 A 
ATOM     44  C   UNL A   1      37.732  31.325  28.946  1.00  0.00     0.010 A 
ATOM     45  C   UNL A   1      36.443  31.438  30.990  1.00  0.00     0.010 A 
ATOM     46  C   UNL A   1      37.619  31.073  30.320  1.00  0.00    -0.014 A 
BRANCH  46  47
ATOM     47  C   UNL A   1      38.802  30.493  30.987  1.00  0.00     0.031 A 
ATOM     48  C   UNL A   1      39.165  29.104  30.552  1.00  0.00     0.074 A 
ATOM     49  C   UNL A   1      39.789  31.302  31.432  1.00  0.00     0.049 A 
ATOM     50  N   UNL A   1      39.887  28.812  29.508  1.00  0.00    -0.248 NA
ATOM     51  C   UNL A   1      38.513  27.942  31.160  1.00  0.00     0.031 C 
ATOM     52  C   UNL A   1      40.372  32.387  30.634  1.00  0.00     0.029 A 
ATOM     53  N   UNL A   1      40.637  31.176  32.511  1.00  0.00    -0.354 N 
ATOM     54  C   UNL A   1      39.771  27.444  29.298  1.00  0.00     0.074 A 
ATOM     55  C   UNL A   1      38.902  26.951  30.344  1.00  0.00     0.031 C 
ATOM     56  C   UNL A   1      41.565  32.720  31.166  1.00  0.00     0.029 A 
ATOM     57  C   UNL A   1      41.781  31.963  32.399  1.00  0.00     0.049 A 
ATOM     58  H   UNL A   1      40.453  30.591  33.281  1.00  0.00     0.167 HD
ATOM     59  C   UNL A   1      40.403  26.777  28.295  1.00  0.00     0.031 A 
ATOM     60  C   UNL A   1      43.001  31.618  32.902  1.00  0.00     0.031 A 
ATOM     61  C   UNL A   1      41.288  27.566  27.495  1.00  0.00     0.049 A 
ATOM     62  C   UNL A   1      43.478  30.652  31.847  1.00  0.00     0.074 A 
ATOM     63  C   UNL A   1      41.298  28.175  26.260  1.00  0.00     0.029 A 
ATOM     64  N   UNL A   1      42.526  27.836  28.021  1.00  0.00    -0.354 N 
ATOM     65  N   UNL A   1      43.990  30.952  30.685  1.00  0.00    -0.248 NA
ATOM     66  C   UNL A   1      43.003  29.271  31.969  1.00  0.00     0.031 C 
ATOM     67  C   UNL A   1      42.346  29.148  26.327  1.00  0.00     0.029 A 
ATOM     68  C   UNL A   1      42.876  29.093  27.616  1.00  0.00     0.049 A 
ATOM     69  H   UNL A   1      43.063  27.235  28.586  1.00  0.00     0.167 HD
ATOM     70  C   UNL A   1      43.611  29.909  29.836  1.00  0.00     0.074 A 
ATOM     71  C   UNL A   1      43.032  28.895  30.698  1.00  0.00     0.031 C 
ATOM     72  C   UNL A   1      43.601  30.004  28.472  1.00  0.00     0.031 A 
BRANCH  59  73
ATOM     73  C   UNL A   1      40.396  25.307  28.096  1.00  0.00    -0.014 A 
ATOM     74  C   UNL A   1      41.546  24.589  28.469  1.00  0.00     0.009 A 
ATOM     75  C   UNL A   1      39.409  24.662  27.345  1.00  0.00     0.009 A 
ATOM     76  C   UNL A   1      41.739  23.275  28.051  1.00  0.00     0.001 A 
ATOM     77  C   UNL A   1      39.598  23.334  26.939  1.00  0.00     0.001 A 
ATOM     78  C   UNL A   1      40.768  22.649  27.276  1.00  0.00     0.000 A 
ENDBRANCH  59  73
BRANCH  60  79
ATOM     79  C   UNL A   1      43.076  31.323  34.368  1.00  0.00    -0.014 A 
ATOM     80  C   UNL A   1      42.241  32.059  35.234  1.00  0.00     0.009 A 
ATOM     81  C   UNL A   1      43.933  30.381  34.957  1.00  0.00     0.009 A 
ATOM     82  C   UNL A   1      42.190  31.795  36.607  1.00  0.00     0.001 A 
ATOM     83  C   UNL A   1      43.863  30.092  36.328  1.00  0.00     0.001 A 
ATOM     84  C   UNL A   1      42.982  30.789  37.148  1.00  0.00     0.000 A 
ENDBRANCH  60  79
BRANCH  72  85
ATOM     85  C   UNL A   1      44.172  31.250  27.879  1.00  0.00    -0.014 A 
ATOM     86  C   UNL A   1      45.339  31.196  27.107  1.00  0.00     0.009 A 
ATOM     87  C   UNL A   1      43.505  32.479  28.017  1.00  0.00     0.009 A 
ATOM     88  C   UNL A   1      45.808  32.339  26.458  1.00  0.00     0.001 A 
ATOM     89  C   UNL A   1      43.963  33.616  27.350  1.00  0.00     0.001 A 
ATOM     90  C   UNL A   1      45.111  33.542  26.566  1.00  0.00     0.000 A 
ENDBRANCH  72  85
ENDBRANCH  46  47
ENDBRANCH  38  41
ENDBRANCH  36  37
ENDBRANCH  35  36
ENDBRANCH  34  35
ENDBRANCH  33  34
ENDBRANCH   1  33
TORSDOF 17
ENDMDL
