MODEL 1
REMARK VINA RESULT:     -10.8      0.000      0.000
REMARK SMILES Cc1nc([C@]2(C)CCCO2)nc(C)c1C(=O)NCCCCCCNC(=O)c1ccc(-c2c3nc(c(-c4ccccc4)c4ccc([nH]4)c(-c4ccccc4)c4nc(c(-c5ccccc5)c5ccc2[nH]5)C=C4)C=C3)cc1
REMARK SMILES IDX 21 1 20 2 19 3 18 4 17 5 15 6 16 7 14 9 1 10 2 11 3 12 4 13
REMARK SMILES IDX 12 14 11 15 13 16 5 17 7 18 10 19 6 20 8 21 9 22 22 23 23 24
REMARK SMILES IDX 24 25 25 26 26 28 27 29 28 30 74 31 29 32 73 33 30 34 31 35
REMARK SMILES IDX 32 36 67 37 33 38 72 39 66 40 68 41 34 42 71 43 65 44 64 45
REMARK SMILES IDX 35 47 57 48 42 49 56 50 43 51 46 52 55 53 69 54 44 55 45 56
REMARK SMILES IDX 54 58 70 59 47 60 36 61 37 62 41 63 38 64 40 65 39 66 58 67
REMARK SMILES IDX 59 68 63 69 60 70 62 71 61 72 48 73 49 74 53 75 50 76 52 77
REMARK SMILES IDX 51 78
REMARK H PARENT 17 8 24 27 68 46 46 57
REMARK Flexibility Score: inf
ROOT
ATOM      1  C   UNL A   1      31.461  30.373  25.853  1.00  0.00     0.002 C 
ENDROOT
BRANCH   1   2
ATOM      2  C   UNL A   1      31.799  29.277  26.873  1.00  0.00     0.002 C 
BRANCH   2   3
ATOM      3  C   UNL A   1      32.782  28.216  26.367  1.00  0.00     0.021 C 
BRANCH   3   4
ATOM      4  C   UNL A   1      32.261  26.788  26.553  1.00  0.00     0.116 C 
BRANCH   4   5
ATOM      5  N   UNL A   1      32.155  26.113  25.286  1.00  0.00    -0.352 N 
ATOM      6  C   UNL A   1      31.671  26.291  24.027  1.00  0.00     0.254 C 
ATOM      7  O   UNL A   1      31.933  25.300  23.336  1.00  0.00    -0.269 OA
ATOM      8  H   UNL A   1      32.572  25.224  25.352  1.00  0.00     0.163 HD
BRANCH   6   9
ATOM      9  C   UNL A   1      30.925  27.442  23.406  1.00  0.00     0.082 A 
ATOM     10  C   UNL A   1      32.821  29.004  22.566  1.00  0.00     0.068 C 
ATOM     11  C   UNL A   1      31.410  28.594  22.790  1.00  0.00     0.054 A 
ATOM     12  N   UNL A   1      30.597  29.565  22.293  1.00  0.00    -0.234 NA
ATOM     13  C   UNL A   1      29.272  29.469  22.431  1.00  0.00     0.160 A 
ATOM     14  C   UNL A   1      29.510  27.420  23.478  1.00  0.00     0.054 A 
ATOM     15  N   UNL A   1      28.701  28.406  22.994  1.00  0.00    -0.234 NA
ATOM     16  C   UNL A   1      28.701  26.327  24.127  1.00  0.00     0.068 C 
BRANCH  13  17
ATOM     17  C   UNL A   1      28.419  30.659  21.972  1.00  0.00     0.125 C 
ATOM     18  C   UNL A   1      29.111  31.998  22.232  1.00  0.00     0.046 C 
ATOM     19  O   UNL A   1      27.207  30.733  22.767  1.00  0.00    -0.367 OA
ATOM     20  C   UNL A   1      27.998  30.527  20.506  1.00  0.00     0.051 C 
ATOM     21  C   UNL A   1      28.762  32.313  23.670  1.00  0.00     0.032 C 
ATOM     22  C   UNL A   1      27.461  31.568  23.907  1.00  0.00     0.161 C 
ENDBRANCH  13  17
ENDBRANCH   6   9
ENDBRANCH   4   5
ENDBRANCH   3   4
ENDBRANCH   2   3
ENDBRANCH   1   2
BRANCH   1  23
ATOM     23  C   UNL A   1      31.330  31.779  26.443  1.00  0.00     0.021 C 
BRANCH  23  24
ATOM     24  C   UNL A   1      32.582  32.272  27.160  1.00  0.00     0.116 C 
BRANCH  24  25
ATOM     25  N   UNL A   1      32.459  33.671  27.540  1.00  0.00    -0.352 N 
ATOM     26  C   UNL A   1      33.186  34.390  28.448  1.00  0.00     0.251 C 
ATOM     27  H   UNL A   1      31.751  34.173  27.075  1.00  0.00     0.163 HD
ATOM     28  O   UNL A   1      32.778  35.484  28.842  1.00  0.00    -0.269 OA
BRANCH  26  29
ATOM     29  C   UNL A   1      34.464  33.857  28.953  1.00  0.00     0.039 A 
ATOM     30  C   UNL A   1      34.472  33.124  30.141  1.00  0.00     0.014 A 
ATOM     31  C   UNL A   1      35.657  34.112  28.270  1.00  0.00     0.014 A 
ATOM     32  C   UNL A   1      35.675  32.611  30.625  1.00  0.00     0.010 A 
ATOM     33  C   UNL A   1      36.844  33.543  28.716  1.00  0.00     0.010 A 
ATOM     34  C   UNL A   1      36.865  32.798  29.904  1.00  0.00    -0.014 A 
BRANCH  34  35
ATOM     35  C   UNL A   1      38.149  32.237  30.386  1.00  0.00     0.031 A 
ATOM     36  C   UNL A   1      38.668  30.946  29.815  1.00  0.00     0.074 A 
ATOM     37  C   UNL A   1      38.813  32.858  31.379  1.00  0.00     0.049 A 
ATOM     38  N   UNL A   1      39.734  30.266  30.151  1.00  0.00    -0.248 NA
ATOM     39  C   UNL A   1      37.871  30.327  28.743  1.00  0.00     0.031 C 
ATOM     40  C   UNL A   1      38.390  34.096  32.038  1.00  0.00     0.029 A 
ATOM     41  N   UNL A   1      39.983  32.525  32.013  1.00  0.00    -0.354 N 
ATOM     42  C   UNL A   1      39.724  29.132  29.348  1.00  0.00     0.074 A 
ATOM     43  C   UNL A   1      38.527  29.193  28.540  1.00  0.00     0.031 C 
ATOM     44  C   UNL A   1      39.301  34.430  32.967  1.00  0.00     0.029 A 
ATOM     45  C   UNL A   1      40.347  33.413  32.995  1.00  0.00     0.049 A 
ATOM     46  H   UNL A   1      40.511  31.726  31.785  1.00  0.00     0.167 HD
ATOM     47  C   UNL A   1      40.642  28.139  29.277  1.00  0.00     0.031 A 
ATOM     48  C   UNL A   1      41.403  33.405  33.829  1.00  0.00     0.031 A 
ATOM     49  C   UNL A   1      41.841  28.090  30.068  1.00  0.00     0.049 A 
ATOM     50  C   UNL A   1      42.404  32.287  33.731  1.00  0.00     0.074 A 
ATOM     51  C   UNL A   1      42.862  27.157  30.029  1.00  0.00     0.029 A 
ATOM     52  N   UNL A   1      42.182  29.017  31.041  1.00  0.00    -0.354 N 
ATOM     53  N   UNL A   1      42.415  31.257  32.921  1.00  0.00    -0.248 NA
ATOM     54  C   UNL A   1      43.545  32.340  34.657  1.00  0.00     0.031 C 
ATOM     55  C   UNL A   1      43.799  27.494  31.011  1.00  0.00     0.029 A 
ATOM     56  C   UNL A   1      43.387  28.666  31.624  1.00  0.00     0.049 A 
ATOM     57  H   UNL A   1      41.646  29.807  31.281  1.00  0.00     0.167 HD
ATOM     58  C   UNL A   1      43.576  30.555  33.218  1.00  0.00     0.074 A 
ATOM     59  C   UNL A   1      44.251  31.286  34.271  1.00  0.00     0.031 C 
ATOM     60  C   UNL A   1      44.043  29.409  32.667  1.00  0.00     0.031 A 
BRANCH  47  61
ATOM     61  C   UNL A   1      40.379  27.019  28.310  1.00  0.00    -0.014 A 
ATOM     62  C   UNL A   1      40.908  27.042  27.010  1.00  0.00     0.009 A 
ATOM     63  C   UNL A   1      39.632  25.904  28.718  1.00  0.00     0.009 A 
ATOM     64  C   UNL A   1      40.667  25.986  26.128  1.00  0.00     0.001 A 
ATOM     65  C   UNL A   1      39.415  24.837  27.846  1.00  0.00     0.001 A 
ATOM     66  C   UNL A   1      39.926  24.882  26.549  1.00  0.00     0.000 A 
ENDBRANCH  47  61
BRANCH  48  67
ATOM     67  C   UNL A   1      41.581  34.496  34.821  1.00  0.00    -0.014 A 
ATOM     68  C   UNL A   1      42.293  35.656  34.482  1.00  0.00     0.009 A 
ATOM     69  C   UNL A   1      41.051  34.377  36.115  1.00  0.00     0.009 A 
ATOM     70  C   UNL A   1      42.498  36.662  35.430  1.00  0.00     0.001 A 
ATOM     71  C   UNL A   1      41.233  35.398  37.051  1.00  0.00     0.001 A 
ATOM     72  C   UNL A   1      41.965  36.534  36.711  1.00  0.00     0.000 A 
ENDBRANCH  48  67
BRANCH  60  73
ATOM     73  C   UNL A   1      45.363  28.896  33.168  1.00  0.00    -0.014 A 
ATOM     74  C   UNL A   1      46.571  29.297  32.578  1.00  0.00     0.009 A 
ATOM     75  C   UNL A   1      45.396  28.029  34.271  1.00  0.00     0.009 A 
ATOM     76  C   UNL A   1      47.787  28.814  33.065  1.00  0.00     0.001 A 
ATOM     77  C   UNL A   1      46.614  27.571  34.774  1.00  0.00     0.001 A 
ATOM     78  C   UNL A   1      47.808  27.956  34.165  1.00  0.00     0.000 A 
ENDBRANCH  60  73
ENDBRANCH  34  35
ENDBRANCH  26  29
ENDBRANCH  24  25
ENDBRANCH  23  24
ENDBRANCH   1  23
TORSDOF 14
ENDMDL
MODEL 2
REMARK VINA RESULT:     -10.5      3.978      8.777
REMARK SMILES Cc1nc([C@]2(C)CCCO2)nc(C)c1C(=O)NCCCCCCNC(=O)c1ccc(-c2c3nc(c(-c4ccccc4)c4ccc([nH]4)c(-c4ccccc4)c4nc(c(-c5ccccc5)c5ccc2[nH]5)C=C4)C=C3)cc1
REMARK SMILES IDX 21 1 20 2 19 3 18 4 17 5 15 6 16 7 14 9 1 10 2 11 3 12 4 13
REMARK SMILES IDX 12 14 11 15 13 16 5 17 7 18 10 19 6 20 8 21 9 22 22 23 23 24
REMARK SMILES IDX 24 25 25 26 26 28 27 29 28 30 74 31 29 32 73 33 30 34 31 35
REMARK SMILES IDX 32 36 67 37 33 38 72 39 66 40 68 41 34 42 71 43 65 44 64 45
REMARK SMILES IDX 35 47 57 48 42 49 56 50 43 51 46 52 55 53 69 54 44 55 45 56
REMARK SMILES IDX 54 58 70 59 47 60 36 61 37 62 41 63 38 64 40 65 39 66 58 67
REMARK SMILES IDX 59 68 63 69 60 70 62 71 61 72 48 73 49 74 53 75 50 76 52 77
REMARK SMILES IDX 51 78
REMARK H PARENT 17 8 24 27 68 46 46 57
REMARK Flexibility Score: inf
ROOT
ATOM      1  C   UNL A   1      36.309  19.502  25.005  1.00  0.00     0.002 C 
ENDROOT
BRANCH   1   2
ATOM      2  C   UNL A   1      35.568  20.833  24.811  1.00  0.00     0.002 C 
BRANCH   2   3
ATOM      3  C   UNL A   1      34.055  20.696  24.608  1.00  0.00     0.021 C 
BRANCH   3   4
ATOM      4  C   UNL A   1      33.359  20.006  25.786  1.00  0.00     0.116 C 
BRANCH   4   5
ATOM      5  N   UNL A   1      33.277  20.890  26.919  1.00  0.00    -0.352 N 
ATOM      6  C   UNL A   1      33.084  22.200  27.230  1.00  0.00     0.254 C 
ATOM      7  O   UNL A   1      33.087  22.341  28.459  1.00  0.00    -0.269 OA
ATOM      8  H   UNL A   1      33.402  20.373  27.747  1.00  0.00     0.163 HD
BRANCH   6   9
ATOM      9  C   UNL A   1      32.876  23.407  26.354  1.00  0.00     0.082 A 
ATOM     10  C   UNL A   1      35.293  24.229  25.883  1.00  0.00     0.068 C 
ATOM     11  C   UNL A   1      33.810  24.270  25.786  1.00  0.00     0.054 A 
ATOM     12  N   UNL A   1      33.461  25.345  25.028  1.00  0.00    -0.234 NA
ATOM     13  C   UNL A   1      32.173  25.647  24.844  1.00  0.00     0.160 A 
ATOM     14  C   UNL A   1      31.542  23.795  26.078  1.00  0.00     0.054 A 
ATOM     15  N   UNL A   1      31.197  24.883  25.332  1.00  0.00    -0.234 NA
ATOM     16  C   UNL A   1      30.318  23.083  26.594  1.00  0.00     0.068 C 
BRANCH  13  17
ATOM     17  C   UNL A   1      31.845  26.946  24.095  1.00  0.00     0.125 C 
ATOM     18  C   UNL A   1      30.848  26.719  22.958  1.00  0.00     0.046 C 
ATOM     19  O   UNL A   1      33.033  27.441  23.424  1.00  0.00    -0.367 OA
ATOM     20  C   UNL A   1      31.364  28.045  25.045  1.00  0.00     0.051 C 
ATOM     21  C   UNL A   1      31.715  26.279  21.799  1.00  0.00     0.032 C 
ATOM     22  C   UNL A   1      33.074  26.883  22.102  1.00  0.00     0.161 C 
ENDBRANCH  13  17
ENDBRANCH   6   9
ENDBRANCH   4   5
ENDBRANCH   3   4
ENDBRANCH   2   3
ENDBRANCH   1   2
BRANCH   1  23
ATOM     23  C   UNL A   1      37.789  19.530  24.614  1.00  0.00     0.021 C 
BRANCH  23  24
ATOM     24  C   UNL A   1      38.714  20.025  25.720  1.00  0.00     0.116 C 
BRANCH  24  25
ATOM     25  N   UNL A   1      39.903  19.194  25.829  1.00  0.00    -0.352 N 
ATOM     26  C   UNL A   1      41.199  19.559  26.063  1.00  0.00     0.251 C 
ATOM     27  H   UNL A   1      39.752  18.227  25.717  1.00  0.00     0.163 HD
ATOM     28  O   UNL A   1      42.116  18.763  25.855  1.00  0.00    -0.269 OA
BRANCH  26  29
ATOM     29  C   UNL A   1      41.501  20.911  26.571  1.00  0.00     0.039 A 
ATOM     30  C   UNL A   1      41.337  21.177  27.931  1.00  0.00     0.014 A 
ATOM     31  C   UNL A   1      41.911  21.920  25.695  1.00  0.00     0.014 A 
ATOM     32  C   UNL A   1      41.624  22.451  28.422  1.00  0.00     0.010 A 
ATOM     33  C   UNL A   1      42.262  23.168  26.195  1.00  0.00     0.010 A 
ATOM     34  C   UNL A   1      42.110  23.448  27.561  1.00  0.00    -0.014 A 
BRANCH  34  35
ATOM     35  C   UNL A   1      42.448  24.799  28.067  1.00  0.00     0.031 A 
ATOM     36  C   UNL A   1      43.860  25.120  28.469  1.00  0.00     0.074 A 
ATOM     37  C   UNL A   1      41.471  25.712  28.222  1.00  0.00     0.049 A 
ATOM     38  N   UNL A   1      44.339  26.219  28.993  1.00  0.00    -0.248 NA
ATOM     39  C   UNL A   1      44.862  24.057  28.281  1.00  0.00     0.031 C 
ATOM     40  C   UNL A   1      40.057  25.506  27.902  1.00  0.00     0.029 A 
ATOM     41  N   UNL A   1      41.521  26.998  28.698  1.00  0.00    -0.354 N 
ATOM     42  C   UNL A   1      45.688  25.975  29.214  1.00  0.00     0.074 A 
ATOM     43  C   UNL A   1      45.945  24.610  28.810  1.00  0.00     0.031 C 
ATOM     44  C   UNL A   1      39.378  26.634  28.168  1.00  0.00     0.029 A 
ATOM     45  C   UNL A   1      40.300  27.626  28.712  1.00  0.00     0.049 A 
ATOM     46  H   UNL A   1      42.353  27.430  28.999  1.00  0.00     0.167 HD
ATOM     47  C   UNL A   1      46.633  26.818  29.693  1.00  0.00     0.031 A 
ATOM     48  C   UNL A   1      39.961  28.862  29.122  1.00  0.00     0.031 A 
ATOM     49  C   UNL A   1      46.380  28.180  30.077  1.00  0.00     0.049 A 
ATOM     50  C   UNL A   1      41.030  29.776  29.654  1.00  0.00     0.074 A 
ATOM     51  C   UNL A   1      47.281  29.132  30.520  1.00  0.00     0.029 A 
ATOM     52  N   UNL A   1      45.132  28.783  30.062  1.00  0.00    -0.354 N 
ATOM     53  N   UNL A   1      42.313  29.551  29.796  1.00  0.00    -0.248 NA
ATOM     54  C   UNL A   1      40.601  31.118  30.072  1.00  0.00     0.031 C 
ATOM     55  C   UNL A   1      46.569  30.300  30.817  1.00  0.00     0.029 A 
ATOM     56  C   UNL A   1      45.236  30.090  30.508  1.00  0.00     0.049 A 
ATOM     57  H   UNL A   1      44.296  28.347  29.777  1.00  0.00     0.167 HD
ATOM     58  C   UNL A   1      42.851  30.732  30.290  1.00  0.00     0.074 A 
ATOM     59  C   UNL A   1      41.757  31.674  30.409  1.00  0.00     0.031 C 
ATOM     60  C   UNL A   1      44.136  31.012  30.615  1.00  0.00     0.031 A 
BRANCH  47  61
ATOM     61  C   UNL A   1      48.032  26.286  29.834  1.00  0.00    -0.014 A 
ATOM     62  C   UNL A   1      48.942  26.347  28.767  1.00  0.00     0.009 A 
ATOM     63  C   UNL A   1      48.460  25.759  31.062  1.00  0.00     0.009 A 
ATOM     64  C   UNL A   1      50.243  25.861  28.918  1.00  0.00     0.001 A 
ATOM     65  C   UNL A   1      49.768  25.300  31.219  1.00  0.00     0.001 A 
ATOM     66  C   UNL A   1      50.656  25.344  30.145  1.00  0.00     0.000 A 
ENDBRANCH  47  61
BRANCH  48  67
ATOM     67  C   UNL A   1      38.549  29.318  29.035  1.00  0.00    -0.014 A 
ATOM     68  C   UNL A   1      37.716  29.269  30.162  1.00  0.00     0.009 A 
ATOM     69  C   UNL A   1      38.026  29.792  27.823  1.00  0.00     0.009 A 
ATOM     70  C   UNL A   1      36.376  29.656  30.069  1.00  0.00     0.001 A 
ATOM     71  C   UNL A   1      36.695  30.205  27.740  1.00  0.00     0.001 A 
ATOM     72  C   UNL A   1      35.868  30.127  28.859  1.00  0.00     0.000 A 
ENDBRANCH  48  67
BRANCH  60  73
ATOM     73  C   UNL A   1      44.434  32.404  31.095  1.00  0.00    -0.014 A 
ATOM     74  C   UNL A   1      44.408  32.725  32.460  1.00  0.00     0.009 A 
ATOM     75  C   UNL A   1      44.783  33.396  30.165  1.00  0.00     0.009 A 
ATOM     76  C   UNL A   1      44.697  34.023  32.883  1.00  0.00     0.001 A 
ATOM     77  C   UNL A   1      45.099  34.686  30.593  1.00  0.00     0.001 A 
ATOM     78  C   UNL A   1      45.046  35.001  31.951  1.00  0.00     0.000 A 
ENDBRANCH  60  73
ENDBRANCH  34  35
ENDBRANCH  26  29
ENDBRANCH  24  25
ENDBRANCH  23  24
ENDBRANCH   1  23
TORSDOF 14
ENDMDL
MODEL 3
REMARK VINA RESULT:     -10.5      3.993      8.890
REMARK SMILES Cc1nc([C@]2(C)CCCO2)nc(C)c1C(=O)NCCCCCCNC(=O)c1ccc(-c2c3nc(c(-c4ccccc4)c4ccc([nH]4)c(-c4ccccc4)c4nc(c(-c5ccccc5)c5ccc2[nH]5)C=C4)C=C3)cc1
REMARK SMILES IDX 21 1 20 2 19 3 18 4 17 5 15 6 16 7 14 9 1 10 2 11 3 12 4 13
REMARK SMILES IDX 12 14 11 15 13 16 5 17 7 18 10 19 6 20 8 21 9 22 22 23 23 24
REMARK SMILES IDX 24 25 25 26 26 28 27 29 28 30 74 31 29 32 73 33 30 34 31 35
REMARK SMILES IDX 32 36 67 37 33 38 72 39 66 40 68 41 34 42 71 43 65 44 64 45
REMARK SMILES IDX 35 47 57 48 42 49 56 50 43 51 46 52 55 53 69 54 44 55 45 56
REMARK SMILES IDX 54 58 70 59 47 60 36 61 37 62 41 63 38 64 40 65 39 66 58 67
REMARK SMILES IDX 59 68 63 69 60 70 62 71 61 72 48 73 49 74 53 75 50 76 52 77
REMARK SMILES IDX 51 78
REMARK H PARENT 17 8 24 27 68 46 46 57
REMARK Flexibility Score: inf
ROOT
ATOM      1  C   UNL A   1      36.337  19.915  25.013  1.00  0.00     0.002 C 
ENDROOT
BRANCH   1   2
ATOM      2  C   UNL A   1      35.583  21.212  24.688  1.00  0.00     0.002 C 
BRANCH   2   3
ATOM      3  C   UNL A   1      34.065  21.051  24.555  1.00  0.00     0.021 C 
BRANCH   3   4
ATOM      4  C   UNL A   1      33.453  20.240  25.702  1.00  0.00     0.116 C 
BRANCH   4   5
ATOM      5  N   UNL A   1      33.289  21.057  26.875  1.00  0.00    -0.352 N 
ATOM      6  C   UNL A   1      33.037  22.342  27.246  1.00  0.00     0.254 C 
ATOM      7  O   UNL A   1      32.979  22.416  28.479  1.00  0.00    -0.269 OA
ATOM      8  H   UNL A   1      33.392  20.500  27.680  1.00  0.00     0.163 HD
BRANCH   6   9
ATOM      9  C   UNL A   1      32.831  23.588  26.426  1.00  0.00     0.082 A 
ATOM     10  C   UNL A   1      35.250  24.408  25.960  1.00  0.00     0.068 C 
ATOM     11  C   UNL A   1      33.766  24.466  25.885  1.00  0.00     0.054 A 
ATOM     12  N   UNL A   1      33.417  25.577  25.179  1.00  0.00    -0.234 NA
ATOM     13  C   UNL A   1      32.130  25.898  25.025  1.00  0.00     0.160 A 
ATOM     14  C   UNL A   1      31.497  24.000  26.185  1.00  0.00     0.054 A 
ATOM     15  N   UNL A   1      31.153  25.123  25.492  1.00  0.00    -0.234 NA
ATOM     16  C   UNL A   1      30.273  23.277  26.685  1.00  0.00     0.068 C 
BRANCH  13  17
ATOM     17  C   UNL A   1      31.805  27.231  24.338  1.00  0.00     0.125 C 
ATOM     18  C   UNL A   1      30.736  27.076  23.256  1.00  0.00     0.046 C 
ATOM     19  O   UNL A   1      32.968  27.708  23.613  1.00  0.00    -0.367 OA
ATOM     20  C   UNL A   1      31.420  28.314  25.349  1.00  0.00     0.051 C 
ATOM     21  C   UNL A   1      31.517  26.646  22.034  1.00  0.00     0.032 C 
ATOM     22  C   UNL A   1      32.913  27.194  22.274  1.00  0.00     0.161 C 
ENDBRANCH  13  17
ENDBRANCH   6   9
ENDBRANCH   4   5
ENDBRANCH   3   4
ENDBRANCH   2   3
ENDBRANCH   1   2
BRANCH   1  23
ATOM     23  C   UNL A   1      37.816  19.917  24.618  1.00  0.00     0.021 C 
BRANCH  23  24
ATOM     24  C   UNL A   1      38.763  20.275  25.758  1.00  0.00     0.116 C 
BRANCH  24  25
ATOM     25  N   UNL A   1      39.886  19.352  25.824  1.00  0.00    -0.352 N 
ATOM     26  C   UNL A   1      41.209  19.611  26.050  1.00  0.00     0.251 C 
ATOM     27  H   UNL A   1      39.660  18.404  25.688  1.00  0.00     0.163 HD
ATOM     28  O   UNL A   1      42.060  18.754  25.805  1.00  0.00    -0.269 OA
BRANCH  26  29
ATOM     29  C   UNL A   1      41.620  20.920  26.591  1.00  0.00     0.039 A 
ATOM     30  C   UNL A   1      42.126  21.887  25.721  1.00  0.00     0.014 A 
ATOM     31  C   UNL A   1      41.536  21.176  27.963  1.00  0.00     0.014 A 
ATOM     32  C   UNL A   1      42.512  23.130  26.223  1.00  0.00     0.010 A 
ATOM     33  C   UNL A   1      41.856  22.436  28.452  1.00  0.00     0.010 A 
ATOM     34  C   UNL A   1      42.359  23.420  27.588  1.00  0.00    -0.014 A 
BRANCH  34  35
ATOM     35  C   UNL A   1      42.736  24.744  28.136  1.00  0.00     0.031 A 
ATOM     36  C   UNL A   1      41.685  25.797  28.349  1.00  0.00     0.074 A 
ATOM     37  C   UNL A   1      44.032  25.015  28.382  1.00  0.00     0.049 A 
ATOM     38  N   UNL A   1      41.827  27.033  28.757  1.00  0.00    -0.248 NA
ATOM     39  C   UNL A   1      40.296  25.422  28.040  1.00  0.00     0.031 C 
ATOM     40  C   UNL A   1      45.147  24.086  28.179  1.00  0.00     0.029 A 
ATOM     41  N   UNL A   1      44.630  26.157  28.849  1.00  0.00    -0.354 N 
ATOM     42  C   UNL A   1      40.553  27.585  28.735  1.00  0.00     0.074 A 
ATOM     43  C   UNL A   1      39.657  26.567  28.232  1.00  0.00     0.031 C 
ATOM     44  C   UNL A   1      46.290  24.689  28.543  1.00  0.00     0.029 A 
ATOM     45  C   UNL A   1      45.995  26.054  28.965  1.00  0.00     0.049 A 
ATOM     46  H   UNL A   1      44.130  26.973  29.079  1.00  0.00     0.167 HD
ATOM     47  C   UNL A   1      40.161  28.823  29.117  1.00  0.00     0.031 A 
ATOM     48  C   UNL A   1      46.906  26.961  29.364  1.00  0.00     0.031 A 
ATOM     49  C   UNL A   1      41.050  29.828  29.633  1.00  0.00     0.049 A 
ATOM     50  C   UNL A   1      46.443  28.330  29.779  1.00  0.00     0.074 A 
ATOM     51  C   UNL A   1      40.742  31.093  30.101  1.00  0.00     0.029 A 
ATOM     52  N   UNL A   1      42.423  29.679  29.751  1.00  0.00    -0.354 N 
ATOM     53  N   UNL A   1      45.226  28.815  29.814  1.00  0.00    -0.248 NA
ATOM     54  C   UNL A   1      47.482  29.272  30.219  1.00  0.00     0.031 C 
ATOM     55  C   UNL A   1      41.937  31.728  30.460  1.00  0.00     0.029 A 
ATOM     56  C   UNL A   1      42.980  30.838  30.265  1.00  0.00     0.049 A 
ATOM     57  H   UNL A   1      42.928  28.870  29.505  1.00  0.00     0.167 HD
ATOM     58  C   UNL A   1      45.349  30.107  30.307  1.00  0.00     0.074 A 
ATOM     59  C   UNL A   1      46.756  30.324  30.572  1.00  0.00     0.031 C 
ATOM     60  C   UNL A   1      44.382  31.031  30.524  1.00  0.00     0.031 A 
BRANCH  47  61
ATOM     61  C   UNL A   1      38.702  29.162  28.984  1.00  0.00    -0.014 A 
ATOM     62  C   UNL A   1      37.819  29.006  30.065  1.00  0.00     0.009 A 
ATOM     63  C   UNL A   1      38.213  29.688  27.779  1.00  0.00     0.009 A 
ATOM     64  C   UNL A   1      36.470  29.339  29.930  1.00  0.00     0.001 A 
ATOM     65  C   UNL A   1      36.870  30.047  27.655  1.00  0.00     0.001 A 
ATOM     66  C   UNL A   1      35.998  29.864  28.727  1.00  0.00     0.000 A 
ENDBRANCH  47  61
BRANCH  48  67
ATOM     67  C   UNL A   1      48.347  26.604  29.406  1.00  0.00    -0.014 A 
ATOM     68  C   UNL A   1      49.150  26.754  28.265  1.00  0.00     0.009 A 
ATOM     69  C   UNL A   1      48.924  26.100  30.582  1.00  0.00     0.009 A 
ATOM     70  C   UNL A   1      50.495  26.376  28.293  1.00  0.00     0.001 A 
ATOM     71  C   UNL A   1      50.276  25.751  30.614  1.00  0.00     0.001 A 
ATOM     72  C   UNL A   1      51.057  25.879  29.467  1.00  0.00     0.000 A 
ENDBRANCH  48  67
BRANCH  60  73
ATOM     73  C   UNL A   1      44.810  32.347  31.109  1.00  0.00    -0.014 A 
ATOM     74  C   UNL A   1      44.880  32.539  32.497  1.00  0.00     0.009 A 
ATOM     75  C   UNL A   1      45.186  33.395  30.255  1.00  0.00     0.009 A 
ATOM     76  C   UNL A   1      45.289  33.767  33.018  1.00  0.00     0.001 A 
ATOM     77  C   UNL A   1      45.622  34.613  30.778  1.00  0.00     0.001 A 
ATOM     78  C   UNL A   1      45.664  34.801  32.160  1.00  0.00     0.000 A 
ENDBRANCH  60  73
ENDBRANCH  34  35
ENDBRANCH  26  29
ENDBRANCH  24  25
ENDBRANCH  23  24
ENDBRANCH   1  23
TORSDOF 14
ENDMDL
