MODEL 1
REMARK VINA RESULT:      -9.1      0.000      0.000
REMARK SMILES O=C(NCCCCCCNC(=O)c1ccc(-c2cccc(F)c2)o1)c1ccc(-c2c3nc(c(-c4ccccc4)c4ccc([nH]4)c(-c4ccccc4)c4nc(c(-c5ccccc5)c5ccc2[nH]5)C=C4)C=C3)cc1
REMARK SMILES IDX 6 1 5 2 4 3 3 4 1 5 2 6 25 8 26 9 72 10 27 11 71 12 28 13
REMARK SMILES IDX 29 14 30 15 65 16 31 17 70 18 64 19 66 20 32 21 69 22 63 23
REMARK SMILES IDX 62 24 33 26 55 27 40 28 54 29 41 30 44 31 53 32 67 33 42 34
REMARK SMILES IDX 43 35 52 37 68 38 45 39 34 40 35 41 39 42 36 43 38 44 37 45
REMARK SMILES IDX 56 46 57 47 61 48 58 49 60 50 59 51 46 52 47 53 51 54 48 55
REMARK SMILES IDX 50 56 49 57 7 58 8 59 9 60 10 61 11 62 12 64 13 65 14 66
REMARK SMILES IDX 24 67 15 68 16 69 17 70 18 71 23 72 19 73 21 74 20 75 22 76
REMARK H PARENT 3 7 66 25 44 36 10 63
REMARK Flexibility Score: inf
ROOT
ATOM      1  C   UNL A   1      33.752  35.717  32.361  1.00  0.00     0.002 C 
ENDROOT
BRANCH   1   2
ATOM      2  C   UNL A   1      32.900  36.396  31.289  1.00  0.00     0.021 C 
BRANCH   2   3
ATOM      3  C   UNL A   1      33.464  36.302  29.878  1.00  0.00     0.116 C 
BRANCH   3   4
ATOM      4  N   UNL A   1      32.718  35.374  29.043  1.00  0.00    -0.352 N 
ATOM      5  O   UNL A   1      32.433  33.621  27.646  1.00  0.00    -0.269 OA
ATOM      6  C   UNL A   1      33.139  34.202  28.465  1.00  0.00     0.251 C 
ATOM      7  H   UNL A   1      31.780  35.619  28.869  1.00  0.00     0.163 HD
BRANCH   6   8
ATOM      8  C   UNL A   1      34.465  33.653  28.818  1.00  0.00     0.039 A 
ATOM      9  C   UNL A   1      34.596  32.751  29.877  1.00  0.00     0.014 A 
ATOM     10  C   UNL A   1      35.587  34.043  28.083  1.00  0.00     0.014 A 
ATOM     11  C   UNL A   1      35.860  32.355  30.291  1.00  0.00     0.010 A 
ATOM     12  C   UNL A   1      36.850  33.563  28.440  1.00  0.00     0.010 A 
ATOM     13  C   UNL A   1      36.999  32.733  29.561  1.00  0.00    -0.014 A 
BRANCH  13  14
ATOM     14  C   UNL A   1      38.318  32.167  29.942  1.00  0.00     0.031 A 
ATOM     15  C   UNL A   1      38.772  30.825  29.442  1.00  0.00     0.074 A 
ATOM     16  C   UNL A   1      39.121  32.903  30.735  1.00  0.00     0.049 A 
ATOM     17  N   UNL A   1      39.906  30.210  29.662  1.00  0.00    -0.248 NA
ATOM     18  C   UNL A   1      37.837  30.073  28.592  1.00  0.00     0.031 C 
ATOM     19  C   UNL A   1      38.785  34.219  31.287  1.00  0.00     0.029 A 
ATOM     20  N   UNL A   1      40.389  32.665  31.197  1.00  0.00    -0.354 N 
ATOM     21  C   UNL A   1      39.818  28.995  28.994  1.00  0.00     0.074 A 
ATOM     22  C   UNL A   1      38.507  28.948  28.382  1.00  0.00     0.031 C 
ATOM     23  C   UNL A   1      39.837  34.694  31.966  1.00  0.00     0.029 A 
ATOM     24  C   UNL A   1      40.893  33.689  31.962  1.00  0.00     0.049 A 
ATOM     25  H   UNL A   1      40.890  31.841  31.000  1.00  0.00     0.167 HD
ATOM     26  C   UNL A   1      40.747  28.012  28.901  1.00  0.00     0.031 A 
ATOM     27  C   UNL A   1      42.066  33.803  32.610  1.00  0.00     0.031 A 
ATOM     28  C   UNL A   1      42.046  28.061  29.524  1.00  0.00     0.049 A 
ATOM     29  C   UNL A   1      43.052  32.676  32.527  1.00  0.00     0.074 A 
ATOM     30  C   UNL A   1      43.066  27.128  29.462  1.00  0.00     0.029 A 
ATOM     31  N   UNL A   1      42.500  29.094  30.329  1.00  0.00    -0.354 N 
ATOM     32  N   UNL A   1      42.968  31.554  31.856  1.00  0.00    -0.248 NA
ATOM     33  C   UNL A   1      44.295  32.835  33.290  1.00  0.00     0.031 C 
ATOM     34  C   UNL A   1      44.113  27.567  30.280  1.00  0.00     0.029 A 
ATOM     35  C   UNL A   1      43.772  28.807  30.796  1.00  0.00     0.049 A 
ATOM     36  H   UNL A   1      41.992  29.913  30.539  1.00  0.00     0.167 HD
ATOM     37  C   UNL A   1      44.156  30.880  32.101  1.00  0.00     0.074 A 
ATOM     38  C   UNL A   1      44.952  31.733  32.959  1.00  0.00     0.031 C 
ATOM     39  C   UNL A   1      44.550  29.661  31.657  1.00  0.00     0.031 A 
BRANCH  26  40
ATOM     40  C   UNL A   1      40.384  26.779  28.119  1.00  0.00    -0.014 A 
ATOM     41  C   UNL A   1      39.570  25.776  28.668  1.00  0.00     0.009 A 
ATOM     42  C   UNL A   1      40.815  26.646  26.788  1.00  0.00     0.009 A 
ATOM     43  C   UNL A   1      39.220  24.654  27.912  1.00  0.00     0.001 A 
ATOM     44  C   UNL A   1      40.441  25.538  26.026  1.00  0.00     0.001 A 
ATOM     45  C   UNL A   1      39.651  24.539  26.591  1.00  0.00     0.000 A 
ENDBRANCH  26  40
BRANCH  27  46
ATOM     46  C   UNL A   1      42.354  35.019  33.412  1.00  0.00    -0.014 A 
ATOM     47  C   UNL A   1      43.037  36.107  32.847  1.00  0.00     0.009 A 
ATOM     48  C   UNL A   1      41.944  35.098  34.754  1.00  0.00     0.009 A 
ATOM     49  C   UNL A   1      43.327  37.236  33.617  1.00  0.00     0.001 A 
ATOM     50  C   UNL A   1      42.203  36.243  35.509  1.00  0.00     0.001 A 
ATOM     51  C   UNL A   1      42.905  37.305  34.944  1.00  0.00     0.000 A 
ENDBRANCH  27  46
BRANCH  39  52
ATOM     52  C   UNL A   1      45.919  29.198  32.069  1.00  0.00    -0.014 A 
ATOM     53  C   UNL A   1      46.133  28.554  33.297  1.00  0.00     0.009 A 
ATOM     54  C   UNL A   1      47.008  29.396  31.205  1.00  0.00     0.009 A 
ATOM     55  C   UNL A   1      47.419  28.153  33.669  1.00  0.00     0.001 A 
ATOM     56  C   UNL A   1      48.284  28.964  31.565  1.00  0.00     0.001 A 
ATOM     57  C   UNL A   1      48.491  28.354  32.800  1.00  0.00     0.000 A 
ENDBRANCH  39  52
ENDBRANCH  13  14
ENDBRANCH   6   8
ENDBRANCH   3   4
ENDBRANCH   2   3
ENDBRANCH   1   2
BRANCH   1  58
ATOM     58  C   UNL A   1      33.530  34.208  32.508  1.00  0.00     0.002 C 
BRANCH  58  59
ATOM     59  C   UNL A   1      34.349  33.531  33.611  1.00  0.00     0.021 C 
BRANCH  59  60
ATOM     60  C   UNL A   1      35.484  34.383  34.174  1.00  0.00     0.116 C 
BRANCH  60  61
ATOM     61  N   UNL A   1      35.571  34.257  35.617  1.00  0.00    -0.349 N 
ATOM     62  C   UNL A   1      36.420  33.461  36.346  1.00  0.00     0.287 C 
ATOM     63  H   UNL A   1      34.945  34.810  36.137  1.00  0.00     0.163 HD
ATOM     64  O   UNL A   1      36.155  33.280  37.540  1.00  0.00    -0.266 OA
BRANCH  62  65
ATOM     65  C   UNL A   1      37.579  32.909  35.687  1.00  0.00     0.192 A 
ATOM     66  C   UNL A   1      38.901  33.320  35.661  1.00  0.00     0.057 A 
ATOM     67  O   UNL A   1      37.439  31.770  34.942  1.00  0.00    -0.451 OA
ATOM     68  C   UNL A   1      39.598  32.393  34.856  1.00  0.00     0.052 A 
ATOM     69  C   UNL A   1      38.669  31.464  34.440  1.00  0.00     0.135 A 
BRANCH  69  70
ATOM     70  C   UNL A   1      38.761  30.265  33.629  1.00  0.00     0.020 A 
ATOM     71  C   UNL A   1      37.621  29.786  32.967  1.00  0.00     0.012 A 
ATOM     72  C   UNL A   1      39.958  29.550  33.531  1.00  0.00     0.051 A 
ATOM     73  C   UNL A   1      37.670  28.602  32.226  1.00  0.00     0.004 A 
ATOM     74  C   UNL A   1      39.992  28.364  32.803  1.00  0.00     0.123 A 
ATOM     75  C   UNL A   1      38.860  27.884  32.153  1.00  0.00     0.039 A 
ATOM     76  F   UNL A   1      41.131  27.662  32.739  1.00  0.00    -0.207 F 
ENDBRANCH  69  70
ENDBRANCH  62  65
ENDBRANCH  60  61
ENDBRANCH  59  60
ENDBRANCH  58  59
ENDBRANCH   1  58
TORSDOF 14
ENDMDL
MODEL 2
REMARK VINA RESULT:      -8.9      5.878     11.665
REMARK SMILES O=C(NCCCCCCNC(=O)c1ccc(-c2cccc(F)c2)o1)c1ccc(-c2c3nc(c(-c4ccccc4)c4ccc([nH]4)c(-c4ccccc4)c4nc(c(-c5ccccc5)c5ccc2[nH]5)C=C4)C=C3)cc1
REMARK SMILES IDX 6 1 5 2 4 3 3 4 1 5 2 6 25 8 26 9 72 10 27 11 71 12 28 13
REMARK SMILES IDX 29 14 30 15 65 16 31 17 70 18 64 19 66 20 32 21 69 22 63 23
REMARK SMILES IDX 62 24 33 26 55 27 40 28 54 29 41 30 44 31 53 32 67 33 42 34
REMARK SMILES IDX 43 35 52 37 68 38 45 39 34 40 35 41 39 42 36 43 38 44 37 45
REMARK SMILES IDX 56 46 57 47 61 48 58 49 60 50 59 51 46 52 47 53 51 54 48 55
REMARK SMILES IDX 50 56 49 57 7 58 8 59 9 60 10 61 11 62 12 64 13 65 14 66
REMARK SMILES IDX 24 67 15 68 16 69 17 70 18 71 23 72 19 73 21 74 20 75 22 76
REMARK H PARENT 3 7 66 25 44 36 10 63
REMARK Flexibility Score: inf
ROOT
ATOM      1  C   UNL A   1      36.529  20.359  24.961  1.00  0.00     0.002 C 
ENDROOT
BRANCH   1   2
ATOM      2  C   UNL A   1      37.847  19.597  24.842  1.00  0.00     0.021 C 
BRANCH   2   3
ATOM      3  C   UNL A   1      38.975  20.145  25.705  1.00  0.00     0.116 C 
BRANCH   3   4
ATOM      4  N   UNL A   1      40.118  19.247  25.760  1.00  0.00    -0.352 N 
ATOM      5  O   UNL A   1      42.302  18.688  25.913  1.00  0.00    -0.269 OA
ATOM      6  C   UNL A   1      41.424  19.529  26.079  1.00  0.00     0.251 C 
ATOM      7  H   UNL A   1      39.930  18.306  25.538  1.00  0.00     0.163 HD
BRANCH   6   8
ATOM      8  C   UNL A   1      41.770  20.865  26.607  1.00  0.00     0.039 A 
ATOM      9  C   UNL A   1      41.663  21.134  27.974  1.00  0.00     0.014 A 
ATOM     10  C   UNL A   1      42.207  21.859  25.727  1.00  0.00     0.014 A 
ATOM     11  C   UNL A   1      41.851  22.428  28.438  1.00  0.00     0.010 A 
ATOM     12  C   UNL A   1      42.492  23.137  26.212  1.00  0.00     0.010 A 
ATOM     13  C   UNL A   1      42.295  23.439  27.568  1.00  0.00    -0.014 A 
BRANCH  13  14
ATOM     14  C   UNL A   1      42.633  24.772  28.127  1.00  0.00     0.031 A 
ATOM     15  C   UNL A   1      44.043  25.136  28.495  1.00  0.00     0.074 A 
ATOM     16  C   UNL A   1      41.639  25.670  28.275  1.00  0.00     0.049 A 
ATOM     17  N   UNL A   1      44.500  26.269  28.967  1.00  0.00    -0.248 NA
ATOM     18  C   UNL A   1      45.073  24.101  28.319  1.00  0.00     0.031 C 
ATOM     19  C   UNL A   1      40.229  25.427  27.957  1.00  0.00     0.029 A 
ATOM     20  N   UNL A   1      41.661  26.970  28.708  1.00  0.00    -0.354 N 
ATOM     21  C   UNL A   1      45.863  26.081  29.159  1.00  0.00     0.074 A 
ATOM     22  C   UNL A   1      46.155  24.716  28.777  1.00  0.00     0.031 C 
ATOM     23  C   UNL A   1      39.532  26.554  28.154  1.00  0.00     0.029 A 
ATOM     24  C   UNL A   1      40.429  27.575  28.682  1.00  0.00     0.049 A 
ATOM     25  H   UNL A   1      42.480  27.425  29.008  1.00  0.00     0.167 HD
ATOM     26  C   UNL A   1      46.784  26.968  29.610  1.00  0.00     0.031 A 
ATOM     27  C   UNL A   1      40.050  28.809  29.060  1.00  0.00     0.031 A 
ATOM     28  C   UNL A   1      46.483  28.322  29.999  1.00  0.00     0.049 A 
ATOM     29  C   UNL A   1      41.085  29.750  29.602  1.00  0.00     0.074 A 
ATOM     30  C   UNL A   1      47.352  29.305  30.440  1.00  0.00     0.029 A 
ATOM     31  N   UNL A   1      45.214  28.883  30.002  1.00  0.00    -0.354 N 
ATOM     32  N   UNL A   1      42.375  29.569  29.736  1.00  0.00    -0.248 NA
ATOM     33  C   UNL A   1      40.608  31.066  30.042  1.00  0.00     0.031 C 
ATOM     34  C   UNL A   1      46.602  30.439  30.770  1.00  0.00     0.029 A 
ATOM     35  C   UNL A   1      45.274  30.187  30.468  1.00  0.00     0.049 A 
ATOM     36  H   UNL A   1      44.392  28.422  29.716  1.00  0.00     0.167 HD
ATOM     37  C   UNL A   1      42.870  30.755  30.259  1.00  0.00     0.074 A 
ATOM     38  C   UNL A   1      41.742  31.656  30.390  1.00  0.00     0.031 C 
ATOM     39  C   UNL A   1      44.143  31.069  30.602  1.00  0.00     0.031 A 
BRANCH  26  40
ATOM     40  C   UNL A   1      48.206  26.495  29.738  1.00  0.00    -0.014 A 
ATOM     41  C   UNL A   1      48.664  25.855  30.901  1.00  0.00     0.009 A 
ATOM     42  C   UNL A   1      49.088  26.638  28.654  1.00  0.00     0.009 A 
ATOM     43  C   UNL A   1      49.981  25.397  30.986  1.00  0.00     0.001 A 
ATOM     44  C   UNL A   1      50.396  26.154  28.730  1.00  0.00     0.001 A 
ATOM     45  C   UNL A   1      50.843  25.541  29.899  1.00  0.00     0.000 A 
ENDBRANCH  26  40
BRANCH  27  46
ATOM     46  C   UNL A   1      38.623  29.209  28.963  1.00  0.00    -0.014 A 
ATOM     47  C   UNL A   1      38.109  29.751  27.775  1.00  0.00     0.009 A 
ATOM     48  C   UNL A   1      37.764  29.048  30.063  1.00  0.00     0.009 A 
ATOM     49  C   UNL A   1      36.772  30.149  27.702  1.00  0.00     0.001 A 
ATOM     50  C   UNL A   1      36.420  29.413  29.974  1.00  0.00     0.001 A 
ATOM     51  C   UNL A   1      35.928  29.974  28.798  1.00  0.00     0.000 A 
ENDBRANCH  27  46
BRANCH  39  52
ATOM     52  C   UNL A   1      44.383  32.458  31.122  1.00  0.00    -0.014 A 
ATOM     53  C   UNL A   1      44.270  32.757  32.489  1.00  0.00     0.009 A 
ATOM     54  C   UNL A   1      44.746  33.480  30.230  1.00  0.00     0.009 A 
ATOM     55  C   UNL A   1      44.475  34.060  32.946  1.00  0.00     0.001 A 
ATOM     56  C   UNL A   1      44.983  34.774  30.695  1.00  0.00     0.001 A 
ATOM     57  C   UNL A   1      44.837  35.065  32.049  1.00  0.00     0.000 A 
ENDBRANCH  39  52
ENDBRANCH  13  14
ENDBRANCH   6   8
ENDBRANCH   3   4
ENDBRANCH   2   3
ENDBRANCH   1   2
BRANCH   1  58
ATOM     58  C   UNL A   1      36.625  21.719  25.661  1.00  0.00     0.002 C 
BRANCH  58  59
ATOM     59  C   UNL A   1      36.685  22.932  24.727  1.00  0.00     0.021 C 
BRANCH  59  60
ATOM     60  C   UNL A   1      35.511  23.899  24.865  1.00  0.00     0.116 C 
BRANCH  60  61
ATOM     61  N   UNL A   1      34.833  24.086  23.596  1.00  0.00    -0.349 N 
ATOM     62  C   UNL A   1      33.884  23.278  23.017  1.00  0.00     0.287 C 
ATOM     63  H   UNL A   1      35.082  24.891  23.088  1.00  0.00     0.163 HD
ATOM     64  O   UNL A   1      33.634  23.452  21.819  1.00  0.00    -0.266 OA
BRANCH  62  65
ATOM     65  C   UNL A   1      33.220  22.300  23.843  1.00  0.00     0.192 A 
ATOM     66  C   UNL A   1      32.238  22.431  24.811  1.00  0.00     0.057 A 
ATOM     67  O   UNL A   1      33.550  20.979  23.703  1.00  0.00    -0.451 OA
ATOM     68  C   UNL A   1      31.963  21.131  25.289  1.00  0.00     0.052 A 
ATOM     69  C   UNL A   1      32.784  20.277  24.585  1.00  0.00     0.135 A 
BRANCH  69  70
ATOM     70  C   UNL A   1      32.953  18.836  24.591  1.00  0.00     0.020 A 
ATOM     71  C   UNL A   1      32.550  18.095  25.712  1.00  0.00     0.012 A 
ATOM     72  C   UNL A   1      33.556  18.175  23.517  1.00  0.00     0.051 A 
ATOM     73  C   UNL A   1      32.755  16.714  25.765  1.00  0.00     0.004 A 
ATOM     74  C   UNL A   1      33.769  16.802  23.587  1.00  0.00     0.123 A 
ATOM     75  C   UNL A   1      33.376  16.067  24.700  1.00  0.00     0.039 A 
ATOM     76  F   UNL A   1      34.377  16.176  22.571  1.00  0.00    -0.207 F 
ENDBRANCH  69  70
ENDBRANCH  62  65
ENDBRANCH  60  61
ENDBRANCH  59  60
ENDBRANCH  58  59
ENDBRANCH   1  58
TORSDOF 14
ENDMDL
MODEL 3
REMARK VINA RESULT:      -8.9      4.539      9.624
REMARK SMILES O=C(NCCCCCCNC(=O)c1ccc(-c2cccc(F)c2)o1)c1ccc(-c2c3nc(c(-c4ccccc4)c4ccc([nH]4)c(-c4ccccc4)c4nc(c(-c5ccccc5)c5ccc2[nH]5)C=C4)C=C3)cc1
REMARK SMILES IDX 6 1 5 2 4 3 3 4 1 5 2 6 25 8 26 9 72 10 27 11 71 12 28 13
REMARK SMILES IDX 29 14 30 15 65 16 31 17 70 18 64 19 66 20 32 21 69 22 63 23
REMARK SMILES IDX 62 24 33 26 55 27 40 28 54 29 41 30 44 31 53 32 67 33 42 34
REMARK SMILES IDX 43 35 52 37 68 38 45 39 34 40 35 41 39 42 36 43 38 44 37 45
REMARK SMILES IDX 56 46 57 47 61 48 58 49 60 50 59 51 46 52 47 53 51 54 48 55
REMARK SMILES IDX 50 56 49 57 7 58 8 59 9 60 10 61 11 62 12 64 13 65 14 66
REMARK SMILES IDX 24 67 15 68 16 69 17 70 18 71 23 72 19 73 21 74 20 75 22 76
REMARK H PARENT 3 7 66 25 44 36 10 63
REMARK Flexibility Score: inf
ROOT
ATOM      1  C   UNL A   1      33.788  26.422  25.620  1.00  0.00     0.002 C 
ENDROOT
BRANCH   1   2
ATOM      2  C   UNL A   1      33.761  27.931  25.858  1.00  0.00     0.021 C 
BRANCH   2   3
ATOM      3  C   UNL A   1      33.609  28.339  27.317  1.00  0.00     0.116 C 
BRANCH   3   4
ATOM      4  N   UNL A   1      33.455  29.776  27.479  1.00  0.00    -0.352 N 
ATOM      5  O   UNL A   1      33.989  31.841  28.222  1.00  0.00    -0.269 OA
ATOM      6  C   UNL A   1      34.341  30.687  28.000  1.00  0.00     0.251 C 
ATOM      7  H   UNL A   1      32.596  30.148  27.171  1.00  0.00     0.163 HD
BRANCH   6   8
ATOM      8  C   UNL A   1      35.720  30.261  28.314  1.00  0.00     0.039 A 
ATOM      9  C   UNL A   1      36.717  30.320  27.337  1.00  0.00     0.014 A 
ATOM     10  C   UNL A   1      36.020  29.797  29.598  1.00  0.00     0.014 A 
ATOM     11  C   UNL A   1      37.970  29.785  27.599  1.00  0.00     0.010 A 
ATOM     12  C   UNL A   1      37.311  29.350  29.888  1.00  0.00     0.010 A 
ATOM     13  C   UNL A   1      38.291  29.319  28.885  1.00  0.00    -0.014 A 
BRANCH  13  14
ATOM     14  C   UNL A   1      39.684  28.895  29.170  1.00  0.00     0.031 A 
ATOM     15  C   UNL A   1      40.643  29.787  29.907  1.00  0.00     0.074 A 
ATOM     16  C   UNL A   1      40.070  27.667  28.771  1.00  0.00     0.049 A 
ATOM     17  N   UNL A   1      41.882  29.547  30.256  1.00  0.00    -0.248 NA
ATOM     18  C   UNL A   1      40.157  31.119  30.299  1.00  0.00     0.031 C 
ATOM     19  C   UNL A   1      39.228  26.714  28.042  1.00  0.00     0.029 A 
ATOM     20  N   UNL A   1      41.255  26.999  28.939  1.00  0.00    -0.354 N 
ATOM     21  C   UNL A   1      42.329  30.698  30.893  1.00  0.00     0.074 A 
ATOM     22  C   UNL A   1      41.237  31.647  30.859  1.00  0.00     0.031 C 
ATOM     23  C   UNL A   1      39.903  25.569  27.873  1.00  0.00     0.029 A 
ATOM     24  C   UNL A   1      41.247  25.731  28.414  1.00  0.00     0.049 A 
ATOM     25  H   UNL A   1      42.036  27.391  29.393  1.00  0.00     0.167 HD
ATOM     26  C   UNL A   1      43.539  30.938  31.455  1.00  0.00     0.031 A 
ATOM     27  C   UNL A   1      42.217  24.802  28.349  1.00  0.00     0.031 A 
ATOM     28  C   UNL A   1      44.626  29.992  31.474  1.00  0.00     0.049 A 
ATOM     29  C   UNL A   1      43.561  25.117  28.937  1.00  0.00     0.074 A 
ATOM     30  C   UNL A   1      45.880  30.132  32.045  1.00  0.00     0.029 A 
ATOM     31  N   UNL A   1      44.594  28.735  30.889  1.00  0.00    -0.354 N 
ATOM     32  N   UNL A   1      43.952  26.194  29.573  1.00  0.00    -0.248 NA
ATOM     33  C   UNL A   1      44.596  24.085  28.799  1.00  0.00     0.031 C 
ATOM     34  C   UNL A   1      46.626  28.986  31.752  1.00  0.00     0.029 A 
ATOM     35  C   UNL A   1      45.815  28.102  31.058  1.00  0.00     0.049 A 
ATOM     36  H   UNL A   1      43.817  28.349  30.422  1.00  0.00     0.167 HD
ATOM     37  C   UNL A   1      45.273  25.963  29.927  1.00  0.00     0.074 A 
ATOM     38  C   UNL A   1      45.605  24.633  29.460  1.00  0.00     0.031 C 
ATOM     39  C   UNL A   1      46.135  26.782  30.580  1.00  0.00     0.031 A 
BRANCH  26  40
ATOM     40  C   UNL A   1      43.768  32.290  32.073  1.00  0.00    -0.014 A 
ATOM     41  C   UNL A   1      44.251  33.370  31.316  1.00  0.00     0.009 A 
ATOM     42  C   UNL A   1      43.438  32.505  33.421  1.00  0.00     0.009 A 
ATOM     43  C   UNL A   1      44.427  34.625  31.903  1.00  0.00     0.001 A 
ATOM     44  C   UNL A   1      43.587  33.768  33.999  1.00  0.00     0.001 A 
ATOM     45  C   UNL A   1      44.089  34.824  33.242  1.00  0.00     0.000 A 
ENDBRANCH  26  40
BRANCH  27  46
ATOM     46  C   UNL A   1      41.956  23.502  27.681  1.00  0.00    -0.014 A 
ATOM     47  C   UNL A   1      41.377  22.436  28.387  1.00  0.00     0.009 A 
ATOM     48  C   UNL A   1      42.286  23.320  26.328  1.00  0.00     0.009 A 
ATOM     49  C   UNL A   1      41.160  21.208  27.757  1.00  0.00     0.001 A 
ATOM     50  C   UNL A   1      42.034  22.104  25.693  1.00  0.00     0.001 A 
ATOM     51  C   UNL A   1      41.482  21.045  26.411  1.00  0.00     0.000 A 
ENDBRANCH  27  46
BRANCH  39  52
ATOM     52  C   UNL A   1      47.510  26.241  30.852  1.00  0.00    -0.014 A 
ATOM     53  C   UNL A   1      47.847  25.695  32.100  1.00  0.00     0.009 A 
ATOM     54  C   UNL A   1      48.478  26.262  29.835  1.00  0.00     0.009 A 
ATOM     55  C   UNL A   1      49.138  25.219  32.337  1.00  0.00     0.001 A 
ATOM     56  C   UNL A   1      49.757  25.754  30.064  1.00  0.00     0.001 A 
ATOM     57  C   UNL A   1      50.090  25.245  31.318  1.00  0.00     0.000 A 
ENDBRANCH  39  52
ENDBRANCH  13  14
ENDBRANCH   6   8
ENDBRANCH   3   4
ENDBRANCH   2   3
ENDBRANCH   1   2
BRANCH   1  58
ATOM     58  C   UNL A   1      32.899  25.930  24.473  1.00  0.00     0.002 C 
BRANCH  58  59
ATOM     59  C   UNL A   1      31.409  26.255  24.613  1.00  0.00     0.021 C 
BRANCH  59  60
ATOM     60  C   UNL A   1      30.491  25.035  24.627  1.00  0.00     0.116 C 
BRANCH  60  61
ATOM     61  N   UNL A   1      30.300  24.536  25.976  1.00  0.00    -0.349 N 
ATOM     62  C   UNL A   1      30.780  23.370  26.522  1.00  0.00     0.287 C 
ATOM     63  H   UNL A   1      29.762  25.103  26.574  1.00  0.00     0.163 HD
ATOM     64  O   UNL A   1      30.282  22.986  27.586  1.00  0.00    -0.266 OA
BRANCH  62  65
ATOM     65  C   UNL A   1      31.849  22.682  25.840  1.00  0.00     0.192 A 
ATOM     66  C   UNL A   1      31.833  21.739  24.827  1.00  0.00     0.057 A 
ATOM     67  O   UNL A   1      33.144  22.960  26.185  1.00  0.00    -0.451 OA
ATOM     68  C   UNL A   1      33.180  21.421  24.546  1.00  0.00     0.052 A 
ATOM     69  C   UNL A   1      33.945  22.190  25.397  1.00  0.00     0.135 A 
BRANCH  69  70
ATOM     70  C   UNL A   1      35.376  22.342  25.577  1.00  0.00     0.020 A 
ATOM     71  C   UNL A   1      35.902  23.593  25.933  1.00  0.00     0.012 A 
ATOM     72  C   UNL A   1      36.250  21.272  25.357  1.00  0.00     0.051 A 
ATOM     73  C   UNL A   1      37.281  23.778  26.057  1.00  0.00     0.004 A 
ATOM     74  C   UNL A   1      37.622  21.472  25.469  1.00  0.00     0.123 A 
ATOM     75  C   UNL A   1      38.145  22.714  25.814  1.00  0.00     0.039 A 
ATOM     76  F   UNL A   1      38.459  20.455  25.224  1.00  0.00    -0.207 F 
ENDBRANCH  69  70
ENDBRANCH  62  65
ENDBRANCH  60  61
ENDBRANCH  59  60
ENDBRANCH  58  59
ENDBRANCH   1  58
TORSDOF 14
ENDMDL
