MODEL 1
REMARK VINA RESULT:     -11.1      0.000      0.000
REMARK SMILES N#Cc1ccn2cc(C(=O)NCCCCCCNC(=O)c3ccc(-c4c5nc(c(-c6ccccc6)c6ccc([nH]6)c(-c6ccccc6)c6nc(c(-c7ccccc7)c7ccc4[nH]7)C=C6)C=C5)cc3)nc2c1
REMARK SMILES IDX 15 1 14 2 13 3 12 4 11 5 9 6 10 7 8 9 3 10 4 11 71 12 5 13
REMARK SMILES IDX 70 14 6 15 69 16 7 17 2 18 1 19 16 20 17 21 18 22 19 23
REMARK SMILES IDX 20 25 21 26 22 27 68 28 23 29 67 30 24 31 25 32 26 33 61 34
REMARK SMILES IDX 27 35 66 36 60 37 62 38 28 39 65 40 59 41 58 42 29 44 51 45
REMARK SMILES IDX 36 46 50 47 37 48 40 49 49 50 63 51 38 52 39 53 48 55 64 56
REMARK SMILES IDX 41 57 30 58 31 59 35 60 32 61 34 62 33 63 52 64 53 65 57 66
REMARK SMILES IDX 54 67 56 68 55 69 42 70 43 71 47 72 44 73 46 74 45 75
REMARK H PARENT 11 8 18 24 62 43 40 54
REMARK Flexibility Score: inf
ROOT
ATOM      1  C   UNL A   1      36.020  21.607  24.377  1.00  0.00     0.002 C 
ENDROOT
BRANCH   1   2
ATOM      2  C   UNL A   1      36.030  22.779  23.387  1.00  0.00     0.002 C 
BRANCH   2   3
ATOM      3  C   UNL A   1      34.896  23.790  23.572  1.00  0.00     0.021 C 
BRANCH   3   4
ATOM      4  C   UNL A   1      34.330  23.821  24.990  1.00  0.00     0.116 C 
BRANCH   4   5
ATOM      5  N   UNL A   1      32.885  23.988  24.978  1.00  0.00    -0.351 N 
ATOM      6  C   UNL A   1      31.874  23.093  24.741  1.00  0.00     0.271 C 
ATOM      7  O   UNL A   1      30.711  23.518  24.772  1.00  0.00    -0.267 OA
ATOM      8  H   UNL A   1      32.580  24.904  25.177  1.00  0.00     0.163 HD
BRANCH   6   9
ATOM      9  C   UNL A   1      32.159  21.681  24.480  1.00  0.00     0.147 A 
ATOM     10  C   UNL A   1      32.944  17.269  24.446  1.00  0.00     0.057 A 
ATOM     11  C   UNL A   1      32.777  17.463  23.005  1.00  0.00     0.038 A 
ATOM     12  C   UNL A   1      32.856  18.295  25.311  1.00  0.00     0.067 A 
ATOM     13  C   UNL A   1      32.520  18.699  22.540  1.00  0.00     0.094 A 
ATOM     14  C   UNL A   1      32.586  19.597  24.814  1.00  0.00     0.138 A 
ATOM     15  N   UNL A   1      32.424  19.753  23.445  1.00  0.00    -0.306 N 
ATOM     16  N   UNL A   1      32.447  20.735  25.444  1.00  0.00    -0.223 NA
ATOM     17  C   UNL A   1      32.160  21.079  23.232  1.00  0.00     0.127 A 
BRANCH  10  18
ATOM     18  C   UNL A   1      33.236  15.870  24.963  1.00  0.00     0.099 C 
ATOM     19  N   UNL A   1      33.478  14.709  25.393  1.00  0.00    -0.192 NA
ENDBRANCH  10  18
ENDBRANCH   6   9
ENDBRANCH   4   5
ENDBRANCH   3   4
ENDBRANCH   2   3
ENDBRANCH   1   2
BRANCH   1  20
ATOM     20  C   UNL A   1      37.399  21.147  24.870  1.00  0.00     0.021 C 
BRANCH  20  21
ATOM     21  C   UNL A   1      38.172  22.204  25.661  1.00  0.00     0.116 C 
BRANCH  21  22
ATOM     22  N   UNL A   1      39.215  21.636  26.491  1.00  0.00    -0.352 N 
ATOM     23  C   UNL A   1      40.138  22.131  27.364  1.00  0.00     0.251 C 
ATOM     24  H   UNL A   1      39.271  20.657  26.402  1.00  0.00     0.163 HD
ATOM     25  O   UNL A   1      40.822  21.293  27.958  1.00  0.00    -0.269 OA
BRANCH  23  26
ATOM     26  C   UNL A   1      40.416  23.574  27.609  1.00  0.00     0.039 A 
ATOM     27  C   UNL A   1      41.556  24.093  28.218  1.00  0.00     0.014 A 
ATOM     28  C   UNL A   1      39.378  24.465  27.264  1.00  0.00     0.014 A 
ATOM     29  C   UNL A   1      41.616  25.441  28.565  1.00  0.00     0.010 A 
ATOM     30  C   UNL A   1      39.438  25.814  27.600  1.00  0.00     0.010 A 
ATOM     31  C   UNL A   1      40.534  26.290  28.305  1.00  0.00    -0.014 A 
BRANCH  31  32
ATOM     32  C   UNL A   1      40.612  27.656  28.817  1.00  0.00     0.031 A 
ATOM     33  C   UNL A   1      41.673  28.525  28.238  1.00  0.00     0.074 A 
ATOM     34  C   UNL A   1      39.802  28.151  29.773  1.00  0.00     0.049 A 
ATOM     35  N   UNL A   1      42.728  28.984  28.831  1.00  0.00    -0.248 NA
ATOM     36  C   UNL A   1      41.585  28.867  26.813  1.00  0.00     0.031 C 
ATOM     37  C   UNL A   1      38.565  27.593  30.325  1.00  0.00     0.029 A 
ATOM     38  N   UNL A   1      39.921  29.343  30.423  1.00  0.00    -0.354 N 
ATOM     39  C   UNL A   1      43.392  29.774  27.896  1.00  0.00     0.074 A 
ATOM     40  C   UNL A   1      42.684  29.608  26.650  1.00  0.00     0.031 C 
ATOM     41  C   UNL A   1      37.940  28.540  31.065  1.00  0.00     0.029 A 
ATOM     42  C   UNL A   1      38.815  29.693  31.177  1.00  0.00     0.049 A 
ATOM     43  H   UNL A   1      40.725  29.906  30.361  1.00  0.00     0.167 HD
ATOM     44  C   UNL A   1      44.412  30.611  28.235  1.00  0.00     0.031 A 
ATOM     45  C   UNL A   1      38.624  30.866  31.825  1.00  0.00     0.031 A 
ATOM     46  C   UNL A   1      44.952  30.319  29.533  1.00  0.00     0.049 A 
ATOM     47  C   UNL A   1      39.957  31.454  32.085  1.00  0.00     0.074 A 
ATOM     48  C   UNL A   1      45.636  29.255  30.084  1.00  0.00     0.029 A 
ATOM     49  N   UNL A   1      44.522  31.076  30.595  1.00  0.00    -0.354 N 
ATOM     50  N   UNL A   1      40.827  30.932  32.900  1.00  0.00    -0.248 NA
ATOM     51  C   UNL A   1      40.490  32.418  31.136  1.00  0.00     0.031 C 
ATOM     52  C   UNL A   1      45.159  29.166  31.423  1.00  0.00     0.029 A 
ATOM     53  C   UNL A   1      44.244  30.203  31.617  1.00  0.00     0.049 A 
ATOM     54  H   UNL A   1      44.432  32.056  30.619  1.00  0.00     0.167 HD
ATOM     55  C   UNL A   1      42.057  31.169  32.307  1.00  0.00     0.074 A 
ATOM     56  C   UNL A   1      41.795  32.178  31.285  1.00  0.00     0.031 C 
ATOM     57  C   UNL A   1      43.118  30.336  32.517  1.00  0.00     0.031 A 
BRANCH  44  58
ATOM     58  C   UNL A   1      44.755  31.876  27.498  1.00  0.00    -0.014 A 
ATOM     59  C   UNL A   1      44.019  33.066  27.647  1.00  0.00     0.009 A 
ATOM     60  C   UNL A   1      45.990  31.973  26.830  1.00  0.00     0.009 A 
ATOM     61  C   UNL A   1      44.485  34.289  27.156  1.00  0.00     0.001 A 
ATOM     62  C   UNL A   1      46.478  33.203  26.371  1.00  0.00     0.001 A 
ATOM     63  C   UNL A   1      45.725  34.361  26.536  1.00  0.00     0.000 A 
ENDBRANCH  44  58
BRANCH  45  64
ATOM     64  C   UNL A   1      37.391  31.681  31.809  1.00  0.00    -0.014 A 
ATOM     65  C   UNL A   1      36.819  32.108  33.024  1.00  0.00     0.009 A 
ATOM     66  C   UNL A   1      36.615  31.788  30.645  1.00  0.00     0.009 A 
ATOM     67  C   UNL A   1      35.505  32.581  33.081  1.00  0.00     0.001 A 
ATOM     68  C   UNL A   1      35.298  32.263  30.703  1.00  0.00     0.001 A 
ATOM     69  C   UNL A   1      34.740  32.642  31.922  1.00  0.00     0.000 A 
ENDBRANCH  45  64
BRANCH  57  70
ATOM     70  C   UNL A   1      42.985  29.257  33.569  1.00  0.00    -0.014 A 
ATOM     71  C   UNL A   1      42.215  28.121  33.277  1.00  0.00     0.009 A 
ATOM     72  C   UNL A   1      43.428  29.435  34.893  1.00  0.00     0.009 A 
ATOM     73  C   UNL A   1      41.883  27.201  34.275  1.00  0.00     0.001 A 
ATOM     74  C   UNL A   1      43.116  28.502  35.888  1.00  0.00     0.001 A 
ATOM     75  C   UNL A   1      42.334  27.392  35.581  1.00  0.00     0.000 A 
ENDBRANCH  57  70
ENDBRANCH  31  32
ENDBRANCH  23  26
ENDBRANCH  21  22
ENDBRANCH  20  21
ENDBRANCH   1  20
TORSDOF 14
ENDMDL
MODEL 2
REMARK VINA RESULT:     -11.0      2.284      4.290
REMARK SMILES N#Cc1ccn2cc(C(=O)NCCCCCCNC(=O)c3ccc(-c4c5nc(c(-c6ccccc6)c6ccc([nH]6)c(-c6ccccc6)c6nc(c(-c7ccccc7)c7ccc4[nH]7)C=C6)C=C5)cc3)nc2c1
REMARK SMILES IDX 15 1 14 2 13 3 12 4 11 5 9 6 10 7 8 9 3 10 4 11 71 12 5 13
REMARK SMILES IDX 70 14 6 15 69 16 7 17 2 18 1 19 16 20 17 21 18 22 19 23
REMARK SMILES IDX 20 25 21 26 22 27 68 28 23 29 67 30 24 31 25 32 26 33 61 34
REMARK SMILES IDX 27 35 66 36 60 37 62 38 28 39 65 40 59 41 58 42 29 44 51 45
REMARK SMILES IDX 36 46 50 47 37 48 40 49 49 50 63 51 38 52 39 53 48 55 64 56
REMARK SMILES IDX 41 57 30 58 31 59 35 60 32 61 34 62 33 63 52 64 53 65 57 66
REMARK SMILES IDX 54 67 56 68 55 69 42 70 43 71 47 72 44 73 46 74 45 75
REMARK H PARENT 11 8 18 24 62 43 40 54
REMARK Flexibility Score: inf
ROOT
ATOM      1  C   UNL A   1      35.819  22.158  24.861  1.00  0.00     0.002 C 
ENDROOT
BRANCH   1   2
ATOM      2  C   UNL A   1      35.602  23.493  25.585  1.00  0.00     0.002 C 
BRANCH   2   3
ATOM      3  C   UNL A   1      34.263  23.622  26.315  1.00  0.00     0.021 C 
BRANCH   3   4
ATOM      4  C   UNL A   1      33.080  23.065  25.525  1.00  0.00     0.116 C 
BRANCH   4   5
ATOM      5  N   UNL A   1      31.892  22.961  26.357  1.00  0.00    -0.351 N 
ATOM      6  C   UNL A   1      30.848  23.827  26.553  1.00  0.00     0.271 C 
ATOM      7  O   UNL A   1      29.962  23.489  27.351  1.00  0.00    -0.267 OA
ATOM      8  H   UNL A   1      31.826  22.121  26.867  1.00  0.00     0.163 HD
BRANCH   6   9
ATOM      9  C   UNL A   1      30.771  25.098  25.830  1.00  0.00     0.147 A 
ATOM     10  C   UNL A   1      29.910  28.682  23.282  1.00  0.00     0.057 A 
ATOM     11  C   UNL A   1      30.898  29.292  24.174  1.00  0.00     0.038 A 
ATOM     12  C   UNL A   1      29.556  27.390  23.399  1.00  0.00     0.067 A 
ATOM     13  C   UNL A   1      31.457  28.539  25.138  1.00  0.00     0.094 A 
ATOM     14  C   UNL A   1      30.149  26.601  24.419  1.00  0.00     0.138 A 
ATOM     15  N   UNL A   1      31.077  27.204  25.256  1.00  0.00    -0.306 N 
ATOM     16  N   UNL A   1      29.966  25.345  24.736  1.00  0.00    -0.223 NA
ATOM     17  C   UNL A   1      31.479  26.246  26.148  1.00  0.00     0.127 A 
BRANCH  10  18
ATOM     18  C   UNL A   1      29.286  29.539  22.193  1.00  0.00     0.099 C 
ATOM     19  N   UNL A   1      28.767  30.250  21.290  1.00  0.00    -0.192 NA
ENDBRANCH  10  18
ENDBRANCH   6   9
ENDBRANCH   4   5
ENDBRANCH   3   4
ENDBRANCH   2   3
ENDBRANCH   1   2
BRANCH   1  20
ATOM     20  C   UNL A   1      37.029  21.339  25.332  1.00  0.00     0.021 C 
BRANCH  20  21
ATOM     21  C   UNL A   1      38.341  22.125  25.386  1.00  0.00     0.116 C 
BRANCH  21  22
ATOM     22  N   UNL A   1      39.312  21.539  26.287  1.00  0.00    -0.352 N 
ATOM     23  C   UNL A   1      40.148  22.012  27.256  1.00  0.00     0.251 C 
ATOM     24  H   UNL A   1      39.387  20.564  26.172  1.00  0.00     0.163 HD
ATOM     25  O   UNL A   1      40.785  21.161  27.881  1.00  0.00    -0.269 OA
BRANCH  23  26
ATOM     26  C   UNL A   1      40.385  23.449  27.571  1.00  0.00     0.039 A 
ATOM     27  C   UNL A   1      41.568  23.988  28.073  1.00  0.00     0.014 A 
ATOM     28  C   UNL A   1      39.272  24.301  27.424  1.00  0.00     0.014 A 
ATOM     29  C   UNL A   1      41.607  25.310  28.509  1.00  0.00     0.010 A 
ATOM     30  C   UNL A   1      39.310  25.626  27.849  1.00  0.00     0.010 A 
ATOM     31  C   UNL A   1      40.463  26.113  28.447  1.00  0.00    -0.014 A 
BRANCH  31  32
ATOM     32  C   UNL A   1      40.541  27.443  29.046  1.00  0.00     0.031 A 
ATOM     33  C   UNL A   1      41.462  28.414  28.395  1.00  0.00     0.074 A 
ATOM     34  C   UNL A   1      39.848  27.821  30.139  1.00  0.00     0.049 A 
ATOM     35  N   UNL A   1      42.564  28.897  28.872  1.00  0.00    -0.248 NA
ATOM     36  C   UNL A   1      41.156  28.846  27.026  1.00  0.00     0.031 C 
ATOM     37  C   UNL A   1      38.733  27.150  30.812  1.00  0.00     0.029 A 
ATOM     38  N   UNL A   1      39.995  28.971  30.855  1.00  0.00    -0.354 N 
ATOM     39  C   UNL A   1      43.047  29.789  27.917  1.00  0.00     0.074 A 
ATOM     40  C   UNL A   1      42.180  29.664  26.771  1.00  0.00     0.031 C 
ATOM     41  C   UNL A   1      38.170  28.004  31.700  1.00  0.00     0.029 A 
ATOM     42  C   UNL A   1      38.990  29.199  31.778  1.00  0.00     0.049 A 
ATOM     43  H   UNL A   1      40.752  29.586  30.727  1.00  0.00     0.167 HD
ATOM     44  C   UNL A   1      44.059  30.664  28.176  1.00  0.00     0.031 A 
ATOM     45  C   UNL A   1      38.831  30.311  32.534  1.00  0.00     0.031 A 
ATOM     46  C   UNL A   1      44.792  30.319  29.362  1.00  0.00     0.049 A 
ATOM     47  C   UNL A   1      40.154  30.963  32.652  1.00  0.00     0.074 A 
ATOM     48  C   UNL A   1      45.602  29.265  29.731  1.00  0.00     0.029 A 
ATOM     49  N   UNL A   1      44.477  30.973  30.527  1.00  0.00    -0.354 N 
ATOM     50  N   UNL A   1      41.157  30.442  33.298  1.00  0.00    -0.248 NA
ATOM     51  C   UNL A   1      40.497  32.020  31.715  1.00  0.00     0.031 C 
ATOM     52  C   UNL A   1      45.324  29.055  31.112  1.00  0.00     0.029 A 
ATOM     53  C   UNL A   1      44.392  30.017  31.508  1.00  0.00     0.049 A 
ATOM     54  H   UNL A   1      44.340  31.941  30.637  1.00  0.00     0.167 HD
ATOM     55  C   UNL A   1      42.277  30.795  32.562  1.00  0.00     0.074 A 
ATOM     56  C   UNL A   1      41.821  31.853  31.666  1.00  0.00     0.031 C 
ATOM     57  C   UNL A   1      43.400  30.017  32.561  1.00  0.00     0.031 A 
BRANCH  44  58
ATOM     58  C   UNL A   1      44.229  31.995  27.497  1.00  0.00    -0.014 A 
ATOM     59  C   UNL A   1      44.599  32.117  26.146  1.00  0.00     0.009 A 
ATOM     60  C   UNL A   1      43.766  33.160  28.137  1.00  0.00     0.009 A 
ATOM     61  C   UNL A   1      44.515  33.334  25.464  1.00  0.00     0.001 A 
ATOM     62  C   UNL A   1      43.644  34.373  27.446  1.00  0.00     0.001 A 
ATOM     63  C   UNL A   1      44.017  34.458  26.109  1.00  0.00     0.000 A 
ENDBRANCH  44  58
BRANCH  45  64
ATOM     64  C   UNL A   1      37.567  31.047  32.749  1.00  0.00    -0.014 A 
ATOM     65  C   UNL A   1      36.677  31.238  31.675  1.00  0.00     0.009 A 
ATOM     66  C   UNL A   1      37.371  31.811  33.910  1.00  0.00     0.009 A 
ATOM     67  C   UNL A   1      35.657  32.192  31.739  1.00  0.00     0.001 A 
ATOM     68  C   UNL A   1      36.346  32.765  33.973  1.00  0.00     0.001 A 
ATOM     69  C   UNL A   1      35.502  32.966  32.883  1.00  0.00     0.000 A 
ENDBRANCH  45  64
BRANCH  57  70
ATOM     70  C   UNL A   1      43.473  28.864  33.537  1.00  0.00    -0.014 A 
ATOM     71  C   UNL A   1      44.316  28.977  34.653  1.00  0.00     0.009 A 
ATOM     72  C   UNL A   1      42.894  27.610  33.268  1.00  0.00     0.009 A 
ATOM     73  C   UNL A   1      44.586  27.872  35.465  1.00  0.00     0.001 A 
ATOM     74  C   UNL A   1      43.145  26.510  34.095  1.00  0.00     0.001 A 
ATOM     75  C   UNL A   1      44.000  26.638  35.186  1.00  0.00     0.000 A 
ENDBRANCH  57  70
ENDBRANCH  31  32
ENDBRANCH  23  26
ENDBRANCH  21  22
ENDBRANCH  20  21
ENDBRANCH   1  20
TORSDOF 14
ENDMDL
MODEL 3
REMARK VINA RESULT:     -10.9      2.745      4.673
REMARK SMILES N#Cc1ccn2cc(C(=O)NCCCCCCNC(=O)c3ccc(-c4c5nc(c(-c6ccccc6)c6ccc([nH]6)c(-c6ccccc6)c6nc(c(-c7ccccc7)c7ccc4[nH]7)C=C6)C=C5)cc3)nc2c1
REMARK SMILES IDX 15 1 14 2 13 3 12 4 11 5 9 6 10 7 8 9 3 10 4 11 71 12 5 13
REMARK SMILES IDX 70 14 6 15 69 16 7 17 2 18 1 19 16 20 17 21 18 22 19 23
REMARK SMILES IDX 20 25 21 26 22 27 68 28 23 29 67 30 24 31 25 32 26 33 61 34
REMARK SMILES IDX 27 35 66 36 60 37 62 38 28 39 65 40 59 41 58 42 29 44 51 45
REMARK SMILES IDX 36 46 50 47 37 48 40 49 49 50 63 51 38 52 39 53 48 55 64 56
REMARK SMILES IDX 41 57 30 58 31 59 35 60 32 61 34 62 33 63 52 64 53 65 57 66
REMARK SMILES IDX 54 67 56 68 55 69 42 70 43 71 47 72 44 73 46 74 45 75
REMARK H PARENT 11 8 18 24 62 43 40 54
REMARK Flexibility Score: inf
ROOT
ATOM      1  C   UNL A   1      36.127  22.677  23.828  1.00  0.00     0.002 C 
ENDROOT
BRANCH   1   2
ATOM      2  C   UNL A   1      34.691  22.419  24.303  1.00  0.00     0.002 C 
BRANCH   2   3
ATOM      3  C   UNL A   1      33.926  23.666  24.754  1.00  0.00     0.021 C 
BRANCH   3   4
ATOM      4  C   UNL A   1      32.687  23.961  23.912  1.00  0.00     0.116 C 
BRANCH   4   5
ATOM      5  N   UNL A   1      33.041  24.224  22.526  1.00  0.00    -0.351 N 
ATOM      6  C   UNL A   1      32.817  25.316  21.728  1.00  0.00     0.271 C 
ATOM      7  O   UNL A   1      33.213  25.262  20.555  1.00  0.00    -0.267 OA
ATOM      8  H   UNL A   1      33.527  23.489  22.085  1.00  0.00     0.163 HD
BRANCH   6   9
ATOM      9  C   UNL A   1      32.151  26.511  22.249  1.00  0.00     0.147 A 
ATOM     10  C   UNL A   1      29.499  29.920  23.443  1.00  0.00     0.057 A 
ATOM     11  C   UNL A   1      30.577  30.146  24.408  1.00  0.00     0.038 A 
ATOM     12  C   UNL A   1      29.549  28.915  22.551  1.00  0.00     0.067 A 
ATOM     13  C   UNL A   1      31.639  29.319  24.403  1.00  0.00     0.094 A 
ATOM     14  C   UNL A   1      30.672  28.047  22.550  1.00  0.00     0.138 A 
ATOM     15  N   UNL A   1      31.677  28.277  23.480  1.00  0.00    -0.306 N 
ATOM     16  N   UNL A   1      30.944  27.010  21.800  1.00  0.00    -0.223 NA
ATOM     17  C   UNL A   1      32.621  27.306  23.282  1.00  0.00     0.127 A 
BRANCH  10  18
ATOM     18  C   UNL A   1      28.305  30.860  23.454  1.00  0.00     0.099 C 
ATOM     19  N   UNL A   1      27.314  31.639  23.463  1.00  0.00    -0.192 NA
ENDBRANCH  10  18
ENDBRANCH   6   9
ENDBRANCH   4   5
ENDBRANCH   3   4
ENDBRANCH   2   3
ENDBRANCH   1   2
BRANCH   1  20
ATOM     20  C   UNL A   1      37.180  21.679  24.331  1.00  0.00     0.021 C 
BRANCH  20  21
ATOM     21  C   UNL A   1      37.722  21.983  25.729  1.00  0.00     0.116 C 
BRANCH  21  22
ATOM     22  N   UNL A   1      39.148  21.760  25.841  1.00  0.00    -0.352 N 
ATOM     23  C   UNL A   1      40.187  22.402  26.451  1.00  0.00     0.251 C 
ATOM     24  H   UNL A   1      39.438  20.951  25.362  1.00  0.00     0.163 HD
ATOM     25  O   UNL A   1      41.282  21.838  26.384  1.00  0.00    -0.269 OA
BRANCH  23  26
ATOM     26  C   UNL A   1      40.111  23.727  27.127  1.00  0.00     0.039 A 
ATOM     27  C   UNL A   1      39.086  24.660  26.981  1.00  0.00     0.014 A 
ATOM     28  C   UNL A   1      41.230  24.080  27.909  1.00  0.00     0.014 A 
ATOM     29  C   UNL A   1      39.221  25.940  27.512  1.00  0.00     0.010 A 
ATOM     30  C   UNL A   1      41.364  25.355  28.451  1.00  0.00     0.010 A 
ATOM     31  C   UNL A   1      40.383  26.305  28.202  1.00  0.00    -0.014 A 
BRANCH  31  32
ATOM     32  C   UNL A   1      40.511  27.700  28.612  1.00  0.00     0.031 A 
ATOM     33  C   UNL A   1      41.611  28.482  27.983  1.00  0.00     0.074 A 
ATOM     34  C   UNL A   1      39.713  28.297  29.520  1.00  0.00     0.049 A 
ATOM     35  N   UNL A   1      42.678  28.942  28.554  1.00  0.00    -0.248 NA
ATOM     36  C   UNL A   1      41.549  28.720  26.537  1.00  0.00     0.031 C 
ATOM     37  C   UNL A   1      38.450  27.831  30.098  1.00  0.00     0.029 A 
ATOM     38  N   UNL A   1      39.875  29.528  30.082  1.00  0.00    -0.354 N 
ATOM     39  C   UNL A   1      43.381  29.633  27.570  1.00  0.00     0.074 A 
ATOM     40  C   UNL A   1      42.678  29.403  26.332  1.00  0.00     0.031 C 
ATOM     41  C   UNL A   1      37.857  28.853  30.759  1.00  0.00     0.029 A 
ATOM     42  C   UNL A   1      38.777  29.977  30.795  1.00  0.00     0.049 A 
ATOM     43  H   UNL A   1      40.701  30.053  29.987  1.00  0.00     0.167 HD
ATOM     44  C   UNL A   1      44.431  30.453  27.858  1.00  0.00     0.031 A 
ATOM     45  C   UNL A   1      38.628  31.201  31.353  1.00  0.00     0.031 A 
ATOM     46  C   UNL A   1      44.948  30.237  29.181  1.00  0.00     0.049 A 
ATOM     47  C   UNL A   1      39.981  31.754  31.584  1.00  0.00     0.074 A 
ATOM     48  C   UNL A   1      45.585  29.191  29.816  1.00  0.00     0.029 A 
ATOM     49  N   UNL A   1      44.540  31.087  30.179  1.00  0.00    -0.354 N 
ATOM     50  N   UNL A   1      40.822  31.260  32.445  1.00  0.00    -0.248 NA
ATOM     51  C   UNL A   1      40.560  32.623  30.572  1.00  0.00     0.031 C 
ATOM     52  C   UNL A   1      45.093  29.220  31.153  1.00  0.00     0.029 A 
ATOM     53  C   UNL A   1      44.218  30.304  31.259  1.00  0.00     0.049 A 
ATOM     54  H   UNL A   1      44.489  32.068  30.129  1.00  0.00     0.167 HD
ATOM     55  C   UNL A   1      42.066  31.403  31.851  1.00  0.00     0.074 A 
ATOM     56  C   UNL A   1      41.854  32.344  30.754  1.00  0.00     0.031 C 
ATOM     57  C   UNL A   1      43.091  30.546  32.134  1.00  0.00     0.031 A 
BRANCH  44  58
ATOM     58  C   UNL A   1      44.832  31.645  27.034  1.00  0.00    -0.014 A 
ATOM     59  C   UNL A   1      43.894  32.473  26.391  1.00  0.00     0.009 A 
ATOM     60  C   UNL A   1      46.157  32.116  27.098  1.00  0.00     0.009 A 
ATOM     61  C   UNL A   1      44.254  33.706  25.838  1.00  0.00     0.001 A 
ATOM     62  C   UNL A   1      46.513  33.368  26.580  1.00  0.00     0.001 A 
ATOM     63  C   UNL A   1      45.560  34.163  25.953  1.00  0.00     0.000 A 
ENDBRANCH  44  58
BRANCH  45  64
ATOM     64  C   UNL A   1      37.429  32.060  31.263  1.00  0.00    -0.014 A 
ATOM     65  C   UNL A   1      36.420  31.958  32.240  1.00  0.00     0.009 A 
ATOM     66  C   UNL A   1      37.130  32.755  30.081  1.00  0.00     0.009 A 
ATOM     67  C   UNL A   1      35.145  32.489  32.025  1.00  0.00     0.001 A 
ATOM     68  C   UNL A   1      35.852  33.288  29.867  1.00  0.00     0.001 A 
ATOM     69  C   UNL A   1      34.857  33.140  30.831  1.00  0.00     0.000 A 
ENDBRANCH  45  64
BRANCH  57  70
ATOM     70  C   UNL A   1      42.906  29.555  33.261  1.00  0.00    -0.014 A 
ATOM     71  C   UNL A   1      42.104  28.425  33.041  1.00  0.00     0.009 A 
ATOM     72  C   UNL A   1      43.333  29.819  34.576  1.00  0.00     0.009 A 
ATOM     73  C   UNL A   1      41.726  27.594  34.099  1.00  0.00     0.001 A 
ATOM     74  C   UNL A   1      42.974  28.973  35.631  1.00  0.00     0.001 A 
ATOM     75  C   UNL A   1      42.161  27.868  35.394  1.00  0.00     0.000 A 
ENDBRANCH  57  70
ENDBRANCH  31  32
ENDBRANCH  23  26
ENDBRANCH  21  22
ENDBRANCH  20  21
ENDBRANCH   1  20
TORSDOF 14
ENDMDL
