MODEL 1
REMARK VINA RESULT:     -10.8      0.000      0.000
REMARK SMILES CCN1C(=O)CC[C@H](C(=O)NCCCCCCNC(=O)c2ccc(-c3c4nc(c(-c5ccccc5)c5ccc([nH]5)c(-c5ccccc5)c5nc(c(-c6ccccc6)c6ccc3[nH]6)C=C5)C=C4)cc2)[C@@H]1c1ccc(OC)cc1
REMARK SMILES IDX 14 1 13 2 12 3 11 4 9 5 10 6 8 8 3 9 4 10 69 11 5 12 6 13
REMARK SMILES IDX 7 14 2 15 1 16 70 17 71 18 77 19 72 20 76 21 73 22 74 23
REMARK SMILES IDX 75 24 15 25 16 26 17 27 18 28 19 29 20 31 21 32 22 33 68 34
REMARK SMILES IDX 23 35 67 36 24 37 25 38 26 39 61 40 27 41 66 42 60 43 62 44
REMARK SMILES IDX 28 45 65 46 59 47 58 48 29 50 51 51 36 52 50 53 37 54 40 55
REMARK SMILES IDX 49 56 63 57 38 58 39 59 48 61 64 62 41 63 30 64 31 65 35 66
REMARK SMILES IDX 32 67 34 68 33 69 52 70 53 71 57 72 54 73 56 74 55 75 42 76
REMARK SMILES IDX 43 77 47 78 44 79 46 80 45 81
REMARK H PARENT 11 7 18 30 62 49 40 60
REMARK Flexibility Score: inf
ROOT
ATOM      1  C   UNL A   1      30.467  26.727  25.569  1.00  0.00     0.002 C 
ENDROOT
BRANCH   1   2
ATOM      2  C   UNL A   1      29.874  26.597  24.162  1.00  0.00     0.021 C 
BRANCH   2   3
ATOM      3  C   UNL A   1      30.491  25.486  23.325  1.00  0.00     0.116 C 
BRANCH   3   4
ATOM      4  N   UNL A   1      30.343  24.169  23.905  1.00  0.00    -0.356 N 
ATOM      5  C   UNL A   1      31.178  23.468  24.716  1.00  0.00     0.225 C 
ATOM      6  O   UNL A   1      30.680  22.538  25.359  1.00  0.00    -0.275 OA
ATOM      7  H   UNL A   1      29.503  23.707  23.674  1.00  0.00     0.163 HD
BRANCH   5   8
ATOM      8  C   UNL A   1      32.665  23.774  24.871  1.00  0.00     0.106 C 
ATOM      9  N   UNL A   1      35.063  23.073  24.512  1.00  0.00    -0.335 N 
ATOM     10  C   UNL A   1      35.503  23.974  25.473  1.00  0.00     0.223 C 
ATOM     11  C   UNL A   1      33.636  22.757  24.234  1.00  0.00     0.128 C 
ATOM     12  O   UNL A   1      36.699  24.163  25.706  1.00  0.00    -0.275 OA
ATOM     13  C   UNL A   1      34.481  24.843  26.172  1.00  0.00     0.101 C 
ATOM     14  C   UNL A   1      33.101  24.233  26.254  1.00  0.00     0.026 C 
BRANCH   9  15
ATOM     15  C   UNL A   1      36.085  22.472  23.644  1.00  0.00     0.117 C 
ATOM     16  C   UNL A   1      36.970  21.437  24.329  1.00  0.00     0.027 C 
ENDBRANCH   9  15
BRANCH  11  17
ATOM     17  C   UNL A   1      33.297  21.287  24.470  1.00  0.00    -0.024 A 
ATOM     18  C   UNL A   1      33.497  20.648  25.700  1.00  0.00     0.010 A 
ATOM     19  C   UNL A   1      32.729  20.538  23.423  1.00  0.00     0.010 A 
ATOM     20  C   UNL A   1      33.125  19.308  25.876  1.00  0.00     0.047 A 
ATOM     21  C   UNL A   1      32.333  19.206  23.608  1.00  0.00     0.047 A 
ATOM     22  C   UNL A   1      32.513  18.591  24.845  1.00  0.00     0.118 A 
BRANCH  22  23
ATOM     23  O   UNL A   1      32.130  17.320  25.169  1.00  0.00    -0.497 OA
ATOM     24  C   UNL A   1      33.082  16.288  24.931  1.00  0.00     0.278 C 
ENDBRANCH  22  23
ENDBRANCH  11  17
ENDBRANCH   5   8
ENDBRANCH   3   4
ENDBRANCH   2   3
ENDBRANCH   1   2
BRANCH   1  25
ATOM     25  C   UNL A   1      31.731  27.589  25.686  1.00  0.00     0.002 C 
BRANCH  25  26
ATOM     26  C   UNL A   1      32.194  27.905  27.111  1.00  0.00     0.021 C 
BRANCH  26  27
ATOM     27  C   UNL A   1      33.583  28.519  27.218  1.00  0.00     0.116 C 
BRANCH  27  28
ATOM     28  N   UNL A   1      33.527  29.929  27.560  1.00  0.00    -0.352 N 
ATOM     29  C   UNL A   1      34.454  30.722  28.186  1.00  0.00     0.251 C 
ATOM     30  H   UNL A   1      32.694  30.386  27.302  1.00  0.00     0.163 HD
ATOM     31  O   UNL A   1      34.129  31.839  28.578  1.00  0.00    -0.269 OA
BRANCH  29  32
ATOM     32  C   UNL A   1      35.838  30.242  28.404  1.00  0.00     0.039 A 
ATOM     33  C   UNL A   1      36.182  29.731  29.659  1.00  0.00     0.014 A 
ATOM     34  C   UNL A   1      36.810  30.338  27.404  1.00  0.00     0.014 A 
ATOM     35  C   UNL A   1      37.483  29.282  29.896  1.00  0.00     0.010 A 
ATOM     36  C   UNL A   1      38.081  29.812  27.613  1.00  0.00     0.010 A 
ATOM     37  C   UNL A   1      38.438  29.297  28.868  1.00  0.00    -0.014 A 
BRANCH  37  38
ATOM     38  C   UNL A   1      39.824  28.816  29.095  1.00  0.00     0.031 A 
ATOM     39  C   UNL A   1      40.847  29.732  29.713  1.00  0.00     0.074 A 
ATOM     40  C   UNL A   1      40.179  27.580  28.696  1.00  0.00     0.049 A 
ATOM     41  N   UNL A   1      42.120  29.521  29.932  1.00  0.00    -0.248 NA
ATOM     42  C   UNL A   1      40.385  31.072  30.112  1.00  0.00     0.031 C 
ATOM     43  C   UNL A   1      39.295  26.611  28.045  1.00  0.00     0.029 A 
ATOM     44  N   UNL A   1      41.384  26.929  28.776  1.00  0.00    -0.354 N 
ATOM     45  C   UNL A   1      42.614  30.706  30.463  1.00  0.00     0.074 A 
ATOM     46  C   UNL A   1      41.516  31.648  30.490  1.00  0.00     0.031 C 
ATOM     47  C   UNL A   1      39.980  25.479  27.815  1.00  0.00     0.029 A 
ATOM     48  C   UNL A   1      41.356  25.655  28.267  1.00  0.00     0.049 A 
ATOM     49  H   UNL A   1      42.192  27.338  29.163  1.00  0.00     0.167 HD
ATOM     50  C   UNL A   1      43.862  30.983  30.910  1.00  0.00     0.031 A 
ATOM     51  C   UNL A   1      42.330  24.731  28.173  1.00  0.00     0.031 A 
ATOM     52  C   UNL A   1      44.947  30.040  30.912  1.00  0.00     0.049 A 
ATOM     53  C   UNL A   1      43.702  25.054  28.694  1.00  0.00     0.074 A 
ATOM     54  C   UNL A   1      46.233  30.204  31.395  1.00  0.00     0.029 A 
ATOM     55  N   UNL A   1      44.869  28.751  30.410  1.00  0.00    -0.354 N 
ATOM     56  N   UNL A   1      44.137  26.162  29.246  1.00  0.00    -0.248 NA
ATOM     57  C   UNL A   1      44.714  23.994  28.591  1.00  0.00     0.031 C 
ATOM     58  C   UNL A   1      46.945  29.024  31.153  1.00  0.00     0.029 A 
ATOM     59  C   UNL A   1      46.088  28.112  30.561  1.00  0.00     0.049 A 
ATOM     60  H   UNL A   1      44.067  28.349  30.005  1.00  0.00     0.167 HD
ATOM     61  C   UNL A   1      45.463  25.922  29.580  1.00  0.00     0.074 A 
ATOM     62  C   UNL A   1      45.756  24.560  29.184  1.00  0.00     0.031 C 
ATOM     63  C   UNL A   1      46.359  26.756  30.163  1.00  0.00     0.031 A 
BRANCH  50  64
ATOM     64  C   UNL A   1      44.114  32.369  31.436  1.00  0.00    -0.014 A 
ATOM     65  C   UNL A   1      44.635  33.377  30.607  1.00  0.00     0.009 A 
ATOM     66  C   UNL A   1      43.807  32.678  32.770  1.00  0.00     0.009 A 
ATOM     67  C   UNL A   1      44.881  34.654  31.116  1.00  0.00     0.001 A 
ATOM     68  C   UNL A   1      44.026  33.965  33.267  1.00  0.00     0.001 A 
ATOM     69  C   UNL A   1      44.573  34.948  32.443  1.00  0.00     0.000 A 
ENDBRANCH  50  64
BRANCH  51  70
ATOM     70  C   UNL A   1      42.037  23.397  27.588  1.00  0.00    -0.014 A 
ATOM     71  C   UNL A   1      42.321  23.138  26.239  1.00  0.00     0.009 A 
ATOM     72  C   UNL A   1      41.470  22.381  28.372  1.00  0.00     0.009 A 
ATOM     73  C   UNL A   1      42.018  21.895  25.679  1.00  0.00     0.001 A 
ATOM     74  C   UNL A   1      41.193  21.130  27.815  1.00  0.00     0.001 A 
ATOM     75  C   UNL A   1      41.459  20.891  26.468  1.00  0.00     0.000 A 
ENDBRANCH  51  70
BRANCH  63  76
ATOM     76  C   UNL A   1      47.727  26.201  30.438  1.00  0.00    -0.014 A 
ATOM     77  C   UNL A   1      48.708  26.148  29.436  1.00  0.00     0.009 A 
ATOM     78  C   UNL A   1      48.046  25.755  31.730  1.00  0.00     0.009 A 
ATOM     79  C   UNL A   1      49.971  25.625  29.714  1.00  0.00     0.001 A 
ATOM     80  C   UNL A   1      49.319  25.258  32.012  1.00  0.00     0.001 A 
ATOM     81  C   UNL A   1      50.277  25.185  31.002  1.00  0.00     0.000 A 
ENDBRANCH  63  76
ENDBRANCH  37  38
ENDBRANCH  29  32
ENDBRANCH  27  28
ENDBRANCH  26  27
ENDBRANCH  25  26
ENDBRANCH   1  25
TORSDOF 16
ENDMDL
MODEL 2
REMARK VINA RESULT:     -10.8      3.418      7.981
REMARK SMILES CCN1C(=O)CC[C@H](C(=O)NCCCCCCNC(=O)c2ccc(-c3c4nc(c(-c5ccccc5)c5ccc([nH]5)c(-c5ccccc5)c5nc(c(-c6ccccc6)c6ccc3[nH]6)C=C5)C=C4)cc2)[C@@H]1c1ccc(OC)cc1
REMARK SMILES IDX 14 1 13 2 12 3 11 4 9 5 10 6 8 8 3 9 4 10 69 11 5 12 6 13
REMARK SMILES IDX 7 14 2 15 1 16 70 17 71 18 77 19 72 20 76 21 73 22 74 23
REMARK SMILES IDX 75 24 15 25 16 26 17 27 18 28 19 29 20 31 21 32 22 33 68 34
REMARK SMILES IDX 23 35 67 36 24 37 25 38 26 39 61 40 27 41 66 42 60 43 62 44
REMARK SMILES IDX 28 45 65 46 59 47 58 48 29 50 51 51 36 52 50 53 37 54 40 55
REMARK SMILES IDX 49 56 63 57 38 58 39 59 48 61 64 62 41 63 30 64 31 65 35 66
REMARK SMILES IDX 32 67 34 68 33 69 52 70 53 71 57 72 54 73 56 74 55 75 42 76
REMARK SMILES IDX 43 77 47 78 44 79 46 80 45 81
REMARK H PARENT 11 7 18 30 62 49 40 60
REMARK Flexibility Score: inf
ROOT
ATOM      1  C   UNL A   1      33.954  29.343  27.259  1.00  0.00     0.002 C 
ENDROOT
BRANCH   1   2
ATOM      2  C   UNL A   1      32.495  28.877  27.221  1.00  0.00     0.021 C 
BRANCH   2   3
ATOM      3  C   UNL A   1      32.322  27.366  27.222  1.00  0.00     0.116 C 
BRANCH   3   4
ATOM      4  N   UNL A   1      31.001  26.930  26.822  1.00  0.00    -0.356 N 
ATOM      5  C   UNL A   1      30.613  26.159  25.773  1.00  0.00     0.225 C 
ATOM      6  O   UNL A   1      29.495  25.636  25.850  1.00  0.00    -0.275 OA
ATOM      7  H   UNL A   1      30.269  27.243  27.401  1.00  0.00     0.163 HD
BRANCH   5   8
ATOM      8  C   UNL A   1      31.474  25.909  24.538  1.00  0.00     0.106 C 
ATOM      9  N   UNL A   1      32.680  26.834  22.523  1.00  0.00    -0.335 N 
ATOM     10  C   UNL A   1      32.720  25.578  21.931  1.00  0.00     0.223 C 
ATOM     11  C   UNL A   1      31.930  27.164  23.764  1.00  0.00     0.128 C 
ATOM     12  O   UNL A   1      33.310  25.364  20.870  1.00  0.00    -0.275 OA
ATOM     13  C   UNL A   1      32.120  24.406  22.678  1.00  0.00     0.101 C 
ATOM     14  C   UNL A   1      31.007  24.782  23.629  1.00  0.00     0.026 C 
BRANCH   9  15
ATOM     15  C   UNL A   1      33.526  27.877  21.929  1.00  0.00     0.117 C 
ATOM     16  C   UNL A   1      34.390  28.638  22.928  1.00  0.00     0.027 C 
ENDBRANCH   9  15
BRANCH  11  17
ATOM     17  C   UNL A   1      30.856  28.227  23.543  1.00  0.00    -0.024 A 
ATOM     18  C   UNL A   1      29.727  28.014  22.744  1.00  0.00     0.010 A 
ATOM     19  C   UNL A   1      30.979  29.471  24.192  1.00  0.00     0.010 A 
ATOM     20  C   UNL A   1      28.748  29.008  22.612  1.00  0.00     0.047 A 
ATOM     21  C   UNL A   1      29.987  30.454  24.080  1.00  0.00     0.047 A 
ATOM     22  C   UNL A   1      28.855  30.217  23.303  1.00  0.00     0.118 A 
BRANCH  22  23
ATOM     23  O   UNL A   1      27.798  31.070  23.150  1.00  0.00    -0.497 OA
ATOM     24  C   UNL A   1      27.993  32.175  22.272  1.00  0.00     0.278 C 
ENDBRANCH  22  23
ENDBRANCH  11  17
ENDBRANCH   5   8
ENDBRANCH   3   4
ENDBRANCH   2   3
ENDBRANCH   1   2
BRANCH   1  25
ATOM     25  C   UNL A   1      34.174  30.832  27.560  1.00  0.00     0.002 C 
BRANCH  25  26
ATOM     26  C   UNL A   1      32.907  31.681  27.697  1.00  0.00     0.021 C 
BRANCH  26  27
ATOM     27  C   UNL A   1      32.943  33.019  26.973  1.00  0.00     0.116 C 
BRANCH  27  28
ATOM     28  N   UNL A   1      32.634  34.124  27.862  1.00  0.00    -0.352 N 
ATOM     29  C   UNL A   1      33.250  34.524  29.021  1.00  0.00     0.251 C 
ATOM     30  H   UNL A   1      31.862  34.672  27.591  1.00  0.00     0.163 HD
ATOM     31  O   UNL A   1      32.704  35.353  29.742  1.00  0.00    -0.269 OA
BRANCH  29  32
ATOM     32  C   UNL A   1      34.560  33.958  29.415  1.00  0.00     0.039 A 
ATOM     33  C   UNL A   1      34.622  33.125  30.536  1.00  0.00     0.014 A 
ATOM     34  C   UNL A   1      35.732  34.280  28.724  1.00  0.00     0.014 A 
ATOM     35  C   UNL A   1      35.847  32.587  30.938  1.00  0.00     0.010 A 
ATOM     36  C   UNL A   1      36.936  33.676  29.073  1.00  0.00     0.010 A 
ATOM     37  C   UNL A   1      37.011  32.839  30.196  1.00  0.00    -0.014 A 
BRANCH  37  38
ATOM     38  C   UNL A   1      38.321  32.271  30.600  1.00  0.00     0.031 A 
ATOM     39  C   UNL A   1      38.806  30.984  29.986  1.00  0.00     0.074 A 
ATOM     40  C   UNL A   1      39.050  32.878  31.556  1.00  0.00     0.049 A 
ATOM     41  N   UNL A   1      39.888  30.296  30.254  1.00  0.00    -0.248 NA
ATOM     42  C   UNL A   1      37.948  30.374  28.957  1.00  0.00     0.031 C 
ATOM     43  C   UNL A   1      38.673  34.105  32.260  1.00  0.00     0.029 A 
ATOM     44  N   UNL A   1      40.262  32.539  32.103  1.00  0.00    -0.354 N 
ATOM     45  C   UNL A   1      39.824  29.164  29.450  1.00  0.00     0.074 A 
ATOM     46  C   UNL A   1      38.576  29.232  28.722  1.00  0.00     0.031 C 
ATOM     47  C   UNL A   1      39.649  34.433  33.123  1.00  0.00     0.029 A 
ATOM     48  C   UNL A   1      40.700  33.422  33.059  1.00  0.00     0.049 A 
ATOM     49  H   UNL A   1      40.769  31.739  31.836  1.00  0.00     0.167 HD
ATOM     50  C   UNL A   1      40.730  28.167  29.312  1.00  0.00     0.031 A 
ATOM     51  C   UNL A   1      41.822  33.417  33.802  1.00  0.00     0.031 A 
ATOM     52  C   UNL A   1      41.983  28.112  30.013  1.00  0.00     0.049 A 
ATOM     53  C   UNL A   1      42.822  32.311  33.618  1.00  0.00     0.074 A 
ATOM     54  C   UNL A   1      42.995  27.175  29.901  1.00  0.00     0.029 A 
ATOM     55  N   UNL A   1      42.399  29.040  30.954  1.00  0.00    -0.354 N 
ATOM     56  N   UNL A   1      42.770  31.277  32.812  1.00  0.00    -0.248 NA
ATOM     57  C   UNL A   1      44.040  32.379  34.436  1.00  0.00     0.031 C 
ATOM     58  C   UNL A   1      44.010  27.517  30.802  1.00  0.00     0.029 A 
ATOM     59  C   UNL A   1      43.648  28.692  31.440  1.00  0.00     0.049 A 
ATOM     60  H   UNL A   1      41.883  29.830  31.236  1.00  0.00     0.167 HD
ATOM     61  C   UNL A   1      43.960  30.588  33.006  1.00  0.00     0.074 A 
ATOM     62  C   UNL A   1      44.718  31.329  33.993  1.00  0.00     0.031 C 
ATOM     63  C   UNL A   1      44.387  29.443  32.420  1.00  0.00     0.031 A 
BRANCH  50  64
ATOM     64  C   UNL A   1      40.389  27.053  28.362  1.00  0.00    -0.014 A 
ATOM     65  C   UNL A   1      40.857  27.059  27.037  1.00  0.00     0.009 A 
ATOM     66  C   UNL A   1      39.610  25.972  28.801  1.00  0.00     0.009 A 
ATOM     67  C   UNL A   1      40.516  26.026  26.161  1.00  0.00     0.001 A 
ATOM     68  C   UNL A   1      39.295  24.925  27.931  1.00  0.00     0.001 A 
ATOM     69  C   UNL A   1      39.740  24.959  26.610  1.00  0.00     0.000 A 
ENDBRANCH  50  64
BRANCH  51  70
ATOM     70  C   UNL A   1      42.076  34.515  34.771  1.00  0.00    -0.014 A 
ATOM     71  C   UNL A   1      41.638  34.403  36.099  1.00  0.00     0.009 A 
ATOM     72  C   UNL A   1      42.754  35.677  34.374  1.00  0.00     0.009 A 
ATOM     73  C   UNL A   1      41.849  35.446  37.004  1.00  0.00     0.001 A 
ATOM     74  C   UNL A   1      42.988  36.707  35.288  1.00  0.00     0.001 A 
ATOM     75  C   UNL A   1      42.528  36.595  36.599  1.00  0.00     0.000 A 
ENDBRANCH  51  70
BRANCH  63  76
ATOM     76  C   UNL A   1      45.750  28.947  32.807  1.00  0.00    -0.014 A 
ATOM     77  C   UNL A   1      46.901  29.370  32.124  1.00  0.00     0.009 A 
ATOM     78  C   UNL A   1      45.885  28.066  33.891  1.00  0.00     0.009 A 
ATOM     79  C   UNL A   1      48.157  28.892  32.498  1.00  0.00     0.001 A 
ATOM     80  C   UNL A   1      47.145  27.611  34.280  1.00  0.00     0.001 A 
ATOM     81  C   UNL A   1      48.279  28.017  33.578  1.00  0.00     0.000 A 
ENDBRANCH  63  76
ENDBRANCH  37  38
ENDBRANCH  29  32
ENDBRANCH  27  28
ENDBRANCH  26  27
ENDBRANCH  25  26
ENDBRANCH   1  25
TORSDOF 16
ENDMDL
MODEL 3
REMARK VINA RESULT:     -10.7      2.709      8.266
REMARK SMILES CCN1C(=O)CC[C@H](C(=O)NCCCCCCNC(=O)c2ccc(-c3c4nc(c(-c5ccccc5)c5ccc([nH]5)c(-c5ccccc5)c5nc(c(-c6ccccc6)c6ccc3[nH]6)C=C5)C=C4)cc2)[C@@H]1c1ccc(OC)cc1
REMARK SMILES IDX 14 1 13 2 12 3 11 4 9 5 10 6 8 8 3 9 4 10 69 11 5 12 6 13
REMARK SMILES IDX 7 14 2 15 1 16 70 17 71 18 77 19 72 20 76 21 73 22 74 23
REMARK SMILES IDX 75 24 15 25 16 26 17 27 18 28 19 29 20 31 21 32 22 33 68 34
REMARK SMILES IDX 23 35 67 36 24 37 25 38 26 39 61 40 27 41 66 42 60 43 62 44
REMARK SMILES IDX 28 45 65 46 59 47 58 48 29 50 51 51 36 52 50 53 37 54 40 55
REMARK SMILES IDX 49 56 63 57 38 58 39 59 48 61 64 62 41 63 30 64 31 65 35 66
REMARK SMILES IDX 32 67 34 68 33 69 52 70 53 71 57 72 54 73 56 74 55 75 42 76
REMARK SMILES IDX 43 77 47 78 44 79 46 80 45 81
REMARK H PARENT 11 7 18 30 62 49 40 60
REMARK Flexibility Score: inf
ROOT
ATOM      1  C   UNL A   1      33.593  22.470  24.319  1.00  0.00     0.002 C 
ENDROOT
BRANCH   1   2
ATOM      2  C   UNL A   1      32.638  22.642  23.134  1.00  0.00     0.021 C 
BRANCH   2   3
ATOM      3  C   UNL A   1      31.364  23.403  23.464  1.00  0.00     0.116 C 
BRANCH   3   4
ATOM      4  N   UNL A   1      31.020  24.415  22.489  1.00  0.00    -0.356 N 
ATOM      5  C   UNL A   1      31.502  25.675  22.325  1.00  0.00     0.225 C 
ATOM      6  O   UNL A   1      31.318  26.203  21.222  1.00  0.00    -0.275 OA
ATOM      7  H   UNL A   1      30.326  24.148  21.842  1.00  0.00     0.163 HD
BRANCH   5   8
ATOM      8  C   UNL A   1      32.248  26.446  23.410  1.00  0.00     0.106 C 
ATOM      9  N   UNL A   1      32.215  28.210  25.215  1.00  0.00    -0.335 N 
ATOM     10  C   UNL A   1      33.601  28.307  25.188  1.00  0.00     0.223 C 
ATOM     11  C   UNL A   1      31.401  27.428  24.247  1.00  0.00     0.128 C 
ATOM     12  O   UNL A   1      34.231  29.014  25.978  1.00  0.00    -0.275 OA
ATOM     13  C   UNL A   1      34.370  27.420  24.234  1.00  0.00     0.101 C 
ATOM     14  C   UNL A   1      33.596  27.018  23.000  1.00  0.00     0.026 C 
BRANCH   9  15
ATOM     15  C   UNL A   1      31.524  28.846  26.344  1.00  0.00     0.117 C 
ATOM     16  C   UNL A   1      31.514  28.021  27.626  1.00  0.00     0.027 C 
ENDBRANCH   9  15
BRANCH  11  17
ATOM     17  C   UNL A   1      30.424  28.295  23.456  1.00  0.00    -0.024 A 
ATOM     18  C   UNL A   1      30.838  29.346  22.628  1.00  0.00     0.010 A 
ATOM     19  C   UNL A   1      29.046  28.017  23.529  1.00  0.00     0.010 A 
ATOM     20  C   UNL A   1      29.903  30.081  21.887  1.00  0.00     0.047 A 
ATOM     21  C   UNL A   1      28.115  28.737  22.768  1.00  0.00     0.047 A 
ATOM     22  C   UNL A   1      28.544  29.761  21.927  1.00  0.00     0.118 A 
BRANCH  22  23
ATOM     23  O   UNL A   1      27.747  30.503  21.101  1.00  0.00    -0.497 OA
ATOM     24  C   UNL A   1      28.166  31.841  20.845  1.00  0.00     0.278 C 
ENDBRANCH  22  23
ENDBRANCH  11  17
ENDBRANCH   5   8
ENDBRANCH   3   4
ENDBRANCH   2   3
ENDBRANCH   1   2
BRANCH   1  25
ATOM     25  C   UNL A   1      34.585  23.617  24.553  1.00  0.00     0.002 C 
BRANCH  25  26
ATOM     26  C   UNL A   1      35.711  23.335  25.551  1.00  0.00     0.021 C 
BRANCH  26  27
ATOM     27  C   UNL A   1      37.096  23.785  25.109  1.00  0.00     0.116 C 
BRANCH  27  28
ATOM     28  N   UNL A   1      38.116  22.806  25.442  1.00  0.00    -0.352 N 
ATOM     29  C   UNL A   1      39.310  22.965  26.098  1.00  0.00     0.251 C 
ATOM     30  H   UNL A   1      37.919  21.886  25.152  1.00  0.00     0.163 HD
ATOM     31  O   UNL A   1      40.131  22.052  26.090  1.00  0.00    -0.269 OA
BRANCH  29  32
ATOM     32  C   UNL A   1      39.622  24.227  26.806  1.00  0.00     0.039 A 
ATOM     33  C   UNL A   1      39.163  24.393  28.117  1.00  0.00     0.014 A 
ATOM     34  C   UNL A   1      40.315  25.265  26.177  1.00  0.00     0.014 A 
ATOM     35  C   UNL A   1      39.433  25.578  28.805  1.00  0.00     0.010 A 
ATOM     36  C   UNL A   1      40.657  26.409  26.892  1.00  0.00     0.010 A 
ATOM     37  C   UNL A   1      40.202  26.587  28.206  1.00  0.00    -0.014 A 
BRANCH  37  38
ATOM     38  C   UNL A   1      40.509  27.851  28.922  1.00  0.00     0.031 A 
ATOM     39  C   UNL A   1      41.834  28.022  29.617  1.00  0.00     0.074 A 
ATOM     40  C   UNL A   1      39.579  28.822  28.996  1.00  0.00     0.049 A 
ATOM     41  N   UNL A   1      42.261  29.021  30.347  1.00  0.00    -0.248 NA
ATOM     42  C   UNL A   1      42.793  26.912  29.500  1.00  0.00     0.031 C 
ATOM     43  C   UNL A   1      38.240  28.764  28.405  1.00  0.00     0.029 A 
ATOM     44  N   UNL A   1      39.618  30.050  29.608  1.00  0.00    -0.354 N 
ATOM     45  C   UNL A   1      43.522  28.647  30.798  1.00  0.00     0.074 A 
ATOM     46  C   UNL A   1      43.770  27.311  30.300  1.00  0.00     0.031 C 
ATOM     47  C   UNL A   1      37.599  29.917  28.655  1.00  0.00     0.029 A 
ATOM     48  C   UNL A   1      38.465  30.778  29.454  1.00  0.00     0.049 A 
ATOM     49  H   UNL A   1      40.399  30.376  30.110  1.00  0.00     0.167 HD
ATOM     50  C   UNL A   1      44.405  29.356  31.540  1.00  0.00     0.031 A 
ATOM     51  C   UNL A   1      38.140  32.003  29.907  1.00  0.00     0.031 A 
ATOM     52  C   UNL A   1      44.173  30.694  32.011  1.00  0.00     0.049 A 
ATOM     53  C   UNL A   1      39.144  32.780  30.713  1.00  0.00     0.074 A 
ATOM     54  C   UNL A   1      45.026  31.519  32.722  1.00  0.00     0.029 A 
ATOM     55  N   UNL A   1      43.000  31.405  31.811  1.00  0.00    -0.354 N 
ATOM     56  N   UNL A   1      40.353  32.432  31.082  1.00  0.00    -0.248 NA
ATOM     57  C   UNL A   1      38.740  34.123  31.152  1.00  0.00     0.031 C 
ATOM     58  C   UNL A   1      44.355  32.720  32.984  1.00  0.00     0.029 A 
ATOM     59  C   UNL A   1      43.103  32.657  32.396  1.00  0.00     0.049 A 
ATOM     60  H   UNL A   1      42.211  31.071  31.327  1.00  0.00     0.167 HD
ATOM     61  C   UNL A   1      40.865  33.522  31.772  1.00  0.00     0.074 A 
ATOM     62  C   UNL A   1      39.842  34.547  31.756  1.00  0.00     0.031 C 
ATOM     63  C   UNL A   1      42.075  33.663  32.367  1.00  0.00     0.031 A 
BRANCH  50  64
ATOM     64  C   UNL A   1      45.706  28.689  31.886  1.00  0.00    -0.014 A 
ATOM     65  C   UNL A   1      45.831  27.890  33.036  1.00  0.00     0.009 A 
ATOM     66  C   UNL A   1      46.817  28.841  31.042  1.00  0.00     0.009 A 
ATOM     67  C   UNL A   1      47.053  27.292  33.353  1.00  0.00     0.001 A 
ATOM     68  C   UNL A   1      48.029  28.218  31.347  1.00  0.00     0.001 A 
ATOM     69  C   UNL A   1      48.149  27.453  32.507  1.00  0.00     0.000 A 
ENDBRANCH  50  64
BRANCH  51  70
ATOM     70  C   UNL A   1      36.813  32.588  29.584  1.00  0.00    -0.014 A 
ATOM     71  C   UNL A   1      35.768  32.535  30.519  1.00  0.00     0.009 A 
ATOM     72  C   UNL A   1      36.583  33.197  28.341  1.00  0.00     0.009 A 
ATOM     73  C   UNL A   1      34.511  33.057  30.207  1.00  0.00     0.001 A 
ATOM     74  C   UNL A   1      35.332  33.743  28.042  1.00  0.00     0.001 A 
ATOM     75  C   UNL A   1      34.295  33.664  28.970  1.00  0.00     0.000 A 
ENDBRANCH  51  70
BRANCH  63  76
ATOM     76  C   UNL A   1      42.366  34.986  33.015  1.00  0.00    -0.014 A 
ATOM     77  C   UNL A   1      41.886  35.290  34.298  1.00  0.00     0.009 A 
ATOM     78  C   UNL A   1      43.160  35.927  32.342  1.00  0.00     0.009 A 
ATOM     79  C   UNL A   1      42.166  36.528  34.879  1.00  0.00     0.001 A 
ATOM     80  C   UNL A   1      43.462  37.152  32.937  1.00  0.00     0.001 A 
ATOM     81  C   UNL A   1      42.957  37.455  34.201  1.00  0.00     0.000 A 
ENDBRANCH  63  76
ENDBRANCH  37  38
ENDBRANCH  29  32
ENDBRANCH  27  28
ENDBRANCH  26  27
ENDBRANCH  25  26
ENDBRANCH   1  25
TORSDOF 16
ENDMDL
