MODEL 1
REMARK VINA RESULT:     -10.5      0.000      0.000
REMARK SMILES CC(C)C[C@@H](NC(=O)Cn1nc(O)ccc1=O)C(=O)NCCCCCCNC(=O)c1ccc(-c2c3nc(c(-c4ccccc4)c4ccc([nH]4)c(-c4ccccc4)c4nc(c(-c5ccccc5)c5ccc2[nH]5)C=C4)C=C3)cc1
REMARK SMILES IDX 22 1 21 2 20 3 18 4 19 5 5 7 4 8 2 9 1 10 3 11 6 12 7 13
REMARK SMILES IDX 8 15 9 16 10 17 11 18 16 19 12 20 15 21 17 22 14 23 13 24
REMARK SMILES IDX 23 26 24 27 25 28 26 29 27 30 28 31 29 33 30 34 31 35 77 36
REMARK SMILES IDX 32 37 76 38 33 39 34 40 35 41 70 42 36 43 75 44 69 45 71 46
REMARK SMILES IDX 37 47 74 48 68 49 67 50 38 52 60 53 45 54 59 55 46 56 49 57
REMARK SMILES IDX 58 58 72 59 47 60 48 61 57 63 73 64 50 65 39 66 40 67 44 68
REMARK SMILES IDX 41 69 43 70 42 71 61 72 62 73 66 74 63 75 65 76 64 77 51 78
REMARK SMILES IDX 52 79 56 80 53 81 55 82 54 83
REMARK H PARENT 20 6 6 14 13 25 27 32 71 51 49 62
REMARK Flexibility Score: inf
ROOT
ATOM      1  C   UNL A   1      35.151  24.061  24.697  1.00  0.00     0.021 C 
ENDROOT
BRANCH   1   2
ATOM      2  C   UNL A   1      34.351  25.225  25.273  1.00  0.00     0.116 C 
BRANCH   2   3
ATOM      3  N   UNL A   1      33.404  24.769  26.281  1.00  0.00    -0.354 N 
ATOM      4  C   UNL A   1      32.143  24.260  26.130  1.00  0.00     0.242 C 
ATOM      5  O   UNL A   1      31.470  24.081  27.153  1.00  0.00    -0.273 OA
ATOM      6  H   UNL A   1      33.719  24.837  27.211  1.00  0.00     0.163 HD
BRANCH   4   7
ATOM      7  C   UNL A   1      31.491  24.186  24.738  1.00  0.00     0.171 C 
BRANCH   7   8
ATOM      8  C   UNL A   1      31.380  22.649  24.550  1.00  0.00     0.038 C 
BRANCH   8   9
ATOM      9  C   UNL A   1      32.549  21.844  23.974  1.00  0.00    -0.015 C 
ATOM     10  C   UNL A   1      33.015  20.754  24.932  1.00  0.00     0.007 C 
ATOM     11  C   UNL A   1      32.062  21.204  22.661  1.00  0.00     0.007 C 
ENDBRANCH   8   9
ENDBRANCH   7   8
BRANCH   7  12
ATOM     12  N   UNL A   1      30.204  24.880  24.635  1.00  0.00    -0.343 N 
ATOM     13  C   UNL A   1      29.887  26.142  24.218  1.00  0.00     0.242 C 
ATOM     14  H   UNL A   1      29.429  24.340  24.918  1.00  0.00     0.164 HD
ATOM     15  O   UNL A   1      28.684  26.348  24.012  1.00  0.00    -0.273 OA
BRANCH  13  16
ATOM     16  C   UNL A   1      30.921  27.233  23.896  1.00  0.00     0.248 C 
BRANCH  16  17
ATOM     17  N   UNL A   1      31.671  27.788  25.017  1.00  0.00    -0.217 N 
ATOM     18  N   UNL A   1      31.207  27.481  26.282  1.00  0.00    -0.131 NA
ATOM     19  C   UNL A   1      32.848  28.496  24.790  1.00  0.00     0.267 A 
ATOM     20  C   UNL A   1      31.857  27.998  27.262  1.00  0.00     0.229 A 
ATOM     21  C   UNL A   1      33.545  29.018  25.997  1.00  0.00     0.079 A 
ATOM     22  O   UNL A   1      33.317  28.749  23.684  1.00  0.00    -0.268 OA
ATOM     23  C   UNL A   1      33.060  28.808  27.221  1.00  0.00     0.075 A 
BRANCH  20  24
ATOM     24  O   UNL A   1      31.389  27.871  28.507  1.00  0.00    -0.492 OA
ATOM     25  H   UNL A   1      31.770  27.243  29.089  1.00  0.00     0.295 HD
ENDBRANCH  20  24
ENDBRANCH  16  17
ENDBRANCH  13  16
ENDBRANCH   7  12
ENDBRANCH   4   7
ENDBRANCH   2   3
ENDBRANCH   1   2
BRANCH   1  26
ATOM     26  C   UNL A   1      36.321  23.624  25.582  1.00  0.00     0.002 C 
BRANCH  26  27
ATOM     27  C   UNL A   1      36.500  22.108  25.693  1.00  0.00     0.002 C 
BRANCH  27  28
ATOM     28  C   UNL A   1      37.725  21.537  24.991  1.00  0.00     0.021 C 
BRANCH  28  29
ATOM     29  C   UNL A   1      38.932  21.364  25.893  1.00  0.00     0.116 C 
BRANCH  29  30
ATOM     30  N   UNL A   1      39.639  20.102  25.708  1.00  0.00    -0.352 N 
ATOM     31  C   UNL A   1      40.968  19.854  25.993  1.00  0.00     0.251 C 
ATOM     32  H   UNL A   1      39.116  19.351  25.344  1.00  0.00     0.163 HD
ATOM     33  O   UNL A   1      41.500  18.787  25.755  1.00  0.00    -0.269 OA
BRANCH  31  34
ATOM     34  C   UNL A   1      41.730  20.983  26.564  1.00  0.00     0.039 A 
ATOM     35  C   UNL A   1      41.684  21.181  27.943  1.00  0.00     0.014 A 
ATOM     36  C   UNL A   1      42.252  21.951  25.708  1.00  0.00     0.014 A 
ATOM     37  C   UNL A   1      41.973  22.439  28.446  1.00  0.00     0.010 A 
ATOM     38  C   UNL A   1      42.653  23.179  26.238  1.00  0.00     0.010 A 
ATOM     39  C   UNL A   1      42.463  23.452  27.602  1.00  0.00    -0.014 A 
BRANCH  39  40
ATOM     40  C   UNL A   1      42.782  24.780  28.183  1.00  0.00     0.031 A 
ATOM     41  C   UNL A   1      44.198  25.178  28.500  1.00  0.00     0.074 A 
ATOM     42  C   UNL A   1      41.775  25.657  28.361  1.00  0.00     0.049 A 
ATOM     43  N   UNL A   1      44.636  26.293  29.030  1.00  0.00    -0.248 NA
ATOM     44  C   UNL A   1      45.263  24.210  28.188  1.00  0.00     0.031 C 
ATOM     45  C   UNL A   1      40.367  25.389  28.052  1.00  0.00     0.029 A 
ATOM     46  N   UNL A   1      41.776  26.954  28.802  1.00  0.00    -0.354 N 
ATOM     47  C   UNL A   1      46.012  26.147  29.151  1.00  0.00     0.074 A 
ATOM     48  C   UNL A   1      46.343  24.833  28.644  1.00  0.00     0.031 C 
ATOM     49  C   UNL A   1      39.659  26.510  28.231  1.00  0.00     0.029 A 
ATOM     50  C   UNL A   1      40.536  27.541  28.768  1.00  0.00     0.049 A 
ATOM     51  H   UNL A   1      42.587  27.419  29.111  1.00  0.00     0.167 HD
ATOM     52  C   UNL A   1      46.912  27.032  29.642  1.00  0.00     0.031 A 
ATOM     53  C   UNL A   1      40.133  28.766  29.154  1.00  0.00     0.031 A 
ATOM     54  C   UNL A   1      46.572  28.346  30.123  1.00  0.00     0.049 A 
ATOM     55  C   UNL A   1      41.142  29.707  29.735  1.00  0.00     0.074 A 
ATOM     56  C   UNL A   1      47.413  29.319  30.633  1.00  0.00     0.029 A 
ATOM     57  N   UNL A   1      45.289  28.874  30.145  1.00  0.00    -0.354 N 
ATOM     58  N   UNL A   1      42.434  29.538  29.876  1.00  0.00    -0.248 NA
ATOM     59  C   UNL A   1      40.641  30.996  30.226  1.00  0.00     0.031 C 
ATOM     60  C   UNL A   1      46.634  30.414  31.016  1.00  0.00     0.029 A 
ATOM     61  C   UNL A   1      45.314  30.150  30.683  1.00  0.00     0.049 A 
ATOM     62  H   UNL A   1      44.481  28.411  29.826  1.00  0.00     0.167 HD
ATOM     63  C   UNL A   1      42.903  30.698  30.474  1.00  0.00     0.074 A 
ATOM     64  C   UNL A   1      41.761  31.574  30.643  1.00  0.00     0.031 C 
ATOM     65  C   UNL A   1      44.167  31.003  30.854  1.00  0.00     0.031 A 
BRANCH  52  66
ATOM     66  C   UNL A   1      48.358  26.617  29.718  1.00  0.00    -0.014 A 
ATOM     67  C   UNL A   1      48.819  25.920  30.847  1.00  0.00     0.009 A 
ATOM     68  C   UNL A   1      49.284  27.003  28.737  1.00  0.00     0.009 A 
ATOM     69  C   UNL A   1      50.177  25.630  31.002  1.00  0.00     0.001 A 
ATOM     70  C   UNL A   1      50.639  26.688  28.881  1.00  0.00     0.001 A 
ATOM     71  C   UNL A   1      51.085  26.012  30.016  1.00  0.00     0.000 A 
ENDBRANCH  52  66
BRANCH  53  72
ATOM     72  C   UNL A   1      38.701  29.132  29.012  1.00  0.00    -0.014 A 
ATOM     73  C   UNL A   1      38.216  29.652  27.798  1.00  0.00     0.009 A 
ATOM     74  C   UNL A   1      37.833  29.054  30.110  1.00  0.00     0.009 A 
ATOM     75  C   UNL A   1      36.908  30.129  27.702  1.00  0.00     0.001 A 
ATOM     76  C   UNL A   1      36.513  29.500  29.999  1.00  0.00     0.001 A 
ATOM     77  C   UNL A   1      36.058  30.051  28.801  1.00  0.00     0.000 A 
ENDBRANCH  53  72
BRANCH  65  78
ATOM     78  C   UNL A   1      44.393  32.344  31.491  1.00  0.00    -0.014 A 
ATOM     79  C   UNL A   1      44.261  32.485  32.881  1.00  0.00     0.009 A 
ATOM     80  C   UNL A   1      44.644  33.480  30.708  1.00  0.00     0.009 A 
ATOM     81  C   UNL A   1      44.363  33.744  33.475  1.00  0.00     0.001 A 
ATOM     82  C   UNL A   1      44.772  34.733  31.309  1.00  0.00     0.001 A 
ATOM     83  C   UNL A   1      44.622  34.865  32.689  1.00  0.00     0.000 A 
ENDBRANCH  65  78
ENDBRANCH  39  40
ENDBRANCH  31  34
ENDBRANCH  29  30
ENDBRANCH  28  29
ENDBRANCH  27  28
ENDBRANCH  26  27
ENDBRANCH   1  26
TORSDOF 19
ENDMDL
MODEL 2
REMARK VINA RESULT:     -10.4      0.342      5.882
REMARK SMILES CC(C)C[C@@H](NC(=O)Cn1nc(O)ccc1=O)C(=O)NCCCCCCNC(=O)c1ccc(-c2c3nc(c(-c4ccccc4)c4ccc([nH]4)c(-c4ccccc4)c4nc(c(-c5ccccc5)c5ccc2[nH]5)C=C4)C=C3)cc1
REMARK SMILES IDX 22 1 21 2 20 3 18 4 19 5 5 7 4 8 2 9 1 10 3 11 6 12 7 13
REMARK SMILES IDX 8 15 9 16 10 17 11 18 16 19 12 20 15 21 17 22 14 23 13 24
REMARK SMILES IDX 23 26 24 27 25 28 26 29 27 30 28 31 29 33 30 34 31 35 77 36
REMARK SMILES IDX 32 37 76 38 33 39 34 40 35 41 70 42 36 43 75 44 69 45 71 46
REMARK SMILES IDX 37 47 74 48 68 49 67 50 38 52 60 53 45 54 59 55 46 56 49 57
REMARK SMILES IDX 58 58 72 59 47 60 48 61 57 63 73 64 50 65 39 66 40 67 44 68
REMARK SMILES IDX 41 69 43 70 42 71 61 72 62 73 66 74 63 75 65 76 64 77 51 78
REMARK SMILES IDX 52 79 56 80 53 81 55 82 54 83
REMARK H PARENT 20 6 6 14 13 25 27 32 71 51 49 62
REMARK Flexibility Score: inf
ROOT
ATOM      1  C   UNL A   1      35.173  23.995  24.532  1.00  0.00     0.021 C 
ENDROOT
BRANCH   1   2
ATOM      2  C   UNL A   1      34.380  25.171  25.095  1.00  0.00     0.116 C 
BRANCH   2   3
ATOM      3  N   UNL A   1      33.542  24.758  26.211  1.00  0.00    -0.354 N 
ATOM      4  C   UNL A   1      32.325  24.132  26.208  1.00  0.00     0.242 C 
ATOM      5  O   UNL A   1      31.735  24.019  27.289  1.00  0.00    -0.273 OA
ATOM      6  H   UNL A   1      33.905  24.959  27.103  1.00  0.00     0.163 HD
BRANCH   4   7
ATOM      7  C   UNL A   1      31.598  23.844  24.881  1.00  0.00     0.171 C 
BRANCH   7   8
ATOM      8  C   UNL A   1      31.331  22.321  25.022  1.00  0.00     0.038 C 
BRANCH   8   9
ATOM      9  C   UNL A   1      32.049  21.314  24.118  1.00  0.00    -0.015 C 
ATOM     10  C   UNL A   1      32.535  21.957  22.824  1.00  0.00     0.007 C 
ATOM     11  C   UNL A   1      33.253  20.767  24.906  1.00  0.00     0.007 C 
ENDBRANCH   8   9
ENDBRANCH   7   8
BRANCH   7  12
ATOM     12  N   UNL A   1      30.380  24.633  24.676  1.00  0.00    -0.343 N 
ATOM     13  C   UNL A   1      30.190  25.897  24.193  1.00  0.00     0.242 C 
ATOM     14  H   UNL A   1      29.549  24.168  24.932  1.00  0.00     0.164 HD
ATOM     15  O   UNL A   1      29.022  26.188  23.908  1.00  0.00    -0.273 OA
BRANCH  13  16
ATOM     16  C   UNL A   1      31.327  26.889  23.892  1.00  0.00     0.248 C 
BRANCH  16  17
ATOM     17  N   UNL A   1      31.744  27.768  24.979  1.00  0.00    -0.217 N 
ATOM     18  N   UNL A   1      31.364  27.397  26.254  1.00  0.00    -0.131 NA
ATOM     19  C   UNL A   1      32.574  28.856  24.720  1.00  0.00     0.267 A 
ATOM     20  C   UNL A   1      31.711  28.193  27.201  1.00  0.00     0.229 A 
ATOM     21  C   UNL A   1      32.950  29.691  25.892  1.00  0.00     0.079 A 
ATOM     22  O   UNL A   1      32.971  29.190  23.608  1.00  0.00    -0.268 OA
ATOM     23  C   UNL A   1      32.515  29.397  27.118  1.00  0.00     0.075 A 
BRANCH  20  24
ATOM     24  O   UNL A   1      31.259  27.984  28.441  1.00  0.00    -0.492 OA
ATOM     25  H   UNL A   1      30.959  27.132  28.693  1.00  0.00     0.295 HD
ENDBRANCH  20  24
ENDBRANCH  16  17
ENDBRANCH  13  16
ENDBRANCH   7  12
ENDBRANCH   4   7
ENDBRANCH   2   3
ENDBRANCH   1   2
BRANCH   1  26
ATOM     26  C   UNL A   1      36.444  23.679  25.323  1.00  0.00     0.002 C 
BRANCH  26  27
ATOM     27  C   UNL A   1      36.565  22.221  25.772  1.00  0.00     0.002 C 
BRANCH  27  28
ATOM     28  C   UNL A   1      37.670  21.414  25.103  1.00  0.00     0.021 C 
BRANCH  28  29
ATOM     29  C   UNL A   1      38.950  21.328  25.910  1.00  0.00     0.116 C 
BRANCH  29  30
ATOM     30  N   UNL A   1      39.681  20.077  25.738  1.00  0.00    -0.352 N 
ATOM     31  C   UNL A   1      41.021  19.865  25.999  1.00  0.00     0.251 C 
ATOM     32  H   UNL A   1      39.168  19.308  25.401  1.00  0.00     0.163 HD
ATOM     33  O   UNL A   1      41.572  18.805  25.773  1.00  0.00    -0.269 OA
BRANCH  31  34
ATOM     34  C   UNL A   1      41.770  21.023  26.529  1.00  0.00     0.039 A 
ATOM     35  C   UNL A   1      41.761  21.241  27.906  1.00  0.00     0.014 A 
ATOM     36  C   UNL A   1      42.239  21.992  25.642  1.00  0.00     0.014 A 
ATOM     37  C   UNL A   1      42.031  22.514  28.381  1.00  0.00     0.010 A 
ATOM     38  C   UNL A   1      42.622  23.238  26.142  1.00  0.00     0.010 A 
ATOM     39  C   UNL A   1      42.467  23.526  27.507  1.00  0.00    -0.014 A 
BRANCH  39  40
ATOM     40  C   UNL A   1      42.768  24.872  28.057  1.00  0.00     0.031 A 
ATOM     41  C   UNL A   1      41.677  25.877  28.314  1.00  0.00     0.074 A 
ATOM     42  C   UNL A   1      44.042  25.155  28.388  1.00  0.00     0.049 A 
ATOM     43  N   UNL A   1      41.781  27.100  28.769  1.00  0.00    -0.248 NA
ATOM     44  C   UNL A   1      40.292  25.467  28.023  1.00  0.00     0.031 C 
ATOM     45  C   UNL A   1      45.175  24.241  28.217  1.00  0.00     0.029 A 
ATOM     46  N   UNL A   1      44.597  26.264  28.970  1.00  0.00    -0.354 N 
ATOM     47  C   UNL A   1      40.491  27.617  28.784  1.00  0.00     0.074 A 
ATOM     48  C   UNL A   1      39.616  26.578  28.287  1.00  0.00     0.031 C 
ATOM     49  C   UNL A   1      46.268  24.791  28.760  1.00  0.00     0.029 A 
ATOM     50  C   UNL A   1      45.940  26.134  29.218  1.00  0.00     0.049 A 
ATOM     51  H   UNL A   1      44.082  27.075  29.189  1.00  0.00     0.167 HD
ATOM     52  C   UNL A   1      40.082  28.846  29.177  1.00  0.00     0.031 A 
ATOM     53  C   UNL A   1      46.828  27.006  29.729  1.00  0.00     0.031 A 
ATOM     54  C   UNL A   1      40.963  29.863  29.692  1.00  0.00     0.049 A 
ATOM     55  C   UNL A   1      46.356  28.375  30.113  1.00  0.00     0.074 A 
ATOM     56  C   UNL A   1      40.643  31.139  30.124  1.00  0.00     0.029 A 
ATOM     57  N   UNL A   1      42.333  29.718  29.853  1.00  0.00    -0.354 N 
ATOM     58  N   UNL A   1      45.139  28.858  30.085  1.00  0.00    -0.248 NA
ATOM     59  C   UNL A   1      47.376  29.321  30.579  1.00  0.00     0.031 C 
ATOM     60  C   UNL A   1      41.825  31.784  30.493  1.00  0.00     0.029 A 
ATOM     61  C   UNL A   1      42.875  30.890  30.354  1.00  0.00     0.049 A 
ATOM     62  H   UNL A   1      42.844  28.903  29.642  1.00  0.00     0.167 HD
ATOM     63  C   UNL A   1      45.243  30.168  30.528  1.00  0.00     0.074 A 
ATOM     64  C   UNL A   1      46.639  30.393  30.845  1.00  0.00     0.031 C 
ATOM     65  C   UNL A   1      44.268  31.100  30.654  1.00  0.00     0.031 A 
BRANCH  52  66
ATOM     66  C   UNL A   1      38.622  29.191  29.048  1.00  0.00    -0.014 A 
ATOM     67  C   UNL A   1      38.136  29.699  27.832  1.00  0.00     0.009 A 
ATOM     68  C   UNL A   1      37.752  29.119  30.147  1.00  0.00     0.009 A 
ATOM     69  C   UNL A   1      36.816  30.142  27.720  1.00  0.00     0.001 A 
ATOM     70  C   UNL A   1      36.424  29.538  30.025  1.00  0.00     0.001 A 
ATOM     71  C   UNL A   1      35.960  30.058  28.817  1.00  0.00     0.000 A 
ENDBRANCH  52  66
BRANCH  53  72
ATOM     72  C   UNL A   1      48.247  26.591  29.873  1.00  0.00    -0.014 A 
ATOM     73  C   UNL A   1      48.696  25.992  31.064  1.00  0.00     0.009 A 
ATOM     74  C   UNL A   1      49.179  26.875  28.865  1.00  0.00     0.009 A 
ATOM     75  C   UNL A   1      50.053  25.729  31.259  1.00  0.00     0.001 A 
ATOM     76  C   UNL A   1      50.531  26.577  29.051  1.00  0.00     0.001 A 
ATOM     77  C   UNL A   1      50.968  26.021  30.252  1.00  0.00     0.000 A 
ENDBRANCH  53  72
BRANCH  65  78
ATOM     78  C   UNL A   1      44.668  32.456  31.159  1.00  0.00    -0.014 A 
ATOM     79  C   UNL A   1      44.621  32.728  32.535  1.00  0.00     0.009 A 
ATOM     80  C   UNL A   1      45.001  33.487  30.268  1.00  0.00     0.009 A 
ATOM     81  C   UNL A   1      44.887  34.013  33.010  1.00  0.00     0.001 A 
ATOM     82  C   UNL A   1      45.293  34.764  30.749  1.00  0.00     0.001 A 
ATOM     83  C   UNL A   1      45.226  35.028  32.117  1.00  0.00     0.000 A 
ENDBRANCH  65  78
ENDBRANCH  39  40
ENDBRANCH  31  34
ENDBRANCH  29  30
ENDBRANCH  28  29
ENDBRANCH  27  28
ENDBRANCH  26  27
ENDBRANCH   1  26
TORSDOF 19
ENDMDL
MODEL 3
REMARK VINA RESULT:     -10.0      1.259      6.435
REMARK SMILES CC(C)C[C@@H](NC(=O)Cn1nc(O)ccc1=O)C(=O)NCCCCCCNC(=O)c1ccc(-c2c3nc(c(-c4ccccc4)c4ccc([nH]4)c(-c4ccccc4)c4nc(c(-c5ccccc5)c5ccc2[nH]5)C=C4)C=C3)cc1
REMARK SMILES IDX 22 1 21 2 20 3 18 4 19 5 5 7 4 8 2 9 1 10 3 11 6 12 7 13
REMARK SMILES IDX 8 15 9 16 10 17 11 18 16 19 12 20 15 21 17 22 14 23 13 24
REMARK SMILES IDX 23 26 24 27 25 28 26 29 27 30 28 31 29 33 30 34 31 35 77 36
REMARK SMILES IDX 32 37 76 38 33 39 34 40 35 41 70 42 36 43 75 44 69 45 71 46
REMARK SMILES IDX 37 47 74 48 68 49 67 50 38 52 60 53 45 54 59 55 46 56 49 57
REMARK SMILES IDX 58 58 72 59 47 60 48 61 57 63 73 64 50 65 39 66 40 67 44 68
REMARK SMILES IDX 41 69 43 70 42 71 61 72 62 73 66 74 63 75 65 76 64 77 51 78
REMARK SMILES IDX 52 79 56 80 53 81 55 82 54 83
REMARK H PARENT 20 6 6 14 13 25 27 32 71 51 49 62
REMARK Flexibility Score: inf
ROOT
ATOM      1  C   UNL A   1      35.784  23.265  25.842  1.00  0.00     0.021 C 
ENDROOT
BRANCH   1   2
ATOM      2  C   UNL A   1      34.774  24.204  25.188  1.00  0.00     0.116 C 
BRANCH   2   3
ATOM      3  N   UNL A   1      33.518  24.226  25.923  1.00  0.00    -0.354 N 
ATOM      4  C   UNL A   1      32.527  25.169  25.936  1.00  0.00     0.242 C 
ATOM      5  O   UNL A   1      31.617  25.034  26.762  1.00  0.00    -0.273 OA
ATOM      6  H   UNL A   1      33.357  23.443  26.498  1.00  0.00     0.163 HD
BRANCH   4   7
ATOM      7  C   UNL A   1      32.692  26.486  25.156  1.00  0.00     0.171 C 
BRANCH   7   8
ATOM      8  C   UNL A   1      33.414  27.362  26.216  1.00  0.00     0.038 C 
BRANCH   8   9
ATOM      9  C   UNL A   1      32.857  28.734  26.607  1.00  0.00    -0.015 C 
ATOM     10  C   UNL A   1      32.237  29.457  25.417  1.00  0.00     0.007 C 
ATOM     11  C   UNL A   1      31.784  28.503  27.687  1.00  0.00     0.007 C 
ENDBRANCH   8   9
ENDBRANCH   7   8
BRANCH   7  12
ATOM     12  N   UNL A   1      33.439  26.356  23.901  1.00  0.00    -0.343 N 
ATOM     13  C   UNL A   1      33.020  26.255  22.605  1.00  0.00     0.242 C 
ATOM     14  H   UNL A   1      34.418  26.338  24.013  1.00  0.00     0.164 HD
ATOM     15  O   UNL A   1      33.899  26.409  21.748  1.00  0.00    -0.273 OA
BRANCH  13  16
ATOM     16  C   UNL A   1      31.551  26.084  22.180  1.00  0.00     0.248 C 
BRANCH  16  17
ATOM     17  N   UNL A   1      30.640  27.180  22.490  1.00  0.00    -0.217 N 
ATOM     18  N   UNL A   1      30.851  28.368  21.815  1.00  0.00    -0.131 NA
ATOM     19  C   UNL A   1      29.560  26.973  23.344  1.00  0.00     0.267 A 
ATOM     20  C   UNL A   1      30.061  29.336  22.116  1.00  0.00     0.229 A 
ATOM     21  C   UNL A   1      28.684  28.149  23.595  1.00  0.00     0.079 A 
ATOM     22  O   UNL A   1      29.313  25.920  23.925  1.00  0.00    -0.268 OA
ATOM     23  C   UNL A   1      28.928  29.328  23.022  1.00  0.00     0.075 A 
BRANCH  20  24
ATOM     24  O   UNL A   1      30.289  30.555  21.620  1.00  0.00    -0.492 OA
ATOM     25  H   UNL A   1      29.895  30.812  20.809  1.00  0.00     0.295 HD
ENDBRANCH  20  24
ENDBRANCH  16  17
ENDBRANCH  13  16
ENDBRANCH   7  12
ENDBRANCH   4   7
ENDBRANCH   2   3
ENDBRANCH   1   2
BRANCH   1  26
ATOM     26  C   UNL A   1      35.372  21.793  25.792  1.00  0.00     0.002 C 
BRANCH  26  27
ATOM     27  C   UNL A   1      36.461  20.847  25.281  1.00  0.00     0.002 C 
BRANCH  27  28
ATOM     28  C   UNL A   1      37.775  21.508  24.886  1.00  0.00     0.021 C 
BRANCH  28  29
ATOM     29  C   UNL A   1      38.896  21.310  25.888  1.00  0.00     0.116 C 
BRANCH  29  30
ATOM     30  N   UNL A   1      39.631  20.061  25.721  1.00  0.00    -0.352 N 
ATOM     31  C   UNL A   1      40.967  19.850  26.005  1.00  0.00     0.251 C 
ATOM     32  H   UNL A   1      39.126  19.293  25.370  1.00  0.00     0.163 HD
ATOM     33  O   UNL A   1      41.523  18.793  25.783  1.00  0.00    -0.269 OA
BRANCH  31  34
ATOM     34  C   UNL A   1      41.703  21.005  26.556  1.00  0.00     0.039 A 
ATOM     35  C   UNL A   1      41.659  21.222  27.933  1.00  0.00     0.014 A 
ATOM     36  C   UNL A   1      42.198  21.974  25.684  1.00  0.00     0.014 A 
ATOM     37  C   UNL A   1      41.919  22.494  28.416  1.00  0.00     0.010 A 
ATOM     38  C   UNL A   1      42.571  23.219  26.194  1.00  0.00     0.010 A 
ATOM     39  C   UNL A   1      42.380  23.507  27.555  1.00  0.00    -0.014 A 
BRANCH  39  40
ATOM     40  C   UNL A   1      42.669  24.851  28.114  1.00  0.00     0.031 A 
ATOM     41  C   UNL A   1      41.574  25.859  28.338  1.00  0.00     0.074 A 
ATOM     42  C   UNL A   1      43.934  25.130  28.483  1.00  0.00     0.049 A 
ATOM     43  N   UNL A   1      41.670  27.082  28.797  1.00  0.00    -0.248 NA
ATOM     44  C   UNL A   1      40.198  25.454  28.007  1.00  0.00     0.031 C 
ATOM     45  C   UNL A   1      45.068  24.211  28.345  1.00  0.00     0.029 A 
ATOM     46  N   UNL A   1      44.475  26.237  29.081  1.00  0.00    -0.354 N 
ATOM     47  C   UNL A   1      40.382  27.603  28.774  1.00  0.00     0.074 A 
ATOM     48  C   UNL A   1      39.518  26.568  28.251  1.00  0.00     0.031 C 
ATOM     49  C   UNL A   1      46.146  24.757  28.921  1.00  0.00     0.029 A 
ATOM     50  C   UNL A   1      45.810  26.102  29.368  1.00  0.00     0.049 A 
ATOM     51  H   UNL A   1      43.957  27.049  29.285  1.00  0.00     0.167 HD
ATOM     52  C   UNL A   1      39.966  28.835  29.155  1.00  0.00     0.031 A 
ATOM     53  C   UNL A   1      46.686  26.971  29.906  1.00  0.00     0.031 A 
ATOM     54  C   UNL A   1      40.834  29.848  29.696  1.00  0.00     0.049 A 
ATOM     55  C   UNL A   1      46.207  28.341  30.276  1.00  0.00     0.074 A 
ATOM     56  C   UNL A   1      40.506  31.125  30.118  1.00  0.00     0.029 A 
ATOM     57  N   UNL A   1      42.198  29.698  29.898  1.00  0.00    -0.354 N 
ATOM     58  N   UNL A   1      44.993  28.829  30.212  1.00  0.00    -0.248 NA
ATOM     59  C   UNL A   1      47.216  29.284  30.773  1.00  0.00     0.031 C 
ATOM     60  C   UNL A   1      41.678  31.766  30.523  1.00  0.00     0.029 A 
ATOM     61  C   UNL A   1      42.729  30.868  30.415  1.00  0.00     0.049 A 
ATOM     62  H   UNL A   1      42.712  28.882  29.702  1.00  0.00     0.167 HD
ATOM     63  C   UNL A   1      45.088  30.138  30.659  1.00  0.00     0.074 A 
ATOM     64  C   UNL A   1      46.475  30.358  31.017  1.00  0.00     0.031 C 
ATOM     65  C   UNL A   1      44.113  31.073  30.755  1.00  0.00     0.031 A 
BRANCH  52  66
ATOM     66  C   UNL A   1      38.511  29.185  28.983  1.00  0.00    -0.014 A 
ATOM     67  C   UNL A   1      38.064  29.701  27.755  1.00  0.00     0.009 A 
ATOM     68  C   UNL A   1      37.607  29.108  30.053  1.00  0.00     0.009 A 
ATOM     69  C   UNL A   1      36.750  30.149  27.605  1.00  0.00     0.001 A 
ATOM     70  C   UNL A   1      36.284  29.533  29.893  1.00  0.00     0.001 A 
ATOM     71  C   UNL A   1      35.860  30.061  28.674  1.00  0.00     0.000 A 
ENDBRANCH  52  66
BRANCH  53  72
ATOM     72  C   UNL A   1      48.098  26.551  30.092  1.00  0.00    -0.014 A 
ATOM     73  C   UNL A   1      49.034  26.723  29.057  1.00  0.00     0.009 A 
ATOM     74  C   UNL A   1      48.498  25.891  31.263  1.00  0.00     0.009 A 
ATOM     75  C   UNL A   1      50.325  26.204  29.171  1.00  0.00     0.001 A 
ATOM     76  C   UNL A   1      49.801  25.404  31.387  1.00  0.00     0.001 A 
ATOM     77  C   UNL A   1      50.707  25.546  30.337  1.00  0.00     0.000 A 
ENDBRANCH  53  72
BRANCH  65  78
ATOM     78  C   UNL A   1      44.503  32.428  31.273  1.00  0.00    -0.014 A 
ATOM     79  C   UNL A   1      44.952  33.412  30.379  1.00  0.00     0.009 A 
ATOM     80  C   UNL A   1      44.512  32.698  32.649  1.00  0.00     0.009 A 
ATOM     81  C   UNL A   1      45.417  34.638  30.854  1.00  0.00     0.001 A 
ATOM     82  C   UNL A   1      44.954  33.936  33.119  1.00  0.00     0.001 A 
ATOM     83  C   UNL A   1      45.415  34.900  32.223  1.00  0.00     0.000 A 
ENDBRANCH  65  78
ENDBRANCH  39  40
ENDBRANCH  31  34
ENDBRANCH  29  30
ENDBRANCH  28  29
ENDBRANCH  27  28
ENDBRANCH  26  27
ENDBRANCH   1  26
TORSDOF 19
ENDMDL
