MODEL 1
REMARK VINA RESULT:     -10.1      0.000      0.000
REMARK SMILES CC(C)CN(C)S(=O)(=O)c1ccc(C(=O)NCCCCCCNC(=O)c2ccc(-c3c4nc(c(-c5ccccc5)c5ccc([nH]5)c(-c5ccccc5)c5nc(c(-c6ccccc6)c6ccc3[nH]6)C=C5)C=C4)cc2)cc1
REMARK SMILES IDX 18 1 17 2 16 3 14 4 15 5 13 7 10 8 11 9 75 10 12 11 74 12
REMARK SMILES IDX 7 13 8 14 9 15 5 16 6 17 4 18 2 19 1 20 3 21 19 22 20 23
REMARK SMILES IDX 21 24 22 25 23 26 24 27 25 29 26 30 27 31 73 32 28 33 72 34
REMARK SMILES IDX 29 35 30 36 31 37 66 38 32 39 71 40 65 41 67 42 33 43 70 44
REMARK SMILES IDX 64 45 63 46 34 48 56 49 41 50 55 51 42 52 45 53 54 54 68 55
REMARK SMILES IDX 43 56 44 57 53 59 69 60 46 61 35 62 36 63 40 64 37 65 39 66
REMARK SMILES IDX 38 67 57 68 58 69 62 70 59 71 61 72 60 73 47 74 48 75 52 76
REMARK SMILES IDX 49 77 51 78 50 79
REMARK H PARENT 16 6 23 28 67 47 45 58
REMARK Flexibility Score: inf
ROOT
ATOM      1  C   UNL A   1      35.756  23.183  25.246  1.00  0.00     0.021 C 
ENDROOT
BRANCH   1   2
ATOM      2  C   UNL A   1      34.578  22.573  26.009  1.00  0.00     0.116 C 
BRANCH   2   3
ATOM      3  N   UNL A   1      33.913  21.587  25.183  1.00  0.00    -0.352 N 
ATOM      4  C   UNL A   1      32.882  21.694  24.288  1.00  0.00     0.251 C 
ATOM      5  O   UNL A   1      32.501  20.669  23.724  1.00  0.00    -0.269 OA
ATOM      6  H   UNL A   1      34.265  20.673  25.284  1.00  0.00     0.163 HD
BRANCH   4   7
ATOM      7  C   UNL A   1      32.249  22.996  23.931  1.00  0.00     0.039 A 
ATOM      8  C   UNL A   1      30.949  25.454  23.420  1.00  0.00     0.082 A 
ATOM      9  C   UNL A   1      30.596  24.680  24.534  1.00  0.00     0.022 A 
ATOM     10  C   UNL A   1      31.999  25.028  22.605  1.00  0.00     0.022 A 
ATOM     11  C   UNL A   1      31.249  23.469  24.791  1.00  0.00     0.015 A 
ATOM     12  C   UNL A   1      32.638  23.802  22.856  1.00  0.00     0.015 A 
BRANCH   8  13
ATOM     13  S   UNL A   1      30.225  27.083  23.248  1.00  0.00     0.242 S 
ATOM     14  O   UNL A   1      28.819  26.952  23.587  1.00  0.00    -0.207 OA
ATOM     15  O   UNL A   1      30.620  27.561  21.945  1.00  0.00    -0.207 OA
BRANCH  13  16
ATOM     16  N   UNL A   1      30.949  28.140  24.431  1.00  0.00    -0.201 NA
ATOM     17  C   UNL A   1      30.624  29.584  24.211  1.00  0.00     0.124 C 
BRANCH  16  18
ATOM     18  C   UNL A   1      32.464  27.998  24.463  1.00  0.00     0.105 C 
BRANCH  18  19
ATOM     19  C   UNL A   1      33.027  27.526  25.818  1.00  0.00    -0.002 C 
ATOM     20  C   UNL A   1      33.826  26.226  25.717  1.00  0.00     0.009 C 
ATOM     21  C   UNL A   1      33.954  28.618  26.377  1.00  0.00     0.009 C 
ENDBRANCH  18  19
ENDBRANCH  16  18
ENDBRANCH  13  16
ENDBRANCH   8  13
ENDBRANCH   4   7
ENDBRANCH   2   3
ENDBRANCH   1   2
BRANCH   1  22
ATOM     22  C   UNL A   1      37.043  22.357  25.353  1.00  0.00     0.002 C 
BRANCH  22  23
ATOM     23  C   UNL A   1      37.160  21.220  24.332  1.00  0.00     0.002 C 
BRANCH  23  24
ATOM     24  C   UNL A   1      37.966  20.009  24.809  1.00  0.00     0.021 C 
BRANCH  24  25
ATOM     25  C   UNL A   1      38.969  20.324  25.913  1.00  0.00     0.116 C 
BRANCH  25  26
ATOM     26  N   UNL A   1      40.071  19.374  25.918  1.00  0.00    -0.352 N 
ATOM     27  C   UNL A   1      41.414  19.608  26.073  1.00  0.00     0.251 C 
ATOM     28  H   UNL A   1      39.818  18.432  25.795  1.00  0.00     0.163 HD
ATOM     29  O   UNL A   1      42.231  18.736  25.802  1.00  0.00    -0.269 OA
BRANCH  27  30
ATOM     30  C   UNL A   1      41.872  20.922  26.565  1.00  0.00     0.039 A 
ATOM     31  C   UNL A   1      42.248  21.901  25.641  1.00  0.00     0.014 A 
ATOM     32  C   UNL A   1      41.953  21.177  27.938  1.00  0.00     0.014 A 
ATOM     33  C   UNL A   1      42.661  23.154  26.094  1.00  0.00     0.010 A 
ATOM     34  C   UNL A   1      42.300  22.447  28.386  1.00  0.00     0.010 A 
ATOM     35  C   UNL A   1      42.668  23.444  27.468  1.00  0.00    -0.014 A 
BRANCH  35  36
ATOM     36  C   UNL A   1      43.070  24.780  27.970  1.00  0.00     0.031 A 
ATOM     37  C   UNL A   1      42.026  25.826  28.249  1.00  0.00     0.074 A 
ATOM     38  C   UNL A   1      44.377  25.071  28.114  1.00  0.00     0.049 A 
ATOM     39  N   UNL A   1      42.183  27.066  28.634  1.00  0.00    -0.248 NA
ATOM     40  C   UNL A   1      40.623  25.432  28.043  1.00  0.00     0.031 C 
ATOM     41  C   UNL A   1      45.485  24.155  27.843  1.00  0.00     0.029 A 
ATOM     42  N   UNL A   1      44.992  26.227  28.522  1.00  0.00    -0.354 N 
ATOM     43  C   UNL A   1      40.904  27.604  28.699  1.00  0.00     0.074 A 
ATOM     44  C   UNL A   1      39.988  26.573  28.267  1.00  0.00     0.031 C 
ATOM     45  C   UNL A   1      46.644  24.775  28.118  1.00  0.00     0.029 A 
ATOM     46  C   UNL A   1      46.363  26.141  28.546  1.00  0.00     0.049 A 
ATOM     47  H   UNL A   1      44.499  27.042  28.772  1.00  0.00     0.167 HD
ATOM     48  C   UNL A   1      40.524  28.840  29.102  1.00  0.00     0.031 A 
ATOM     49  C   UNL A   1      47.289  27.061  28.874  1.00  0.00     0.031 A 
ATOM     50  C   UNL A   1      41.436  29.862  29.543  1.00  0.00     0.049 A 
ATOM     51  C   UNL A   1      46.843  28.431  29.303  1.00  0.00     0.074 A 
ATOM     52  C   UNL A   1      41.147  31.128  30.022  1.00  0.00     0.029 A 
ATOM     53  N   UNL A   1      42.816  29.734  29.556  1.00  0.00    -0.354 N 
ATOM     54  N   UNL A   1      45.626  28.904  29.419  1.00  0.00    -0.248 NA
ATOM     55  C   UNL A   1      47.900  29.388  29.657  1.00  0.00     0.031 C 
ATOM     56  C   UNL A   1      42.355  31.783  30.279  1.00  0.00     0.029 A 
ATOM     57  C   UNL A   1      43.395  30.906  30.011  1.00  0.00     0.049 A 
ATOM     58  H   UNL A   1      43.311  28.928  29.280  1.00  0.00     0.167 HD
ATOM     59  C   UNL A   1      45.770  30.204  29.885  1.00  0.00     0.074 A 
ATOM     60  C   UNL A   1      47.190  30.439  30.043  1.00  0.00     0.031 C 
ATOM     61  C   UNL A   1      44.811  31.123  30.158  1.00  0.00     0.031 A 
BRANCH  48  62
ATOM     62  C   UNL A   1      39.054  29.153  29.074  1.00  0.00    -0.014 A 
ATOM     63  C   UNL A   1      38.249  28.970  30.210  1.00  0.00     0.009 A 
ATOM     64  C   UNL A   1      38.469  29.660  27.904  1.00  0.00     0.009 A 
ATOM     65  C   UNL A   1      36.881  29.248  30.162  1.00  0.00     0.001 A 
ATOM     66  C   UNL A   1      37.106  29.966  27.867  1.00  0.00     0.001 A 
ATOM     67  C   UNL A   1      36.313  29.749  28.992  1.00  0.00     0.000 A 
ENDBRANCH  48  62
BRANCH  49  68
ATOM     68  C   UNL A   1      48.731  26.712  28.827  1.00  0.00    -0.014 A 
ATOM     69  C   UNL A   1      49.472  26.906  27.650  1.00  0.00     0.009 A 
ATOM     70  C   UNL A   1      49.378  26.183  29.956  1.00  0.00     0.009 A 
ATOM     71  C   UNL A   1      50.822  26.556  27.598  1.00  0.00     0.001 A 
ATOM     72  C   UNL A   1      50.735  25.859  29.907  1.00  0.00     0.001 A 
ATOM     73  C   UNL A   1      51.454  26.037  28.727  1.00  0.00     0.000 A 
ENDBRANCH  49  68
BRANCH  61  74
ATOM     74  C   UNL A   1      45.266  32.453  30.687  1.00  0.00    -0.014 A 
ATOM     75  C   UNL A   1      45.534  33.526  29.824  1.00  0.00     0.009 A 
ATOM     76  C   UNL A   1      45.391  32.644  32.072  1.00  0.00     0.009 A 
ATOM     77  C   UNL A   1      45.950  34.757  30.337  1.00  0.00     0.001 A 
ATOM     78  C   UNL A   1      45.778  33.882  32.583  1.00  0.00     0.001 A 
ATOM     79  C   UNL A   1      46.067  34.934  31.716  1.00  0.00     0.000 A 
ENDBRANCH  61  74
ENDBRANCH  35  36
ENDBRANCH  27  30
ENDBRANCH  25  26
ENDBRANCH  24  25
ENDBRANCH  23  24
ENDBRANCH  22  23
ENDBRANCH   1  22
TORSDOF 17
ENDMDL
MODEL 2
REMARK VINA RESULT:     -10.1      5.469     10.429
REMARK SMILES CC(C)CN(C)S(=O)(=O)c1ccc(C(=O)NCCCCCCNC(=O)c2ccc(-c3c4nc(c(-c5ccccc5)c5ccc([nH]5)c(-c5ccccc5)c5nc(c(-c6ccccc6)c6ccc3[nH]6)C=C5)C=C4)cc2)cc1
REMARK SMILES IDX 18 1 17 2 16 3 14 4 15 5 13 7 10 8 11 9 75 10 12 11 74 12
REMARK SMILES IDX 7 13 8 14 9 15 5 16 6 17 4 18 2 19 1 20 3 21 19 22 20 23
REMARK SMILES IDX 21 24 22 25 23 26 24 27 25 29 26 30 27 31 73 32 28 33 72 34
REMARK SMILES IDX 29 35 30 36 31 37 66 38 32 39 71 40 65 41 67 42 33 43 70 44
REMARK SMILES IDX 64 45 63 46 34 48 56 49 41 50 55 51 42 52 45 53 54 54 68 55
REMARK SMILES IDX 43 56 44 57 53 59 69 60 46 61 35 62 36 63 40 64 37 65 39 66
REMARK SMILES IDX 38 67 57 68 58 69 62 70 59 71 61 72 60 73 47 74 48 75 52 76
REMARK SMILES IDX 49 77 51 78 50 79
REMARK H PARENT 16 6 23 28 67 47 45 58
REMARK Flexibility Score: inf
ROOT
ATOM      1  C   UNL A   1      35.705  32.536  28.015  1.00  0.00     0.021 C 
ENDROOT
BRANCH   1   2
ATOM      2  C   UNL A   1      34.786  31.312  28.023  1.00  0.00     0.116 C 
BRANCH   2   3
ATOM      3  N   UNL A   1      33.450  31.696  27.617  1.00  0.00    -0.352 N 
ATOM      4  C   UNL A   1      32.497  31.040  26.883  1.00  0.00     0.251 C 
ATOM      5  O   UNL A   1      31.431  31.620  26.676  1.00  0.00    -0.269 OA
ATOM      6  H   UNL A   1      33.176  32.590  27.924  1.00  0.00     0.163 HD
BRANCH   4   7
ATOM      7  C   UNL A   1      32.675  29.648  26.381  1.00  0.00     0.039 A 
ATOM      8  C   UNL A   1      32.900  26.947  25.575  1.00  0.00     0.082 A 
ATOM      9  C   UNL A   1      32.225  27.284  26.757  1.00  0.00     0.022 A 
ATOM     10  C   UNL A   1      33.397  27.970  24.765  1.00  0.00     0.022 A 
ATOM     11  C   UNL A   1      32.107  28.622  27.148  1.00  0.00     0.015 A 
ATOM     12  C   UNL A   1      33.293  29.310  25.172  1.00  0.00     0.015 A 
BRANCH   8  13
ATOM     13  S   UNL A   1      32.851  25.245  25.019  1.00  0.00     0.242 S 
ATOM     14  O   UNL A   1      33.232  24.425  26.156  1.00  0.00    -0.207 OA
ATOM     15  O   UNL A   1      33.620  25.201  23.798  1.00  0.00    -0.207 OA
BRANCH  13  16
ATOM     16  N   UNL A   1      31.205  24.840  24.613  1.00  0.00    -0.201 NA
ATOM     17  C   UNL A   1      31.035  23.415  24.189  1.00  0.00     0.124 C 
BRANCH  16  18
ATOM     18  C   UNL A   1      30.662  25.729  23.504  1.00  0.00     0.105 C 
BRANCH  18  19
ATOM     19  C   UNL A   1      29.746  26.867  23.996  1.00  0.00    -0.002 C 
ATOM     20  C   UNL A   1      29.907  28.158  23.192  1.00  0.00     0.009 C 
ATOM     21  C   UNL A   1      28.283  26.410  23.882  1.00  0.00     0.009 C 
ENDBRANCH  18  19
ENDBRANCH  16  18
ENDBRANCH  13  16
ENDBRANCH   8  13
ENDBRANCH   4   7
ENDBRANCH   2   3
ENDBRANCH   1   2
BRANCH   1  22
ATOM     22  C   UNL A   1      35.174  33.700  28.860  1.00  0.00     0.002 C 
BRANCH  22  23
ATOM     23  C   UNL A   1      34.811  34.957  28.060  1.00  0.00     0.002 C 
BRANCH  23  24
ATOM     24  C   UNL A   1      33.833  35.904  28.759  1.00  0.00     0.021 C 
BRANCH  24  25
ATOM     25  C   UNL A   1      32.750  35.196  29.567  1.00  0.00     0.116 C 
BRANCH  25  26
ATOM     26  N   UNL A   1      32.304  36.009  30.687  1.00  0.00    -0.352 N 
ATOM     27  C   UNL A   1      32.682  35.949  32.004  1.00  0.00     0.251 C 
ATOM     28  H   UNL A   1      31.637  36.699  30.470  1.00  0.00     0.163 HD
ATOM     29  O   UNL A   1      32.031  36.531  32.865  1.00  0.00    -0.269 OA
BRANCH  27  30
ATOM     30  C   UNL A   1      33.880  35.174  32.383  1.00  0.00     0.039 A 
ATOM     31  C   UNL A   1      33.721  33.886  32.900  1.00  0.00     0.014 A 
ATOM     32  C   UNL A   1      35.156  35.729  32.249  1.00  0.00     0.014 A 
ATOM     33  C   UNL A   1      34.846  33.136  33.241  1.00  0.00     0.010 A 
ATOM     34  C   UNL A   1      36.279  34.956  32.525  1.00  0.00     0.010 A 
ATOM     35  C   UNL A   1      36.134  33.656  33.033  1.00  0.00    -0.014 A 
BRANCH  35  36
ATOM     36  C   UNL A   1      37.345  32.863  33.356  1.00  0.00     0.031 A 
ATOM     37  C   UNL A   1      38.094  33.119  34.634  1.00  0.00     0.074 A 
ATOM     38  C   UNL A   1      37.803  31.958  32.470  1.00  0.00     0.049 A 
ATOM     39  N   UNL A   1      39.203  32.572  35.064  1.00  0.00    -0.248 NA
ATOM     40  C   UNL A   1      37.537  34.141  35.535  1.00  0.00     0.031 C 
ATOM     41  C   UNL A   1      37.186  31.643  31.182  1.00  0.00     0.029 A 
ATOM     42  N   UNL A   1      38.902  31.138  32.523  1.00  0.00    -0.354 N 
ATOM     43  C   UNL A   1      39.484  33.196  36.273  1.00  0.00     0.074 A 
ATOM     44  C   UNL A   1      38.460  34.194  36.485  1.00  0.00     0.031 C 
ATOM     45  C   UNL A   1      37.899  30.680  30.577  1.00  0.00     0.029 A 
ATOM     46  C   UNL A   1      39.043  30.337  31.416  1.00  0.00     0.049 A 
ATOM     47  H   UNL A   1      39.530  31.126  33.280  1.00  0.00     0.167 HD
ATOM     48  C   UNL A   1      40.494  32.945  37.141  1.00  0.00     0.031 A 
ATOM     49  C   UNL A   1      39.989  29.431  31.110  1.00  0.00     0.031 A 
ATOM     50  C   UNL A   1      41.506  31.944  36.935  1.00  0.00     0.049 A 
ATOM     51  C   UNL A   1      41.108  29.182  32.082  1.00  0.00     0.074 A 
ATOM     52  C   UNL A   1      42.539  31.576  37.779  1.00  0.00     0.029 A 
ATOM     53  N   UNL A   1      41.611  31.151  35.803  1.00  0.00    -0.354 N 
ATOM     54  N   UNL A   1      41.326  29.736  33.250  1.00  0.00    -0.248 NA
ATOM     55  C   UNL A   1      42.106  28.174  31.696  1.00  0.00     0.031 C 
ATOM     56  C   UNL A   1      43.299  30.594  37.136  1.00  0.00     0.029 A 
ATOM     57  C   UNL A   1      42.707  30.312  35.914  1.00  0.00     0.049 A 
ATOM     58  H   UNL A   1      40.998  31.181  35.033  1.00  0.00     0.167 HD
ATOM     59  C   UNL A   1      42.468  29.125  33.751  1.00  0.00     0.074 A 
ATOM     60  C   UNL A   1      42.888  28.149  32.766  1.00  0.00     0.031 C 
ATOM     61  C   UNL A   1      43.112  29.351  34.922  1.00  0.00     0.031 A 
BRANCH  48  62
ATOM     62  C   UNL A   1      40.553  33.780  38.390  1.00  0.00    -0.014 A 
ATOM     63  C   UNL A   1      41.229  35.011  38.411  1.00  0.00     0.009 A 
ATOM     64  C   UNL A   1      39.903  33.344  39.554  1.00  0.00     0.009 A 
ATOM     65  C   UNL A   1      41.290  35.766  39.584  1.00  0.00     0.001 A 
ATOM     66  C   UNL A   1      39.940  34.116  40.718  1.00  0.00     0.001 A 
ATOM     67  C   UNL A   1      40.642  35.319  40.735  1.00  0.00     0.000 A 
ENDBRANCH  48  62
BRANCH  49  68
ATOM     68  C   UNL A   1      39.909  28.676  29.834  1.00  0.00    -0.014 A 
ATOM     69  C   UNL A   1      39.332  27.396  29.800  1.00  0.00     0.009 A 
ATOM     70  C   UNL A   1      40.407  29.227  28.642  1.00  0.00     0.009 A 
ATOM     71  C   UNL A   1      39.278  26.676  28.605  1.00  0.00     0.001 A 
ATOM     72  C   UNL A   1      40.327  28.514  27.444  1.00  0.00     0.001 A 
ATOM     73  C   UNL A   1      39.771  27.237  27.428  1.00  0.00     0.000 A 
ENDBRANCH  49  68
BRANCH  61  74
ATOM     74  C   UNL A   1      44.318  28.505  35.215  1.00  0.00    -0.014 A 
ATOM     75  C   UNL A   1      45.608  28.929  34.860  1.00  0.00     0.009 A 
ATOM     76  C   UNL A   1      44.164  27.285  35.891  1.00  0.00     0.009 A 
ATOM     77  C   UNL A   1      46.717  28.131  35.148  1.00  0.00     0.001 A 
ATOM     78  C   UNL A   1      45.276  26.503  36.203  1.00  0.00     0.001 A 
ATOM     79  C   UNL A   1      46.550  26.921  35.824  1.00  0.00     0.000 A 
ENDBRANCH  61  74
ENDBRANCH  35  36
ENDBRANCH  27  30
ENDBRANCH  25  26
ENDBRANCH  24  25
ENDBRANCH  23  24
ENDBRANCH  22  23
ENDBRANCH   1  22
TORSDOF 17
ENDMDL
MODEL 3
REMARK VINA RESULT:     -10.0      2.344      6.838
REMARK SMILES CC(C)CN(C)S(=O)(=O)c1ccc(C(=O)NCCCCCCNC(=O)c2ccc(-c3c4nc(c(-c5ccccc5)c5ccc([nH]5)c(-c5ccccc5)c5nc(c(-c6ccccc6)c6ccc3[nH]6)C=C5)C=C4)cc2)cc1
REMARK SMILES IDX 18 1 17 2 16 3 14 4 15 5 13 7 10 8 11 9 75 10 12 11 74 12
REMARK SMILES IDX 7 13 8 14 9 15 5 16 6 17 4 18 2 19 1 20 3 21 19 22 20 23
REMARK SMILES IDX 21 24 22 25 23 26 24 27 25 29 26 30 27 31 73 32 28 33 72 34
REMARK SMILES IDX 29 35 30 36 31 37 66 38 32 39 71 40 65 41 67 42 33 43 70 44
REMARK SMILES IDX 64 45 63 46 34 48 56 49 41 50 55 51 42 52 45 53 54 54 68 55
REMARK SMILES IDX 43 56 44 57 53 59 69 60 46 61 35 62 36 63 40 64 37 65 39 66
REMARK SMILES IDX 38 67 57 68 58 69 62 70 59 71 61 72 60 73 47 74 48 75 52 76
REMARK SMILES IDX 49 77 51 78 50 79
REMARK H PARENT 16 6 23 28 67 47 45 58
REMARK Flexibility Score: inf
ROOT
ATOM      1  C   UNL A   1      40.708  22.401  27.596  1.00  0.00     0.021 C 
ENDROOT
BRANCH   1   2
ATOM      2  C   UNL A   1      39.584  22.739  26.614  1.00  0.00     0.116 C 
BRANCH   2   3
ATOM      3  N   UNL A   1      39.085  21.526  25.998  1.00  0.00    -0.352 N 
ATOM      4  C   UNL A   1      37.936  21.264  25.301  1.00  0.00     0.251 C 
ATOM      5  O   UNL A   1      37.760  20.116  24.893  1.00  0.00    -0.269 OA
ATOM      6  H   UNL A   1      39.681  20.749  26.098  1.00  0.00     0.163 HD
BRANCH   4   7
ATOM      7  C   UNL A   1      36.929  22.313  24.973  1.00  0.00     0.039 A 
ATOM      8  C   UNL A   1      35.034  24.249  24.163  1.00  0.00     0.082 A 
ATOM      9  C   UNL A   1      35.709  23.471  23.212  1.00  0.00     0.022 A 
ATOM     10  C   UNL A   1      35.260  24.006  25.519  1.00  0.00     0.022 A 
ATOM     11  C   UNL A   1      36.639  22.507  23.615  1.00  0.00     0.015 A 
ATOM     12  C   UNL A   1      36.208  23.049  25.919  1.00  0.00     0.015 A 
BRANCH   8  13
ATOM     13  S   UNL A   1      33.715  25.326  23.606  1.00  0.00     0.242 S 
ATOM     14  O   UNL A   1      33.630  25.169  22.165  1.00  0.00    -0.207 OA
ATOM     15  O   UNL A   1      33.985  26.620  24.184  1.00  0.00    -0.207 OA
BRANCH  13  16
ATOM     16  N   UNL A   1      32.212  24.757  24.281  1.00  0.00    -0.201 NA
ATOM     17  C   UNL A   1      31.478  23.816  23.378  1.00  0.00     0.124 C 
BRANCH  16  18
ATOM     18  C   UNL A   1      31.276  25.906  24.624  1.00  0.00     0.105 C 
BRANCH  18  19
ATOM     19  C   UNL A   1      30.305  26.292  23.492  1.00  0.00    -0.002 C 
ATOM     20  C   UNL A   1      28.853  26.410  23.958  1.00  0.00     0.009 C 
ATOM     21  C   UNL A   1      30.735  27.649  22.911  1.00  0.00     0.009 C 
ENDBRANCH  18  19
ENDBRANCH  16  18
ENDBRANCH  13  16
ENDBRANCH   8  13
ENDBRANCH   4   7
ENDBRANCH   2   3
ENDBRANCH   1   2
BRANCH   1  22
ATOM     22  C   UNL A   1      41.788  21.494  26.996  1.00  0.00     0.002 C 
BRANCH  22  23
ATOM     23  C   UNL A   1      41.935  20.133  27.685  1.00  0.00     0.002 C 
BRANCH  23  24
ATOM     24  C   UNL A   1      42.525  19.027  26.805  1.00  0.00     0.021 C 
BRANCH  24  25
ATOM     25  C   UNL A   1      42.560  19.367  25.319  1.00  0.00     0.116 C 
BRANCH  25  26
ATOM     26  N   UNL A   1      43.786  18.895  24.694  1.00  0.00    -0.352 N 
ATOM     27  C   UNL A   1      44.880  19.613  24.284  1.00  0.00     0.251 C 
ATOM     28  H   UNL A   1      43.838  17.923  24.546  1.00  0.00     0.163 HD
ATOM     29  O   UNL A   1      45.719  19.102  23.550  1.00  0.00    -0.269 OA
BRANCH  27  30
ATOM     30  C   UNL A   1      45.042  21.011  24.727  1.00  0.00     0.039 A 
ATOM     31  C   UNL A   1      44.735  22.046  23.840  1.00  0.00     0.014 A 
ATOM     32  C   UNL A   1      45.518  21.298  26.011  1.00  0.00     0.014 A 
ATOM     33  C   UNL A   1      44.862  23.371  24.257  1.00  0.00     0.010 A 
ATOM     34  C   UNL A   1      45.580  22.617  26.447  1.00  0.00     0.010 A 
ATOM     35  C   UNL A   1      45.263  23.666  25.570  1.00  0.00    -0.014 A 
BRANCH  35  36
ATOM     36  C   UNL A   1      45.371  25.067  26.044  1.00  0.00     0.031 A 
ATOM     37  C   UNL A   1      46.697  25.775  26.002  1.00  0.00     0.074 A 
ATOM     38  C   UNL A   1      44.292  25.678  26.568  1.00  0.00     0.049 A 
ATOM     39  N   UNL A   1      47.005  26.975  26.424  1.00  0.00    -0.248 NA
ATOM     40  C   UNL A   1      47.830  25.027  25.435  1.00  0.00     0.031 C 
ATOM     41  C   UNL A   1      42.960  25.086  26.696  1.00  0.00     0.029 A 
ATOM     42  N   UNL A   1      44.150  26.937  27.095  1.00  0.00    -0.354 N 
ATOM     43  C   UNL A   1      48.367  27.117  26.190  1.00  0.00     0.074 A 
ATOM     44  C   UNL A   1      48.836  25.866  25.637  1.00  0.00     0.031 C 
ATOM     45  C   UNL A   1      42.129  25.990  27.240  1.00  0.00     0.029 A 
ATOM     46  C   UNL A   1      42.877  27.208  27.534  1.00  0.00     0.049 A 
ATOM     47  H   UNL A   1      44.889  27.584  27.155  1.00  0.00     0.167 HD
ATOM     48  C   UNL A   1      49.154  28.200  26.398  1.00  0.00     0.031 A 
ATOM     49  C   UNL A   1      42.370  28.312  28.113  1.00  0.00     0.031 A 
ATOM     50  C   UNL A   1      48.685  29.448  26.939  1.00  0.00     0.049 A 
ATOM     51  C   UNL A   1      43.267  29.495  28.348  1.00  0.00     0.074 A 
ATOM     52  C   UNL A   1      49.391  30.621  27.138  1.00  0.00     0.029 A 
ATOM     53  N   UNL A   1      47.388  29.682  27.367  1.00  0.00    -0.354 N 
ATOM     54  N   UNL A   1      44.539  29.635  28.064  1.00  0.00    -0.248 NA
ATOM     55  C   UNL A   1      42.654  30.674  28.974  1.00  0.00     0.031 C 
ATOM     56  C   UNL A   1      48.533  31.551  27.733  1.00  0.00     0.029 A 
ATOM     57  C   UNL A   1      47.278  30.974  27.854  1.00  0.00     0.049 A 
ATOM     58  H   UNL A   1      46.654  29.027  27.332  1.00  0.00     0.167 HD
ATOM     59  C   UNL A   1      44.872  30.927  28.450  1.00  0.00     0.074 A 
ATOM     60  C   UNL A   1      43.665  31.532  28.975  1.00  0.00     0.031 C 
ATOM     61  C   UNL A   1      46.070  31.557  28.377  1.00  0.00     0.031 A 
BRANCH  48  62
ATOM     62  C   UNL A   1      50.610  28.071  26.046  1.00  0.00    -0.014 A 
ATOM     63  C   UNL A   1      51.066  28.307  24.738  1.00  0.00     0.009 A 
ATOM     64  C   UNL A   1      51.543  27.735  27.038  1.00  0.00     0.009 A 
ATOM     65  C   UNL A   1      52.419  28.165  24.423  1.00  0.00     0.001 A 
ATOM     66  C   UNL A   1      52.900  27.624  26.727  1.00  0.00     0.001 A 
ATOM     67  C   UNL A   1      53.335  27.828  25.419  1.00  0.00     0.000 A 
ENDBRANCH  48  62
BRANCH  49  68
ATOM     68  C   UNL A   1      40.935  28.360  28.492  1.00  0.00    -0.014 A 
ATOM     69  C   UNL A   1      39.988  28.920  27.620  1.00  0.00     0.009 A 
ATOM     70  C   UNL A   1      40.502  27.846  29.725  1.00  0.00     0.009 A 
ATOM     71  C   UNL A   1      38.642  28.986  27.986  1.00  0.00     0.001 A 
ATOM     72  C   UNL A   1      39.151  27.890  30.076  1.00  0.00     0.001 A 
ATOM     73  C   UNL A   1      38.224  28.468  29.211  1.00  0.00     0.000 A 
ENDBRANCH  49  68
BRANCH  61  74
ATOM     74  C   UNL A   1      46.124  32.983  28.846  1.00  0.00    -0.014 A 
ATOM     75  C   UNL A   1      45.740  34.041  28.008  1.00  0.00     0.009 A 
ATOM     76  C   UNL A   1      46.529  33.267  30.160  1.00  0.00     0.009 A 
ATOM     77  C   UNL A   1      45.792  35.359  28.467  1.00  0.00     0.001 A 
ATOM     78  C   UNL A   1      46.552  34.581  30.625  1.00  0.00     0.001 A 
ATOM     79  C   UNL A   1      46.193  35.626  29.776  1.00  0.00     0.000 A 
ENDBRANCH  61  74
ENDBRANCH  35  36
ENDBRANCH  27  30
ENDBRANCH  25  26
ENDBRANCH  24  25
ENDBRANCH  23  24
ENDBRANCH  22  23
ENDBRANCH   1  22
TORSDOF 17
ENDMDL
