MODEL 1
REMARK VINA RESULT:     -13.0      0.000      0.000
REMARK SMILES CC(=O)Nc1cnc(N2CC=C(c3ccccc3C)CC2)c(C(=O)NCCCCCCNC(=O)c2ccc(-c3c4nc(c(-c5ccccc5)c5ccc([nH]5)c(-c5ccccc5)c5nc(c(-c6ccccc6)c6ccc3[nH]6)C=C5)C=C4)cc2)c1
REMARK SMILES IDX 28 1 27 2 26 3 25 4 23 5 24 6 22 8 5 9 6 10 83 11 7 12 8 13
REMARK SMILES IDX 4 14 1 15 2 16 3 17 9 19 10 20 21 21 11 22 20 23 12 24 13 25
REMARK SMILES IDX 14 26 18 27 15 28 17 29 19 30 16 31 29 32 30 33 31 34 32 35
REMARK SMILES IDX 33 36 34 38 35 39 36 40 82 41 37 42 81 43 38 44 39 45 40 46
REMARK SMILES IDX 75 47 41 48 80 49 74 50 76 51 42 52 79 53 73 54 72 55 43 57
REMARK SMILES IDX 65 58 50 59 64 60 51 61 54 62 63 63 77 64 52 65 53 66 62 68
REMARK SMILES IDX 78 69 55 70 44 71 45 72 49 73 46 74 48 75 47 76 66 77 67 78
REMARK SMILES IDX 71 79 68 80 70 81 69 82 56 83 57 84 61 85 58 86 60 87 59 88
REMARK H PARENT 25 7 4 18 32 37 76 56 54 67
REMARK Flexibility Score: inf
ROOT
ATOM      1  C   UNL A   1      39.137  22.598  26.395  1.00  0.00     0.002 C 
ENDROOT
BRANCH   1   2
ATOM      2  C   UNL A   1      38.222  21.814  25.443  1.00  0.00     0.021 C 
BRANCH   2   3
ATOM      3  C   UNL A   1      36.978  22.577  24.993  1.00  0.00     0.116 C 
BRANCH   3   4
ATOM      4  N   UNL A   1      35.905  22.494  25.956  1.00  0.00    -0.352 N 
ATOM      5  C   UNL A   1      34.750  21.774  26.118  1.00  0.00     0.255 C 
ATOM      6  O   UNL A   1      34.358  21.804  27.286  1.00  0.00    -0.269 OA
ATOM      7  H   UNL A   1      36.039  23.128  26.696  1.00  0.00     0.163 HD
BRANCH   5   8
ATOM      8  C   UNL A   1      34.019  20.978  25.067  1.00  0.00     0.084 A 
ATOM      9  C   UNL A   1      33.476  18.832  24.024  1.00  0.00     0.060 A 
ATOM     10  C   UNL A   1      32.472  19.470  23.334  1.00  0.00     0.139 A 
ATOM     11  C   UNL A   1      34.291  19.620  24.835  1.00  0.00     0.045 A 
ATOM     12  N   UNL A   1      32.209  20.782  23.469  1.00  0.00    -0.236 NA
ATOM     13  C   UNL A   1      32.964  21.545  24.315  1.00  0.00     0.141 A 
BRANCH   9  14
ATOM     14  N   UNL A   1      33.660  17.449  23.871  1.00  0.00    -0.325 N 
ATOM     15  C   UNL A   1      32.564  16.716  25.979  1.00  0.00     0.114 C 
ATOM     16  C   UNL A   1      33.414  16.441  24.765  1.00  0.00     0.221 C 
ATOM     17  O   UNL A   1      33.831  15.306  24.531  1.00  0.00    -0.275 OA
ATOM     18  H   UNL A   1      34.014  17.164  22.997  1.00  0.00     0.169 HD
ENDBRANCH   9  14
BRANCH  13  19
ATOM     19  N   UNL A   1      32.601  22.867  24.295  1.00  0.00    -0.352 N 
ATOM     20  C   UNL A   1      33.331  23.755  23.407  1.00  0.00     0.146 C 
ATOM     21  C   UNL A   1      31.437  23.383  25.002  1.00  0.00     0.123 C 
ATOM     22  C   UNL A   1      33.315  25.167  23.923  1.00  0.00    -0.002 C 
ATOM     23  C   UNL A   1      31.845  24.599  25.842  1.00  0.00     0.057 C 
ATOM     24  C   UNL A   1      32.662  25.572  25.029  1.00  0.00    -0.041 C 
BRANCH  24  25
ATOM     25  C   UNL A   1      32.715  26.986  25.450  1.00  0.00    -0.020 A 
ATOM     26  C   UNL A   1      33.815  27.402  26.223  1.00  0.00     0.008 A 
ATOM     27  C   UNL A   1      31.712  27.922  25.126  1.00  0.00    -0.044 A 
ATOM     28  C   UNL A   1      33.924  28.719  26.669  1.00  0.00     0.001 A 
ATOM     29  C   UNL A   1      31.846  29.249  25.570  1.00  0.00     0.004 A 
ATOM     30  C   UNL A   1      30.504  27.562  24.305  1.00  0.00     0.045 C 
ATOM     31  C   UNL A   1      32.940  29.643  26.341  1.00  0.00     0.000 A 
ENDBRANCH  24  25
ENDBRANCH  13  19
ENDBRANCH   5   8
ENDBRANCH   3   4
ENDBRANCH   2   3
ENDBRANCH   1   2
BRANCH   1  32
ATOM     32  C   UNL A   1      40.622  22.185  26.416  1.00  0.00     0.002 C 
BRANCH  32  33
ATOM     33  C   UNL A   1      40.916  20.681  26.401  1.00  0.00     0.021 C 
BRANCH  33  34
ATOM     34  C   UNL A   1      42.370  20.332  26.668  1.00  0.00     0.116 C 
BRANCH  34  35
ATOM     35  N   UNL A   1      43.113  19.935  25.480  1.00  0.00    -0.352 N 
ATOM     36  C   UNL A   1      43.972  20.690  24.700  1.00  0.00     0.251 C 
ATOM     37  H   UNL A   1      42.987  19.002  25.193  1.00  0.00     0.163 HD
ATOM     38  O   UNL A   1      44.500  20.202  23.713  1.00  0.00    -0.269 OA
BRANCH  36  39
ATOM     39  C   UNL A   1      44.349  22.051  25.152  1.00  0.00     0.039 A 
ATOM     40  C   UNL A   1      45.201  22.154  26.256  1.00  0.00     0.014 A 
ATOM     41  C   UNL A   1      43.721  23.186  24.641  1.00  0.00     0.014 A 
ATOM     42  C   UNL A   1      45.227  23.338  26.988  1.00  0.00     0.010 A 
ATOM     43  C   UNL A   1      43.669  24.329  25.416  1.00  0.00     0.010 A 
ATOM     44  C   UNL A   1      44.368  24.377  26.623  1.00  0.00    -0.014 A 
BRANCH  44  45
ATOM     45  C   UNL A   1      44.067  25.489  27.513  1.00  0.00     0.031 A 
ATOM     46  C   UNL A   1      42.739  26.124  27.483  1.00  0.00     0.074 A 
ATOM     47  C   UNL A   1      45.018  25.980  28.338  1.00  0.00     0.049 A 
ATOM     48  N   UNL A   1      42.545  27.393  27.634  1.00  0.00    -0.248 NA
ATOM     49  C   UNL A   1      41.517  25.366  27.234  1.00  0.00     0.031 C 
ATOM     50  C   UNL A   1      44.846  26.994  29.376  1.00  0.00     0.029 A 
ATOM     51  N   UNL A   1      46.402  25.830  28.237  1.00  0.00    -0.354 N 
ATOM     52  C   UNL A   1      41.192  27.571  27.794  1.00  0.00     0.074 A 
ATOM     53  C   UNL A   1      40.589  26.303  27.446  1.00  0.00     0.031 C 
ATOM     54  C   UNL A   1      46.028  27.595  29.582  1.00  0.00     0.029 A 
ATOM     55  C   UNL A   1      46.961  27.063  28.601  1.00  0.00     0.049 A 
ATOM     56  H   UNL A   1      46.889  25.019  27.965  1.00  0.00     0.167 HD
ATOM     57  C   UNL A   1      40.709  28.708  28.364  1.00  0.00     0.031 A 
ATOM     58  C   UNL A   1      47.766  27.803  27.786  1.00  0.00     0.031 A 
ATOM     59  C   UNL A   1      41.769  29.628  28.758  1.00  0.00     0.049 A 
ATOM     60  C   UNL A   1      47.250  29.206  27.558  1.00  0.00     0.074 A 
ATOM     61  C   UNL A   1      42.387  29.873  29.973  1.00  0.00     0.029 A 
ATOM     62  N   UNL A   1      42.551  30.237  27.786  1.00  0.00    -0.354 N 
ATOM     63  N   UNL A   1      46.021  29.574  27.792  1.00  0.00    -0.248 NA
ATOM     64  C   UNL A   1      48.051  30.281  26.981  1.00  0.00     0.031 C 
ATOM     65  C   UNL A   1      43.578  30.596  29.723  1.00  0.00     0.029 A 
ATOM     66  C   UNL A   1      43.670  30.808  28.360  1.00  0.00     0.049 A 
ATOM     67  H   UNL A   1      42.338  30.258  26.825  1.00  0.00     0.167 HD
ATOM     68  C   UNL A   1      45.854  30.882  27.417  1.00  0.00     0.074 A 
ATOM     69  C   UNL A   1      47.156  31.283  26.920  1.00  0.00     0.031 C 
ATOM     70  C   UNL A   1      44.648  31.510  27.540  1.00  0.00     0.031 A 
BRANCH  57  71
ATOM     71  C   UNL A   1      39.291  28.801  28.857  1.00  0.00    -0.014 A 
ATOM     72  C   UNL A   1      38.283  29.293  28.008  1.00  0.00     0.009 A 
ATOM     73  C   UNL A   1      38.902  28.465  30.165  1.00  0.00     0.009 A 
ATOM     74  C   UNL A   1      36.985  29.541  28.469  1.00  0.00     0.001 A 
ATOM     75  C   UNL A   1      37.614  28.748  30.644  1.00  0.00     0.001 A 
ATOM     76  C   UNL A   1      36.660  29.300  29.797  1.00  0.00     0.000 A 
ENDBRANCH  57  71
BRANCH  58  77
ATOM     77  C   UNL A   1      48.503  27.016  26.761  1.00  0.00    -0.014 A 
ATOM     78  C   UNL A   1      47.967  26.934  25.462  1.00  0.00     0.009 A 
ATOM     79  C   UNL A   1      49.848  26.674  26.957  1.00  0.00     0.009 A 
ATOM     80  C   UNL A   1      48.782  26.617  24.371  1.00  0.00     0.001 A 
ATOM     81  C   UNL A   1      50.658  26.349  25.862  1.00  0.00     0.001 A 
ATOM     82  C   UNL A   1      50.134  26.351  24.569  1.00  0.00     0.000 A 
ENDBRANCH  58  77
BRANCH  70  83
ATOM     83  C   UNL A   1      44.268  32.862  26.986  1.00  0.00    -0.014 A 
ATOM     84  C   UNL A   1      44.150  33.163  25.624  1.00  0.00     0.009 A 
ATOM     85  C   UNL A   1      43.880  33.880  27.891  1.00  0.00     0.009 A 
ATOM     86  C   UNL A   1      43.706  34.421  25.189  1.00  0.00     0.001 A 
ATOM     87  C   UNL A   1      43.394  35.118  27.463  1.00  0.00     0.001 A 
ATOM     88  C   UNL A   1      43.318  35.393  26.107  1.00  0.00     0.000 A 
ENDBRANCH  70  83
ENDBRANCH  44  45
ENDBRANCH  36  39
ENDBRANCH  34  35
ENDBRANCH  33  34
ENDBRANCH  32  33
ENDBRANCH   1  32
TORSDOF 16
ENDMDL
MODEL 2
REMARK VINA RESULT:     -13.0      4.789     10.095
REMARK SMILES CC(=O)Nc1cnc(N2CC=C(c3ccccc3C)CC2)c(C(=O)NCCCCCCNC(=O)c2ccc(-c3c4nc(c(-c5ccccc5)c5ccc([nH]5)c(-c5ccccc5)c5nc(c(-c6ccccc6)c6ccc3[nH]6)C=C5)C=C4)cc2)c1
REMARK SMILES IDX 28 1 27 2 26 3 25 4 23 5 24 6 22 8 5 9 6 10 83 11 7 12 8 13
REMARK SMILES IDX 4 14 1 15 2 16 3 17 9 19 10 20 21 21 11 22 20 23 12 24 13 25
REMARK SMILES IDX 14 26 18 27 15 28 17 29 19 30 16 31 29 32 30 33 31 34 32 35
REMARK SMILES IDX 33 36 34 38 35 39 36 40 82 41 37 42 81 43 38 44 39 45 40 46
REMARK SMILES IDX 75 47 41 48 80 49 74 50 76 51 42 52 79 53 73 54 72 55 43 57
REMARK SMILES IDX 65 58 50 59 64 60 51 61 54 62 63 63 77 64 52 65 53 66 62 68
REMARK SMILES IDX 78 69 55 70 44 71 45 72 49 73 46 74 48 75 47 76 66 77 67 78
REMARK SMILES IDX 71 79 68 80 70 81 69 82 56 83 57 84 61 85 58 86 60 87 59 88
REMARK H PARENT 25 7 4 18 32 37 76 56 54 67
REMARK Flexibility Score: inf
ROOT
ATOM      1  C   UNL A   1      32.497  30.403  26.713  1.00  0.00     0.002 C 
ENDROOT
BRANCH   1   2
ATOM      2  C   UNL A   1      31.578  29.266  27.183  1.00  0.00     0.021 C 
BRANCH   2   3
ATOM      3  C   UNL A   1      32.269  27.911  27.316  1.00  0.00     0.116 C 
BRANCH   3   4
ATOM      4  N   UNL A   1      31.413  26.818  26.919  1.00  0.00    -0.352 N 
ATOM      5  C   UNL A   1      30.843  26.354  25.763  1.00  0.00     0.255 C 
ATOM      6  O   UNL A   1      30.493  25.177  25.872  1.00  0.00    -0.269 OA
ATOM      7  H   UNL A   1      31.174  26.254  27.689  1.00  0.00     0.163 HD
BRANCH   5   8
ATOM      8  C   UNL A   1      30.672  27.105  24.467  1.00  0.00     0.084 A 
ATOM      9  C   UNL A   1      29.497  28.777  23.121  1.00  0.00     0.060 A 
ATOM     10  C   UNL A   1      30.519  28.694  22.204  1.00  0.00     0.139 A 
ATOM     11  C   UNL A   1      29.554  27.917  24.216  1.00  0.00     0.045 A 
ATOM     12  N   UNL A   1      31.582  27.886  22.363  1.00  0.00    -0.236 NA
ATOM     13  C   UNL A   1      31.674  27.090  23.470  1.00  0.00     0.141 A 
BRANCH   9  14
ATOM     14  N   UNL A   1      28.444  29.681  22.914  1.00  0.00    -0.325 N 
ATOM     15  C   UNL A   1      29.344  31.577  24.248  1.00  0.00     0.114 C 
ATOM     16  C   UNL A   1      28.225  30.899  23.500  1.00  0.00     0.221 C 
ATOM     17  O   UNL A   1      27.139  31.460  23.348  1.00  0.00    -0.275 OA
ATOM     18  H   UNL A   1      27.768  29.400  22.254  1.00  0.00     0.169 HD
ENDBRANCH   9  14
BRANCH  13  19
ATOM     19  N   UNL A   1      32.788  26.291  23.450  1.00  0.00    -0.352 N 
ATOM     20  C   UNL A   1      32.873  25.275  22.415  1.00  0.00     0.146 C 
ATOM     21  C   UNL A   1      33.939  26.508  24.317  1.00  0.00     0.123 C 
ATOM     22  C   UNL A   1      33.723  24.118  22.863  1.00  0.00    -0.002 C 
ATOM     23  C   UNL A   1      34.305  25.197  25.022  1.00  0.00     0.057 C 
ATOM     24  C   UNL A   1      34.369  24.052  24.042  1.00  0.00    -0.041 C 
BRANCH  24  25
ATOM     25  C   UNL A   1      35.176  22.865  24.385  1.00  0.00    -0.020 A 
ATOM     26  C   UNL A   1      36.577  22.977  24.313  1.00  0.00     0.008 A 
ATOM     27  C   UNL A   1      34.607  21.632  24.764  1.00  0.00    -0.044 A 
ATOM     28  C   UNL A   1      37.403  21.894  24.608  1.00  0.00     0.001 A 
ATOM     29  C   UNL A   1      35.454  20.554  25.074  1.00  0.00     0.004 A 
ATOM     30  C   UNL A   1      33.121  21.425  24.867  1.00  0.00     0.045 C 
ATOM     31  C   UNL A   1      36.841  20.681  24.990  1.00  0.00     0.000 A 
ENDBRANCH  24  25
ENDBRANCH  13  19
ENDBRANCH   5   8
ENDBRANCH   3   4
ENDBRANCH   2   3
ENDBRANCH   1   2
BRANCH   1  32
ATOM     32  C   UNL A   1      33.940  30.390  27.254  1.00  0.00     0.002 C 
BRANCH  32  33
ATOM     33  C   UNL A   1      34.276  31.423  28.336  1.00  0.00     0.021 C 
BRANCH  33  34
ATOM     34  C   UNL A   1      34.109  32.865  27.888  1.00  0.00     0.116 C 
BRANCH  34  35
ATOM     35  N   UNL A   1      33.471  33.723  28.875  1.00  0.00    -0.352 N 
ATOM     36  C   UNL A   1      33.984  34.214  30.062  1.00  0.00     0.251 C 
ATOM     37  H   UNL A   1      32.546  33.992  28.668  1.00  0.00     0.163 HD
ATOM     38  O   UNL A   1      33.296  34.911  30.793  1.00  0.00    -0.269 OA
BRANCH  36  39
ATOM     39  C   UNL A   1      35.419  33.998  30.372  1.00  0.00     0.039 A 
ATOM     40  C   UNL A   1      36.357  34.441  29.434  1.00  0.00     0.014 A 
ATOM     41  C   UNL A   1      35.819  33.204  31.445  1.00  0.00     0.014 A 
ATOM     42  C   UNL A   1      37.635  33.887  29.435  1.00  0.00     0.010 A 
ATOM     43  C   UNL A   1      37.051  32.581  31.394  1.00  0.00     0.010 A 
ATOM     44  C   UNL A   1      37.930  32.874  30.350  1.00  0.00    -0.014 A 
BRANCH  44  45
ATOM     45  C   UNL A   1      39.088  32.003  30.202  1.00  0.00     0.031 A 
ATOM     46  C   UNL A   1      38.915  30.605  29.774  1.00  0.00     0.074 A 
ATOM     47  C   UNL A   1      40.325  32.456  30.502  1.00  0.00     0.049 A 
ATOM     48  N   UNL A   1      39.618  29.621  30.230  1.00  0.00    -0.248 NA
ATOM     49  C   UNL A   1      37.889  30.203  28.819  1.00  0.00     0.031 C 
ATOM     50  C   UNL A   1      41.593  31.763  30.287  1.00  0.00     0.029 A 
ATOM     51  N   UNL A   1      40.668  33.551  31.296  1.00  0.00    -0.354 N 
ATOM     52  C   UNL A   1      39.347  28.536  29.432  1.00  0.00     0.074 A 
ATOM     53  C   UNL A   1      38.203  28.917  28.634  1.00  0.00     0.031 C 
ATOM     54  C   UNL A   1      42.491  32.238  31.165  1.00  0.00     0.029 A 
ATOM     55  C   UNL A   1      41.791  33.164  32.041  1.00  0.00     0.049 A 
ATOM     56  H   UNL A   1      40.213  34.424  31.327  1.00  0.00     0.167 HD
ATOM     57  C   UNL A   1      40.204  27.480  29.390  1.00  0.00     0.031 A 
ATOM     58  C   UNL A   1      41.832  33.153  33.404  1.00  0.00     0.031 A 
ATOM     59  C   UNL A   1      41.368  27.672  30.246  1.00  0.00     0.049 A 
ATOM     60  C   UNL A   1      42.196  31.801  33.976  1.00  0.00     0.074 A 
ATOM     61  C   UNL A   1      42.660  28.094  29.981  1.00  0.00     0.029 A 
ATOM     62  N   UNL A   1      41.211  27.715  31.624  1.00  0.00    -0.354 N 
ATOM     63  N   UNL A   1      42.125  30.687  33.304  1.00  0.00    -0.248 NA
ATOM     64  C   UNL A   1      42.595  31.589  35.364  1.00  0.00     0.031 C 
ATOM     65  C   UNL A   1      43.271  28.440  31.211  1.00  0.00     0.029 A 
ATOM     66  C   UNL A   1      42.356  28.207  32.221  1.00  0.00     0.049 A 
ATOM     67  H   UNL A   1      40.401  27.437  32.107  1.00  0.00     0.167 HD
ATOM     68  C   UNL A   1      42.451  29.635  34.122  1.00  0.00     0.074 A 
ATOM     69  C   UNL A   1      42.743  30.253  35.402  1.00  0.00     0.031 C 
ATOM     70  C   UNL A   1      42.436  28.348  33.668  1.00  0.00     0.031 A 
BRANCH  57  71
ATOM     71  C   UNL A   1      40.123  26.444  28.302  1.00  0.00    -0.014 A 
ATOM     72  C   UNL A   1      40.876  26.600  27.125  1.00  0.00     0.009 A 
ATOM     73  C   UNL A   1      39.281  25.320  28.365  1.00  0.00     0.009 A 
ATOM     74  C   UNL A   1      40.716  25.747  26.027  1.00  0.00     0.001 A 
ATOM     75  C   UNL A   1      39.087  24.485  27.256  1.00  0.00     0.001 A 
ATOM     76  C   UNL A   1      39.796  24.708  26.081  1.00  0.00     0.000 A 
ENDBRANCH  57  71
BRANCH  58  77
ATOM     77  C   UNL A   1      40.896  34.105  34.060  1.00  0.00    -0.014 A 
ATOM     78  C   UNL A   1      39.664  33.616  34.537  1.00  0.00     0.009 A 
ATOM     79  C   UNL A   1      41.350  35.348  34.522  1.00  0.00     0.009 A 
ATOM     80  C   UNL A   1      38.956  34.305  35.525  1.00  0.00     0.001 A 
ATOM     81  C   UNL A   1      40.632  36.038  35.506  1.00  0.00     0.001 A 
ATOM     82  C   UNL A   1      39.455  35.503  36.029  1.00  0.00     0.000 A 
ENDBRANCH  58  77
BRANCH  70  83
ATOM     83  C   UNL A   1      42.570  27.092  34.496  1.00  0.00    -0.014 A 
ATOM     84  C   UNL A   1      41.526  26.492  35.210  1.00  0.00     0.009 A 
ATOM     85  C   UNL A   1      43.797  26.387  34.463  1.00  0.00     0.009 A 
ATOM     86  C   UNL A   1      41.708  25.275  35.884  1.00  0.00     0.001 A 
ATOM     87  C   UNL A   1      43.970  25.153  35.096  1.00  0.00     0.001 A 
ATOM     88  C   UNL A   1      42.925  24.601  35.818  1.00  0.00     0.000 A 
ENDBRANCH  70  83
ENDBRANCH  44  45
ENDBRANCH  36  39
ENDBRANCH  34  35
ENDBRANCH  33  34
ENDBRANCH  32  33
ENDBRANCH   1  32
TORSDOF 16
ENDMDL
MODEL 3
REMARK VINA RESULT:     -13.0      3.959      9.486
REMARK SMILES CC(=O)Nc1cnc(N2CC=C(c3ccccc3C)CC2)c(C(=O)NCCCCCCNC(=O)c2ccc(-c3c4nc(c(-c5ccccc5)c5ccc([nH]5)c(-c5ccccc5)c5nc(c(-c6ccccc6)c6ccc3[nH]6)C=C5)C=C4)cc2)c1
REMARK SMILES IDX 28 1 27 2 26 3 25 4 23 5 24 6 22 8 5 9 6 10 83 11 7 12 8 13
REMARK SMILES IDX 4 14 1 15 2 16 3 17 9 19 10 20 21 21 11 22 20 23 12 24 13 25
REMARK SMILES IDX 14 26 18 27 15 28 17 29 19 30 16 31 29 32 30 33 31 34 32 35
REMARK SMILES IDX 33 36 34 38 35 39 36 40 82 41 37 42 81 43 38 44 39 45 40 46
REMARK SMILES IDX 75 47 41 48 80 49 74 50 76 51 42 52 79 53 73 54 72 55 43 57
REMARK SMILES IDX 65 58 50 59 64 60 51 61 54 62 63 63 77 64 52 65 53 66 62 68
REMARK SMILES IDX 78 69 55 70 44 71 45 72 49 73 46 74 48 75 47 76 66 77 67 78
REMARK SMILES IDX 71 79 68 80 70 81 69 82 56 83 57 84 61 85 58 86 60 87 59 88
REMARK H PARENT 25 7 4 18 32 37 76 56 54 67
REMARK Flexibility Score: inf
ROOT
ATOM      1  C   UNL A   1      33.825  29.127  27.111  1.00  0.00     0.002 C 
ENDROOT
BRANCH   1   2
ATOM      2  C   UNL A   1      33.145  27.768  26.887  1.00  0.00     0.021 C 
BRANCH   2   3
ATOM      3  C   UNL A   1      31.666  27.733  27.264  1.00  0.00     0.116 C 
BRANCH   3   4
ATOM      4  N   UNL A   1      30.989  26.579  26.723  1.00  0.00    -0.352 N 
ATOM      5  C   UNL A   1      30.559  26.146  25.495  1.00  0.00     0.255 C 
ATOM      6  O   UNL A   1      30.362  24.929  25.488  1.00  0.00    -0.269 OA
ATOM      7  H   UNL A   1      30.776  25.926  27.428  1.00  0.00     0.163 HD
BRANCH   5   8
ATOM      8  C   UNL A   1      30.376  26.976  24.250  1.00  0.00     0.084 A 
ATOM      9  C   UNL A   1      29.211  28.754  23.038  1.00  0.00     0.060 A 
ATOM     10  C   UNL A   1      30.206  28.700  22.089  1.00  0.00     0.139 A 
ATOM     11  C   UNL A   1      29.274  27.829  24.078  1.00  0.00     0.045 A 
ATOM     12  N   UNL A   1      31.251  27.858  22.171  1.00  0.00    -0.236 NA
ATOM     13  C   UNL A   1      31.351  26.996  23.227  1.00  0.00     0.141 A 
BRANCH   9  14
ATOM     14  N   UNL A   1      28.177  29.695  22.912  1.00  0.00    -0.325 N 
ATOM     15  C   UNL A   1      29.290  31.591  24.076  1.00  0.00     0.114 C 
ATOM     16  C   UNL A   1      28.070  30.939  23.475  1.00  0.00     0.221 C 
ATOM     17  O   UNL A   1      26.996  31.540  23.421  1.00  0.00    -0.275 OA
ATOM     18  H   UNL A   1      27.424  29.423  22.339  1.00  0.00     0.169 HD
ENDBRANCH   9  14
BRANCH  13  19
ATOM     19  N   UNL A   1      32.442  26.171  23.130  1.00  0.00    -0.352 N 
ATOM     20  C   UNL A   1      32.332  25.001  22.276  1.00  0.00     0.146 C 
ATOM     21  C   UNL A   1      33.735  26.490  23.719  1.00  0.00     0.123 C 
ATOM     22  C   UNL A   1      33.252  23.905  22.740  1.00  0.00    -0.002 C 
ATOM     23  C   UNL A   1      34.230  25.299  24.547  1.00  0.00     0.057 C 
ATOM     24  C   UNL A   1      34.110  24.010  23.772  1.00  0.00    -0.041 C 
BRANCH  24  25
ATOM     25  C   UNL A   1      34.969  22.870  24.147  1.00  0.00    -0.020 A 
ATOM     26  C   UNL A   1      36.338  22.947  23.833  1.00  0.00     0.008 A 
ATOM     27  C   UNL A   1      34.476  21.715  24.786  1.00  0.00    -0.044 A 
ATOM     28  C   UNL A   1      37.208  21.902  24.143  1.00  0.00     0.001 A 
ATOM     29  C   UNL A   1      35.369  20.677  25.106  1.00  0.00     0.004 A 
ATOM     30  C   UNL A   1      33.028  21.550  25.158  1.00  0.00     0.045 C 
ATOM     31  C   UNL A   1      36.723  20.767  24.781  1.00  0.00     0.000 A 
ENDBRANCH  24  25
ENDBRANCH  13  19
ENDBRANCH   5   8
ENDBRANCH   3   4
ENDBRANCH   2   3
ENDBRANCH   1   2
BRANCH   1  32
ATOM     32  C   UNL A   1      33.035  30.373  26.665  1.00  0.00     0.002 C 
BRANCH  32  33
ATOM     33  C   UNL A   1      33.167  31.620  27.547  1.00  0.00     0.021 C 
BRANCH  33  34
ATOM     34  C   UNL A   1      34.592  31.930  27.971  1.00  0.00     0.116 C 
BRANCH  34  35
ATOM     35  N   UNL A   1      34.764  32.081  29.409  1.00  0.00    -0.352 N 
ATOM     36  C   UNL A   1      35.581  31.365  30.266  1.00  0.00     0.251 C 
ATOM     37  H   UNL A   1      34.226  32.790  29.828  1.00  0.00     0.163 HD
ATOM     38  O   UNL A   1      35.586  31.609  31.463  1.00  0.00    -0.269 OA
BRANCH  36  39
ATOM     39  C   UNL A   1      36.546  30.392  29.699  1.00  0.00     0.039 A 
ATOM     40  C   UNL A   1      36.852  29.262  30.464  1.00  0.00     0.014 A 
ATOM     41  C   UNL A   1      37.283  30.684  28.552  1.00  0.00     0.014 A 
ATOM     42  C   UNL A   1      38.037  28.574  30.219  1.00  0.00     0.010 A 
ATOM     43  C   UNL A   1      38.504  30.066  28.366  1.00  0.00     0.010 A 
ATOM     44  C   UNL A   1      38.909  29.058  29.242  1.00  0.00    -0.014 A 
BRANCH  44  45
ATOM     45  C   UNL A   1      40.299  28.633  29.158  1.00  0.00     0.031 A 
ATOM     46  C   UNL A   1      40.643  27.336  28.552  1.00  0.00     0.074 A 
ATOM     47  C   UNL A   1      41.281  29.403  29.679  1.00  0.00     0.049 A 
ATOM     48  N   UNL A   1      41.588  26.568  28.986  1.00  0.00    -0.248 NA
ATOM     49  C   UNL A   1      39.905  26.782  27.423  1.00  0.00     0.031 C 
ATOM     50  C   UNL A   1      42.721  29.189  29.564  1.00  0.00     0.029 A 
ATOM     51  N   UNL A   1      41.162  30.413  30.633  1.00  0.00    -0.354 N 
ATOM     52  C   UNL A   1      41.771  25.590  28.038  1.00  0.00     0.074 A 
ATOM     53  C   UNL A   1      40.646  25.707  27.137  1.00  0.00     0.031 C 
ATOM     54  C   UNL A   1      43.323  29.782  30.608  1.00  0.00     0.029 A 
ATOM     55  C   UNL A   1      42.275  30.291  31.479  1.00  0.00     0.049 A 
ATOM     56  H   UNL A   1      40.442  31.081  30.700  1.00  0.00     0.167 HD
ATOM     57  C   UNL A   1      42.931  24.880  27.995  1.00  0.00     0.031 A 
ATOM     58  C   UNL A   1      42.188  30.084  32.823  1.00  0.00     0.031 A 
ATOM     59  C   UNL A   1      43.878  25.296  29.022  1.00  0.00     0.049 A 
ATOM     60  C   UNL A   1      42.926  28.846  33.281  1.00  0.00     0.074 A 
ATOM     61  C   UNL A   1      44.974  26.142  28.990  1.00  0.00     0.029 A 
ATOM     62  N   UNL A   1      43.586  25.074  30.360  1.00  0.00    -0.354 N 
ATOM     63  N   UNL A   1      43.294  27.884  32.482  1.00  0.00    -0.248 NA
ATOM     64  C   UNL A   1      43.240  28.559  34.678  1.00  0.00     0.031 C 
ATOM     65  C   UNL A   1      45.315  26.469  30.325  1.00  0.00     0.029 A 
ATOM     66  C   UNL A   1      44.440  25.804  31.164  1.00  0.00     0.049 A 
ATOM     67  H   UNL A   1      42.873  24.481  30.690  1.00  0.00     0.167 HD
ATOM     68  C   UNL A   1      43.873  26.877  33.211  1.00  0.00     0.074 A 
ATOM     69  C   UNL A   1      43.821  27.350  34.581  1.00  0.00     0.031 C 
ATOM     70  C   UNL A   1      44.331  25.738  32.614  1.00  0.00     0.031 A 
BRANCH  57  71
ATOM     71  C   UNL A   1      43.302  24.052  26.795  1.00  0.00    -0.014 A 
ATOM     72  C   UNL A   1      43.036  22.671  26.785  1.00  0.00     0.009 A 
ATOM     73  C   UNL A   1      43.962  24.573  25.669  1.00  0.00     0.009 A 
ATOM     74  C   UNL A   1      43.501  21.837  25.762  1.00  0.00     0.001 A 
ATOM     75  C   UNL A   1      44.464  23.738  24.660  1.00  0.00     0.001 A 
ATOM     76  C   UNL A   1      44.244  22.367  24.715  1.00  0.00     0.000 A 
ENDBRANCH  57  71
BRANCH  58  77
ATOM     77  C   UNL A   1      40.930  30.576  33.447  1.00  0.00    -0.014 A 
ATOM     78  C   UNL A   1      40.770  31.962  33.636  1.00  0.00     0.009 A 
ATOM     79  C   UNL A   1      39.798  29.754  33.512  1.00  0.00     0.009 A 
ATOM     80  C   UNL A   1      39.498  32.522  33.783  1.00  0.00     0.001 A 
ATOM     81  C   UNL A   1      38.526  30.318  33.669  1.00  0.00     0.001 A 
ATOM     82  C   UNL A   1      38.373  31.701  33.772  1.00  0.00     0.000 A 
ENDBRANCH  58  77
BRANCH  70  83
ATOM     83  C   UNL A   1      44.798  24.478  33.303  1.00  0.00    -0.014 A 
ATOM     84  C   UNL A   1      46.104  24.252  33.756  1.00  0.00     0.009 A 
ATOM     85  C   UNL A   1      43.838  23.492  33.634  1.00  0.00     0.009 A 
ATOM     86  C   UNL A   1      46.439  23.090  34.466  1.00  0.00     0.001 A 
ATOM     87  C   UNL A   1      44.158  22.354  34.380  1.00  0.00     0.001 A 
ATOM     88  C   UNL A   1      45.466  22.148  34.787  1.00  0.00     0.000 A 
ENDBRANCH  70  83
ENDBRANCH  44  45
ENDBRANCH  36  39
ENDBRANCH  34  35
ENDBRANCH  33  34
ENDBRANCH  32  33
ENDBRANCH   1  32
TORSDOF 16
ENDMDL
