MODEL 1
REMARK VINA RESULT:     -10.8      0.000      0.000
REMARK SMILES CCCn1cc(Br)cc1C(=O)NC[C@H]1CC[C@@H](C(=O)NCCCCCCNC(=O)c2ccc(-c3c4nc(c(-c5ccccc5)c5ccc([nH]5)c(-c5ccccc5)c5nc(c(-c6ccccc6)c6ccc3[nH]6)C=C5)C=C4)cc2)O1
REMARK SMILES IDX 22 1 21 2 20 3 18 4 19 5 17 7 14 8 15 9 78 10 16 11 13 12
REMARK SMILES IDX 12 13 10 14 11 15 9 17 4 18 5 19 6 20 8 21 7 22 3 23 2 24
REMARK SMILES IDX 1 25 23 26 24 27 25 28 26 29 27 30 28 31 29 33 30 34 31 35
REMARK SMILES IDX 77 36 32 37 76 38 33 39 34 40 35 41 70 42 36 43 75 44 69 45
REMARK SMILES IDX 71 46 37 47 74 48 68 49 67 50 38 52 60 53 45 54 59 55 46 56
REMARK SMILES IDX 49 57 58 58 72 59 47 60 48 61 57 63 73 64 50 65 39 66 40 67
REMARK SMILES IDX 44 68 41 69 43 70 42 71 61 72 62 73 66 74 63 75 65 76 64 77
REMARK SMILES IDX 51 78 52 79 56 80 53 81 55 82 54 83
REMARK H PARENT 20 6 12 16 27 32 71 51 49 62
REMARK Flexibility Score: inf
ROOT
ATOM      1  C   UNL A   1      34.632  31.017  27.542  1.00  0.00     0.021 C 
ENDROOT
BRANCH   1   2
ATOM      2  C   UNL A   1      33.311  30.694  26.851  1.00  0.00     0.116 C 
BRANCH   2   3
ATOM      3  N   UNL A   1      32.501  29.764  27.611  1.00  0.00    -0.354 N 
ATOM      4  C   UNL A   1      31.938  28.590  27.201  1.00  0.00     0.249 C 
ATOM      5  O   UNL A   1      31.293  27.939  28.026  1.00  0.00    -0.272 OA
ATOM      6  H   UNL A   1      32.335  30.013  28.549  1.00  0.00     0.163 HD
BRANCH   4   7
ATOM      7  C   UNL A   1      32.073  28.161  25.728  1.00  0.00     0.207 C 
ATOM      8  C   UNL A   1      31.481  26.434  24.252  1.00  0.00     0.138 C 
ATOM      9  C   UNL A   1      31.027  27.775  23.669  1.00  0.00     0.037 C 
ATOM     10  O   UNL A   1      32.114  26.739  25.512  1.00  0.00    -0.363 OA
ATOM     11  C   UNL A   1      30.909  28.652  24.888  1.00  0.00     0.045 C 
BRANCH   8  12
ATOM     12  C   UNL A   1      30.289  25.467  24.415  1.00  0.00     0.148 C 
BRANCH  12  13
ATOM     13  N   UNL A   1      30.415  24.440  25.454  1.00  0.00    -0.348 N 
ATOM     14  C   UNL A   1      31.209  23.565  26.128  1.00  0.00     0.268 C 
ATOM     15  O   UNL A   1      30.617  23.305  27.195  1.00  0.00    -0.268 OA
ATOM     16  H   UNL A   1      29.515  24.337  25.839  1.00  0.00     0.163 HD
BRANCH  14  17
ATOM     17  C   UNL A   1      32.487  22.870  25.887  1.00  0.00     0.108 A 
ATOM     18  N   UNL A   1      32.995  21.591  25.656  1.00  0.00    -0.342 N 
ATOM     19  C   UNL A   1      34.384  21.596  25.792  1.00  0.00     0.102 A 
ATOM     20  C   UNL A   1      34.800  22.886  25.852  1.00  0.00     0.036 A 
ATOM     21  C   UNL A   1      33.654  23.675  25.893  1.00  0.00     0.049 A 
ATOM     22  Br  UNL A   1      36.556  23.522  25.892  1.00  0.00    -0.049 Br
BRANCH  18  23
ATOM     23  C   UNL A   1      32.422  20.329  25.225  1.00  0.00     0.122 C 
BRANCH  23  24
ATOM     24  C   UNL A   1      32.434  20.016  23.759  1.00  0.00     0.018 C 
ATOM     25  C   UNL A   1      32.579  18.546  23.413  1.00  0.00     0.006 C 
ENDBRANCH  23  24
ENDBRANCH  18  23
ENDBRANCH  14  17
ENDBRANCH  12  13
ENDBRANCH   8  12
ENDBRANCH   4   7
ENDBRANCH   2   3
ENDBRANCH   1   2
BRANCH   1  26
ATOM     26  C   UNL A   1      34.580  32.146  28.579  1.00  0.00     0.002 C 
BRANCH  26  27
ATOM     27  C   UNL A   1      35.214  33.491  28.187  1.00  0.00     0.002 C 
BRANCH  27  28
ATOM     28  C   UNL A   1      34.497  34.777  28.625  1.00  0.00     0.021 C 
BRANCH  28  29
ATOM     29  C   UNL A   1      33.260  34.565  29.484  1.00  0.00     0.116 C 
BRANCH  29  30
ATOM     30  N   UNL A   1      33.256  35.345  30.729  1.00  0.00    -0.352 N 
ATOM     31  C   UNL A   1      33.827  35.020  31.951  1.00  0.00     0.251 C 
ATOM     32  H   UNL A   1      32.790  36.212  30.692  1.00  0.00     0.163 HD
ATOM     33  O   UNL A   1      33.432  35.538  32.998  1.00  0.00    -0.269 OA
BRANCH  31  34
ATOM     34  C   UNL A   1      34.935  34.052  31.979  1.00  0.00     0.039 A 
ATOM     35  C   UNL A   1      34.768  32.668  32.093  1.00  0.00     0.014 A 
ATOM     36  C   UNL A   1      36.204  34.591  31.840  1.00  0.00     0.014 A 
ATOM     37  C   UNL A   1      35.900  31.856  32.018  1.00  0.00     0.010 A 
ATOM     38  C   UNL A   1      37.225  33.795  31.428  1.00  0.00     0.010 A 
ATOM     39  C   UNL A   1      37.130  32.443  31.683  1.00  0.00    -0.014 A 
BRANCH  39  40
ATOM     40  C   UNL A   1      38.367  31.700  31.527  1.00  0.00     0.031 A 
ATOM     41  C   UNL A   1      39.029  31.365  32.804  1.00  0.00     0.074 A 
ATOM     42  C   UNL A   1      38.725  31.125  30.357  1.00  0.00     0.049 A 
ATOM     43  N   UNL A   1      40.118  31.871  33.272  1.00  0.00    -0.248 NA
ATOM     44  C   UNL A   1      38.318  30.483  33.745  1.00  0.00     0.031 C 
ATOM     45  C   UNL A   1      37.976  31.062  29.090  1.00  0.00     0.029 A 
ATOM     46  N   UNL A   1      39.805  30.347  30.089  1.00  0.00    -0.354 N 
ATOM     47  C   UNL A   1      40.353  31.210  34.469  1.00  0.00     0.074 A 
ATOM     48  C   UNL A   1      39.121  30.543  34.809  1.00  0.00     0.031 C 
ATOM     49  C   UNL A   1      38.506  30.105  28.294  1.00  0.00     0.029 A 
ATOM     50  C   UNL A   1      39.723  29.614  28.911  1.00  0.00     0.049 A 
ATOM     51  H   UNL A   1      40.588  30.307  30.685  1.00  0.00     0.167 HD
ATOM     52  C   UNL A   1      41.620  31.030  34.932  1.00  0.00     0.031 A 
ATOM     53  C   UNL A   1      40.583  28.649  28.498  1.00  0.00     0.031 A 
ATOM     54  C   UNL A   1      42.565  31.849  34.209  1.00  0.00     0.049 A 
ATOM     55  C   UNL A   1      41.843  28.837  29.257  1.00  0.00     0.074 A 
ATOM     56  C   UNL A   1      42.703  33.205  33.983  1.00  0.00     0.029 A 
ATOM     57  N   UNL A   1      43.303  31.228  33.227  1.00  0.00    -0.354 N 
ATOM     58  N   UNL A   1      42.612  29.878  29.115  1.00  0.00    -0.248 NA
ATOM     59  C   UNL A   1      41.990  28.118  30.513  1.00  0.00     0.031 C 
ATOM     60  C   UNL A   1      43.089  33.309  32.613  1.00  0.00     0.029 A 
ATOM     61  C   UNL A   1      43.252  32.017  32.106  1.00  0.00     0.049 A 
ATOM     62  H   UNL A   1      43.781  30.371  33.313  1.00  0.00     0.167 HD
ATOM     63  C   UNL A   1      42.996  30.211  30.407  1.00  0.00     0.074 A 
ATOM     64  C   UNL A   1      42.661  29.038  31.214  1.00  0.00     0.031 C 
ATOM     65  C   UNL A   1      43.267  31.505  30.753  1.00  0.00     0.031 A 
BRANCH  52  66
ATOM     66  C   UNL A   1      42.059  29.816  35.710  1.00  0.00    -0.014 A 
ATOM     67  C   UNL A   1      43.169  29.936  36.565  1.00  0.00     0.009 A 
ATOM     68  C   UNL A   1      41.614  28.509  35.432  1.00  0.00     0.009 A 
ATOM     69  C   UNL A   1      43.843  28.807  37.044  1.00  0.00     0.001 A 
ATOM     70  C   UNL A   1      42.258  27.382  35.943  1.00  0.00     0.001 A 
ATOM     71  C   UNL A   1      43.393  27.531  36.725  1.00  0.00     0.000 A 
ENDBRANCH  52  66
BRANCH  53  72
ATOM     72  C   UNL A   1      40.301  27.415  27.727  1.00  0.00    -0.014 A 
ATOM     73  C   UNL A   1      41.008  27.120  26.550  1.00  0.00     0.009 A 
ATOM     74  C   UNL A   1      39.535  26.384  28.302  1.00  0.00     0.009 A 
ATOM     75  C   UNL A   1      40.983  25.831  25.995  1.00  0.00     0.001 A 
ATOM     76  C   UNL A   1      39.509  25.099  27.748  1.00  0.00     0.001 A 
ATOM     77  C   UNL A   1      40.245  24.818  26.603  1.00  0.00     0.000 A 
ENDBRANCH  53  72
BRANCH  65  78
ATOM     78  C   UNL A   1      43.348  32.535  29.648  1.00  0.00    -0.014 A 
ATOM     79  C   UNL A   1      42.408  33.569  29.483  1.00  0.00     0.009 A 
ATOM     80  C   UNL A   1      44.502  32.557  28.853  1.00  0.00     0.009 A 
ATOM     81  C   UNL A   1      42.608  34.578  28.532  1.00  0.00     0.001 A 
ATOM     82  C   UNL A   1      44.712  33.575  27.918  1.00  0.00     0.001 A 
ATOM     83  C   UNL A   1      43.764  34.581  27.754  1.00  0.00     0.000 A 
ENDBRANCH  65  78
ENDBRANCH  39  40
ENDBRANCH  31  34
ENDBRANCH  29  30
ENDBRANCH  28  29
ENDBRANCH  27  28
ENDBRANCH  26  27
ENDBRANCH   1  26
TORSDOF 18
ENDMDL
MODEL 2
REMARK VINA RESULT:     -10.5      3.927      9.437
REMARK SMILES CCCn1cc(Br)cc1C(=O)NC[C@H]1CC[C@@H](C(=O)NCCCCCCNC(=O)c2ccc(-c3c4nc(c(-c5ccccc5)c5ccc([nH]5)c(-c5ccccc5)c5nc(c(-c6ccccc6)c6ccc3[nH]6)C=C5)C=C4)cc2)O1
REMARK SMILES IDX 22 1 21 2 20 3 18 4 19 5 17 7 14 8 15 9 78 10 16 11 13 12
REMARK SMILES IDX 12 13 10 14 11 15 9 17 4 18 5 19 6 20 8 21 7 22 3 23 2 24
REMARK SMILES IDX 1 25 23 26 24 27 25 28 26 29 27 30 28 31 29 33 30 34 31 35
REMARK SMILES IDX 77 36 32 37 76 38 33 39 34 40 35 41 70 42 36 43 75 44 69 45
REMARK SMILES IDX 71 46 37 47 74 48 68 49 67 50 38 52 60 53 45 54 59 55 46 56
REMARK SMILES IDX 49 57 58 58 72 59 47 60 48 61 57 63 73 64 50 65 39 66 40 67
REMARK SMILES IDX 44 68 41 69 43 70 42 71 61 72 62 73 66 74 63 75 65 76 64 77
REMARK SMILES IDX 51 78 52 79 56 80 53 81 55 82 54 83
REMARK H PARENT 20 6 12 16 27 32 71 51 49 62
REMARK Flexibility Score: inf
ROOT
ATOM      1  C   UNL A   1      39.455  22.895  26.831  1.00  0.00     0.021 C 
ENDROOT
BRANCH   1   2
ATOM      2  C   UNL A   1      38.230  23.069  25.939  1.00  0.00     0.116 C 
BRANCH   2   3
ATOM      3  N   UNL A   1      37.356  21.915  25.967  1.00  0.00    -0.354 N 
ATOM      4  C   UNL A   1      36.034  21.836  25.631  1.00  0.00     0.249 C 
ATOM      5  O   UNL A   1      35.481  20.737  25.715  1.00  0.00    -0.272 OA
ATOM      6  H   UNL A   1      37.770  21.074  26.269  1.00  0.00     0.163 HD
BRANCH   4   7
ATOM      7  C   UNL A   1      35.279  23.116  25.228  1.00  0.00     0.207 C 
ATOM      8  C   UNL A   1      33.129  23.897  24.701  1.00  0.00     0.138 C 
ATOM      9  C   UNL A   1      33.728  24.771  25.806  1.00  0.00     0.037 C 
ATOM     10  O   UNL A   1      34.128  22.903  24.392  1.00  0.00    -0.363 OA
ATOM     11  C   UNL A   1      34.754  23.866  26.437  1.00  0.00     0.045 C 
BRANCH   8  12
ATOM     12  C   UNL A   1      31.796  23.264  25.155  1.00  0.00     0.148 C 
BRANCH  12  13
ATOM     13  N   UNL A   1      30.845  24.154  25.829  1.00  0.00    -0.348 N 
ATOM     14  C   UNL A   1      30.294  25.393  25.938  1.00  0.00     0.268 C 
ATOM     15  O   UNL A   1      29.209  25.243  26.536  1.00  0.00    -0.268 OA
ATOM     16  H   UNL A   1      30.404  23.603  26.516  1.00  0.00     0.163 HD
BRANCH  14  17
ATOM     17  C   UNL A   1      30.676  26.772  25.584  1.00  0.00     0.108 A 
ATOM     18  N   UNL A   1      30.559  27.692  24.541  1.00  0.00    -0.342 N 
ATOM     19  C   UNL A   1      31.424  28.767  24.752  1.00  0.00     0.102 A 
ATOM     20  C   UNL A   1      31.902  28.685  26.019  1.00  0.00     0.036 A 
ATOM     21  C   UNL A   1      31.440  27.483  26.545  1.00  0.00     0.049 A 
ATOM     22  Br  UNL A   1      32.985  29.915  26.915  1.00  0.00    -0.049 Br
BRANCH  18  23
ATOM     23  C   UNL A   1      29.695  27.814  23.382  1.00  0.00     0.122 C 
BRANCH  23  24
ATOM     24  C   UNL A   1      29.834  29.037  22.527  1.00  0.00     0.018 C 
ATOM     25  C   UNL A   1      28.527  29.687  22.109  1.00  0.00     0.006 C 
ENDBRANCH  23  24
ENDBRANCH  18  23
ENDBRANCH  14  17
ENDBRANCH  12  13
ENDBRANCH   8  12
ENDBRANCH   4   7
ENDBRANCH   2   3
ENDBRANCH   1   2
BRANCH   1  26
ATOM     26  C   UNL A   1      40.178  21.548  26.709  1.00  0.00     0.002 C 
BRANCH  26  27
ATOM     27  C   UNL A   1      41.337  21.280  27.683  1.00  0.00     0.002 C 
BRANCH  27  28
ATOM     28  C   UNL A   1      42.328  20.162  27.327  1.00  0.00     0.021 C 
BRANCH  28  29
ATOM     29  C   UNL A   1      42.332  19.744  25.865  1.00  0.00     0.116 C 
BRANCH  29  30
ATOM     30  N   UNL A   1      43.676  19.636  25.279  1.00  0.00    -0.352 N 
ATOM     31  C   UNL A   1      44.488  20.652  24.797  1.00  0.00     0.251 C 
ATOM     32  H   UNL A   1      44.047  18.726  25.221  1.00  0.00     0.163 HD
ATOM     33  O   UNL A   1      45.389  20.418  23.988  1.00  0.00    -0.269 OA
BRANCH  31  34
ATOM     34  C   UNL A   1      44.273  22.023  25.285  1.00  0.00     0.039 A 
ATOM     35  C   UNL A   1      43.240  22.860  24.849  1.00  0.00     0.014 A 
ATOM     36  C   UNL A   1      45.148  22.453  26.269  1.00  0.00     0.014 A 
ATOM     37  C   UNL A   1      43.096  24.107  25.459  1.00  0.00     0.010 A 
ATOM     38  C   UNL A   1      44.793  23.489  27.072  1.00  0.00     0.010 A 
ATOM     39  C   UNL A   1      43.889  24.406  26.577  1.00  0.00    -0.014 A 
BRANCH  39  40
ATOM     40  C   UNL A   1      43.798  25.646  27.326  1.00  0.00     0.031 A 
ATOM     41  C   UNL A   1      44.841  26.632  26.979  1.00  0.00     0.074 A 
ATOM     42  C   UNL A   1      42.706  25.976  28.053  1.00  0.00     0.049 A 
ATOM     43  N   UNL A   1      45.844  26.992  27.705  1.00  0.00    -0.248 NA
ATOM     44  C   UNL A   1      44.865  27.163  25.607  1.00  0.00     0.031 C 
ATOM     45  C   UNL A   1      41.432  25.251  28.190  1.00  0.00     0.029 A 
ATOM     46  N   UNL A   1      42.457  27.123  28.737  1.00  0.00    -0.354 N 
ATOM     47  C   UNL A   1      46.507  27.964  26.969  1.00  0.00     0.074 A 
ATOM     48  C   UNL A   1      45.999  27.868  25.624  1.00  0.00     0.031 C 
ATOM     49  C   UNL A   1      40.490  26.077  28.699  1.00  0.00     0.029 A 
ATOM     50  C   UNL A   1      41.127  27.322  29.084  1.00  0.00     0.049 A 
ATOM     51  H   UNL A   1      43.167  27.764  28.969  1.00  0.00     0.167 HD
ATOM     52  C   UNL A   1      47.206  28.954  27.589  1.00  0.00     0.031 A 
ATOM     53  C   UNL A   1      40.590  28.447  29.619  1.00  0.00     0.031 A 
ATOM     54  C   UNL A   1      47.399  28.664  28.991  1.00  0.00     0.049 A 
ATOM     55  C   UNL A   1      41.710  29.230  30.195  1.00  0.00     0.074 A 
ATOM     56  C   UNL A   1      47.984  27.632  29.698  1.00  0.00     0.029 A 
ATOM     57  N   UNL A   1      46.559  29.299  29.879  1.00  0.00    -0.354 N 
ATOM     58  N   UNL A   1      42.412  28.826  31.216  1.00  0.00    -0.248 NA
ATOM     59  C   UNL A   1      42.360  30.213  29.341  1.00  0.00     0.031 C 
ATOM     60  C   UNL A   1      47.105  27.399  30.798  1.00  0.00     0.029 A 
ATOM     61  C   UNL A   1      46.086  28.354  30.752  1.00  0.00     0.049 A 
ATOM     62  H   UNL A   1      46.337  30.258  29.884  1.00  0.00     0.167 HD
ATOM     63  C   UNL A   1      43.724  29.140  30.887  1.00  0.00     0.074 A 
ATOM     64  C   UNL A   1      43.619  30.076  29.768  1.00  0.00     0.031 C 
ATOM     65  C   UNL A   1      44.768  28.389  31.349  1.00  0.00     0.031 A 
BRANCH  52  66
ATOM     66  C   UNL A   1      47.321  30.356  27.049  1.00  0.00    -0.014 A 
ATOM     67  C   UNL A   1      48.582  30.978  27.070  1.00  0.00     0.009 A 
ATOM     68  C   UNL A   1      46.212  31.183  26.784  1.00  0.00     0.009 A 
ATOM     69  C   UNL A   1      48.712  32.364  26.919  1.00  0.00     0.001 A 
ATOM     70  C   UNL A   1      46.343  32.559  26.590  1.00  0.00     0.001 A 
ATOM     71  C   UNL A   1      47.591  33.154  26.689  1.00  0.00     0.000 A 
ENDBRANCH  52  66
BRANCH  53  72
ATOM     72  C   UNL A   1      39.244  29.030  29.411  1.00  0.00    -0.014 A 
ATOM     73  C   UNL A   1      38.780  29.334  28.121  1.00  0.00     0.009 A 
ATOM     74  C   UNL A   1      38.303  29.024  30.457  1.00  0.00     0.009 A 
ATOM     75  C   UNL A   1      37.418  29.580  27.881  1.00  0.00     0.001 A 
ATOM     76  C   UNL A   1      36.946  29.270  30.218  1.00  0.00     0.001 A 
ATOM     77  C   UNL A   1      36.501  29.533  28.928  1.00  0.00     0.000 A 
ENDBRANCH  53  72
BRANCH  65  78
ATOM     78  C   UNL A   1      44.479  27.338  32.397  1.00  0.00    -0.014 A 
ATOM     79  C   UNL A   1      44.260  25.981  32.093  1.00  0.00     0.009 A 
ATOM     80  C   UNL A   1      44.598  27.702  33.746  1.00  0.00     0.009 A 
ATOM     81  C   UNL A   1      44.138  25.027  33.111  1.00  0.00     0.001 A 
ATOM     82  C   UNL A   1      44.497  26.747  34.760  1.00  0.00     0.001 A 
ATOM     83  C   UNL A   1      44.262  25.411  34.444  1.00  0.00     0.000 A 
ENDBRANCH  65  78
ENDBRANCH  39  40
ENDBRANCH  31  34
ENDBRANCH  29  30
ENDBRANCH  28  29
ENDBRANCH  27  28
ENDBRANCH  26  27
ENDBRANCH   1  26
TORSDOF 18
ENDMDL
MODEL 3
REMARK VINA RESULT:     -10.4      2.432      3.512
REMARK SMILES CCCn1cc(Br)cc1C(=O)NC[C@H]1CC[C@@H](C(=O)NCCCCCCNC(=O)c2ccc(-c3c4nc(c(-c5ccccc5)c5ccc([nH]5)c(-c5ccccc5)c5nc(c(-c6ccccc6)c6ccc3[nH]6)C=C5)C=C4)cc2)O1
REMARK SMILES IDX 22 1 21 2 20 3 18 4 19 5 17 7 14 8 15 9 78 10 16 11 13 12
REMARK SMILES IDX 12 13 10 14 11 15 9 17 4 18 5 19 6 20 8 21 7 22 3 23 2 24
REMARK SMILES IDX 1 25 23 26 24 27 25 28 26 29 27 30 28 31 29 33 30 34 31 35
REMARK SMILES IDX 77 36 32 37 76 38 33 39 34 40 35 41 70 42 36 43 75 44 69 45
REMARK SMILES IDX 71 46 37 47 74 48 68 49 67 50 38 52 60 53 45 54 59 55 46 56
REMARK SMILES IDX 49 57 58 58 72 59 47 60 48 61 57 63 73 64 50 65 39 66 40 67
REMARK SMILES IDX 44 68 41 69 43 70 42 71 61 72 62 73 66 74 63 75 65 76 64 77
REMARK SMILES IDX 51 78 52 79 56 80 53 81 55 82 54 83
REMARK H PARENT 20 6 12 16 27 32 71 51 49 62
REMARK Flexibility Score: inf
ROOT
ATOM      1  C   UNL A   1      33.000  29.738  25.314  1.00  0.00     0.021 C 
ENDROOT
BRANCH   1   2
ATOM      2  C   UNL A   1      31.740  29.076  24.764  1.00  0.00     0.116 C 
BRANCH   2   3
ATOM      3  N   UNL A   1      31.290  29.683  23.529  1.00  0.00    -0.354 N 
ATOM      4  C   UNL A   1      30.424  29.183  22.598  1.00  0.00     0.249 C 
ATOM      5  O   UNL A   1      30.164  29.883  21.617  1.00  0.00    -0.272 OA
ATOM      6  H   UNL A   1      31.657  30.575  23.334  1.00  0.00     0.163 HD
BRANCH   4   7
ATOM      7  C   UNL A   1      29.863  27.760  22.775  1.00  0.00     0.207 C 
ATOM      8  C   UNL A   1      29.864  25.952  24.272  1.00  0.00     0.138 C 
ATOM      9  C   UNL A   1      28.419  26.325  23.930  1.00  0.00     0.037 C 
ATOM     10  O   UNL A   1      30.699  26.869  23.533  1.00  0.00    -0.363 OA
ATOM     11  C   UNL A   1      28.531  27.765  23.501  1.00  0.00     0.045 C 
BRANCH   8  12
ATOM     12  C   UNL A   1      30.112  26.033  25.794  1.00  0.00     0.148 C 
BRANCH  12  13
ATOM     13  N   UNL A   1      30.552  24.799  26.452  1.00  0.00    -0.348 N 
ATOM     14  C   UNL A   1      31.311  23.670  26.412  1.00  0.00     0.268 C 
ATOM     15  O   UNL A   1      31.442  23.294  27.594  1.00  0.00    -0.268 OA
ATOM     16  H   UNL A   1      30.084  24.776  27.318  1.00  0.00     0.163 HD
BRANCH  14  17
ATOM     17  C   UNL A   1      31.927  22.829  25.370  1.00  0.00     0.108 A 
ATOM     18  N   UNL A   1      32.400  22.904  24.059  1.00  0.00    -0.342 N 
ATOM     19  C   UNL A   1      32.611  21.622  23.552  1.00  0.00     0.102 A 
ATOM     20  C   UNL A   1      32.530  20.740  24.580  1.00  0.00     0.036 A 
ATOM     21  C   UNL A   1      32.131  21.464  25.699  1.00  0.00     0.049 A 
ATOM     22  Br  UNL A   1      32.863  18.902  24.541  1.00  0.00    -0.049 Br
BRANCH  18  23
ATOM     23  C   UNL A   1      32.798  23.988  23.180  1.00  0.00     0.122 C 
BRANCH  23  24
ATOM     24  C   UNL A   1      34.038  24.755  23.526  1.00  0.00     0.018 C 
ATOM     25  C   UNL A   1      33.888  25.748  24.665  1.00  0.00     0.006 C 
ENDBRANCH  23  24
ENDBRANCH  18  23
ENDBRANCH  14  17
ENDBRANCH  12  13
ENDBRANCH   8  12
ENDBRANCH   4   7
ENDBRANCH   2   3
ENDBRANCH   1   2
BRANCH   1  26
ATOM     26  C   UNL A   1      33.680  29.006  26.478  1.00  0.00     0.002 C 
BRANCH  26  27
ATOM     27  C   UNL A   1      34.542  29.850  27.432  1.00  0.00     0.002 C 
BRANCH  27  28
ATOM     28  C   UNL A   1      34.133  31.311  27.665  1.00  0.00     0.021 C 
BRANCH  28  29
ATOM     29  C   UNL A   1      35.242  32.219  28.171  1.00  0.00     0.116 C 
BRANCH  29  30
ATOM     30  N   UNL A   1      35.015  32.744  29.525  1.00  0.00    -0.352 N 
ATOM     31  C   UNL A   1      35.366  32.173  30.739  1.00  0.00     0.251 C 
ATOM     32  H   UNL A   1      34.554  33.612  29.577  1.00  0.00     0.163 HD
ATOM     33  O   UNL A   1      34.790  32.489  31.783  1.00  0.00    -0.269 OA
BRANCH  31  34
ATOM     34  C   UNL A   1      36.462  31.191  30.769  1.00  0.00     0.039 A 
ATOM     35  C   UNL A   1      36.279  29.807  30.676  1.00  0.00     0.014 A 
ATOM     36  C   UNL A   1      37.739  31.720  30.854  1.00  0.00     0.014 A 
ATOM     37  C   UNL A   1      37.411  28.992  30.628  1.00  0.00     0.010 A 
ATOM     38  C   UNL A   1      38.800  30.968  30.463  1.00  0.00     0.010 A 
ATOM     39  C   UNL A   1      38.673  29.596  30.523  1.00  0.00    -0.014 A 
BRANCH  39  40
ATOM     40  C   UNL A   1      39.918  28.858  30.416  1.00  0.00     0.031 A 
ATOM     41  C   UNL A   1      40.596  28.637  31.709  1.00  0.00     0.074 A 
ATOM     42  C   UNL A   1      40.273  28.192  29.294  1.00  0.00     0.049 A 
ATOM     43  N   UNL A   1      41.682  29.194  32.124  1.00  0.00    -0.248 NA
ATOM     44  C   UNL A   1      39.904  27.828  32.727  1.00  0.00     0.031 C 
ATOM     45  C   UNL A   1      39.514  28.016  28.043  1.00  0.00     0.029 A 
ATOM     46  N   UNL A   1      41.362  27.409  29.080  1.00  0.00    -0.354 N 
ATOM     47  C   UNL A   1      41.936  28.636  33.369  1.00  0.00     0.074 A 
ATOM     48  C   UNL A   1      40.716  27.985  33.774  1.00  0.00     0.031 C 
ATOM     49  C   UNL A   1      40.050  27.003  27.324  1.00  0.00     0.029 A 
ATOM     50  C   UNL A   1      41.278  26.580  27.968  1.00  0.00     0.049 A 
ATOM     51  H   UNL A   1      42.150  27.428  29.669  1.00  0.00     0.167 HD
ATOM     52  C   UNL A   1      43.210  28.512  33.832  1.00  0.00     0.031 A 
ATOM     53  C   UNL A   1      42.147  25.595  27.627  1.00  0.00     0.031 A 
ATOM     54  C   UNL A   1      44.138  29.280  33.035  1.00  0.00     0.049 A 
ATOM     55  C   UNL A   1      43.412  25.860  28.355  1.00  0.00     0.074 A 
ATOM     56  C   UNL A   1      44.255  30.614  32.697  1.00  0.00     0.029 A 
ATOM     57  N   UNL A   1      44.875  28.589  32.100  1.00  0.00    -0.354 N 
ATOM     58  N   UNL A   1      44.166  26.896  28.120  1.00  0.00    -0.248 NA
ATOM     59  C   UNL A   1      43.579  25.250  29.665  1.00  0.00     0.031 C 
ATOM     60  C   UNL A   1      44.628  30.609  31.320  1.00  0.00     0.029 A 
ATOM     61  C   UNL A   1      44.804  29.282  30.919  1.00  0.00     0.049 A 
ATOM     62  H   UNL A   1      45.364  27.748  32.252  1.00  0.00     0.167 HD
ATOM     63  C   UNL A   1      44.556  27.339  29.377  1.00  0.00     0.074 A 
ATOM     64  C   UNL A   1      44.244  26.233  30.282  1.00  0.00     0.031 C 
ATOM     65  C   UNL A   1      44.813  28.661  29.613  1.00  0.00     0.031 A 
BRANCH  52  66
ATOM     66  C   UNL A   1      43.671  27.372  34.703  1.00  0.00    -0.014 A 
ATOM     67  C   UNL A   1      44.337  27.676  35.904  1.00  0.00     0.009 A 
ATOM     68  C   UNL A   1      43.731  26.033  34.269  1.00  0.00     0.009 A 
ATOM     69  C   UNL A   1      45.090  26.710  36.583  1.00  0.00     0.001 A 
ATOM     70  C   UNL A   1      44.445  25.058  34.967  1.00  0.00     0.001 A 
ATOM     71  C   UNL A   1      45.151  25.405  36.108  1.00  0.00     0.000 A 
ENDBRANCH  52  66
BRANCH  53  72
ATOM     72  C   UNL A   1      41.875  24.298  26.964  1.00  0.00    -0.014 A 
ATOM     73  C   UNL A   1      42.702  23.827  25.931  1.00  0.00     0.009 A 
ATOM     74  C   UNL A   1      40.968  23.389  27.538  1.00  0.00     0.009 A 
ATOM     75  C   UNL A   1      42.653  22.485  25.520  1.00  0.00     0.001 A 
ATOM     76  C   UNL A   1      40.918  22.051  27.128  1.00  0.00     0.001 A 
ATOM     77  C   UNL A   1      41.771  21.595  26.129  1.00  0.00     0.000 A 
ENDBRANCH  53  72
BRANCH  65  78
ATOM     78  C   UNL A   1      44.871  29.597  28.426  1.00  0.00    -0.014 A 
ATOM     79  C   UNL A   1      43.738  30.235  27.887  1.00  0.00     0.009 A 
ATOM     80  C   UNL A   1      46.133  29.973  27.945  1.00  0.00     0.009 A 
ATOM     81  C   UNL A   1      43.867  31.200  26.881  1.00  0.00     0.001 A 
ATOM     82  C   UNL A   1      46.263  30.950  26.955  1.00  0.00     0.001 A 
ATOM     83  C   UNL A   1      45.131  31.560  26.419  1.00  0.00     0.000 A 
ENDBRANCH  65  78
ENDBRANCH  39  40
ENDBRANCH  31  34
ENDBRANCH  29  30
ENDBRANCH  28  29
ENDBRANCH  27  28
ENDBRANCH  26  27
ENDBRANCH   1  26
TORSDOF 18
ENDMDL
