MODEL 1
REMARK VINA RESULT:     -11.5      0.000      0.000
REMARK SMILES CCn1c(N2CCC(C(=O)NCCCCCCNC(=O)c3ccc(-c4c5nc(c(-c6ccccc6)c6ccc([nH]6)c(-c6ccccc6)c6nc(c(-c7ccccc7)c7ccc4[nH]7)C=C6)C=C5)cc3)CC2)nc2cc(C)ccc21
REMARK SMILES IDX 14 1 13 2 12 3 11 4 9 5 10 6 8 8 5 9 6 10 70 11 7 12 69 13
REMARK SMILES IDX 4 14 3 15 78 16 71 17 72 18 77 19 73 20 76 21 74 22 75 23
REMARK SMILES IDX 2 24 1 25 15 26 16 27 17 28 18 29 19 30 20 32 21 33 22 34
REMARK SMILES IDX 68 35 23 36 67 37 24 38 25 39 26 40 61 41 27 42 66 43 60 44
REMARK SMILES IDX 62 45 28 46 65 47 59 48 58 49 29 51 51 52 36 53 50 54 37 55
REMARK SMILES IDX 40 56 49 57 63 58 38 59 39 60 48 62 64 63 41 64 30 65 31 66
REMARK SMILES IDX 35 67 32 68 34 69 33 70 52 71 53 72 57 73 54 74 56 75 55 76
REMARK SMILES IDX 42 77 43 78 47 79 44 80 46 81 45 82
REMARK H PARENT 11 7 18 31 62 50 40 61
REMARK Flexibility Score: inf
ROOT
ATOM      1  C   UNL A   1      32.594  29.879  27.254  1.00  0.00     0.002 C 
ENDROOT
BRANCH   1   2
ATOM      2  C   UNL A   1      31.713  30.356  26.098  1.00  0.00     0.021 C 
BRANCH   2   3
ATOM      3  C   UNL A   1      31.759  29.432  24.889  1.00  0.00     0.116 C 
BRANCH   3   4
ATOM      4  N   UNL A   1      30.605  29.651  24.034  1.00  0.00    -0.356 N 
ATOM      5  C   UNL A   1      30.264  29.068  22.854  1.00  0.00     0.223 C 
ATOM      6  O   UNL A   1      29.264  29.483  22.265  1.00  0.00    -0.275 OA
ATOM      7  H   UNL A   1      29.970  30.328  24.360  1.00  0.00     0.163 HD
BRANCH   5   8
ATOM      8  C   UNL A   1      31.068  27.909  22.291  1.00  0.00     0.082 C 
ATOM      9  N   UNL A   1      32.983  25.819  22.640  1.00  0.00    -0.342 N 
ATOM     10  C   UNL A   1      33.438  27.002  21.926  1.00  0.00     0.120 C 
ATOM     11  C   UNL A   1      31.578  25.463  22.573  1.00  0.00     0.120 C 
ATOM     12  C   UNL A   1      32.568  28.221  22.209  1.00  0.00     0.035 C 
ATOM     13  C   UNL A   1      30.709  26.614  23.030  1.00  0.00     0.035 C 
BRANCH   9  14
ATOM     14  C   UNL A   1      33.888  25.038  23.279  1.00  0.00     0.206 A 
ATOM     15  N   UNL A   1      34.326  25.259  24.570  1.00  0.00    -0.310 N 
ATOM     16  C   UNL A   1      35.254  24.271  24.873  1.00  0.00     0.070 A 
ATOM     17  N   UNL A   1      34.433  23.940  22.786  1.00  0.00    -0.213 NA
ATOM     18  C   UNL A   1      35.303  23.473  23.742  1.00  0.00     0.091 A 
ATOM     19  C   UNL A   1      36.021  24.018  26.018  1.00  0.00     0.029 A 
ATOM     20  C   UNL A   1      36.177  22.367  23.727  1.00  0.00     0.034 A 
ATOM     21  C   UNL A   1      36.879  22.916  25.990  1.00  0.00     0.006 A 
ATOM     22  C   UNL A   1      36.973  22.094  24.860  1.00  0.00    -0.049 A 
ATOM     23  C   UNL A   1      37.929  20.936  24.856  1.00  0.00     0.044 C 
BRANCH  15  24
ATOM     24  C   UNL A   1      33.961  26.238  25.575  1.00  0.00     0.122 C 
ATOM     25  C   UNL A   1      32.607  26.224  26.256  1.00  0.00     0.028 C 
ENDBRANCH  15  24
ENDBRANCH   9  14
ENDBRANCH   5   8
ENDBRANCH   3   4
ENDBRANCH   2   3
ENDBRANCH   1   2
BRANCH   1  26
ATOM     26  C   UNL A   1      33.887  30.680  27.441  1.00  0.00     0.002 C 
BRANCH  26  27
ATOM     27  C   UNL A   1      33.687  32.182  27.680  1.00  0.00     0.021 C 
BRANCH  27  28
ATOM     28  C   UNL A   1      34.832  32.847  28.444  1.00  0.00     0.116 C 
BRANCH  28  29
ATOM     29  N   UNL A   1      34.720  32.704  29.880  1.00  0.00    -0.352 N 
ATOM     30  C   UNL A   1      35.427  32.037  30.835  1.00  0.00     0.251 C 
ATOM     31  H   UNL A   1      33.957  33.201  30.252  1.00  0.00     0.163 HD
ATOM     32  O   UNL A   1      35.056  32.203  32.003  1.00  0.00    -0.269 OA
BRANCH  30  33
ATOM     33  C   UNL A   1      36.546  31.094  30.570  1.00  0.00     0.039 A 
ATOM     34  C   UNL A   1      36.437  29.707  30.468  1.00  0.00     0.014 A 
ATOM     35  C   UNL A   1      37.823  31.677  30.477  1.00  0.00     0.014 A 
ATOM     36  C   UNL A   1      37.576  28.917  30.397  1.00  0.00     0.010 A 
ATOM     37  C   UNL A   1      38.964  30.894  30.377  1.00  0.00     0.010 A 
ATOM     38  C   UNL A   1      38.840  29.511  30.397  1.00  0.00    -0.014 A 
BRANCH  38  39
ATOM     39  C   UNL A   1      40.003  28.633  30.314  1.00  0.00     0.031 A 
ATOM     40  C   UNL A   1      40.736  28.451  31.598  1.00  0.00     0.074 A 
ATOM     41  C   UNL A   1      40.339  27.955  29.199  1.00  0.00     0.049 A 
ATOM     42  N   UNL A   1      41.975  28.720  31.860  1.00  0.00    -0.248 NA
ATOM     43  C   UNL A   1      39.955  28.013  32.766  1.00  0.00     0.031 C 
ATOM     44  C   UNL A   1      39.572  27.822  27.958  1.00  0.00     0.029 A 
ATOM     45  N   UNL A   1      41.411  27.142  28.986  1.00  0.00    -0.354 N 
ATOM     46  C   UNL A   1      42.178  28.333  33.183  1.00  0.00     0.074 A 
ATOM     47  C   UNL A   1      40.879  28.032  33.726  1.00  0.00     0.031 C 
ATOM     48  C   UNL A   1      40.074  26.799  27.228  1.00  0.00     0.029 A 
ATOM     49  C   UNL A   1      41.284  26.321  27.871  1.00  0.00     0.049 A 
ATOM     50  H   UNL A   1      42.205  27.136  29.568  1.00  0.00     0.167 HD
ATOM     51  C   UNL A   1      43.421  28.081  33.678  1.00  0.00     0.031 A 
ATOM     52  C   UNL A   1      42.088  25.283  27.534  1.00  0.00     0.031 A 
ATOM     53  C   UNL A   1      44.449  28.705  32.891  1.00  0.00     0.049 A 
ATOM     54  C   UNL A   1      43.374  25.465  28.240  1.00  0.00     0.074 A 
ATOM     55  C   UNL A   1      44.790  30.007  32.591  1.00  0.00     0.029 A 
ATOM     56  N   UNL A   1      45.107  27.919  31.978  1.00  0.00    -0.354 N 
ATOM     57  N   UNL A   1      44.205  26.436  27.992  1.00  0.00    -0.248 NA
ATOM     58  C   UNL A   1      43.560  24.790  29.513  1.00  0.00     0.031 C 
ATOM     59  C   UNL A   1      45.250  29.965  31.243  1.00  0.00     0.029 A 
ATOM     60  C   UNL A   1      45.220  28.635  30.816  1.00  0.00     0.049 A 
ATOM     61  H   UNL A   1      45.438  27.005  32.132  1.00  0.00     0.167 HD
ATOM     62  C   UNL A   1      44.725  26.777  29.230  1.00  0.00     0.074 A 
ATOM     63  C   UNL A   1      44.384  25.658  30.104  1.00  0.00     0.031 C 
ATOM     64  C   UNL A   1      45.136  28.053  29.492  1.00  0.00     0.031 A 
BRANCH  51  65
ATOM     65  C   UNL A   1      43.707  26.940  34.628  1.00  0.00    -0.014 A 
ATOM     66  C   UNL A   1      43.924  27.119  36.009  1.00  0.00     0.009 A 
ATOM     67  C   UNL A   1      43.481  25.619  34.198  1.00  0.00     0.009 A 
ATOM     68  C   UNL A   1      43.890  26.056  36.914  1.00  0.00     0.001 A 
ATOM     69  C   UNL A   1      43.405  24.556  35.107  1.00  0.00     0.001 A 
ATOM     70  C   UNL A   1      43.603  24.777  36.467  1.00  0.00     0.000 A 
ENDBRANCH  51  65
BRANCH  52  71
ATOM     71  C   UNL A   1      41.688  23.975  26.971  1.00  0.00    -0.014 A 
ATOM     72  C   UNL A   1      40.682  23.222  27.601  1.00  0.00     0.009 A 
ATOM     73  C   UNL A   1      42.489  23.330  26.014  1.00  0.00     0.009 A 
ATOM     74  C   UNL A   1      40.509  21.863  27.321  1.00  0.00     0.001 A 
ATOM     75  C   UNL A   1      42.314  21.968  25.734  1.00  0.00     0.001 A 
ATOM     76  C   UNL A   1      41.337  21.232  26.399  1.00  0.00     0.000 A 
ENDBRANCH  52  71
BRANCH  64  77
ATOM     77  C   UNL A   1      45.247  29.021  28.336  1.00  0.00    -0.014 A 
ATOM     78  C   UNL A   1      46.522  29.282  27.811  1.00  0.00     0.009 A 
ATOM     79  C   UNL A   1      44.173  29.815  27.896  1.00  0.00     0.009 A 
ATOM     80  C   UNL A   1      46.725  30.317  26.894  1.00  0.00     0.001 A 
ATOM     81  C   UNL A   1      44.371  30.834  26.957  1.00  0.00     0.001 A 
ATOM     82  C   UNL A   1      45.650  31.093  26.468  1.00  0.00     0.000 A 
ENDBRANCH  64  77
ENDBRANCH  38  39
ENDBRANCH  30  33
ENDBRANCH  28  29
ENDBRANCH  27  28
ENDBRANCH  26  27
ENDBRANCH   1  26
TORSDOF 15
ENDMDL
MODEL 2
REMARK VINA RESULT:     -11.4      2.125      2.671
REMARK SMILES CCn1c(N2CCC(C(=O)NCCCCCCNC(=O)c3ccc(-c4c5nc(c(-c6ccccc6)c6ccc([nH]6)c(-c6ccccc6)c6nc(c(-c7ccccc7)c7ccc4[nH]7)C=C6)C=C5)cc3)CC2)nc2cc(C)ccc21
REMARK SMILES IDX 14 1 13 2 12 3 11 4 9 5 10 6 8 8 5 9 6 10 70 11 7 12 69 13
REMARK SMILES IDX 4 14 3 15 78 16 71 17 72 18 77 19 73 20 76 21 74 22 75 23
REMARK SMILES IDX 2 24 1 25 15 26 16 27 17 28 18 29 19 30 20 32 21 33 22 34
REMARK SMILES IDX 68 35 23 36 67 37 24 38 25 39 26 40 61 41 27 42 66 43 60 44
REMARK SMILES IDX 62 45 28 46 65 47 59 48 58 49 29 51 51 52 36 53 50 54 37 55
REMARK SMILES IDX 40 56 49 57 63 58 38 59 39 60 48 62 64 63 41 64 30 65 31 66
REMARK SMILES IDX 35 67 32 68 34 69 33 70 52 71 53 72 57 73 54 74 56 75 55 76
REMARK SMILES IDX 42 77 43 78 47 79 44 80 46 81 45 82
REMARK H PARENT 11 7 18 31 62 50 40 61
REMARK Flexibility Score: inf
ROOT
ATOM      1  C   UNL A   1      32.338  29.434  26.954  1.00  0.00     0.002 C 
ENDROOT
BRANCH   1   2
ATOM      2  C   UNL A   1      31.864  29.976  25.605  1.00  0.00     0.021 C 
BRANCH   2   3
ATOM      3  C   UNL A   1      31.223  28.912  24.723  1.00  0.00     0.116 C 
BRANCH   3   4
ATOM      4  N   UNL A   1      32.164  28.444  23.721  1.00  0.00    -0.356 N 
ATOM      5  C   UNL A   1      32.845  27.271  23.636  1.00  0.00     0.223 C 
ATOM      6  O   UNL A   1      33.661  27.134  22.722  1.00  0.00    -0.275 OA
ATOM      7  H   UNL A   1      32.336  29.076  22.987  1.00  0.00     0.163 HD
BRANCH   5   8
ATOM      8  C   UNL A   1      32.583  26.140  24.615  1.00  0.00     0.082 C 
ATOM      9  N   UNL A   1      32.449  23.348  25.202  1.00  0.00    -0.342 N 
ATOM     10  C   UNL A   1      31.178  24.039  25.043  1.00  0.00     0.120 C 
ATOM     11  C   UNL A   1      33.594  24.099  25.682  1.00  0.00     0.120 C 
ATOM     12  C   UNL A   1      31.319  25.343  24.267  1.00  0.00     0.035 C 
ATOM     13  C   UNL A   1      33.854  25.303  24.802  1.00  0.00     0.035 C 
BRANCH   9  14
ATOM     14  C   UNL A   1      32.513  22.013  24.979  1.00  0.00     0.206 A 
ATOM     15  N   UNL A   1      32.414  21.432  23.729  1.00  0.00    -0.310 N 
ATOM     16  C   UNL A   1      32.509  20.057  23.898  1.00  0.00     0.070 A 
ATOM     17  N   UNL A   1      32.729  21.094  25.902  1.00  0.00    -0.213 NA
ATOM     18  C   UNL A   1      32.696  19.879  25.259  1.00  0.00     0.091 A 
ATOM     19  C   UNL A   1      32.456  18.990  22.990  1.00  0.00     0.029 A 
ATOM     20  C   UNL A   1      32.819  18.569  25.763  1.00  0.00     0.034 A 
ATOM     21  C   UNL A   1      32.584  17.698  23.505  1.00  0.00     0.006 A 
ATOM     22  C   UNL A   1      32.757  17.473  24.876  1.00  0.00    -0.049 A 
ATOM     23  C   UNL A   1      32.860  16.068  25.395  1.00  0.00     0.044 C 
BRANCH  15  24
ATOM     24  C   UNL A   1      32.292  21.989  22.396  1.00  0.00     0.122 C 
ATOM     25  C   UNL A   1      33.231  23.062  21.885  1.00  0.00     0.028 C 
ENDBRANCH  15  24
ENDBRANCH   9  14
ENDBRANCH   5   8
ENDBRANCH   3   4
ENDBRANCH   2   3
ENDBRANCH   1   2
BRANCH   1  26
ATOM     26  C   UNL A   1      33.743  28.823  26.935  1.00  0.00     0.002 C 
BRANCH  26  27
ATOM     27  C   UNL A   1      34.804  29.619  27.707  1.00  0.00     0.021 C 
BRANCH  27  28
ATOM     28  C   UNL A   1      34.591  31.132  27.674  1.00  0.00     0.116 C 
BRANCH  28  29
ATOM     29  N   UNL A   1      34.525  31.728  28.991  1.00  0.00    -0.352 N 
ATOM     30  C   UNL A   1      35.364  31.779  30.063  1.00  0.00     0.251 C 
ATOM     31  H   UNL A   1      33.679  32.206  29.149  1.00  0.00     0.163 HD
ATOM     32  O   UNL A   1      34.978  32.453  31.026  1.00  0.00    -0.269 OA
BRANCH  30  33
ATOM     33  C   UNL A   1      36.651  31.044  30.180  1.00  0.00     0.039 A 
ATOM     34  C   UNL A   1      37.884  31.473  29.688  1.00  0.00     0.014 A 
ATOM     35  C   UNL A   1      36.575  29.781  30.796  1.00  0.00     0.014 A 
ATOM     36  C   UNL A   1      38.980  30.620  29.700  1.00  0.00     0.010 A 
ATOM     37  C   UNL A   1      37.674  28.935  30.837  1.00  0.00     0.010 A 
ATOM     38  C   UNL A   1      38.860  29.336  30.235  1.00  0.00    -0.014 A 
BRANCH  38  39
ATOM     39  C   UNL A   1      40.045  28.485  30.227  1.00  0.00     0.031 A 
ATOM     40  C   UNL A   1      40.741  28.377  31.540  1.00  0.00     0.074 A 
ATOM     41  C   UNL A   1      40.433  27.767  29.155  1.00  0.00     0.049 A 
ATOM     42  N   UNL A   1      41.964  28.688  31.828  1.00  0.00    -0.248 NA
ATOM     43  C   UNL A   1      39.933  27.972  32.702  1.00  0.00     0.031 C 
ATOM     44  C   UNL A   1      39.709  27.560  27.898  1.00  0.00     0.029 A 
ATOM     45  N   UNL A   1      41.530  26.972  29.011  1.00  0.00    -0.354 N 
ATOM     46  C   UNL A   1      42.134  28.365  33.173  1.00  0.00     0.074 A 
ATOM     47  C   UNL A   1      40.826  28.056  33.689  1.00  0.00     0.031 C 
ATOM     48  C   UNL A   1      40.258  26.520  27.230  1.00  0.00     0.029 A 
ATOM     49  C   UNL A   1      41.458  26.100  27.931  1.00  0.00     0.049 A 
ATOM     50  H   UNL A   1      42.305  27.012  29.618  1.00  0.00     0.167 HD
ATOM     51  C   UNL A   1      43.365  28.166  33.717  1.00  0.00     0.031 A 
ATOM     52  C   UNL A   1      42.297  25.069  27.666  1.00  0.00     0.031 A 
ATOM     53  C   UNL A   1      44.403  28.780  32.936  1.00  0.00     0.049 A 
ATOM     54  C   UNL A   1      43.555  25.314  28.402  1.00  0.00     0.074 A 
ATOM     55  C   UNL A   1      44.724  30.076  32.588  1.00  0.00     0.029 A 
ATOM     56  N   UNL A   1      45.109  27.971  32.079  1.00  0.00    -0.354 N 
ATOM     57  N   UNL A   1      44.370  26.292  28.137  1.00  0.00    -0.248 NA
ATOM     58  C   UNL A   1      43.715  24.699  29.710  1.00  0.00     0.031 C 
ATOM     59  C   UNL A   1      45.228  29.986  31.258  1.00  0.00     0.029 A 
ATOM     60  C   UNL A   1      45.242  28.638  30.891  1.00  0.00     0.049 A 
ATOM     61  H   UNL A   1      45.456  27.073  32.284  1.00  0.00     0.167 HD
ATOM     62  C   UNL A   1      44.842  26.701  29.375  1.00  0.00     0.074 A 
ATOM     63  C   UNL A   1      44.499  25.613  30.287  1.00  0.00     0.031 C 
ATOM     64  C   UNL A   1      45.214  27.996  29.592  1.00  0.00     0.031 A 
BRANCH  51  65
ATOM     65  C   UNL A   1      43.648  27.075  34.726  1.00  0.00    -0.014 A 
ATOM     66  C   UNL A   1      43.782  27.315  36.107  1.00  0.00     0.009 A 
ATOM     67  C   UNL A   1      43.501  25.731  34.337  1.00  0.00     0.009 A 
ATOM     68  C   UNL A   1      43.744  26.286  37.052  1.00  0.00     0.001 A 
ATOM     69  C   UNL A   1      43.421  24.700  35.283  1.00  0.00     0.001 A 
ATOM     70  C   UNL A   1      43.536  24.980  36.641  1.00  0.00     0.000 A 
ENDBRANCH  51  65
BRANCH  52  71
ATOM     71  C   UNL A   1      41.945  23.728  27.149  1.00  0.00    -0.014 A 
ATOM     72  C   UNL A   1      40.847  23.037  27.691  1.00  0.00     0.009 A 
ATOM     73  C   UNL A   1      42.852  23.003  26.359  1.00  0.00     0.009 A 
ATOM     74  C   UNL A   1      40.681  21.663  27.488  1.00  0.00     0.001 A 
ATOM     75  C   UNL A   1      42.686  21.626  26.157  1.00  0.00     0.001 A 
ATOM     76  C   UNL A   1      41.611  20.954  26.734  1.00  0.00     0.000 A 
ENDBRANCH  52  71
BRANCH  64  77
ATOM     77  C   UNL A   1      45.340  28.916  28.398  1.00  0.00    -0.014 A 
ATOM     78  C   UNL A   1      46.627  29.223  27.931  1.00  0.00     0.009 A 
ATOM     79  C   UNL A   1      44.252  29.627  27.861  1.00  0.00     0.009 A 
ATOM     80  C   UNL A   1      46.827  30.224  26.977  1.00  0.00     0.001 A 
ATOM     81  C   UNL A   1      44.449  30.612  26.886  1.00  0.00     0.001 A 
ATOM     82  C   UNL A   1      45.739  30.920  26.456  1.00  0.00     0.000 A 
ENDBRANCH  64  77
ENDBRANCH  38  39
ENDBRANCH  30  33
ENDBRANCH  28  29
ENDBRANCH  27  28
ENDBRANCH  26  27
ENDBRANCH   1  26
TORSDOF 15
ENDMDL
MODEL 3
REMARK VINA RESULT:     -11.4      2.927      8.408
REMARK SMILES CCn1c(N2CCC(C(=O)NCCCCCCNC(=O)c3ccc(-c4c5nc(c(-c6ccccc6)c6ccc([nH]6)c(-c6ccccc6)c6nc(c(-c7ccccc7)c7ccc4[nH]7)C=C6)C=C5)cc3)CC2)nc2cc(C)ccc21
REMARK SMILES IDX 14 1 13 2 12 3 11 4 9 5 10 6 8 8 5 9 6 10 70 11 7 12 69 13
REMARK SMILES IDX 4 14 3 15 78 16 71 17 72 18 77 19 73 20 76 21 74 22 75 23
REMARK SMILES IDX 2 24 1 25 15 26 16 27 17 28 18 29 19 30 20 32 21 33 22 34
REMARK SMILES IDX 68 35 23 36 67 37 24 38 25 39 26 40 61 41 27 42 66 43 60 44
REMARK SMILES IDX 62 45 28 46 65 47 59 48 58 49 29 51 51 52 36 53 50 54 37 55
REMARK SMILES IDX 40 56 49 57 63 58 38 59 39 60 48 62 64 63 41 64 30 65 31 66
REMARK SMILES IDX 35 67 32 68 34 69 33 70 52 71 53 72 57 73 54 74 56 75 55 76
REMARK SMILES IDX 42 77 43 78 47 79 44 80 46 81 45 82
REMARK H PARENT 11 7 18 31 62 50 40 61
REMARK Flexibility Score: inf
ROOT
ATOM      1  C   UNL A   1      40.035  22.009  26.341  1.00  0.00     0.002 C 
ENDROOT
BRANCH   1   2
ATOM      2  C   UNL A   1      39.021  23.140  26.520  1.00  0.00     0.021 C 
BRANCH   2   3
ATOM      3  C   UNL A   1      37.625  22.776  26.033  1.00  0.00     0.116 C 
BRANCH   3   4
ATOM      4  N   UNL A   1      37.549  22.865  24.586  1.00  0.00    -0.356 N 
ATOM      5  C   UNL A   1      36.468  22.984  23.769  1.00  0.00     0.223 C 
ATOM      6  O   UNL A   1      36.651  22.957  22.550  1.00  0.00    -0.275 OA
ATOM      7  H   UNL A   1      38.416  22.834  24.122  1.00  0.00     0.163 HD
BRANCH   5   8
ATOM      8  C   UNL A   1      35.074  23.183  24.338  1.00  0.00     0.082 C 
ATOM      9  N   UNL A   1      32.624  24.646  24.442  1.00  0.00    -0.342 N 
ATOM     10  C   UNL A   1      33.539  24.835  25.558  1.00  0.00     0.120 C 
ATOM     11  C   UNL A   1      32.641  23.380  23.734  1.00  0.00     0.120 C 
ATOM     12  C   UNL A   1      34.970  24.443  25.207  1.00  0.00     0.035 C 
ATOM     13  C   UNL A   1      34.030  23.070  23.220  1.00  0.00     0.035 C 
BRANCH   9  14
ATOM     14  C   UNL A   1      31.727  25.619  24.145  1.00  0.00     0.206 A 
ATOM     15  N   UNL A   1      32.072  26.921  23.840  1.00  0.00    -0.310 N 
ATOM     16  C   UNL A   1      30.896  27.623  23.610  1.00  0.00     0.070 A 
ATOM     17  N   UNL A   1      30.421  25.451  24.053  1.00  0.00    -0.213 NA
ATOM     18  C   UNL A   1      29.889  26.683  23.758  1.00  0.00     0.091 A 
ATOM     19  C   UNL A   1      30.646  28.963  23.284  1.00  0.00     0.029 A 
ATOM     20  C   UNL A   1      28.549  27.091  23.595  1.00  0.00     0.034 A 
ATOM     21  C   UNL A   1      29.314  29.350  23.122  1.00  0.00     0.006 A 
ATOM     22  C   UNL A   1      28.265  28.437  23.279  1.00  0.00    -0.049 A 
ATOM     23  C   UNL A   1      26.844  28.898  23.127  1.00  0.00     0.044 C 
BRANCH  15  24
ATOM     24  C   UNL A   1      33.351  27.587  23.687  1.00  0.00     0.122 C 
ATOM     25  C   UNL A   1      34.048  27.690  22.346  1.00  0.00     0.028 C 
ENDBRANCH  15  24
ENDBRANCH   9  14
ENDBRANCH   5   8
ENDBRANCH   3   4
ENDBRANCH   2   3
ENDBRANCH   1   2
BRANCH   1  26
ATOM     26  C   UNL A   1      40.787  21.621  27.618  1.00  0.00     0.002 C 
BRANCH  26  27
ATOM     27  C   UNL A   1      41.912  20.597  27.418  1.00  0.00     0.021 C 
BRANCH  27  28
ATOM     28  C   UNL A   1      41.816  19.815  26.108  1.00  0.00     0.116 C 
BRANCH  28  29
ATOM     29  N   UNL A   1      43.016  19.900  25.303  1.00  0.00    -0.352 N 
ATOM     30  C   UNL A   1      43.996  20.832  25.138  1.00  0.00     0.251 C 
ATOM     31  H   UNL A   1      43.155  19.101  24.746  1.00  0.00     0.163 HD
ATOM     32  O   UNL A   1      44.925  20.519  24.384  1.00  0.00    -0.269 OA
BRANCH  30  33
ATOM     33  C   UNL A   1      43.993  22.193  25.736  1.00  0.00     0.039 A 
ATOM     34  C   UNL A   1      44.723  22.595  26.855  1.00  0.00     0.014 A 
ATOM     35  C   UNL A   1      43.125  23.121  25.132  1.00  0.00     0.014 A 
ATOM     36  C   UNL A   1      44.503  23.841  27.427  1.00  0.00     0.010 A 
ATOM     37  C   UNL A   1      42.921  24.378  25.681  1.00  0.00     0.010 A 
ATOM     38  C   UNL A   1      43.569  24.713  26.863  1.00  0.00    -0.014 A 
BRANCH  38  39
ATOM     39  C   UNL A   1      43.383  26.013  27.501  1.00  0.00     0.031 A 
ATOM     40  C   UNL A   1      44.455  27.006  27.213  1.00  0.00     0.074 A 
ATOM     41  C   UNL A   1      42.285  26.335  28.212  1.00  0.00     0.049 A 
ATOM     42  N   UNL A   1      45.230  27.616  28.050  1.00  0.00    -0.248 NA
ATOM     43  C   UNL A   1      44.771  27.267  25.799  1.00  0.00     0.031 C 
ATOM     44  C   UNL A   1      41.043  25.571  28.354  1.00  0.00     0.029 A 
ATOM     45  N   UNL A   1      42.011  27.491  28.882  1.00  0.00    -0.354 N 
ATOM     46  C   UNL A   1      46.026  28.465  27.284  1.00  0.00     0.074 A 
ATOM     47  C   UNL A   1      45.795  28.114  25.907  1.00  0.00     0.031 C 
ATOM     48  C   UNL A   1      40.076  26.375  28.850  1.00  0.00     0.029 A 
ATOM     49  C   UNL A   1      40.670  27.650  29.208  1.00  0.00     0.049 A 
ATOM     50  H   UNL A   1      42.702  28.153  29.115  1.00  0.00     0.167 HD
ATOM     51  C   UNL A   1      46.661  29.542  27.824  1.00  0.00     0.031 A 
ATOM     52  C   UNL A   1      40.081  28.773  29.685  1.00  0.00     0.031 A 
ATOM     53  C   UNL A   1      46.817  29.415  29.247  1.00  0.00     0.049 A 
ATOM     54  C   UNL A   1      41.141  29.624  30.264  1.00  0.00     0.074 A 
ATOM     55  C   UNL A   1      47.496  28.549  30.079  1.00  0.00     0.029 A 
ATOM     56  N   UNL A   1      45.911  30.073  30.042  1.00  0.00    -0.354 N 
ATOM     57  N   UNL A   1      41.827  29.307  31.323  1.00  0.00    -0.248 NA
ATOM     58  C   UNL A   1      41.723  30.660  29.427  1.00  0.00     0.031 C 
ATOM     59  C   UNL A   1      46.652  28.395  31.217  1.00  0.00     0.029 A 
ATOM     60  C   UNL A   1      45.536  29.219  31.044  1.00  0.00     0.049 A 
ATOM     61  H   UNL A   1      45.588  30.994  29.913  1.00  0.00     0.167 HD
ATOM     62  C   UNL A   1      43.107  29.773  31.065  1.00  0.00     0.074 A 
ATOM     63  C   UNL A   1      42.953  30.696  29.944  1.00  0.00     0.031 C 
ATOM     64  C   UNL A   1      44.201  29.156  31.601  1.00  0.00     0.031 A 
BRANCH  51  65
ATOM     65  C   UNL A   1      46.764  30.873  27.113  1.00  0.00    -0.014 A 
ATOM     66  C   UNL A   1      45.642  31.634  26.731  1.00  0.00     0.009 A 
ATOM     67  C   UNL A   1      48.009  31.527  27.066  1.00  0.00     0.009 A 
ATOM     68  C   UNL A   1      45.744  32.975  26.353  1.00  0.00     0.001 A 
ATOM     69  C   UNL A   1      48.110  32.883  26.726  1.00  0.00     0.001 A 
ATOM     70  C   UNL A   1      46.976  33.608  26.376  1.00  0.00     0.000 A 
ENDBRANCH  51  65
BRANCH  52  71
ATOM     71  C   UNL A   1      38.753  29.319  29.329  1.00  0.00    -0.014 A 
ATOM     72  C   UNL A   1      37.725  29.339  30.289  1.00  0.00     0.009 A 
ATOM     73  C   UNL A   1      38.400  29.529  27.986  1.00  0.00     0.009 A 
ATOM     74  C   UNL A   1      36.388  29.518  29.918  1.00  0.00     0.001 A 
ATOM     75  C   UNL A   1      37.060  29.709  27.616  1.00  0.00     0.001 A 
ATOM     76  C   UNL A   1      36.054  29.686  28.579  1.00  0.00     0.000 A 
ENDBRANCH  52  71
BRANCH  64  77
ATOM     77  C   UNL A   1      43.981  28.116  32.677  1.00  0.00    -0.014 A 
ATOM     78  C   UNL A   1      44.092  28.515  34.017  1.00  0.00     0.009 A 
ATOM     79  C   UNL A   1      43.868  26.741  32.401  1.00  0.00     0.009 A 
ATOM     80  C   UNL A   1      44.114  27.574  35.050  1.00  0.00     0.001 A 
ATOM     81  C   UNL A   1      43.863  25.799  33.436  1.00  0.00     0.001 A 
ATOM     82  C   UNL A   1      44.001  26.216  34.759  1.00  0.00     0.000 A 
ENDBRANCH  64  77
ENDBRANCH  38  39
ENDBRANCH  30  33
ENDBRANCH  28  29
ENDBRANCH  27  28
ENDBRANCH  26  27
ENDBRANCH   1  26
TORSDOF 15
ENDMDL
