MODEL 1
REMARK VINA RESULT:     -11.8      0.000      0.000
REMARK SMILES CCC(=O)N1CCC[C@](C[C@H]2CC(c3ccc(C)cc3)=NO2)(C(=O)NCCCCCCNC(=O)c2ccc(-c3c4nc(c(-c5ccccc5)c5ccc([nH]5)c(-c5ccccc5)c5nc(c(-c6ccccc6)c6ccc3[nH]6)C=C5)C=C4)cc2)C1
REMARK SMILES IDX 28 1 27 2 26 3 25 4 23 5 24 6 9 8 5 9 6 10 83 11 7 12 8 13
REMARK SMILES IDX 3 14 4 15 2 16 1 17 10 18 11 19 12 20 22 21 13 22 21 23
REMARK SMILES IDX 14 24 15 25 20 26 16 27 19 28 17 29 18 30 29 31 30 32 31 33
REMARK SMILES IDX 32 34 33 35 34 37 35 38 36 39 82 40 37 41 81 42 38 43 39 44
REMARK SMILES IDX 40 45 75 46 41 47 80 48 74 49 76 50 42 51 79 52 73 53 72 54
REMARK SMILES IDX 43 56 65 57 50 58 64 59 51 60 54 61 63 62 77 63 52 64 53 65
REMARK SMILES IDX 62 67 78 68 55 69 44 70 45 71 49 72 46 73 48 74 47 75 66 76
REMARK SMILES IDX 67 77 71 78 68 79 70 80 69 81 56 82 57 83 61 84 58 85 60 86
REMARK SMILES IDX 59 87
REMARK H PARENT 25 7 32 36 76 55 54 66
REMARK Flexibility Score: inf
ROOT
ATOM      1  C   UNL A   1      31.516  27.927  26.528  1.00  0.00     0.002 C 
ENDROOT
BRANCH   1   2
ATOM      2  C   UNL A   1      31.360  26.414  26.749  1.00  0.00     0.021 C 
BRANCH   2   3
ATOM      3  C   UNL A   1      32.457  25.537  26.145  1.00  0.00     0.116 C 
BRANCH   3   4
ATOM      4  N   UNL A   1      32.251  24.114  26.310  1.00  0.00    -0.356 N 
ATOM      5  C   UNL A   1      32.972  23.021  25.951  1.00  0.00     0.228 C 
ATOM      6  O   UNL A   1      32.645  22.000  26.576  1.00  0.00    -0.274 OA
ATOM      7  H   UNL A   1      31.415  23.893  26.778  1.00  0.00     0.163 HD
BRANCH   5   8
ATOM      8  C   UNL A   1      34.031  22.925  24.780  1.00  0.00     0.070 C 
ATOM      9  N   UNL A   1      33.477  24.520  22.822  1.00  0.00    -0.342 N 
ATOM     10  C   UNL A   1      33.233  23.350  21.975  1.00  0.00     0.119 C 
ATOM     11  C   UNL A   1      34.245  24.278  24.053  1.00  0.00     0.136 C 
ATOM     12  C   UNL A   1      32.621  22.203  22.759  1.00  0.00     0.023 C 
ATOM     13  C   UNL A   1      33.566  21.776  23.865  1.00  0.00     0.021 C 
BRANCH   9  14
ATOM     14  C   UNL A   1      33.068  25.752  22.328  1.00  0.00     0.222 C 
ATOM     15  O   UNL A   1      33.583  26.206  21.295  1.00  0.00    -0.275 OA
BRANCH  14  16
ATOM     16  C   UNL A   1      32.034  26.657  23.006  1.00  0.00     0.097 C 
ATOM     17  C   UNL A   1      30.553  26.367  23.062  1.00  0.00     0.014 C 
ENDBRANCH  14  16
ENDBRANCH   9  14
BRANCH   8  18
ATOM     18  C   UNL A   1      35.367  22.488  25.532  1.00  0.00     0.067 C 
BRANCH  18  19
ATOM     19  C   UNL A   1      36.802  22.603  24.978  1.00  0.00     0.211 C 
ATOM     20  C   UNL A   1      37.851  23.353  25.768  1.00  0.00     0.108 C 
ATOM     21  O   UNL A   1      37.366  21.330  24.654  1.00  0.00    -0.392 OA
ATOM     22  C   UNL A   1      38.776  22.229  26.063  1.00  0.00     0.091 C 
ATOM     23  N   UNL A   1      38.531  21.130  25.429  1.00  0.00    -0.090 NA
BRANCH  22  24
ATOM     24  C   UNL A   1      39.959  22.411  26.922  1.00  0.00    -0.001 A 
ATOM     25  C   UNL A   1      40.184  23.607  27.607  1.00  0.00     0.010 A 
ATOM     26  C   UNL A   1      40.880  21.364  27.018  1.00  0.00     0.010 A 
ATOM     27  C   UNL A   1      41.344  23.758  28.374  1.00  0.00     0.004 A 
ATOM     28  C   UNL A   1      42.045  21.526  27.770  1.00  0.00     0.004 A 
ATOM     29  C   UNL A   1      42.287  22.724  28.452  1.00  0.00    -0.051 A 
ATOM     30  C   UNL A   1      43.562  22.896  29.224  1.00  0.00     0.044 C 
ENDBRANCH  22  24
ENDBRANCH  18  19
ENDBRANCH   8  18
ENDBRANCH   5   8
ENDBRANCH   3   4
ENDBRANCH   2   3
ENDBRANCH   1   2
BRANCH   1  31
ATOM     31  C   UNL A   1      32.506  28.693  27.420  1.00  0.00     0.002 C 
BRANCH  31  32
ATOM     32  C   UNL A   1      33.976  28.645  27.013  1.00  0.00     0.021 C 
BRANCH  32  33
ATOM     33  C   UNL A   1      34.772  29.898  27.344  1.00  0.00     0.116 C 
BRANCH  33  34
ATOM     34  N   UNL A   1      33.966  31.113  27.419  1.00  0.00    -0.352 N 
ATOM     35  C   UNL A   1      34.136  32.247  28.198  1.00  0.00     0.251 C 
ATOM     36  H   UNL A   1      33.182  31.131  26.824  1.00  0.00     0.163 HD
ATOM     37  O   UNL A   1      33.329  33.162  28.132  1.00  0.00    -0.269 OA
BRANCH  35  38
ATOM     38  C   UNL A   1      35.377  32.411  28.997  1.00  0.00     0.039 A 
ATOM     39  C   UNL A   1      36.461  33.061  28.390  1.00  0.00     0.014 A 
ATOM     40  C   UNL A   1      35.552  31.744  30.203  1.00  0.00     0.014 A 
ATOM     41  C   UNL A   1      37.751  32.799  28.840  1.00  0.00     0.010 A 
ATOM     42  C   UNL A   1      36.828  31.385  30.577  1.00  0.00     0.010 A 
ATOM     43  C   UNL A   1      37.924  31.856  29.848  1.00  0.00    -0.014 A 
BRANCH  43  44
ATOM     44  C   UNL A   1      39.191  31.209  30.151  1.00  0.00     0.031 A 
ATOM     45  C   UNL A   1      39.558  29.953  29.473  1.00  0.00     0.074 A 
ATOM     46  C   UNL A   1      40.076  31.840  30.953  1.00  0.00     0.049 A 
ATOM     47  N   UNL A   1      40.521  29.185  29.850  1.00  0.00    -0.248 NA
ATOM     48  C   UNL A   1      38.800  29.411  28.347  1.00  0.00     0.031 C 
ATOM     49  C   UNL A   1      41.507  31.581  31.085  1.00  0.00     0.029 A 
ATOM     50  N   UNL A   1      39.792  32.723  31.992  1.00  0.00    -0.354 N 
ATOM     51  C   UNL A   1      40.704  28.243  28.869  1.00  0.00     0.074 A 
ATOM     52  C   UNL A   1      39.535  28.341  28.032  1.00  0.00     0.031 C 
ATOM     53  C   UNL A   1      41.938  32.089  32.251  1.00  0.00     0.029 A 
ATOM     54  C   UNL A   1      40.766  32.534  32.986  1.00  0.00     0.049 A 
ATOM     55  H   UNL A   1      39.042  33.361  32.024  1.00  0.00     0.167 HD
ATOM     56  C   UNL A   1      41.897  27.591  28.802  1.00  0.00     0.031 A 
ATOM     57  C   UNL A   1      40.420  32.076  34.226  1.00  0.00     0.031 A 
ATOM     58  C   UNL A   1      42.702  27.830  30.001  1.00  0.00     0.049 A 
ATOM     59  C   UNL A   1      41.035  30.737  34.579  1.00  0.00     0.074 A 
ATOM     60  C   UNL A   1      43.808  28.617  30.267  1.00  0.00     0.029 A 
ATOM     61  N   UNL A   1      42.201  27.421  31.233  1.00  0.00    -0.354 N 
ATOM     62  N   UNL A   1      41.542  29.912  33.703  1.00  0.00    -0.248 NA
ATOM     63  C   UNL A   1      41.102  30.210  35.939  1.00  0.00     0.031 C 
ATOM     64  C   UNL A   1      43.914  28.755  31.679  1.00  0.00     0.029 A 
ATOM     65  C   UNL A   1      42.902  28.014  32.265  1.00  0.00     0.049 A 
ATOM     66  H   UNL A   1      41.452  26.796  31.353  1.00  0.00     0.167 HD
ATOM     67  C   UNL A   1      41.984  28.780  34.337  1.00  0.00     0.074 A 
ATOM     68  C   UNL A   1      41.697  29.020  35.740  1.00  0.00     0.031 C 
ATOM     69  C   UNL A   1      42.534  27.737  33.648  1.00  0.00     0.031 A 
BRANCH  56  70
ATOM     70  C   UNL A   1      42.438  26.923  27.557  1.00  0.00    -0.014 A 
ATOM     71  C   UNL A   1      41.611  26.804  26.425  1.00  0.00     0.009 A 
ATOM     72  C   UNL A   1      43.693  26.294  27.459  1.00  0.00     0.009 A 
ATOM     73  C   UNL A   1      42.001  26.079  25.288  1.00  0.00     0.001 A 
ATOM     74  C   UNL A   1      44.097  25.581  26.322  1.00  0.00     0.001 A 
ATOM     75  C   UNL A   1      43.244  25.464  25.238  1.00  0.00     0.000 A 
ENDBRANCH  56  70
BRANCH  57  76
ATOM     76  C   UNL A   1      39.076  32.539  34.671  1.00  0.00    -0.014 A 
ATOM     77  C   UNL A   1      38.973  33.822  35.245  1.00  0.00     0.009 A 
ATOM     78  C   UNL A   1      37.911  31.928  34.183  1.00  0.00     0.009 A 
ATOM     79  C   UNL A   1      37.764  34.524  35.218  1.00  0.00     0.001 A 
ATOM     80  C   UNL A   1      36.700  32.633  34.167  1.00  0.00     0.001 A 
ATOM     81  C   UNL A   1      36.636  33.940  34.648  1.00  0.00     0.000 A 
ENDBRANCH  57  76
BRANCH  69  82
ATOM     82  C   UNL A   1      42.831  26.360  34.197  1.00  0.00    -0.014 A 
ATOM     83  C   UNL A   1      42.008  25.666  35.092  1.00  0.00     0.009 A 
ATOM     84  C   UNL A   1      43.937  25.647  33.679  1.00  0.00     0.009 A 
ATOM     85  C   UNL A   1      42.296  24.349  35.480  1.00  0.00     0.001 A 
ATOM     86  C   UNL A   1      44.202  24.319  34.025  1.00  0.00     0.001 A 
ATOM     87  C   UNL A   1      43.384  23.672  34.938  1.00  0.00     0.000 A 
ENDBRANCH  69  82
ENDBRANCH  43  44
ENDBRANCH  35  38
ENDBRANCH  33  34
ENDBRANCH  32  33
ENDBRANCH  31  32
ENDBRANCH   1  31
TORSDOF 18
ENDMDL
MODEL 2
REMARK VINA RESULT:     -11.8      1.784      5.282
REMARK SMILES CCC(=O)N1CCC[C@](C[C@H]2CC(c3ccc(C)cc3)=NO2)(C(=O)NCCCCCCNC(=O)c2ccc(-c3c4nc(c(-c5ccccc5)c5ccc([nH]5)c(-c5ccccc5)c5nc(c(-c6ccccc6)c6ccc3[nH]6)C=C5)C=C4)cc2)C1
REMARK SMILES IDX 28 1 27 2 26 3 25 4 23 5 24 6 9 8 5 9 6 10 83 11 7 12 8 13
REMARK SMILES IDX 3 14 4 15 2 16 1 17 10 18 11 19 12 20 22 21 13 22 21 23
REMARK SMILES IDX 14 24 15 25 20 26 16 27 19 28 17 29 18 30 29 31 30 32 31 33
REMARK SMILES IDX 32 34 33 35 34 37 35 38 36 39 82 40 37 41 81 42 38 43 39 44
REMARK SMILES IDX 40 45 75 46 41 47 80 48 74 49 76 50 42 51 79 52 73 53 72 54
REMARK SMILES IDX 43 56 65 57 50 58 64 59 51 60 54 61 63 62 77 63 52 64 53 65
REMARK SMILES IDX 62 67 78 68 55 69 44 70 45 71 49 72 46 73 48 74 47 75 66 76
REMARK SMILES IDX 67 77 71 78 68 79 70 80 69 81 56 82 57 83 61 84 58 85 60 86
REMARK SMILES IDX 59 87
REMARK H PARENT 25 7 32 36 76 55 54 66
REMARK Flexibility Score: inf
ROOT
ATOM      1  C   UNL A   1      33.686  28.109  25.504  1.00  0.00     0.002 C 
ENDROOT
BRANCH   1   2
ATOM      2  C   UNL A   1      32.860  26.979  26.138  1.00  0.00     0.021 C 
BRANCH   2   3
ATOM      3  C   UNL A   1      33.504  25.593  26.120  1.00  0.00     0.116 C 
BRANCH   3   4
ATOM      4  N   UNL A   1      32.565  24.491  26.117  1.00  0.00    -0.356 N 
ATOM      5  C   UNL A   1      32.638  23.207  25.683  1.00  0.00     0.228 C 
ATOM      6  O   UNL A   1      31.760  22.480  26.174  1.00  0.00    -0.274 OA
ATOM      7  H   UNL A   1      31.693  24.721  26.510  1.00  0.00     0.163 HD
BRANCH   5   8
ATOM      8  C   UNL A   1      33.607  22.634  24.571  1.00  0.00     0.070 C 
ATOM      9  N   UNL A   1      33.516  20.054  24.424  1.00  0.00    -0.342 N 
ATOM     10  C   UNL A   1      34.902  20.007  24.896  1.00  0.00     0.119 C 
ATOM     11  C   UNL A   1      33.055  21.349  23.900  1.00  0.00     0.136 C 
ATOM     12  C   UNL A   1      35.198  21.112  25.894  1.00  0.00     0.023 C 
ATOM     13  C   UNL A   1      34.985  22.463  25.239  1.00  0.00     0.021 C 
BRANCH   9  14
ATOM     14  C   UNL A   1      32.814  18.856  24.407  1.00  0.00     0.222 C 
ATOM     15  O   UNL A   1      32.119  18.531  25.382  1.00  0.00    -0.275 OA
BRANCH  14  16
ATOM     16  C   UNL A   1      32.870  17.837  23.265  1.00  0.00     0.097 C 
ATOM     17  C   UNL A   1      34.051  16.940  22.977  1.00  0.00     0.014 C 
ENDBRANCH  14  16
ENDBRANCH   9  14
BRANCH   8  18
ATOM     18  C   UNL A   1      33.682  23.820  23.508  1.00  0.00     0.067 C 
BRANCH  18  19
ATOM     19  C   UNL A   1      32.566  24.236  22.528  1.00  0.00     0.211 C 
ATOM     20  C   UNL A   1      31.325  24.922  23.057  1.00  0.00     0.108 C 
ATOM     21  O   UNL A   1      33.053  25.042  21.454  1.00  0.00    -0.392 OA
ATOM     22  C   UNL A   1      31.477  26.238  22.386  1.00  0.00     0.091 C 
ATOM     23  N   UNL A   1      32.402  26.296  21.485  1.00  0.00    -0.090 NA
BRANCH  22  24
ATOM     24  C   UNL A   1      30.546  27.348  22.650  1.00  0.00    -0.001 A 
ATOM     25  C   UNL A   1      29.271  27.122  23.171  1.00  0.00     0.010 A 
ATOM     26  C   UNL A   1      30.955  28.649  22.339  1.00  0.00     0.010 A 
ATOM     27  C   UNL A   1      28.399  28.198  23.363  1.00  0.00     0.004 A 
ATOM     28  C   UNL A   1      30.075  29.718  22.514  1.00  0.00     0.004 A 
ATOM     29  C   UNL A   1      28.790  29.501  23.026  1.00  0.00    -0.051 A 
ATOM     30  C   UNL A   1      27.843  30.655  23.172  1.00  0.00     0.044 C 
ENDBRANCH  22  24
ENDBRANCH  18  19
ENDBRANCH   8  18
ENDBRANCH   5   8
ENDBRANCH   3   4
ENDBRANCH   2   3
ENDBRANCH   1   2
BRANCH   1  31
ATOM     31  C   UNL A   1      34.457  29.056  26.437  1.00  0.00     0.002 C 
BRANCH  31  32
ATOM     32  C   UNL A   1      33.654  30.169  27.104  1.00  0.00     0.021 C 
BRANCH  32  33
ATOM     33  C   UNL A   1      34.488  31.210  27.834  1.00  0.00     0.116 C 
BRANCH  33  34
ATOM     34  N   UNL A   1      33.789  32.468  28.079  1.00  0.00    -0.352 N 
ATOM     35  C   UNL A   1      34.106  33.510  28.937  1.00  0.00     0.251 C 
ATOM     36  H   UNL A   1      32.967  32.598  27.553  1.00  0.00     0.163 HD
ATOM     37  O   UNL A   1      33.372  34.483  29.015  1.00  0.00    -0.269 OA
BRANCH  35  38
ATOM     38  C   UNL A   1      35.411  33.509  29.644  1.00  0.00     0.039 A 
ATOM     39  C   UNL A   1      36.514  34.060  28.977  1.00  0.00     0.014 A 
ATOM     40  C   UNL A   1      35.597  32.782  30.814  1.00  0.00     0.014 A 
ATOM     41  C   UNL A   1      37.797  33.643  29.320  1.00  0.00     0.010 A 
ATOM     42  C   UNL A   1      36.850  32.274  31.079  1.00  0.00     0.010 A 
ATOM     43  C   UNL A   1      37.935  32.650  30.284  1.00  0.00    -0.014 A 
BRANCH  43  44
ATOM     44  C   UNL A   1      39.142  31.859  30.471  1.00  0.00     0.031 A 
ATOM     45  C   UNL A   1      39.288  30.564  29.784  1.00  0.00     0.074 A 
ATOM     46  C   UNL A   1      40.171  32.386  31.170  1.00  0.00     0.049 A 
ATOM     47  N   UNL A   1      40.187  29.690  30.078  1.00  0.00    -0.248 NA
ATOM     48  C   UNL A   1      38.362  30.109  28.750  1.00  0.00     0.031 C 
ATOM     49  C   UNL A   1      41.568  31.960  31.164  1.00  0.00     0.029 A 
ATOM     50  N   UNL A   1      40.099  33.303  32.216  1.00  0.00    -0.354 N 
ATOM     51  C   UNL A   1      40.158  28.726  29.101  1.00  0.00     0.074 A 
ATOM     52  C   UNL A   1      38.931  28.957  28.383  1.00  0.00     0.031 C 
ATOM     53  C   UNL A   1      42.171  32.420  32.272  1.00  0.00     0.029 A 
ATOM     54  C   UNL A   1      41.140  33.007  33.111  1.00  0.00     0.049 A 
ATOM     55  H   UNL A   1      39.437  34.026  32.310  1.00  0.00     0.167 HD
ATOM     56  C   UNL A   1      41.254  27.937  28.928  1.00  0.00     0.031 A 
ATOM     57  C   UNL A   1      40.870  32.602  34.387  1.00  0.00     0.031 A 
ATOM     58  C   UNL A   1      42.198  28.086  30.036  1.00  0.00     0.049 A 
ATOM     59  C   UNL A   1      41.355  31.201  34.702  1.00  0.00     0.074 A 
ATOM     60  C   UNL A   1      43.410  28.738  30.176  1.00  0.00     0.029 A 
ATOM     61  N   UNL A   1      41.779  27.748  31.320  1.00  0.00    -0.354 N 
ATOM     62  N   UNL A   1      41.670  30.316  33.796  1.00  0.00    -0.248 NA
ATOM     63  C   UNL A   1      41.497  30.679  36.059  1.00  0.00     0.031 C 
ATOM     64  C   UNL A   1      43.673  28.872  31.568  1.00  0.00     0.029 A 
ATOM     65  C   UNL A   1      42.645  28.260  32.265  1.00  0.00     0.049 A 
ATOM     66  H   UNL A   1      40.978  27.217  31.525  1.00  0.00     0.167 HD
ATOM     67  C   UNL A   1      42.037  29.144  34.403  1.00  0.00     0.074 A 
ATOM     68  C   UNL A   1      41.924  29.425  35.823  1.00  0.00     0.031 C 
ATOM     69  C   UNL A   1      42.390  28.038  33.683  1.00  0.00     0.031 A 
BRANCH  56  70
ATOM     70  C   UNL A   1      41.584  27.200  27.648  1.00  0.00    -0.014 A 
ATOM     71  C   UNL A   1      42.431  27.809  26.702  1.00  0.00     0.009 A 
ATOM     72  C   UNL A   1      41.021  25.972  27.255  1.00  0.00     0.009 A 
ATOM     73  C   UNL A   1      42.670  27.243  25.441  1.00  0.00     0.001 A 
ATOM     74  C   UNL A   1      41.266  25.392  26.003  1.00  0.00     0.001 A 
ATOM     75  C   UNL A   1      42.084  26.034  25.090  1.00  0.00     0.000 A 
ENDBRANCH  56  70
BRANCH  57  76
ATOM     76  C   UNL A   1      39.641  33.223  34.956  1.00  0.00    -0.014 A 
ATOM     77  C   UNL A   1      38.418  32.541  34.797  1.00  0.00     0.009 A 
ATOM     78  C   UNL A   1      39.732  34.212  35.947  1.00  0.00     0.009 A 
ATOM     79  C   UNL A   1      37.359  32.752  35.685  1.00  0.00     0.001 A 
ATOM     80  C   UNL A   1      38.664  34.427  36.828  1.00  0.00     0.001 A 
ATOM     81  C   UNL A   1      37.496  33.672  36.721  1.00  0.00     0.000 A 
ENDBRANCH  57  76
BRANCH  69  82
ATOM     82  C   UNL A   1      42.576  26.639  34.226  1.00  0.00    -0.014 A 
ATOM     83  C   UNL A   1      43.724  25.860  34.042  1.00  0.00     0.009 A 
ATOM     84  C   UNL A   1      41.593  26.114  35.098  1.00  0.00     0.009 A 
ATOM     85  C   UNL A   1      43.867  24.610  34.661  1.00  0.00     0.001 A 
ATOM     86  C   UNL A   1      41.751  24.891  35.755  1.00  0.00     0.001 A 
ATOM     87  C   UNL A   1      42.887  24.131  35.526  1.00  0.00     0.000 A 
ENDBRANCH  69  82
ENDBRANCH  43  44
ENDBRANCH  35  38
ENDBRANCH  33  34
ENDBRANCH  32  33
ENDBRANCH  31  32
ENDBRANCH   1  31
TORSDOF 18
ENDMDL
MODEL 3
REMARK VINA RESULT:     -11.5      2.268      5.908
REMARK SMILES CCC(=O)N1CCC[C@](C[C@H]2CC(c3ccc(C)cc3)=NO2)(C(=O)NCCCCCCNC(=O)c2ccc(-c3c4nc(c(-c5ccccc5)c5ccc([nH]5)c(-c5ccccc5)c5nc(c(-c6ccccc6)c6ccc3[nH]6)C=C5)C=C4)cc2)C1
REMARK SMILES IDX 28 1 27 2 26 3 25 4 23 5 24 6 9 8 5 9 6 10 83 11 7 12 8 13
REMARK SMILES IDX 3 14 4 15 2 16 1 17 10 18 11 19 12 20 22 21 13 22 21 23
REMARK SMILES IDX 14 24 15 25 20 26 16 27 19 28 17 29 18 30 29 31 30 32 31 33
REMARK SMILES IDX 32 34 33 35 34 37 35 38 36 39 82 40 37 41 81 42 38 43 39 44
REMARK SMILES IDX 40 45 75 46 41 47 80 48 74 49 76 50 42 51 79 52 73 53 72 54
REMARK SMILES IDX 43 56 65 57 50 58 64 59 51 60 54 61 63 62 77 63 52 64 53 65
REMARK SMILES IDX 62 67 78 68 55 69 44 70 45 71 49 72 46 73 48 74 47 75 66 76
REMARK SMILES IDX 67 77 71 78 68 79 70 80 69 81 56 82 57 83 61 84 58 85 60 86
REMARK SMILES IDX 59 87
REMARK H PARENT 25 7 32 36 76 55 54 66
REMARK Flexibility Score: inf
ROOT
ATOM      1  C   UNL A   1      33.255  27.996  26.706  1.00  0.00     0.002 C 
ENDROOT
BRANCH   1   2
ATOM      2  C   UNL A   1      33.310  27.614  25.219  1.00  0.00     0.021 C 
BRANCH   2   3
ATOM      3  C   UNL A   1      34.015  26.297  24.896  1.00  0.00     0.116 C 
BRANCH   3   4
ATOM      4  N   UNL A   1      33.805  25.246  25.868  1.00  0.00    -0.356 N 
ATOM      5  C   UNL A   1      33.231  24.017  25.801  1.00  0.00     0.228 C 
ATOM      6  O   UNL A   1      33.558  23.279  26.744  1.00  0.00    -0.274 OA
ATOM      7  H   UNL A   1      34.148  25.468  26.762  1.00  0.00     0.163 HD
BRANCH   5   8
ATOM      8  C   UNL A   1      32.144  23.532  24.759  1.00  0.00     0.070 C 
ATOM      9  N   UNL A   1      32.283  20.991  24.306  1.00  0.00    -0.342 N 
ATOM     10  C   UNL A   1      32.691  21.287  22.931  1.00  0.00     0.119 C 
ATOM     11  C   UNL A   1      31.643  22.092  25.042  1.00  0.00     0.136 C 
ATOM     12  C   UNL A   1      33.548  22.538  22.853  1.00  0.00     0.023 C 
ATOM     13  C   UNL A   1      32.761  23.730  23.361  1.00  0.00     0.021 C 
BRANCH   9  14
ATOM     14  C   UNL A   1      32.428  19.679  24.739  1.00  0.00     0.222 C 
ATOM     15  O   UNL A   1      32.603  19.441  25.944  1.00  0.00    -0.275 OA
BRANCH  14  16
ATOM     16  C   UNL A   1      32.445  18.459  23.813  1.00  0.00     0.097 C 
ATOM     17  C   UNL A   1      33.649  17.575  23.588  1.00  0.00     0.014 C 
ENDBRANCH  14  16
ENDBRANCH   9  14
BRANCH   8  18
ATOM     18  C   UNL A   1      30.956  24.577  24.961  1.00  0.00     0.067 C 
BRANCH  18  19
ATOM     19  C   UNL A   1      30.090  25.196  23.843  1.00  0.00     0.211 C 
ATOM     20  C   UNL A   1      29.247  26.416  24.141  1.00  0.00     0.108 C 
ATOM     21  O   UNL A   1      30.846  25.497  22.669  1.00  0.00    -0.392 OA
ATOM     22  C   UNL A   1      29.912  27.391  23.239  1.00  0.00     0.091 C 
ATOM     23  N   UNL A   1      30.765  26.884  22.410  1.00  0.00    -0.090 NA
BRANCH  22  24
ATOM     24  C   UNL A   1      29.521  28.810  23.218  1.00  0.00    -0.001 A 
ATOM     25  C   UNL A   1      28.506  29.274  22.379  1.00  0.00     0.010 A 
ATOM     26  C   UNL A   1      30.212  29.704  24.040  1.00  0.00     0.010 A 
ATOM     27  C   UNL A   1      28.197  30.637  22.352  1.00  0.00     0.004 A 
ATOM     28  C   UNL A   1      29.914  31.067  23.997  1.00  0.00     0.004 A 
ATOM     29  C   UNL A   1      28.905  31.545  23.152  1.00  0.00    -0.051 A 
ATOM     30  C   UNL A   1      28.622  33.017  23.088  1.00  0.00     0.044 C 
ENDBRANCH  22  24
ENDBRANCH  18  19
ENDBRANCH   8  18
ENDBRANCH   5   8
ENDBRANCH   3   4
ENDBRANCH   2   3
ENDBRANCH   1   2
BRANCH   1  31
ATOM     31  C   UNL A   1      32.057  28.823  27.199  1.00  0.00     0.002 C 
BRANCH  31  32
ATOM     32  C   UNL A   1      32.243  30.337  27.258  1.00  0.00     0.021 C 
BRANCH  32  33
ATOM     33  C   UNL A   1      33.662  30.817  26.997  1.00  0.00     0.116 C 
BRANCH  33  34
ATOM     34  N   UNL A   1      34.176  31.734  28.010  1.00  0.00    -0.352 N 
ATOM     35  C   UNL A   1      35.234  31.582  28.894  1.00  0.00     0.251 C 
ATOM     36  H   UNL A   1      33.700  32.593  28.075  1.00  0.00     0.163 HD
ATOM     37  O   UNL A   1      35.497  32.470  29.691  1.00  0.00    -0.269 OA
BRANCH  35  38
ATOM     38  C   UNL A   1      36.136  30.410  28.767  1.00  0.00     0.039 A 
ATOM     39  C   UNL A   1      36.303  29.593  29.894  1.00  0.00     0.014 A 
ATOM     40  C   UNL A   1      36.969  30.256  27.666  1.00  0.00     0.014 A 
ATOM     41  C   UNL A   1      37.465  28.837  30.021  1.00  0.00     0.010 A 
ATOM     42  C   UNL A   1      38.172  29.609  27.837  1.00  0.00     0.010 A 
ATOM     43  C   UNL A   1      38.448  28.962  29.045  1.00  0.00    -0.014 A 
BRANCH  43  44
ATOM     44  C   UNL A   1      39.831  28.551  29.224  1.00  0.00     0.031 A 
ATOM     45  C   UNL A   1      40.281  27.239  28.726  1.00  0.00     0.074 A 
ATOM     46  C   UNL A   1      40.720  29.435  29.728  1.00  0.00     0.049 A 
ATOM     47  N   UNL A   1      41.398  26.687  29.054  1.00  0.00    -0.248 NA
ATOM     48  C   UNL A   1      39.453  26.391  27.871  1.00  0.00     0.031 C 
ATOM     49  C   UNL A   1      42.177  29.386  29.643  1.00  0.00     0.029 A 
ATOM     50  N   UNL A   1      40.464  30.468  30.627  1.00  0.00    -0.354 N 
ATOM     51  C   UNL A   1      41.573  25.596  28.240  1.00  0.00     0.074 A 
ATOM     52  C   UNL A   1      40.288  25.378  27.624  1.00  0.00     0.031 C 
ATOM     53  C   UNL A   1      42.697  30.168  30.603  1.00  0.00     0.029 A 
ATOM     54  C   UNL A   1      41.597  30.606  31.445  1.00  0.00     0.049 A 
ATOM     55  H   UNL A   1      39.639  31.002  30.679  1.00  0.00     0.167 HD
ATOM     56  C   UNL A   1      42.828  25.096  28.076  1.00  0.00     0.031 A 
ATOM     57  C   UNL A   1      41.521  30.369  32.789  1.00  0.00     0.031 A 
ATOM     58  C   UNL A   1      43.760  25.669  29.048  1.00  0.00     0.049 A 
ATOM     59  C   UNL A   1      42.384  29.215  33.258  1.00  0.00     0.074 A 
ATOM     60  C   UNL A   1      44.758  26.625  28.965  1.00  0.00     0.029 A 
ATOM     61  N   UNL A   1      43.524  25.460  30.404  1.00  0.00    -0.354 N 
ATOM     62  N   UNL A   1      42.872  28.299  32.467  1.00  0.00    -0.248 NA
ATOM     63  C   UNL A   1      42.740  28.986  34.656  1.00  0.00     0.031 C 
ATOM     64  C   UNL A   1      45.057  27.057  30.287  1.00  0.00     0.029 A 
ATOM     65  C   UNL A   1      44.274  26.331  31.169  1.00  0.00     0.049 A 
ATOM     66  H   UNL A   1      42.909  24.784  30.766  1.00  0.00     0.167 HD
ATOM     67  C   UNL A   1      43.577  27.381  33.202  1.00  0.00     0.074 A 
ATOM     68  C   UNL A   1      43.475  27.863  34.568  1.00  0.00     0.031 C 
ATOM     69  C   UNL A   1      44.171  26.296  32.623  1.00  0.00     0.031 A 
BRANCH  56  70
ATOM     70  C   UNL A   1      43.269  24.262  26.894  1.00  0.00    -0.014 A 
ATOM     71  C   UNL A   1      43.989  24.873  25.850  1.00  0.00     0.009 A 
ATOM     72  C   UNL A   1      42.923  22.914  26.683  1.00  0.00     0.009 A 
ATOM     73  C   UNL A   1      44.311  24.191  24.666  1.00  0.00     0.001 A 
ATOM     74  C   UNL A   1      43.253  22.221  25.511  1.00  0.00     0.001 A 
ATOM     75  C   UNL A   1      43.940  22.864  24.496  1.00  0.00     0.000 A 
ENDBRANCH  56  70
BRANCH  57  76
ATOM     76  C   UNL A   1      40.206  30.743  33.380  1.00  0.00    -0.014 A 
ATOM     77  C   UNL A   1      39.903  32.113  33.509  1.00  0.00     0.009 A 
ATOM     78  C   UNL A   1      39.153  29.817  33.426  1.00  0.00     0.009 A 
ATOM     79  C   UNL A   1      38.576  32.552  33.557  1.00  0.00     0.001 A 
ATOM     80  C   UNL A   1      37.825  30.262  33.484  1.00  0.00     0.001 A 
ATOM     81  C   UNL A   1      37.537  31.626  33.511  1.00  0.00     0.000 A 
ENDBRANCH  57  76
BRANCH  69  82
ATOM     82  C   UNL A   1      44.758  25.106  33.346  1.00  0.00    -0.014 A 
ATOM     83  C   UNL A   1      46.100  24.990  33.730  1.00  0.00     0.009 A 
ATOM     84  C   UNL A   1      43.885  24.090  33.800  1.00  0.00     0.009 A 
ATOM     85  C   UNL A   1      46.552  23.900  34.488  1.00  0.00     0.001 A 
ATOM     86  C   UNL A   1      44.320  23.028  34.597  1.00  0.00     0.001 A 
ATOM     87  C   UNL A   1      45.662  22.927  34.932  1.00  0.00     0.000 A 
ENDBRANCH  69  82
ENDBRANCH  43  44
ENDBRANCH  35  38
ENDBRANCH  33  34
ENDBRANCH  32  33
ENDBRANCH  31  32
ENDBRANCH   1  31
TORSDOF 18
ENDMDL
