MODEL 1
REMARK VINA RESULT:     -10.2      0.000      0.000
REMARK SMILES O=C(CC1(NC(=O)C2(c3ccccc3)CC2)CCC1)NCCCCCCNC(=O)c1ccc(-c2c3nc(c(-c4ccccc4)c4ccc([nH]4)c(-c4ccccc4)c4nc(c(-c5ccccc5)c5ccc2[nH]5)C=C4)C=C3)cc1
REMARK SMILES IDX 22 1 21 2 20 3 1 4 2 5 3 7 4 8 17 9 19 10 18 11 5 12 6 13
REMARK SMILES IDX 7 15 8 16 15 17 16 18 9 19 10 20 14 21 11 22 13 23 12 24
REMARK SMILES IDX 23 25 24 26 25 27 26 28 27 29 28 30 29 32 30 33 31 34 77 35
REMARK SMILES IDX 32 36 76 37 33 38 34 39 35 40 70 41 36 42 75 43 69 44 71 45
REMARK SMILES IDX 37 46 74 47 68 48 67 49 38 51 60 52 45 53 59 54 46 55 49 56
REMARK SMILES IDX 58 57 72 58 47 59 48 60 57 62 73 63 50 64 39 65 40 66 44 67
REMARK SMILES IDX 41 68 43 69 42 70 61 71 62 72 66 73 63 74 65 75 64 76 51 77
REMARK SMILES IDX 52 78 56 79 53 80 55 81 54 82
REMARK H PARENT 20 6 5 14 27 31 71 50 49 61
REMARK Flexibility Score: inf
ROOT
ATOM      1  C   UNL A   1      34.216  28.911  26.514  1.00  0.00     0.021 C 
ENDROOT
BRANCH   1   2
ATOM      2  C   UNL A   1      32.784  28.298  26.634  1.00  0.00     0.116 C 
BRANCH   2   3
ATOM      3  N   UNL A   1      32.337  27.400  25.554  1.00  0.00    -0.356 N 
ATOM      4  O   UNL A   1      31.688  25.657  26.877  1.00  0.00    -0.275 OA
ATOM      5  C   UNL A   1      31.733  26.155  25.751  1.00  0.00     0.222 C 
ATOM      6  H   UNL A   1      32.476  27.698  24.626  1.00  0.00     0.163 HD
BRANCH   5   7
ATOM      7  C   UNL A   1      31.108  25.394  24.531  1.00  0.00     0.128 C 
BRANCH   7   8
ATOM      8  C   UNL A   1      31.880  25.074  23.187  1.00  0.00     0.049 C 
ATOM      9  C   UNL A   1      31.407  26.076  22.030  1.00  0.00     0.029 C 
ATOM     10  C   UNL A   1      33.326  25.577  22.746  1.00  0.00     0.029 C 
ATOM     11  C   UNL A   1      32.775  25.891  21.353  1.00  0.00     0.005 C 
BRANCH   8  12
ATOM     12  N   UNL A   1      31.628  23.665  22.672  1.00  0.00    -0.349 N 
ATOM     13  C   UNL A   1      32.190  22.469  23.035  1.00  0.00     0.231 C 
ATOM     14  H   UNL A   1      30.951  23.602  21.959  1.00  0.00     0.164 HD
ATOM     15  O   UNL A   1      32.090  21.470  22.316  1.00  0.00    -0.274 OA
BRANCH  13  16
ATOM     16  C   UNL A   1      32.803  22.366  24.398  1.00  0.00     0.074 C 
ATOM     17  C   UNL A   1      31.663  22.130  25.428  1.00  0.00     0.023 C 
ATOM     18  C   UNL A   1      32.653  21.064  25.230  1.00  0.00     0.023 C 
BRANCH  16  19
ATOM     19  C   UNL A   1      34.254  22.940  24.466  1.00  0.00    -0.032 A 
ATOM     20  C   UNL A   1      35.296  22.637  23.575  1.00  0.00     0.005 A 
ATOM     21  C   UNL A   1      34.692  23.647  25.596  1.00  0.00     0.005 A 
ATOM     22  C   UNL A   1      36.649  22.951  23.750  1.00  0.00     0.000 A 
ATOM     23  C   UNL A   1      36.048  23.982  25.803  1.00  0.00     0.000 A 
ATOM     24  C   UNL A   1      37.030  23.628  24.882  1.00  0.00     0.000 A 
ENDBRANCH  16  19
ENDBRANCH  13  16
ENDBRANCH   8  12
ENDBRANCH   7   8
ENDBRANCH   5   7
ENDBRANCH   2   3
ENDBRANCH   1   2
BRANCH   1  25
ATOM     25  C   UNL A   1      34.931  29.556  27.724  1.00  0.00     0.002 C 
BRANCH  25  26
ATOM     26  C   UNL A   1      34.963  31.086  27.851  1.00  0.00     0.002 C 
BRANCH  26  27
ATOM     27  C   UNL A   1      33.658  31.879  27.844  1.00  0.00     0.021 C 
BRANCH  27  28
ATOM     28  C   UNL A   1      33.750  33.388  27.634  1.00  0.00     0.116 C 
BRANCH  28  29
ATOM     29  N   UNL A   1      33.198  34.209  28.707  1.00  0.00    -0.352 N 
ATOM     30  C   UNL A   1      33.669  34.413  29.993  1.00  0.00     0.251 C 
ATOM     31  H   UNL A   1      32.369  34.690  28.484  1.00  0.00     0.163 HD
ATOM     32  O   UNL A   1      33.043  35.131  30.769  1.00  0.00    -0.269 OA
BRANCH  30  33
ATOM     33  C   UNL A   1      34.903  33.734  30.469  1.00  0.00     0.039 A 
ATOM     34  C   UNL A   1      34.791  32.632  31.325  1.00  0.00     0.014 A 
ATOM     35  C   UNL A   1      36.169  34.155  30.063  1.00  0.00     0.014 A 
ATOM     36  C   UNL A   1      35.931  31.901  31.684  1.00  0.00     0.010 A 
ATOM     37  C   UNL A   1      37.288  33.370  30.335  1.00  0.00     0.010 A 
ATOM     38  C   UNL A   1      37.186  32.233  31.149  1.00  0.00    -0.014 A 
BRANCH  38  39
ATOM     39  C   UNL A   1      38.405  31.426  31.438  1.00  0.00     0.031 A 
ATOM     40  C   UNL A   1      39.272  31.765  32.623  1.00  0.00     0.074 A 
ATOM     41  C   UNL A   1      38.779  30.437  30.601  1.00  0.00     0.049 A 
ATOM     42  N   UNL A   1      40.413  31.239  32.993  1.00  0.00    -0.248 NA
ATOM     43  C   UNL A   1      38.810  32.860  33.492  1.00  0.00     0.031 C 
ATOM     44  C   UNL A   1      38.063  30.029  29.389  1.00  0.00     0.029 A 
ATOM     45  N   UNL A   1      39.864  29.594  30.640  1.00  0.00    -0.354 N 
ATOM     46  C   UNL A   1      40.807  31.946  34.123  1.00  0.00     0.074 A 
ATOM     47  C   UNL A   1      39.821  32.981  34.339  1.00  0.00     0.031 C 
ATOM     48  C   UNL A   1      38.715  29.002  28.818  1.00  0.00     0.029 A 
ATOM     49  C   UNL A   1      39.911  28.702  29.596  1.00  0.00     0.049 A 
ATOM     50  H   UNL A   1      40.546  29.629  31.350  1.00  0.00     0.167 HD
ATOM     51  C   UNL A   1      41.875  31.738  34.931  1.00  0.00     0.031 A 
ATOM     52  C   UNL A   1      40.817  27.751  29.295  1.00  0.00     0.031 A 
ATOM     53  C   UNL A   1      42.855  30.706  34.730  1.00  0.00     0.049 A 
ATOM     54  C   UNL A   1      41.999  27.545  30.205  1.00  0.00     0.074 A 
ATOM     55  C   UNL A   1      43.957  30.398  35.510  1.00  0.00     0.029 A 
ATOM     56  N   UNL A   1      42.846  29.806  33.677  1.00  0.00    -0.354 N 
ATOM     57  N   UNL A   1      42.324  28.190  31.299  1.00  0.00    -0.248 NA
ATOM     58  C   UNL A   1      42.929  26.464  29.844  1.00  0.00     0.031 C 
ATOM     59  C   UNL A   1      44.636  29.335  34.908  1.00  0.00     0.029 A 
ATOM     60  C   UNL A   1      43.926  28.945  33.784  1.00  0.00     0.049 A 
ATOM     61  H   UNL A   1      42.173  29.782  32.960  1.00  0.00     0.167 HD
ATOM     62  C   UNL A   1      43.472  27.568  31.777  1.00  0.00     0.074 A 
ATOM     63  C   UNL A   1      43.775  26.487  30.864  1.00  0.00     0.031 C 
ATOM     64  C   UNL A   1      44.207  27.866  32.875  1.00  0.00     0.031 A 
BRANCH  51  65
ATOM     65  C   UNL A   1      42.024  32.647  36.121  1.00  0.00    -0.014 A 
ATOM     66  C   UNL A   1      42.760  33.840  36.029  1.00  0.00     0.009 A 
ATOM     67  C   UNL A   1      41.402  32.327  37.337  1.00  0.00     0.009 A 
ATOM     68  C   UNL A   1      42.902  34.674  37.139  1.00  0.00     0.001 A 
ATOM     69  C   UNL A   1      41.519  33.178  38.438  1.00  0.00     0.001 A 
ATOM     70  C   UNL A   1      42.277  34.345  38.341  1.00  0.00     0.000 A 
ENDBRANCH  51  65
BRANCH  52  71
ATOM     71  C   UNL A   1      40.644  26.899  28.087  1.00  0.00    -0.014 A 
ATOM     72  C   UNL A   1      39.873  25.728  28.143  1.00  0.00     0.009 A 
ATOM     73  C   UNL A   1      41.281  27.233  26.880  1.00  0.00     0.009 A 
ATOM     74  C   UNL A   1      39.776  24.887  27.031  1.00  0.00     0.001 A 
ATOM     75  C   UNL A   1      41.155  26.408  25.761  1.00  0.00     0.001 A 
ATOM     76  C   UNL A   1      40.415  25.229  25.840  1.00  0.00     0.000 A 
ENDBRANCH  52  71
BRANCH  64  77
ATOM     77  C   UNL A   1      45.377  26.973  33.182  1.00  0.00    -0.014 A 
ATOM     78  C   UNL A   1      46.668  27.265  32.712  1.00  0.00     0.009 A 
ATOM     79  C   UNL A   1      45.186  25.835  33.980  1.00  0.00     0.009 A 
ATOM     80  C   UNL A   1      47.734  26.410  33.002  1.00  0.00     0.001 A 
ATOM     81  C   UNL A   1      46.259  24.999  34.294  1.00  0.00     0.001 A 
ATOM     82  C   UNL A   1      47.529  25.281  33.794  1.00  0.00     0.000 A 
ENDBRANCH  64  77
ENDBRANCH  38  39
ENDBRANCH  30  33
ENDBRANCH  28  29
ENDBRANCH  27  28
ENDBRANCH  26  27
ENDBRANCH  25  26
ENDBRANCH   1  25
TORSDOF 17
ENDMDL
MODEL 2
REMARK VINA RESULT:      -9.9      3.746      8.699
REMARK SMILES O=C(CC1(NC(=O)C2(c3ccccc3)CC2)CCC1)NCCCCCCNC(=O)c1ccc(-c2c3nc(c(-c4ccccc4)c4ccc([nH]4)c(-c4ccccc4)c4nc(c(-c5ccccc5)c5ccc2[nH]5)C=C4)C=C3)cc1
REMARK SMILES IDX 22 1 21 2 20 3 1 4 2 5 3 7 4 8 17 9 19 10 18 11 5 12 6 13
REMARK SMILES IDX 7 15 8 16 15 17 16 18 9 19 10 20 14 21 11 22 13 23 12 24
REMARK SMILES IDX 23 25 24 26 25 27 26 28 27 29 28 30 29 32 30 33 31 34 77 35
REMARK SMILES IDX 32 36 76 37 33 38 34 39 35 40 70 41 36 42 75 43 69 44 71 45
REMARK SMILES IDX 37 46 74 47 68 48 67 49 38 51 60 52 45 53 59 54 46 55 49 56
REMARK SMILES IDX 58 57 72 58 47 59 48 60 57 62 73 63 50 64 39 65 40 66 44 67
REMARK SMILES IDX 41 68 43 69 42 70 61 71 62 72 66 73 63 74 65 75 64 76 51 77
REMARK SMILES IDX 52 78 56 79 53 80 55 81 54 82
REMARK H PARENT 20 6 5 14 27 31 71 50 49 61
REMARK Flexibility Score: inf
ROOT
ATOM      1  C   UNL A   1      37.436  24.043  25.686  1.00  0.00     0.021 C 
ENDROOT
BRANCH   1   2
ATOM      2  C   UNL A   1      36.230  23.119  25.323  1.00  0.00     0.116 C 
BRANCH   2   3
ATOM      3  N   UNL A   1      34.977  23.772  24.902  1.00  0.00    -0.356 N 
ATOM      4  O   UNL A   1      34.177  22.062  23.619  1.00  0.00    -0.275 OA
ATOM      5  C   UNL A   1      33.979  23.162  24.136  1.00  0.00     0.222 C 
ATOM      6  H   UNL A   1      34.833  24.705  25.179  1.00  0.00     0.163 HD
BRANCH   5   7
ATOM      7  C   UNL A   1      32.603  23.886  23.937  1.00  0.00     0.128 C 
BRANCH   7   8
ATOM      8  C   UNL A   1      31.461  23.950  25.032  1.00  0.00     0.049 C 
ATOM      9  C   UNL A   1      31.064  22.471  25.500  1.00  0.00     0.029 C 
ATOM     10  C   UNL A   1      31.621  24.181  26.600  1.00  0.00     0.029 C 
ATOM     11  C   UNL A   1      30.619  23.051  26.852  1.00  0.00     0.005 C 
BRANCH   8  12
ATOM     12  N   UNL A   1      30.184  24.604  24.527  1.00  0.00    -0.349 N 
ATOM     13  C   UNL A   1      29.903  25.916  24.247  1.00  0.00     0.231 C 
ATOM     14  H   UNL A   1      29.434  23.982  24.378  1.00  0.00     0.164 HD
ATOM     15  O   UNL A   1      28.739  26.312  24.134  1.00  0.00    -0.274 OA
BRANCH  13  16
ATOM     16  C   UNL A   1      31.050  26.828  23.934  1.00  0.00     0.074 C 
ATOM     17  C   UNL A   1      31.385  26.688  22.423  1.00  0.00     0.023 C 
ATOM     18  C   UNL A   1      30.880  27.979  22.906  1.00  0.00     0.023 C 
BRANCH  16  19
ATOM     19  C   UNL A   1      31.835  27.288  25.203  1.00  0.00    -0.032 A 
ATOM     20  C   UNL A   1      31.259  27.710  26.413  1.00  0.00     0.005 A 
ATOM     21  C   UNL A   1      33.215  27.534  25.142  1.00  0.00     0.005 A 
ATOM     22  C   UNL A   1      31.927  28.341  27.469  1.00  0.00     0.000 A 
ATOM     23  C   UNL A   1      33.920  28.167  26.189  1.00  0.00     0.000 A 
ATOM     24  C   UNL A   1      33.275  28.577  27.353  1.00  0.00     0.000 A 
ENDBRANCH  16  19
ENDBRANCH  13  16
ENDBRANCH   8  12
ENDBRANCH   7   8
ENDBRANCH   5   7
ENDBRANCH   2   3
ENDBRANCH   1   2
BRANCH   1  25
ATOM     25  C   UNL A   1      38.397  23.709  26.852  1.00  0.00     0.002 C 
BRANCH  25  26
ATOM     26  C   UNL A   1      39.681  22.917  26.565  1.00  0.00     0.002 C 
BRANCH  26  27
ATOM     27  C   UNL A   1      39.592  21.474  26.074  1.00  0.00     0.021 C 
BRANCH  27  28
ATOM     28  C   UNL A   1      40.465  20.435  26.773  1.00  0.00     0.116 C 
BRANCH  28  29
ATOM     29  N   UNL A   1      41.605  19.948  26.004  1.00  0.00    -0.352 N 
ATOM     30  C   UNL A   1      42.815  20.563  25.734  1.00  0.00     0.251 C 
ATOM     31  H   UNL A   1      41.499  19.047  25.620  1.00  0.00     0.163 HD
ATOM     32  O   UNL A   1      43.652  19.994  25.038  1.00  0.00    -0.269 OA
BRANCH  30  33
ATOM     33  C   UNL A   1      43.102  21.933  26.237  1.00  0.00     0.039 A 
ATOM     34  C   UNL A   1      43.143  23.000  25.332  1.00  0.00     0.014 A 
ATOM     35  C   UNL A   1      43.307  22.182  27.595  1.00  0.00     0.014 A 
ATOM     36  C   UNL A   1      43.285  24.314  25.799  1.00  0.00     0.010 A 
ATOM     37  C   UNL A   1      43.345  23.492  28.067  1.00  0.00     0.010 A 
ATOM     38  C   UNL A   1      43.336  24.577  27.178  1.00  0.00    -0.014 A 
BRANCH  38  39
ATOM     39  C   UNL A   1      43.398  25.965  27.713  1.00  0.00     0.031 A 
ATOM     40  C   UNL A   1      44.731  26.595  28.027  1.00  0.00     0.074 A 
ATOM     41  C   UNL A   1      42.262  26.639  27.989  1.00  0.00     0.049 A 
ATOM     42  N   UNL A   1      44.991  27.755  28.577  1.00  0.00    -0.248 NA
ATOM     43  C   UNL A   1      45.931  25.803  27.708  1.00  0.00     0.031 C 
ATOM     44  C   UNL A   1      40.902  26.137  27.783  1.00  0.00     0.029 A 
ATOM     45  N   UNL A   1      42.073  27.895  28.513  1.00  0.00    -0.354 N 
ATOM     46  C   UNL A   1      46.376  27.824  28.679  1.00  0.00     0.074 A 
ATOM     47  C   UNL A   1      46.897  26.563  28.199  1.00  0.00     0.031 C 
ATOM     48  C   UNL A   1      40.022  27.084  28.151  1.00  0.00     0.029 A 
ATOM     49  C   UNL A   1      40.750  28.242  28.655  1.00  0.00     0.049 A 
ATOM     50  H   UNL A   1      42.816  28.491  28.765  1.00  0.00     0.167 HD
ATOM     51  C   UNL A   1      47.151  28.850  29.103  1.00  0.00     0.031 A 
ATOM     52  C   UNL A   1      40.186  29.366  29.140  1.00  0.00     0.031 A 
ATOM     53  C   UNL A   1      46.642  30.110  29.572  1.00  0.00     0.049 A 
ATOM     54  C   UNL A   1      41.069  30.490  29.613  1.00  0.00     0.074 A 
ATOM     55  C   UNL A   1      47.349  31.223  29.995  1.00  0.00     0.029 A 
ATOM     56  N   UNL A   1      45.298  30.429  29.669  1.00  0.00    -0.354 N 
ATOM     57  N   UNL A   1      42.378  30.554  29.650  1.00  0.00    -0.248 NA
ATOM     58  C   UNL A   1      40.392  31.705  30.091  1.00  0.00     0.031 C 
ATOM     59  C   UNL A   1      46.431  32.203  30.386  1.00  0.00     0.029 A 
ATOM     60  C   UNL A   1      45.154  31.720  30.151  1.00  0.00     0.049 A 
ATOM     61  H   UNL A   1      44.555  29.829  29.432  1.00  0.00     0.167 HD
ATOM     62  C   UNL A   1      42.680  31.828  30.119  1.00  0.00     0.074 A 
ATOM     63  C   UNL A   1      41.419  32.506  30.335  1.00  0.00     0.031 C 
ATOM     64  C   UNL A   1      43.893  32.385  30.349  1.00  0.00     0.031 A 
BRANCH  51  65
ATOM     65  C   UNL A   1      48.642  28.650  29.062  1.00  0.00    -0.014 A 
ATOM     66  C   UNL A   1      49.372  28.904  27.889  1.00  0.00     0.009 A 
ATOM     67  C   UNL A   1      49.330  28.233  30.211  1.00  0.00     0.009 A 
ATOM     68  C   UNL A   1      50.753  28.709  27.856  1.00  0.00     0.001 A 
ATOM     69  C   UNL A   1      50.717  28.069  30.185  1.00  0.00     0.001 A 
ATOM     70  C   UNL A   1      51.425  28.296  29.005  1.00  0.00     0.000 A 
ENDBRANCH  51  65
BRANCH  52  71
ATOM     71  C   UNL A   1      38.705  29.504  29.193  1.00  0.00    -0.014 A 
ATOM     72  C   UNL A   1      37.984  29.902  28.057  1.00  0.00     0.009 A 
ATOM     73  C   UNL A   1      38.008  29.275  30.391  1.00  0.00     0.009 A 
ATOM     74  C   UNL A   1      36.603  30.109  28.128  1.00  0.00     0.001 A 
ATOM     75  C   UNL A   1      36.624  29.450  30.450  1.00  0.00     0.001 A 
ATOM     76  C   UNL A   1      35.925  29.880  29.324  1.00  0.00     0.000 A 
ENDBRANCH  52  71
BRANCH  64  77
ATOM     77  C   UNL A   1      43.917  33.818  30.804  1.00  0.00    -0.014 A 
ATOM     78  C   UNL A   1      43.943  34.880  29.886  1.00  0.00     0.009 A 
ATOM     79  C   UNL A   1      43.885  34.107  32.177  1.00  0.00     0.009 A 
ATOM     80  C   UNL A   1      43.979  36.202  30.337  1.00  0.00     0.001 A 
ATOM     81  C   UNL A   1      43.890  35.429  32.624  1.00  0.00     0.001 A 
ATOM     82  C   UNL A   1      43.949  36.474  31.704  1.00  0.00     0.000 A 
ENDBRANCH  64  77
ENDBRANCH  38  39
ENDBRANCH  30  33
ENDBRANCH  28  29
ENDBRANCH  27  28
ENDBRANCH  26  27
ENDBRANCH  25  26
ENDBRANCH   1  25
TORSDOF 17
ENDMDL
MODEL 3
REMARK VINA RESULT:      -9.9      1.861      2.611
REMARK SMILES O=C(CC1(NC(=O)C2(c3ccccc3)CC2)CCC1)NCCCCCCNC(=O)c1ccc(-c2c3nc(c(-c4ccccc4)c4ccc([nH]4)c(-c4ccccc4)c4nc(c(-c5ccccc5)c5ccc2[nH]5)C=C4)C=C3)cc1
REMARK SMILES IDX 22 1 21 2 20 3 1 4 2 5 3 7 4 8 17 9 19 10 18 11 5 12 6 13
REMARK SMILES IDX 7 15 8 16 15 17 16 18 9 19 10 20 14 21 11 22 13 23 12 24
REMARK SMILES IDX 23 25 24 26 25 27 26 28 27 29 28 30 29 32 30 33 31 34 77 35
REMARK SMILES IDX 32 36 76 37 33 38 34 39 35 40 70 41 36 42 75 43 69 44 71 45
REMARK SMILES IDX 37 46 74 47 68 48 67 49 38 51 60 52 45 53 59 54 46 55 49 56
REMARK SMILES IDX 58 57 72 58 47 59 48 60 57 62 73 63 50 64 39 65 40 66 44 67
REMARK SMILES IDX 41 68 43 69 42 70 61 71 62 72 66 73 63 74 65 75 64 76 51 77
REMARK SMILES IDX 52 78 56 79 53 80 55 81 54 82
REMARK H PARENT 20 6 5 14 27 31 71 50 49 61
REMARK Flexibility Score: inf
ROOT
ATOM      1  C   UNL A   1      34.318  31.079  27.723  1.00  0.00     0.021 C 
ENDROOT
BRANCH   1   2
ATOM      2  C   UNL A   1      32.840  30.898  27.252  1.00  0.00     0.116 C 
BRANCH   2   3
ATOM      3  N   UNL A   1      32.414  29.544  26.855  1.00  0.00    -0.356 N 
ATOM      4  O   UNL A   1      33.366  29.539  24.780  1.00  0.00    -0.275 OA
ATOM      5  C   UNL A   1      32.780  28.910  25.663  1.00  0.00     0.222 C 
ATOM      6  H   UNL A   1      31.830  29.049  27.473  1.00  0.00     0.163 HD
BRANCH   5   7
ATOM      7  C   UNL A   1      32.443  27.394  25.455  1.00  0.00     0.128 C 
BRANCH   7   8
ATOM      8  C   UNL A   1      32.416  26.669  24.048  1.00  0.00     0.049 C 
ATOM      9  C   UNL A   1      31.974  27.701  22.906  1.00  0.00     0.029 C 
ATOM     10  C   UNL A   1      33.636  26.414  23.055  1.00  0.00     0.029 C 
ATOM     11  C   UNL A   1      32.756  26.860  21.885  1.00  0.00     0.005 C 
BRANCH   8  12
ATOM     12  N   UNL A   1      31.434  25.510  23.991  1.00  0.00    -0.349 N 
ATOM     13  C   UNL A   1      31.553  24.217  24.429  1.00  0.00     0.231 C 
ATOM     14  H   UNL A   1      30.570  25.722  23.567  1.00  0.00     0.164 HD
ATOM     15  O   UNL A   1      30.782  23.335  24.039  1.00  0.00    -0.274 OA
BRANCH  13  16
ATOM     16  C   UNL A   1      32.550  23.931  25.510  1.00  0.00     0.074 C 
ATOM     17  C   UNL A   1      31.914  24.317  26.874  1.00  0.00     0.023 C 
ATOM     18  C   UNL A   1      32.225  22.903  26.627  1.00  0.00     0.023 C 
BRANCH  16  19
ATOM     19  C   UNL A   1      34.009  23.771  24.974  1.00  0.00    -0.032 A 
ATOM     20  C   UNL A   1      34.399  22.967  23.889  1.00  0.00     0.005 A 
ATOM     21  C   UNL A   1      35.099  24.259  25.710  1.00  0.00     0.005 A 
ATOM     22  C   UNL A   1      35.712  22.629  23.544  1.00  0.00     0.000 A 
ATOM     23  C   UNL A   1      36.436  23.939  25.387  1.00  0.00     0.000 A 
ATOM     24  C   UNL A   1      36.744  23.118  24.306  1.00  0.00     0.000 A 
ENDBRANCH  16  19
ENDBRANCH  13  16
ENDBRANCH   8  12
ENDBRANCH   7   8
ENDBRANCH   5   7
ENDBRANCH   2   3
ENDBRANCH   1   2
BRANCH   1  25
ATOM     25  C   UNL A   1      34.914  32.475  28.023  1.00  0.00     0.002 C 
BRANCH  25  26
ATOM     26  C   UNL A   1      34.268  33.351  29.106  1.00  0.00     0.002 C 
BRANCH  26  27
ATOM     27  C   UNL A   1      33.244  34.414  28.715  1.00  0.00     0.021 C 
BRANCH  27  28
ATOM     28  C   UNL A   1      33.414  35.811  29.307  1.00  0.00     0.116 C 
BRANCH  28  29
ATOM     29  N   UNL A   1      32.517  36.143  30.409  1.00  0.00    -0.352 N 
ATOM     30  C   UNL A   1      32.647  35.886  31.762  1.00  0.00     0.251 C 
ATOM     31  H   UNL A   1      31.697  36.624  30.151  1.00  0.00     0.163 HD
ATOM     32  O   UNL A   1      31.761  36.228  32.540  1.00  0.00    -0.269 OA
BRANCH  30  33
ATOM     33  C   UNL A   1      33.829  35.151  32.287  1.00  0.00     0.039 A 
ATOM     34  C   UNL A   1      33.663  33.853  32.783  1.00  0.00     0.014 A 
ATOM     35  C   UNL A   1      35.104  35.719  32.274  1.00  0.00     0.014 A 
ATOM     36  C   UNL A   1      34.781  33.098  33.165  1.00  0.00     0.010 A 
ATOM     37  C   UNL A   1      36.221  34.935  32.555  1.00  0.00     0.010 A 
ATOM     38  C   UNL A   1      36.077  33.615  33.005  1.00  0.00    -0.014 A 
BRANCH  38  39
ATOM     39  C   UNL A   1      37.290  32.809  33.317  1.00  0.00     0.031 A 
ATOM     40  C   UNL A   1      38.063  33.066  34.585  1.00  0.00     0.074 A 
ATOM     41  C   UNL A   1      37.747  31.898  32.433  1.00  0.00     0.049 A 
ATOM     42  N   UNL A   1      39.187  32.533  34.993  1.00  0.00    -0.248 NA
ATOM     43  C   UNL A   1      37.514  34.079  35.503  1.00  0.00     0.031 C 
ATOM     44  C   UNL A   1      37.130  31.578  31.143  1.00  0.00     0.029 A 
ATOM     45  N   UNL A   1      38.846  31.075  32.484  1.00  0.00    -0.354 N 
ATOM     46  C   UNL A   1      39.483  33.153  36.202  1.00  0.00     0.074 A 
ATOM     47  C   UNL A   1      38.459  34.148  36.428  1.00  0.00     0.031 C 
ATOM     48  C   UNL A   1      37.844  30.613  30.540  1.00  0.00     0.029 A 
ATOM     49  C   UNL A   1      38.989  30.272  31.377  1.00  0.00     0.049 A 
ATOM     50  H   UNL A   1      39.475  31.064  33.242  1.00  0.00     0.167 HD
ATOM     51  C   UNL A   1      40.494  32.900  37.067  1.00  0.00     0.031 A 
ATOM     52  C   UNL A   1      39.937  29.365  31.069  1.00  0.00     0.031 A 
ATOM     53  C   UNL A   1      41.511  31.905  36.856  1.00  0.00     0.049 A 
ATOM     54  C   UNL A   1      41.056  29.107  32.043  1.00  0.00     0.074 A 
ATOM     55  C   UNL A   1      42.561  31.555  37.688  1.00  0.00     0.029 A 
ATOM     56  N   UNL A   1      41.598  31.093  35.737  1.00  0.00    -0.354 N 
ATOM     57  N   UNL A   1      41.286  29.667  33.206  1.00  0.00    -0.248 NA
ATOM     58  C   UNL A   1      42.034  28.076  31.666  1.00  0.00     0.031 C 
ATOM     59  C   UNL A   1      43.307  30.556  37.053  1.00  0.00     0.029 A 
ATOM     60  C   UNL A   1      42.688  30.247  35.853  1.00  0.00     0.049 A 
ATOM     61  H   UNL A   1      40.979  31.116  34.973  1.00  0.00     0.167 HD
ATOM     62  C   UNL A   1      42.411  29.029  33.715  1.00  0.00     0.074 A 
ATOM     63  C   UNL A   1      42.805  28.031  32.743  1.00  0.00     0.031 C 
ATOM     64  C   UNL A   1      43.060  29.250  34.884  1.00  0.00     0.031 A 
BRANCH  51  65
ATOM     65  C   UNL A   1      40.537  33.711  38.333  1.00  0.00    -0.014 A 
ATOM     66  C   UNL A   1      39.884  33.268  39.496  1.00  0.00     0.009 A 
ATOM     67  C   UNL A   1      41.260  34.913  38.378  1.00  0.00     0.009 A 
ATOM     68  C   UNL A   1      39.922  34.030  40.664  1.00  0.00     0.001 A 
ATOM     69  C   UNL A   1      41.322  35.657  39.558  1.00  0.00     0.001 A 
ATOM     70  C   UNL A   1      40.645  35.221  40.696  1.00  0.00     0.000 A 
ENDBRANCH  51  65
BRANCH  52  71
ATOM     71  C   UNL A   1      39.871  28.611  29.787  1.00  0.00    -0.014 A 
ATOM     72  C   UNL A   1      39.281  27.339  29.736  1.00  0.00     0.009 A 
ATOM     73  C   UNL A   1      40.432  29.144  28.615  1.00  0.00     0.009 A 
ATOM     74  C   UNL A   1      39.290  26.598  28.551  1.00  0.00     0.001 A 
ATOM     75  C   UNL A   1      40.410  28.416  27.424  1.00  0.00     0.001 A 
ATOM     76  C   UNL A   1      39.852  27.139  27.395  1.00  0.00     0.000 A 
ENDBRANCH  52  71
BRANCH  64  77
ATOM     77  C   UNL A   1      44.226  28.357  35.203  1.00  0.00    -0.014 A 
ATOM     78  C   UNL A   1      45.535  28.692  34.822  1.00  0.00     0.009 A 
ATOM     79  C   UNL A   1      44.010  27.171  35.924  1.00  0.00     0.009 A 
ATOM     80  C   UNL A   1      46.598  27.836  35.120  1.00  0.00     0.001 A 
ATOM     81  C   UNL A   1      45.079  26.333  36.247  1.00  0.00     0.001 A 
ATOM     82  C   UNL A   1      46.369  26.661  35.834  1.00  0.00     0.000 A 
ENDBRANCH  64  77
ENDBRANCH  38  39
ENDBRANCH  30  33
ENDBRANCH  28  29
ENDBRANCH  27  28
ENDBRANCH  26  27
ENDBRANCH  25  26
ENDBRANCH   1  25
TORSDOF 17
ENDMDL
