MODEL 1
REMARK VINA RESULT:     -12.4      0.000      0.000
REMARK SMILES Cc1cccc(-n2c(C)cc(/C=N\c3ccc(O)c(C(=O)NCCCCCCNC(=O)c4ccc(-c5c6nc(c(-c7ccccc7)c7ccc([nH]7)c(-c7ccccc7)c7nc(c(-c8ccccc8)c8ccc5[nH]8)C=C7)C=C6)cc4)c3)c2C)c1
REMARK SMILES IDX 25 1 24 2 23 3 22 4 20 5 21 6 19 8 14 9 15 10 80 11 16 12
REMARK SMILES IDX 17 13 13 14 12 15 11 16 7 17 8 18 81 19 9 20 10 21 82 22
REMARK SMILES IDX 6 23 1 24 2 25 3 26 83 27 4 28 5 29 18 30 26 32 27 33 28 34
REMARK SMILES IDX 29 35 30 36 31 38 32 39 33 40 79 41 34 42 78 43 35 44 36 45
REMARK SMILES IDX 37 46 72 47 38 48 77 49 71 50 73 51 39 52 76 53 70 54 69 55
REMARK SMILES IDX 40 57 62 58 47 59 61 60 48 61 51 62 60 63 74 64 49 65 50 66
REMARK SMILES IDX 59 68 75 69 52 70 41 71 42 72 46 73 43 74 45 75 44 76 63 77
REMARK SMILES IDX 64 78 68 79 65 80 67 81 66 82 53 83 54 84 58 85 55 86 57 87
REMARK SMILES IDX 56 88
REMARK H PARENT 22 7 18 31 29 37 73 56 51 67
REMARK Flexibility Score: inf
ROOT
ATOM      1  C   UNL A   1      36.291  22.785  25.408  1.00  0.00     0.002 C 
ENDROOT
BRANCH   1   2
ATOM      2  C   UNL A   1      35.534  21.568  25.947  1.00  0.00     0.021 C 
BRANCH   2   3
ATOM      3  C   UNL A   1      35.413  20.315  25.089  1.00  0.00     0.116 C 
BRANCH   3   4
ATOM      4  N   UNL A   1      34.262  19.472  25.320  1.00  0.00    -0.352 N 
ATOM      5  C   UNL A   1      32.919  19.696  25.104  1.00  0.00     0.255 C 
ATOM      6  O   UNL A   1      32.167  18.738  25.301  1.00  0.00    -0.269 OA
ATOM      7  H   UNL A   1      34.473  18.586  25.697  1.00  0.00     0.163 HD
BRANCH   5   8
ATOM      8  C   UNL A   1      32.318  21.004  24.672  1.00  0.00     0.083 A 
ATOM      9  C   UNL A   1      32.239  22.690  22.889  1.00  0.00     0.064 A 
ATOM     10  C   UNL A   1      31.328  23.442  23.622  1.00  0.00     0.032 A 
ATOM     11  C   UNL A   1      32.616  21.421  23.359  1.00  0.00     0.046 A 
ATOM     12  C   UNL A   1      31.017  23.058  24.920  1.00  0.00     0.049 A 
ATOM     13  C   UNL A   1      31.612  21.916  25.465  1.00  0.00     0.128 A 
BRANCH   9  14
ATOM     14  N   UNL A   1      32.813  23.177  21.714  1.00  0.00    -0.256 NA
ATOM     15  C   UNL A   1      33.012  24.445  21.486  1.00  0.00     0.121 C 
BRANCH  15  16
ATOM     16  C   UNL A   1      32.735  25.638  22.294  1.00  0.00     0.014 A 
ATOM     17  N   UNL A   1      32.557  27.231  23.900  1.00  0.00    -0.318 N 
ATOM     18  C   UNL A   1      31.804  27.661  22.820  1.00  0.00     0.021 A 
ATOM     19  C   UNL A   1      33.266  26.090  23.506  1.00  0.00     0.029 A 
ATOM     20  C   UNL A   1      31.137  28.994  22.757  1.00  0.00     0.065 C 
ATOM     21  C   UNL A   1      31.872  26.685  21.849  1.00  0.00     0.033 A 
ATOM     22  C   UNL A   1      34.336  25.505  24.357  1.00  0.00     0.065 C 
BRANCH  17  23
ATOM     23  C   UNL A   1      32.542  27.808  25.205  1.00  0.00     0.046 A 
ATOM     24  C   UNL A   1      34.385  30.557  27.104  1.00  0.00     0.044 C 
ATOM     25  C   UNL A   1      33.409  29.472  26.751  1.00  0.00    -0.049 A 
ATOM     26  C   UNL A   1      32.364  29.176  27.635  1.00  0.00     0.003 A 
ATOM     27  C   UNL A   1      33.498  28.780  25.533  1.00  0.00     0.030 A 
ATOM     28  C   UNL A   1      31.442  28.176  27.328  1.00  0.00     0.002 A 
ATOM     29  C   UNL A   1      31.538  27.483  26.122  1.00  0.00     0.026 A 
ENDBRANCH  17  23
ENDBRANCH  15  16
ENDBRANCH   9  14
BRANCH  13  30
ATOM     30  O   UNL A   1      31.631  21.912  26.831  1.00  0.00    -0.507 OA
ATOM     31  H   UNL A   1      32.448  21.880  27.289  1.00  0.00     0.293 HD
ENDBRANCH  13  30
ENDBRANCH   5   8
ENDBRANCH   3   4
ENDBRANCH   2   3
ENDBRANCH   1   2
BRANCH   1  32
ATOM     32  C   UNL A   1      37.763  23.013  25.777  1.00  0.00     0.002 C 
BRANCH  32  33
ATOM     33  C   UNL A   1      38.737  21.840  25.717  1.00  0.00     0.021 C 
BRANCH  33  34
ATOM     34  C   UNL A   1      39.877  21.842  26.724  1.00  0.00     0.116 C 
BRANCH  34  35
ATOM     35  N   UNL A   1      41.178  22.247  26.210  1.00  0.00    -0.352 N 
ATOM     36  C   UNL A   1      41.693  23.525  26.069  1.00  0.00     0.251 C 
ATOM     37  H   UNL A   1      41.771  21.513  25.926  1.00  0.00     0.163 HD
ATOM     38  O   UNL A   1      42.805  23.689  25.574  1.00  0.00    -0.269 OA
BRANCH  36  39
ATOM     39  C   UNL A   1      40.959  24.688  26.631  1.00  0.00     0.039 A 
ATOM     40  C   UNL A   1      40.958  25.882  25.899  1.00  0.00     0.014 A 
ATOM     41  C   UNL A   1      40.456  24.673  27.929  1.00  0.00     0.014 A 
ATOM     42  C   UNL A   1      40.703  27.086  26.551  1.00  0.00     0.010 A 
ATOM     43  C   UNL A   1      40.305  25.868  28.604  1.00  0.00     0.010 A 
ATOM     44  C   UNL A   1      40.502  27.075  27.930  1.00  0.00    -0.014 A 
BRANCH  44  45
ATOM     45  C   UNL A   1      40.634  28.259  28.769  1.00  0.00     0.031 A 
ATOM     46  C   UNL A   1      39.537  29.239  28.882  1.00  0.00     0.074 A 
ATOM     47  C   UNL A   1      41.753  28.416  29.511  1.00  0.00     0.049 A 
ATOM     48  N   UNL A   1      39.695  30.452  29.294  1.00  0.00    -0.248 NA
ATOM     49  C   UNL A   1      38.172  28.953  28.447  1.00  0.00     0.031 C 
ATOM     50  C   UNL A   1      41.964  29.325  30.633  1.00  0.00     0.029 A 
ATOM     51  N   UNL A   1      43.021  27.921  29.227  1.00  0.00    -0.354 N 
ATOM     52  C   UNL A   1      38.443  30.980  29.491  1.00  0.00     0.074 A 
ATOM     53  C   UNL A   1      37.549  30.080  28.807  1.00  0.00     0.031 C 
ATOM     54  C   UNL A   1      43.285  29.508  30.802  1.00  0.00     0.029 A 
ATOM     55  C   UNL A   1      43.958  28.857  29.691  1.00  0.00     0.049 A 
ATOM     56  H   UNL A   1      43.226  27.067  28.781  1.00  0.00     0.167 HD
ATOM     57  C   UNL A   1      38.293  32.025  30.352  1.00  0.00     0.031 A 
ATOM     58  C   UNL A   1      44.804  29.488  28.824  1.00  0.00     0.031 A 
ATOM     59  C   UNL A   1      39.582  32.610  30.726  1.00  0.00     0.049 A 
ATOM     60  C   UNL A   1      44.626  30.991  28.775  1.00  0.00     0.074 A 
ATOM     61  C   UNL A   1      40.339  32.586  31.885  1.00  0.00     0.029 A 
ATOM     62  N   UNL A   1      40.401  33.139  29.733  1.00  0.00    -0.354 N 
ATOM     63  N   UNL A   1      43.578  31.618  29.235  1.00  0.00    -0.248 NA
ATOM     64  C   UNL A   1      45.593  31.899  28.161  1.00  0.00     0.031 C 
ATOM     65  C   UNL A   1      41.655  33.013  31.556  1.00  0.00     0.029 A 
ATOM     66  C   UNL A   1      41.681  33.338  30.211  1.00  0.00     0.049 A 
ATOM     67  H   UNL A   1      40.107  33.342  28.815  1.00  0.00     0.167 HD
ATOM     68  C   UNL A   1      43.699  32.960  28.984  1.00  0.00     0.074 A 
ATOM     69  C   UNL A   1      44.986  33.090  28.324  1.00  0.00     0.031 C 
ATOM     70  C   UNL A   1      42.722  33.848  29.326  1.00  0.00     0.031 A 
BRANCH  57  71
ATOM     71  C   UNL A   1      36.996  32.363  31.061  1.00  0.00    -0.014 A 
ATOM     72  C   UNL A   1      36.047  33.178  30.417  1.00  0.00     0.009 A 
ATOM     73  C   UNL A   1      36.693  32.022  32.393  1.00  0.00     0.009 A 
ATOM     74  C   UNL A   1      34.896  33.648  31.070  1.00  0.00     0.001 A 
ATOM     75  C   UNL A   1      35.536  32.467  33.047  1.00  0.00     0.001 A 
ATOM     76  C   UNL A   1      34.642  33.292  32.388  1.00  0.00     0.000 A 
ENDBRANCH  57  71
BRANCH  58  77
ATOM     77  C   UNL A   1      45.196  28.649  27.656  1.00  0.00    -0.014 A 
ATOM     78  C   UNL A   1      46.168  27.648  27.850  1.00  0.00     0.009 A 
ATOM     79  C   UNL A   1      44.385  28.583  26.515  1.00  0.00     0.009 A 
ATOM     80  C   UNL A   1      46.247  26.550  26.988  1.00  0.00     0.001 A 
ATOM     81  C   UNL A   1      44.476  27.486  25.647  1.00  0.00     0.001 A 
ATOM     82  C   UNL A   1      45.381  26.456  25.904  1.00  0.00     0.000 A 
ENDBRANCH  58  77
BRANCH  70  83
ATOM     83  C   UNL A   1      42.665  35.297  28.915  1.00  0.00    -0.014 A 
ATOM     84  C   UNL A   1      43.172  36.355  29.681  1.00  0.00     0.009 A 
ATOM     85  C   UNL A   1      42.197  35.619  27.621  1.00  0.00     0.009 A 
ATOM     86  C   UNL A   1      43.169  37.672  29.198  1.00  0.00     0.001 A 
ATOM     87  C   UNL A   1      42.231  36.922  27.120  1.00  0.00     0.001 A 
ATOM     88  C   UNL A   1      42.707  37.953  27.915  1.00  0.00     0.000 A 
ENDBRANCH  70  83
ENDBRANCH  44  45
ENDBRANCH  36  39
ENDBRANCH  34  35
ENDBRANCH  33  34
ENDBRANCH  32  33
ENDBRANCH   1  32
TORSDOF 17
ENDMDL
MODEL 2
REMARK VINA RESULT:     -12.4      2.287      3.779
REMARK SMILES Cc1cccc(-n2c(C)cc(/C=N\c3ccc(O)c(C(=O)NCCCCCCNC(=O)c4ccc(-c5c6nc(c(-c7ccccc7)c7ccc([nH]7)c(-c7ccccc7)c7nc(c(-c8ccccc8)c8ccc5[nH]8)C=C7)C=C6)cc4)c3)c2C)c1
REMARK SMILES IDX 25 1 24 2 23 3 22 4 20 5 21 6 19 8 14 9 15 10 80 11 16 12
REMARK SMILES IDX 17 13 13 14 12 15 11 16 7 17 8 18 81 19 9 20 10 21 82 22
REMARK SMILES IDX 6 23 1 24 2 25 3 26 83 27 4 28 5 29 18 30 26 32 27 33 28 34
REMARK SMILES IDX 29 35 30 36 31 38 32 39 33 40 79 41 34 42 78 43 35 44 36 45
REMARK SMILES IDX 37 46 72 47 38 48 77 49 71 50 73 51 39 52 76 53 70 54 69 55
REMARK SMILES IDX 40 57 62 58 47 59 61 60 48 61 51 62 60 63 74 64 49 65 50 66
REMARK SMILES IDX 59 68 75 69 52 70 41 71 42 72 46 73 43 74 45 75 44 76 63 77
REMARK SMILES IDX 64 78 68 79 65 80 67 81 66 82 53 83 54 84 58 85 55 86 57 87
REMARK SMILES IDX 56 88
REMARK H PARENT 22 7 18 31 29 37 73 56 51 67
REMARK Flexibility Score: inf
ROOT
ATOM      1  C   UNL A   1      40.506  19.700  26.169  1.00  0.00     0.002 C 
ENDROOT
BRANCH   1   2
ATOM      2  C   UNL A   1      39.921  21.115  26.125  1.00  0.00     0.021 C 
BRANCH   2   3
ATOM      3  C   UNL A   1      38.516  21.334  25.579  1.00  0.00     0.116 C 
BRANCH   3   4
ATOM      4  N   UNL A   1      37.997  22.681  25.628  1.00  0.00    -0.352 N 
ATOM      5  C   UNL A   1      36.701  23.150  25.664  1.00  0.00     0.255 C 
ATOM      6  O   UNL A   1      36.566  24.368  25.812  1.00  0.00    -0.269 OA
ATOM      7  H   UNL A   1      38.687  23.385  25.637  1.00  0.00     0.163 HD
BRANCH   5   8
ATOM      8  C   UNL A   1      35.469  22.303  25.520  1.00  0.00     0.083 A 
ATOM      9  C   UNL A   1      33.696  21.577  23.985  1.00  0.00     0.064 A 
ATOM     10  C   UNL A   1      33.136  20.787  24.983  1.00  0.00     0.032 A 
ATOM     11  C   UNL A   1      34.925  22.214  24.223  1.00  0.00     0.046 A 
ATOM     12  C   UNL A   1      33.648  20.857  26.273  1.00  0.00     0.049 A 
ATOM     13  C   UNL A   1      34.725  21.706  26.544  1.00  0.00     0.128 A 
BRANCH   9  14
ATOM     14  N   UNL A   1      33.052  21.777  22.763  1.00  0.00    -0.256 NA
ATOM     15  C   UNL A   1      32.266  22.790  22.525  1.00  0.00     0.121 C 
BRANCH  15  16
ATOM     16  C   UNL A   1      31.849  23.921  23.363  1.00  0.00     0.014 A 
ATOM     17  N   UNL A   1      31.569  25.914  24.410  1.00  0.00    -0.318 N 
ATOM     18  C   UNL A   1      30.727  25.008  25.034  1.00  0.00     0.021 A 
ATOM     19  C   UNL A   1      32.112  25.291  23.280  1.00  0.00     0.029 A 
ATOM     20  C   UNL A   1      29.757  25.384  26.102  1.00  0.00     0.065 C 
ATOM     21  C   UNL A   1      30.914  23.782  24.432  1.00  0.00     0.033 A 
ATOM     22  C   UNL A   1      32.885  26.056  22.265  1.00  0.00     0.065 C 
BRANCH  17  23
ATOM     23  C   UNL A   1      31.885  27.220  24.889  1.00  0.00     0.046 A 
ATOM     24  C   UNL A   1      34.618  28.882  26.970  1.00  0.00     0.044 C 
ATOM     25  C   UNL A   1      33.410  28.674  26.104  1.00  0.00    -0.049 A 
ATOM     26  C   UNL A   1      32.720  29.787  25.609  1.00  0.00     0.003 A 
ATOM     27  C   UNL A   1      32.986  27.386  25.744  1.00  0.00     0.030 A 
ATOM     28  C   UNL A   1      31.597  29.620  24.799  1.00  0.00     0.002 A 
ATOM     29  C   UNL A   1      31.173  28.339  24.451  1.00  0.00     0.026 A 
ENDBRANCH  17  23
ENDBRANCH  15  16
ENDBRANCH   9  14
BRANCH  13  30
ATOM     30  O   UNL A   1      34.818  22.062  27.860  1.00  0.00    -0.507 OA
ATOM     31  H   UNL A   1      34.161  21.786  28.469  1.00  0.00     0.293 HD
ENDBRANCH  13  30
ENDBRANCH   5   8
ENDBRANCH   3   4
ENDBRANCH   2   3
ENDBRANCH   1   2
BRANCH   1  32
ATOM     32  C   UNL A   1      41.789  19.412  26.960  1.00  0.00     0.002 C 
BRANCH  32  33
ATOM     33  C   UNL A   1      42.933  18.665  26.280  1.00  0.00     0.021 C 
BRANCH  33  34
ATOM     34  C   UNL A   1      43.436  19.234  24.962  1.00  0.00     0.116 C 
BRANCH  34  35
ATOM     35  N   UNL A   1      44.812  19.712  24.960  1.00  0.00    -0.352 N 
ATOM     36  C   UNL A   1      45.282  20.995  25.182  1.00  0.00     0.251 C 
ATOM     37  H   UNL A   1      45.499  19.031  24.776  1.00  0.00     0.163 HD
ATOM     38  O   UNL A   1      46.485  21.232  25.101  1.00  0.00    -0.269 OA
BRANCH  36  39
ATOM     39  C   UNL A   1      44.352  22.058  25.644  1.00  0.00     0.039 A 
ATOM     40  C   UNL A   1      44.221  23.207  24.854  1.00  0.00     0.014 A 
ATOM     41  C   UNL A   1      43.777  22.022  26.912  1.00  0.00     0.014 A 
ATOM     42  C   UNL A   1      43.753  24.386  25.431  1.00  0.00     0.010 A 
ATOM     43  C   UNL A   1      43.412  23.207  27.517  1.00  0.00     0.010 A 
ATOM     44  C   UNL A   1      43.471  24.401  26.796  1.00  0.00    -0.014 A 
BRANCH  44  45
ATOM     45  C   UNL A   1      43.376  25.626  27.580  1.00  0.00     0.031 A 
ATOM     46  C   UNL A   1      42.125  26.405  27.627  1.00  0.00     0.074 A 
ATOM     47  C   UNL A   1      44.431  26.005  28.334  1.00  0.00     0.049 A 
ATOM     48  N   UNL A   1      42.061  27.644  27.985  1.00  0.00    -0.248 NA
ATOM     49  C   UNL A   1      40.840  25.869  27.181  1.00  0.00     0.031 C 
ATOM     50  C   UNL A   1      44.454  26.984  29.416  1.00  0.00     0.029 A 
ATOM     51  N   UNL A   1      45.773  25.725  28.097  1.00  0.00    -0.354 N 
ATOM     52  C   UNL A   1      40.732  27.956  28.133  1.00  0.00     0.074 A 
ATOM     53  C   UNL A   1      40.024  26.887  27.476  1.00  0.00     0.031 C 
ATOM     54  C   UNL A   1      45.719  27.399  29.600  1.00  0.00     0.029 A 
ATOM     55  C   UNL A   1      46.523  26.827  28.534  1.00  0.00     0.049 A 
ATOM     56  H   UNL A   1      46.132  24.901  27.696  1.00  0.00     0.167 HD
ATOM     57  C   UNL A   1      40.383  28.995  28.942  1.00  0.00     0.031 A 
ATOM     58  C   UNL A   1      47.270  27.557  27.654  1.00  0.00     0.031 A 
ATOM     59  C   UNL A   1      41.542  29.810  29.312  1.00  0.00     0.049 A 
ATOM     60  C   UNL A   1      46.838  29.003  27.531  1.00  0.00     0.074 A 
ATOM     61  C   UNL A   1      42.262  29.967  30.484  1.00  0.00     0.029 A 
ATOM     62  N   UNL A   1      42.284  30.429  28.310  1.00  0.00    -0.354 N 
ATOM     63  N   UNL A   1      45.687  29.460  27.942  1.00  0.00    -0.248 NA
ATOM     64  C   UNL A   1      47.650  30.038  26.893  1.00  0.00     0.031 C 
ATOM     65  C   UNL A   1      43.492  30.600  30.159  1.00  0.00     0.029 A 
ATOM     66  C   UNL A   1      43.497  30.867  28.801  1.00  0.00     0.049 A 
ATOM     67  H   UNL A   1      41.983  30.539  27.378  1.00  0.00     0.167 HD
ATOM     68  C   UNL A   1      45.582  30.790  27.630  1.00  0.00     0.074 A 
ATOM     69  C   UNL A   1      46.844  31.111  26.988  1.00  0.00     0.031 C 
ATOM     70  C   UNL A   1      44.458  31.509  27.913  1.00  0.00     0.031 A 
BRANCH  57  71
ATOM     71  C   UNL A   1      39.029  29.135  29.610  1.00  0.00    -0.014 A 
ATOM     72  C   UNL A   1      37.933  29.606  28.863  1.00  0.00     0.009 A 
ATOM     73  C   UNL A   1      38.784  28.941  30.984  1.00  0.00     0.009 A 
ATOM     74  C   UNL A   1      36.693  29.896  29.454  1.00  0.00     0.001 A 
ATOM     75  C   UNL A   1      37.544  29.207  31.579  1.00  0.00     0.001 A 
ATOM     76  C   UNL A   1      36.499  29.697  30.815  1.00  0.00     0.000 A 
ENDBRANCH  57  71
BRANCH  58  77
ATOM     77  C   UNL A   1      47.830  26.749  26.534  1.00  0.00    -0.014 A 
ATOM     78  C   UNL A   1      46.996  26.460  25.436  1.00  0.00     0.009 A 
ATOM     79  C   UNL A   1      49.215  26.598  26.381  1.00  0.00     0.009 A 
ATOM     80  C   UNL A   1      47.539  26.143  24.187  1.00  0.00     0.001 A 
ATOM     81  C   UNL A   1      49.755  26.269  25.129  1.00  0.00     0.001 A 
ATOM     82  C   UNL A   1      48.920  26.077  24.029  1.00  0.00     0.000 A 
ENDBRANCH  58  77
BRANCH  70  83
ATOM     83  C   UNL A   1      44.164  32.909  27.433  1.00  0.00    -0.014 A 
ATOM     84  C   UNL A   1      44.090  33.280  26.084  1.00  0.00     0.009 A 
ATOM     85  C   UNL A   1      43.805  33.892  28.381  1.00  0.00     0.009 A 
ATOM     86  C   UNL A   1      43.723  34.580  25.705  1.00  0.00     0.001 A 
ATOM     87  C   UNL A   1      43.398  35.174  28.007  1.00  0.00     0.001 A 
ATOM     88  C   UNL A   1      43.368  35.523  26.666  1.00  0.00     0.000 A 
ENDBRANCH  70  83
ENDBRANCH  44  45
ENDBRANCH  36  39
ENDBRANCH  34  35
ENDBRANCH  33  34
ENDBRANCH  32  33
ENDBRANCH   1  32
TORSDOF 17
ENDMDL
MODEL 3
REMARK VINA RESULT:     -12.4      2.030      3.189
REMARK SMILES Cc1cccc(-n2c(C)cc(/C=N\c3ccc(O)c(C(=O)NCCCCCCNC(=O)c4ccc(-c5c6nc(c(-c7ccccc7)c7ccc([nH]7)c(-c7ccccc7)c7nc(c(-c8ccccc8)c8ccc5[nH]8)C=C7)C=C6)cc4)c3)c2C)c1
REMARK SMILES IDX 25 1 24 2 23 3 22 4 20 5 21 6 19 8 14 9 15 10 80 11 16 12
REMARK SMILES IDX 17 13 13 14 12 15 11 16 7 17 8 18 81 19 9 20 10 21 82 22
REMARK SMILES IDX 6 23 1 24 2 25 3 26 83 27 4 28 5 29 18 30 26 32 27 33 28 34
REMARK SMILES IDX 29 35 30 36 31 38 32 39 33 40 79 41 34 42 78 43 35 44 36 45
REMARK SMILES IDX 37 46 72 47 38 48 77 49 71 50 73 51 39 52 76 53 70 54 69 55
REMARK SMILES IDX 40 57 62 58 47 59 61 60 48 61 51 62 60 63 74 64 49 65 50 66
REMARK SMILES IDX 59 68 75 69 52 70 41 71 42 72 46 73 43 74 45 75 44 76 63 77
REMARK SMILES IDX 64 78 68 79 65 80 67 81 66 82 53 83 54 84 58 85 55 86 57 87
REMARK SMILES IDX 56 88
REMARK H PARENT 22 7 18 31 29 37 73 56 51 67
REMARK Flexibility Score: inf
ROOT
ATOM      1  C   UNL A   1      37.466  23.575  25.544  1.00  0.00     0.002 C 
ENDROOT
BRANCH   1   2
ATOM      2  C   UNL A   1      36.029  23.781  26.030  1.00  0.00     0.021 C 
BRANCH   2   3
ATOM      3  C   UNL A   1      35.365  22.717  26.894  1.00  0.00     0.116 C 
BRANCH   3   4
ATOM      4  N   UNL A   1      35.271  21.387  26.338  1.00  0.00    -0.352 N 
ATOM      5  C   UNL A   1      34.460  20.877  25.345  1.00  0.00     0.255 C 
ATOM      6  O   UNL A   1      34.682  19.712  25.004  1.00  0.00    -0.269 OA
ATOM      7  H   UNL A   1      35.891  20.732  26.735  1.00  0.00     0.163 HD
BRANCH   5   8
ATOM      8  C   UNL A   1      33.338  21.620  24.677  1.00  0.00     0.083 A 
ATOM      9  C   UNL A   1      32.667  22.874  22.676  1.00  0.00     0.064 A 
ATOM     10  C   UNL A   1      31.393  23.059  23.202  1.00  0.00     0.032 A 
ATOM     11  C   UNL A   1      33.576  22.045  23.354  1.00  0.00     0.046 A 
ATOM     12  C   UNL A   1      31.130  22.654  24.505  1.00  0.00     0.049 A 
ATOM     13  C   UNL A   1      32.143  22.055  25.260  1.00  0.00     0.128 A 
BRANCH   9  14
ATOM     14  N   UNL A   1      33.076  23.516  21.506  1.00  0.00    -0.256 NA
ATOM     15  C   UNL A   1      33.000  24.806  21.333  1.00  0.00     0.121 C 
BRANCH  15  16
ATOM     16  C   UNL A   1      32.519  25.882  22.207  1.00  0.00     0.014 A 
ATOM     17  N   UNL A   1      32.095  27.343  23.890  1.00  0.00    -0.318 N 
ATOM     18  C   UNL A   1      31.207  27.636  22.868  1.00  0.00     0.021 A 
ATOM     19  C   UNL A   1      33.008  26.397  23.411  1.00  0.00     0.029 A 
ATOM     20  C   UNL A   1      30.267  28.794  22.898  1.00  0.00     0.065 C 
ATOM     21  C   UNL A   1      31.428  26.732  21.851  1.00  0.00     0.033 A 
ATOM     22  C   UNL A   1      34.225  26.030  24.182  1.00  0.00     0.065 C 
BRANCH  17  23
ATOM     23  C   UNL A   1      32.030  27.858  25.219  1.00  0.00     0.046 A 
ATOM     24  C   UNL A   1      32.899  31.095  27.044  1.00  0.00     0.044 C 
ATOM     25  C   UNL A   1      32.382  29.717  26.746  1.00  0.00    -0.049 A 
ATOM     26  C   UNL A   1      31.659  29.029  27.729  1.00  0.00     0.003 A 
ATOM     27  C   UNL A   1      32.570  29.125  25.488  1.00  0.00     0.030 A 
ATOM     28  C   UNL A   1      31.165  27.750  27.476  1.00  0.00     0.002 A 
ATOM     29  C   UNL A   1      31.361  27.160  26.228  1.00  0.00     0.026 A 
ENDBRANCH  17  23
ENDBRANCH  15  16
ENDBRANCH   9  14
BRANCH  13  30
ATOM     30  O   UNL A   1      31.944  22.151  26.609  1.00  0.00    -0.507 OA
ATOM     31  H   UNL A   1      31.923  21.376  27.136  1.00  0.00     0.293 HD
ENDBRANCH  13  30
ENDBRANCH   5   8
ENDBRANCH   3   4
ENDBRANCH   2   3
ENDBRANCH   1   2
BRANCH   1  32
ATOM     32  C   UNL A   1      38.543  23.042  26.499  1.00  0.00     0.002 C 
BRANCH  32  33
ATOM     33  C   UNL A   1      39.759  22.320  25.924  1.00  0.00     0.021 C 
BRANCH  33  34
ATOM     34  C   UNL A   1      40.148  21.003  26.577  1.00  0.00     0.116 C 
BRANCH  34  35
ATOM     35  N   UNL A   1      41.202  20.251  25.912  1.00  0.00    -0.352 N 
ATOM     36  C   UNL A   1      42.561  20.516  25.873  1.00  0.00     0.251 C 
ATOM     37  H   UNL A   1      40.910  19.446  25.426  1.00  0.00     0.163 HD
ATOM     38  O   UNL A   1      43.311  19.791  25.223  1.00  0.00    -0.269 OA
BRANCH  36  39
ATOM     39  C   UNL A   1      43.132  21.598  26.717  1.00  0.00     0.039 A 
ATOM     40  C   UNL A   1      42.809  21.610  28.079  1.00  0.00     0.014 A 
ATOM     41  C   UNL A   1      43.801  22.682  26.155  1.00  0.00     0.014 A 
ATOM     42  C   UNL A   1      42.919  22.797  28.799  1.00  0.00     0.010 A 
ATOM     43  C   UNL A   1      43.815  23.885  26.832  1.00  0.00     0.010 A 
ATOM     44  C   UNL A   1      43.304  23.957  28.130  1.00  0.00    -0.014 A 
BRANCH  44  45
ATOM     45  C   UNL A   1      43.067  25.298  28.648  1.00  0.00     0.031 A 
ATOM     46  C   UNL A   1      41.905  26.091  28.207  1.00  0.00     0.074 A 
ATOM     47  C   UNL A   1      43.888  25.786  29.605  1.00  0.00     0.049 A 
ATOM     48  N   UNL A   1      41.820  27.374  28.330  1.00  0.00    -0.248 NA
ATOM     49  C   UNL A   1      40.768  25.505  27.500  1.00  0.00     0.031 C 
ATOM     50  C   UNL A   1      43.665  26.934  30.478  1.00  0.00     0.029 A 
ATOM     51  N   UNL A   1      45.222  25.451  29.814  1.00  0.00    -0.354 N 
ATOM     52  C   UNL A   1      40.525  27.724  28.036  1.00  0.00     0.074 A 
ATOM     53  C   UNL A   1      39.967  26.568  27.380  1.00  0.00     0.031 C 
ATOM     54  C   UNL A   1      44.849  27.357  30.951  1.00  0.00     0.029 A 
ATOM     55  C   UNL A   1      45.885  26.601  30.268  1.00  0.00     0.049 A 
ATOM     56  H   UNL A   1      45.628  24.566  29.670  1.00  0.00     0.167 HD
ATOM     57  C   UNL A   1      40.027  28.890  28.533  1.00  0.00     0.031 A 
ATOM     58  C   UNL A   1      46.893  27.160  29.537  1.00  0.00     0.031 A 
ATOM     59  C   UNL A   1      41.082  29.740  29.088  1.00  0.00     0.049 A 
ATOM     60  C   UNL A   1      46.604  28.570  29.067  1.00  0.00     0.074 A 
ATOM     61  C   UNL A   1      41.449  30.084  30.379  1.00  0.00     0.029 A 
ATOM     62  N   UNL A   1      42.114  30.170  28.259  1.00  0.00    -0.354 N 
ATOM     63  N   UNL A   1      45.415  29.106  29.049  1.00  0.00    -0.248 NA
ATOM     64  C   UNL A   1      47.627  29.470  28.536  1.00  0.00     0.031 C 
ATOM     65  C   UNL A   1      42.758  30.636  30.327  1.00  0.00     0.029 A 
ATOM     66  C   UNL A   1      43.163  30.668  29.004  1.00  0.00     0.049 A 
ATOM     67  H   UNL A   1      42.097  30.124  27.275  1.00  0.00     0.167 HD
ATOM     68  C   UNL A   1      45.485  30.365  28.514  1.00  0.00     0.074 A 
ATOM     69  C   UNL A   1      46.895  30.555  28.222  1.00  0.00     0.031 C 
ATOM     70  C   UNL A   1      44.374  31.137  28.342  1.00  0.00     0.031 A 
BRANCH  57  71
ATOM     71  C   UNL A   1      38.550  29.160  28.750  1.00  0.00    -0.014 A 
ATOM     72  C   UNL A   1      37.775  29.664  27.690  1.00  0.00     0.009 A 
ATOM     73  C   UNL A   1      37.886  29.059  29.988  1.00  0.00     0.009 A 
ATOM     74  C   UNL A   1      36.442  30.072  27.864  1.00  0.00     0.001 A 
ATOM     75  C   UNL A   1      36.550  29.442  30.167  1.00  0.00     0.001 A 
ATOM     76  C   UNL A   1      35.830  29.962  29.105  1.00  0.00     0.000 A 
ENDBRANCH  57  71
BRANCH  58  77
ATOM     77  C   UNL A   1      47.697  26.166  28.770  1.00  0.00    -0.014 A 
ATOM     78  C   UNL A   1      47.483  26.065  27.382  1.00  0.00     0.009 A 
ATOM     79  C   UNL A   1      48.870  25.622  29.310  1.00  0.00     0.009 A 
ATOM     80  C   UNL A   1      48.470  25.539  26.542  1.00  0.00     0.001 A 
ATOM     81  C   UNL A   1      49.852  25.085  28.465  1.00  0.00     0.001 A 
ATOM     82  C   UNL A   1      49.666  25.077  27.083  1.00  0.00     0.000 A 
ENDBRANCH  58  77
BRANCH  70  83
ATOM     83  C   UNL A   1      44.315  32.439  27.581  1.00  0.00    -0.014 A 
ATOM     84  C   UNL A   1      44.538  32.557  26.203  1.00  0.00     0.009 A 
ATOM     85  C   UNL A   1      43.879  33.601  28.255  1.00  0.00     0.009 A 
ATOM     86  C   UNL A   1      44.379  33.784  25.542  1.00  0.00     0.001 A 
ATOM     87  C   UNL A   1      43.677  34.813  27.594  1.00  0.00     0.001 A 
ATOM     88  C   UNL A   1      43.940  34.909  26.235  1.00  0.00     0.000 A 
ENDBRANCH  70  83
ENDBRANCH  44  45
ENDBRANCH  36  39
ENDBRANCH  34  35
ENDBRANCH  33  34
ENDBRANCH  32  33
ENDBRANCH   1  32
TORSDOF 17
ENDMDL
