MODEL 1
REMARK VINA RESULT:     -11.2      0.000      0.000
REMARK SMILES CC1=C(C)C[C@@H](C(=O)NCCCCCCNC(=O)c2ccc(-c3c4nc(c(-c5ccccc5)c5ccc([nH]5)c(-c5ccccc5)c5nc(c(-c6ccccc6)c6ccc3[nH]6)C=C5)C=C4)cc2)[C@@H](C(=O)NCC[NH+]2CCOCC2)C1
REMARK SMILES IDX 11 1 10 2 9 3 7 4 8 5 6 7 1 8 2 9 3 10 79 11 4 12 5 13 67 14
REMARK SMILES IDX 68 15 69 16 70 17 71 19 72 20 73 21 74 22 78 23 75 25 77 26
REMARK SMILES IDX 76 27 12 28 13 29 14 30 15 31 16 32 17 33 18 35 19 36 20 37
REMARK SMILES IDX 66 38 21 39 65 40 22 41 23 42 24 43 59 44 25 45 64 46 58 47
REMARK SMILES IDX 60 48 26 49 63 50 57 51 56 52 27 54 49 55 34 56 48 57 35 58
REMARK SMILES IDX 38 59 47 60 61 61 36 62 37 63 46 65 62 66 39 67 28 68 29 69
REMARK SMILES IDX 33 70 30 71 32 72 31 73 50 74 51 75 55 76 52 77 54 78 53 79
REMARK SMILES IDX 40 80 41 81 45 82 42 83 44 84 43 85
REMARK H PARENT 9 6 70 18 73 24 16 34 60 53 38 64
REMARK Flexibility Score: inf
ROOT
ATOM      1  C   UNL A   1      33.473  19.665  25.248  1.00  0.00     0.021 C 
ENDROOT
BRANCH   1   2
ATOM      2  C   UNL A   1      33.353  21.176  25.353  1.00  0.00     0.116 C 
BRANCH   2   3
ATOM      3  N   UNL A   1      32.238  21.676  24.590  1.00  0.00    -0.356 N 
ATOM      4  C   UNL A   1      32.016  22.886  24.023  1.00  0.00     0.224 C 
ATOM      5  O   UNL A   1      31.032  22.971  23.278  1.00  0.00    -0.275 OA
ATOM      6  H   UNL A   1      31.510  21.026  24.460  1.00  0.00     0.163 HD
BRANCH   4   7
ATOM      7  C   UNL A   1      32.968  24.083  24.179  1.00  0.00     0.095 C 
ATOM      8  C   UNL A   1      36.998  23.505  25.983  1.00  0.00     0.039 C 
ATOM      9  C   UNL A   1      35.707  23.808  25.263  1.00  0.00    -0.074 C 
ATOM     10  C   UNL A   1      35.513  23.602  23.945  1.00  0.00    -0.074 C 
ATOM     11  C   UNL A   1      34.602  24.264  26.185  1.00  0.00     0.045 C 
ATOM     12  C   UNL A   1      36.527  22.966  23.025  1.00  0.00     0.039 C 
ATOM     13  C   UNL A   1      34.196  23.905  23.273  1.00  0.00     0.045 C 
ATOM     14  C   UNL A   1      33.245  24.650  25.595  1.00  0.00     0.095 C 
BRANCH  14  15
ATOM     15  C   UNL A   1      32.027  24.475  26.523  1.00  0.00     0.224 C 
ATOM     16  O   UNL A   1      32.001  23.565  27.359  1.00  0.00    -0.275 OA
ATOM     17  N   UNL A   1      30.872  25.182  26.443  1.00  0.00    -0.350 N 
ATOM     18  H   UNL A   1      30.194  24.875  27.089  1.00  0.00     0.163 HD
BRANCH  17  19
ATOM     19  C   UNL A   1      30.406  26.290  25.622  1.00  0.00     0.177 C 
BRANCH  19  20
ATOM     20  C   UNL A   1      31.324  27.533  25.688  1.00  0.00     0.283 C 
BRANCH  20  21
ATOM     21  N   UNL A   1      31.675  28.303  24.490  1.00  0.00    -0.330 N 
ATOM     22  C   UNL A   1      30.702  29.320  24.067  1.00  0.00     0.291 C 
ATOM     23  C   UNL A   1      32.203  27.584  23.327  1.00  0.00     0.291 C 
ATOM     24  H   UNL A   1      32.483  28.786  24.885  1.00  0.00     0.348 HD
ATOM     25  C   UNL A   1      29.657  28.822  23.059  1.00  0.00     0.221 C 
ATOM     26  C   UNL A   1      31.125  27.127  22.332  1.00  0.00     0.221 C 
ATOM     27  O   UNL A   1      30.274  28.204  21.924  1.00  0.00    -0.370 OA
ENDBRANCH  20  21
ENDBRANCH  19  20
ENDBRANCH  17  19
ENDBRANCH  14  15
ENDBRANCH   4   7
ENDBRANCH   2   3
ENDBRANCH   1   2
BRANCH   1  28
ATOM     28  C   UNL A   1      34.811  19.192  24.683  1.00  0.00     0.002 C 
BRANCH  28  29
ATOM     29  C   UNL A   1      36.009  20.064  25.070  1.00  0.00     0.002 C 
BRANCH  29  30
ATOM     30  C   UNL A   1      37.377  19.424  24.823  1.00  0.00     0.021 C 
BRANCH  30  31
ATOM     31  C   UNL A   1      38.535  20.145  25.504  1.00  0.00     0.116 C 
BRANCH  31  32
ATOM     32  N   UNL A   1      39.680  19.265  25.686  1.00  0.00    -0.352 N 
ATOM     33  C   UNL A   1      40.968  19.574  26.039  1.00  0.00     0.251 C 
ATOM     34  H   UNL A   1      39.503  18.308  25.534  1.00  0.00     0.163 HD
ATOM     35  O   UNL A   1      41.866  18.752  25.905  1.00  0.00    -0.269 OA
BRANCH  33  36
ATOM     36  C   UNL A   1      41.272  20.915  26.578  1.00  0.00     0.039 A 
ATOM     37  C   UNL A   1      41.141  21.144  27.949  1.00  0.00     0.014 A 
ATOM     38  C   UNL A   1      41.679  21.945  25.725  1.00  0.00     0.014 A 
ATOM     39  C   UNL A   1      41.478  22.392  28.475  1.00  0.00     0.010 A 
ATOM     40  C   UNL A   1      42.086  23.163  26.259  1.00  0.00     0.010 A 
ATOM     41  C   UNL A   1      41.985  23.400  27.638  1.00  0.00    -0.014 A 
BRANCH  41  42
ATOM     42  C   UNL A   1      42.422  24.708  28.185  1.00  0.00     0.031 A 
ATOM     43  C   UNL A   1      41.423  25.811  28.398  1.00  0.00     0.074 A 
ATOM     44  C   UNL A   1      43.730  24.926  28.427  1.00  0.00     0.049 A 
ATOM     45  N   UNL A   1      41.623  27.041  28.798  1.00  0.00    -0.248 NA
ATOM     46  C   UNL A   1      40.015  25.498  28.099  1.00  0.00     0.031 C 
ATOM     47  C   UNL A   1      44.803  23.949  28.231  1.00  0.00     0.029 A 
ATOM     48  N   UNL A   1      44.379  26.045  28.885  1.00  0.00    -0.354 N 
ATOM     49  C   UNL A   1      40.374  27.651  28.783  1.00  0.00     0.074 A 
ATOM     50  C   UNL A   1      39.432  26.673  28.285  1.00  0.00     0.031 C 
ATOM     51  C   UNL A   1      45.971  24.502  28.595  1.00  0.00     0.029 A 
ATOM     52  C   UNL A   1      45.739  25.883  29.003  1.00  0.00     0.049 A 
ATOM     53  H   UNL A   1      43.915  26.884  29.107  1.00  0.00     0.167 HD
ATOM     54  C   UNL A   1      40.039  28.905  29.167  1.00  0.00     0.031 A 
ATOM     55  C   UNL A   1      46.692  26.753  29.388  1.00  0.00     0.031 A 
ATOM     56  C   UNL A   1      40.976  29.875  29.668  1.00  0.00     0.049 A 
ATOM     57  C   UNL A   1      46.296  28.149  29.781  1.00  0.00     0.074 A 
ATOM     58  C   UNL A   1      40.726  31.155  30.131  1.00  0.00     0.029 A 
ATOM     59  N   UNL A   1      42.343  29.671  29.770  1.00  0.00    -0.354 N 
ATOM     60  N   UNL A   1      45.104  28.690  29.818  1.00  0.00    -0.248 NA
ATOM     61  C   UNL A   1      47.381  29.051  30.193  1.00  0.00     0.031 C 
ATOM     62  C   UNL A   1      41.950  31.747  30.458  1.00  0.00     0.029 A 
ATOM     63  C   UNL A   1      42.955  30.813  30.261  1.00  0.00     0.049 A 
ATOM     64  H   UNL A   1      42.812  28.839  29.529  1.00  0.00     0.167 HD
ATOM     65  C   UNL A   1      45.289  29.984  30.290  1.00  0.00     0.074 A 
ATOM     66  C   UNL A   1      46.708  30.140  30.536  1.00  0.00     0.031 C 
ATOM     67  C   UNL A   1      44.367  30.954  30.502  1.00  0.00     0.031 A 
BRANCH  54  68
ATOM     68  C   UNL A   1      38.594  29.303  29.048  1.00  0.00    -0.014 A 
ATOM     69  C   UNL A   1      37.721  29.221  30.145  1.00  0.00     0.009 A 
ATOM     70  C   UNL A   1      38.106  29.806  27.831  1.00  0.00     0.009 A 
ATOM     71  C   UNL A   1      36.382  29.596  30.016  1.00  0.00     0.001 A 
ATOM     72  C   UNL A   1      36.774  30.211  27.713  1.00  0.00     0.001 A 
ATOM     73  C   UNL A   1      35.912  30.095  28.802  1.00  0.00     0.000 A 
ENDBRANCH  54  68
BRANCH  55  74
ATOM     74  C   UNL A   1      48.116  26.327  29.433  1.00  0.00    -0.014 A 
ATOM     75  C   UNL A   1      48.666  25.807  30.614  1.00  0.00     0.009 A 
ATOM     76  C   UNL A   1      48.935  26.447  28.299  1.00  0.00     0.009 A 
ATOM     77  C   UNL A   1      50.014  25.445  30.669  1.00  0.00     0.001 A 
ATOM     78  C   UNL A   1      50.275  26.054  28.347  1.00  0.00     0.001 A 
ATOM     79  C   UNL A   1      50.816  25.565  29.535  1.00  0.00     0.000 A 
ENDBRANCH  55  74
BRANCH  67  80
ATOM     80  C   UNL A   1      44.856  32.259  31.067  1.00  0.00    -0.014 A 
ATOM     81  C   UNL A   1      45.235  33.322  30.233  1.00  0.00     0.009 A 
ATOM     82  C   UNL A   1      44.895  32.438  32.459  1.00  0.00     0.009 A 
ATOM     83  C   UNL A   1      45.674  34.527  30.784  1.00  0.00     0.001 A 
ATOM     84  C   UNL A   1      45.304  33.655  33.006  1.00  0.00     0.001 A 
ATOM     85  C   UNL A   1      45.702  34.696  32.168  1.00  0.00     0.000 A 
ENDBRANCH  67  80
ENDBRANCH  41  42
ENDBRANCH  33  36
ENDBRANCH  31  32
ENDBRANCH  30  31
ENDBRANCH  29  30
ENDBRANCH  28  29
ENDBRANCH   1  28
TORSDOF 17
ENDMDL
MODEL 2
REMARK VINA RESULT:     -10.9      4.351      9.234
REMARK SMILES CC1=C(C)C[C@@H](C(=O)NCCCCCCNC(=O)c2ccc(-c3c4nc(c(-c5ccccc5)c5ccc([nH]5)c(-c5ccccc5)c5nc(c(-c6ccccc6)c6ccc3[nH]6)C=C5)C=C4)cc2)[C@@H](C(=O)NCC[NH+]2CCOCC2)C1
REMARK SMILES IDX 11 1 10 2 9 3 7 4 8 5 6 7 1 8 2 9 3 10 79 11 4 12 5 13 67 14
REMARK SMILES IDX 68 15 69 16 70 17 71 19 72 20 73 21 74 22 78 23 75 25 77 26
REMARK SMILES IDX 76 27 12 28 13 29 14 30 15 31 16 32 17 33 18 35 19 36 20 37
REMARK SMILES IDX 66 38 21 39 65 40 22 41 23 42 24 43 59 44 25 45 64 46 58 47
REMARK SMILES IDX 60 48 26 49 63 50 57 51 56 52 27 54 49 55 34 56 48 57 35 58
REMARK SMILES IDX 38 59 47 60 61 61 36 62 37 63 46 65 62 66 39 67 28 68 29 69
REMARK SMILES IDX 33 70 30 71 32 72 31 73 50 74 51 75 55 76 52 77 54 78 53 79
REMARK SMILES IDX 40 80 41 81 45 82 42 83 44 84 43 85
REMARK H PARENT 9 6 70 18 73 24 16 34 60 53 38 64
REMARK Flexibility Score: inf
ROOT
ATOM      1  C   UNL A   1      33.613  29.072  26.261  1.00  0.00     0.021 C 
ENDROOT
BRANCH   1   2
ATOM      2  C   UNL A   1      33.349  29.003  24.767  1.00  0.00     0.116 C 
BRANCH   2   3
ATOM      3  N   UNL A   1      33.994  27.865  24.164  1.00  0.00    -0.356 N 
ATOM      4  C   UNL A   1      33.658  26.553  24.147  1.00  0.00     0.224 C 
ATOM      5  O   UNL A   1      34.320  25.826  23.398  1.00  0.00    -0.275 OA
ATOM      6  H   UNL A   1      34.825  28.079  23.681  1.00  0.00     0.163 HD
BRANCH   4   7
ATOM      7  C   UNL A   1      32.457  25.976  24.915  1.00  0.00     0.095 C 
ATOM      8  C   UNL A   1      31.767  21.578  24.999  1.00  0.00     0.039 C 
ATOM      9  C   UNL A   1      31.953  23.069  25.133  1.00  0.00    -0.074 C 
ATOM     10  C   UNL A   1      32.778  23.649  26.029  1.00  0.00    -0.074 C 
ATOM     11  C   UNL A   1      31.206  23.861  24.087  1.00  0.00     0.045 C 
ATOM     12  C   UNL A   1      33.689  22.890  26.962  1.00  0.00     0.039 C 
ATOM     13  C   UNL A   1      32.942  25.147  26.113  1.00  0.00     0.045 C 
ATOM     14  C   UNL A   1      31.262  25.388  24.120  1.00  0.00     0.095 C 
BRANCH  14  15
ATOM     15  C   UNL A   1      31.075  26.104  22.768  1.00  0.00     0.224 C 
ATOM     16  O   UNL A   1      31.458  25.575  21.719  1.00  0.00    -0.275 OA
ATOM     17  N   UNL A   1      30.608  27.367  22.607  1.00  0.00    -0.350 N 
ATOM     18  H   UNL A   1      30.622  27.660  21.667  1.00  0.00     0.163 HD
BRANCH  17  19
ATOM     19  C   UNL A   1      30.091  28.388  23.507  1.00  0.00     0.177 C 
BRANCH  19  20
ATOM     20  C   UNL A   1      29.891  29.763  22.827  1.00  0.00     0.283 C 
BRANCH  20  21
ATOM     21  N   UNL A   1      28.593  30.447  22.826  1.00  0.00    -0.330 N 
ATOM     22  C   UNL A   1      27.947  30.606  21.515  1.00  0.00     0.291 C 
ATOM     23  C   UNL A   1      28.448  31.670  23.620  1.00  0.00     0.291 C 
ATOM     24  H   UNL A   1      28.077  29.736  23.346  1.00  0.00     0.348 HD
ATOM     25  C   UNL A   1      28.286  31.916  20.792  1.00  0.00     0.221 C 
ATOM     26  C   UNL A   1      28.773  32.959  22.849  1.00  0.00     0.221 C 
ATOM     27  O   UNL A   1      28.039  33.055  21.623  1.00  0.00    -0.370 OA
ENDBRANCH  20  21
ENDBRANCH  19  20
ENDBRANCH  17  19
ENDBRANCH  14  15
ENDBRANCH   4   7
ENDBRANCH   2   3
ENDBRANCH   1   2
BRANCH   1  28
ATOM     28  C   UNL A   1      32.517  29.790  27.047  1.00  0.00     0.002 C 
BRANCH  28  29
ATOM     29  C   UNL A   1      31.603  30.678  26.197  1.00  0.00     0.002 C 
BRANCH  29  30
ATOM     30  C   UNL A   1      31.401  32.096  26.737  1.00  0.00     0.021 C 
BRANCH  30  31
ATOM     31  C   UNL A   1      32.676  32.751  27.261  1.00  0.00     0.116 C 
BRANCH  31  32
ATOM     32  N   UNL A   1      32.462  34.153  27.584  1.00  0.00    -0.352 N 
ATOM     33  C   UNL A   1      33.013  34.909  28.587  1.00  0.00     0.251 C 
ATOM     34  H   UNL A   1      31.830  34.628  26.997  1.00  0.00     0.163 HD
ATOM     35  O   UNL A   1      32.540  36.002  28.875  1.00  0.00    -0.269 OA
BRANCH  33  36
ATOM     36  C   UNL A   1      34.181  34.392  29.328  1.00  0.00     0.039 A 
ATOM     37  C   UNL A   1      33.975  33.675  30.507  1.00  0.00     0.014 A 
ATOM     38  C   UNL A   1      35.477  34.625  28.858  1.00  0.00     0.014 A 
ATOM     39  C   UNL A   1      35.070  33.136  31.186  1.00  0.00     0.010 A 
ATOM     40  C   UNL A   1      36.559  34.024  29.493  1.00  0.00     0.010 A 
ATOM     41  C   UNL A   1      36.367  33.278  30.665  1.00  0.00    -0.014 A 
BRANCH  41  42
ATOM     42  C   UNL A   1      37.536  32.649  31.327  1.00  0.00     0.031 A 
ATOM     43  C   UNL A   1      38.217  31.466  30.696  1.00  0.00     0.074 A 
ATOM     44  C   UNL A   1      37.944  33.101  32.530  1.00  0.00     0.049 A 
ATOM     45  N   UNL A   1      39.205  30.740  31.156  1.00  0.00    -0.248 NA
ATOM     46  C   UNL A   1      37.705  31.026  29.388  1.00  0.00     0.031 C 
ATOM     47  C   UNL A   1      37.347  34.220  33.263  1.00  0.00     0.029 A 
ATOM     48  N   UNL A   1      38.954  32.667  33.351  1.00  0.00    -0.354 N 
ATOM     49  C   UNL A   1      39.420  29.751  30.203  1.00  0.00     0.074 A 
ATOM     50  C   UNL A   1      38.428  29.938  29.167  1.00  0.00     0.031 C 
ATOM     51  C   UNL A   1      38.022  34.402  34.409  1.00  0.00     0.029 A 
ATOM     52  C   UNL A   1      39.064  33.388  34.516  1.00  0.00     0.049 A 
ATOM     53  H   UNL A   1      39.544  31.912  33.127  1.00  0.00     0.167 HD
ATOM     54  C   UNL A   1      40.370  28.787  30.184  1.00  0.00     0.031 A 
ATOM     55  C   UNL A   1      39.905  33.242  35.557  1.00  0.00     0.031 A 
ATOM     56  C   UNL A   1      41.361  28.606  31.212  1.00  0.00     0.049 A 
ATOM     57  C   UNL A   1      40.931  32.144  35.524  1.00  0.00     0.074 A 
ATOM     58  C   UNL A   1      42.397  27.690  31.257  1.00  0.00     0.029 A 
ATOM     59  N   UNL A   1      41.436  29.356  32.375  1.00  0.00    -0.354 N 
ATOM     60  N   UNL A   1      41.161  31.255  34.588  1.00  0.00    -0.248 NA
ATOM     61  C   UNL A   1      41.821  32.036  36.689  1.00  0.00     0.031 C 
ATOM     62  C   UNL A   1      43.064  27.847  32.476  1.00  0.00     0.029 A 
ATOM     63  C   UNL A   1      42.484  28.904  33.160  1.00  0.00     0.049 A 
ATOM     64  H   UNL A   1      40.834  30.099  32.609  1.00  0.00     0.167 HD
ATOM     65  C   UNL A   1      42.241  30.505  35.035  1.00  0.00     0.074 A 
ATOM     66  C   UNL A   1      42.628  31.052  36.319  1.00  0.00     0.031 C 
ATOM     67  C   UNL A   1      42.859  29.458  34.435  1.00  0.00     0.031 A 
BRANCH  54  68
ATOM     68  C   UNL A   1      40.375  27.843  29.013  1.00  0.00    -0.014 A 
ATOM     69  C   UNL A   1      41.145  28.103  27.868  1.00  0.00     0.009 A 
ATOM     70  C   UNL A   1      39.629  26.654  29.071  1.00  0.00     0.009 A 
ATOM     71  C   UNL A   1      41.137  27.215  26.791  1.00  0.00     0.001 A 
ATOM     72  C   UNL A   1      39.649  25.751  28.006  1.00  0.00     0.001 A 
ATOM     73  C   UNL A   1      40.394  26.037  26.864  1.00  0.00     0.000 A 
ENDBRANCH  54  68
BRANCH  55  74
ATOM     74  C   UNL A   1      39.821  34.166  36.719  1.00  0.00    -0.014 A 
ATOM     75  C   UNL A   1      39.022  33.847  37.827  1.00  0.00     0.009 A 
ATOM     76  C   UNL A   1      40.530  35.379  36.721  1.00  0.00     0.009 A 
ATOM     77  C   UNL A   1      38.911  34.734  38.900  1.00  0.00     0.001 A 
ATOM     78  C   UNL A   1      40.441  36.249  37.810  1.00  0.00     0.001 A 
ATOM     79  C   UNL A   1      39.623  35.931  38.892  1.00  0.00     0.000 A 
ENDBRANCH  55  74
BRANCH  67  80
ATOM     80  C   UNL A   1      44.045  28.861  35.139  1.00  0.00    -0.014 A 
ATOM     81  C   UNL A   1      43.903  27.787  36.031  1.00  0.00     0.009 A 
ATOM     82  C   UNL A   1      45.330  29.355  34.868  1.00  0.00     0.009 A 
ATOM     83  C   UNL A   1      45.023  27.243  36.663  1.00  0.00     0.001 A 
ATOM     84  C   UNL A   1      46.451  28.788  35.476  1.00  0.00     0.001 A 
ATOM     85  C   UNL A   1      46.295  27.739  36.380  1.00  0.00     0.000 A 
ENDBRANCH  67  80
ENDBRANCH  41  42
ENDBRANCH  33  36
ENDBRANCH  31  32
ENDBRANCH  30  31
ENDBRANCH  29  30
ENDBRANCH  28  29
ENDBRANCH   1  28
TORSDOF 17
ENDMDL
MODEL 3
REMARK VINA RESULT:     -10.9      1.519      2.722
REMARK SMILES CC1=C(C)C[C@@H](C(=O)NCCCCCCNC(=O)c2ccc(-c3c4nc(c(-c5ccccc5)c5ccc([nH]5)c(-c5ccccc5)c5nc(c(-c6ccccc6)c6ccc3[nH]6)C=C5)C=C4)cc2)[C@@H](C(=O)NCC[NH+]2CCOCC2)C1
REMARK SMILES IDX 11 1 10 2 9 3 7 4 8 5 6 7 1 8 2 9 3 10 79 11 4 12 5 13 67 14
REMARK SMILES IDX 68 15 69 16 70 17 71 19 72 20 73 21 74 22 78 23 75 25 77 26
REMARK SMILES IDX 76 27 12 28 13 29 14 30 15 31 16 32 17 33 18 35 19 36 20 37
REMARK SMILES IDX 66 38 21 39 65 40 22 41 23 42 24 43 59 44 25 45 64 46 58 47
REMARK SMILES IDX 60 48 26 49 63 50 57 51 56 52 27 54 49 55 34 56 48 57 35 58
REMARK SMILES IDX 38 59 47 60 61 61 36 62 37 63 46 65 62 66 39 67 28 68 29 69
REMARK SMILES IDX 33 70 30 71 32 72 31 73 50 74 51 75 55 76 52 77 54 78 53 79
REMARK SMILES IDX 40 80 41 81 45 82 42 83 44 84 43 85
REMARK H PARENT 9 6 70 18 73 24 16 34 60 53 38 64
REMARK Flexibility Score: inf
ROOT
ATOM      1  C   UNL A   1      35.822  23.779  24.763  1.00  0.00     0.021 C 
ENDROOT
BRANCH   1   2
ATOM      2  C   UNL A   1      34.789  24.534  23.944  1.00  0.00     0.116 C 
BRANCH   2   3
ATOM      3  N   UNL A   1      34.348  25.730  24.614  1.00  0.00    -0.356 N 
ATOM      4  C   UNL A   1      33.106  26.162  24.943  1.00  0.00     0.224 C 
ATOM      5  O   UNL A   1      33.048  27.158  25.673  1.00  0.00    -0.275 OA
ATOM      6  H   UNL A   1      35.075  26.339  24.878  1.00  0.00     0.163 HD
BRANCH   4   7
ATOM      7  C   UNL A   1      31.819  25.423  24.545  1.00  0.00     0.095 C 
ATOM      8  C   UNL A   1      32.054  21.437  22.573  1.00  0.00     0.039 C 
ATOM      9  C   UNL A   1      31.841  22.727  23.327  1.00  0.00    -0.074 C 
ATOM     10  C   UNL A   1      31.863  22.826  24.671  1.00  0.00    -0.074 C 
ATOM     11  C   UNL A   1      31.710  23.931  22.426  1.00  0.00     0.045 C 
ATOM     12  C   UNL A   1      32.183  21.684  25.604  1.00  0.00     0.039 C 
ATOM     13  C   UNL A   1      31.661  24.144  25.380  1.00  0.00     0.045 C 
ATOM     14  C   UNL A   1      31.447  25.305  23.043  1.00  0.00     0.095 C 
BRANCH  14  15
ATOM     15  C   UNL A   1      31.951  26.519  22.239  1.00  0.00     0.224 C 
ATOM     16  O   UNL A   1      33.039  26.477  21.655  1.00  0.00    -0.275 OA
ATOM     17  N   UNL A   1      31.346  27.732  22.188  1.00  0.00    -0.350 N 
ATOM     18  H   UNL A   1      31.861  28.391  21.667  1.00  0.00     0.163 HD
BRANCH  17  19
ATOM     19  C   UNL A   1      30.112  28.282  22.729  1.00  0.00     0.177 C 
BRANCH  19  20
ATOM     20  C   UNL A   1      29.914  29.782  22.406  1.00  0.00     0.283 C 
BRANCH  20  21
ATOM     21  N   UNL A   1      28.605  30.434  22.518  1.00  0.00    -0.330 N 
ATOM     22  C   UNL A   1      27.908  30.707  21.253  1.00  0.00     0.291 C 
ATOM     23  C   UNL A   1      28.467  31.570  23.435  1.00  0.00     0.291 C 
ATOM     24  H   UNL A   1      28.122  29.664  22.984  1.00  0.00     0.348 HD
ATOM     25  C   UNL A   1      28.196  32.090  20.653  1.00  0.00     0.221 C 
ATOM     26  C   UNL A   1      28.739  32.935  22.785  1.00  0.00     0.221 C 
ATOM     27  O   UNL A   1      27.959  33.135  21.601  1.00  0.00    -0.370 OA
ENDBRANCH  20  21
ENDBRANCH  19  20
ENDBRANCH  17  19
ENDBRANCH  14  15
ENDBRANCH   4   7
ENDBRANCH   2   3
ENDBRANCH   1   2
BRANCH   1  28
ATOM     28  C   UNL A   1      36.332  22.506  24.089  1.00  0.00     0.002 C 
BRANCH  28  29
ATOM     29  C   UNL A   1      36.038  21.216  24.861  1.00  0.00     0.002 C 
BRANCH  29  30
ATOM     30  C   UNL A   1      37.182  20.200  24.874  1.00  0.00     0.021 C 
BRANCH  30  31
ATOM     31  C   UNL A   1      38.460  20.708  25.536  1.00  0.00     0.116 C 
BRANCH  31  32
ATOM     32  N   UNL A   1      39.457  19.654  25.649  1.00  0.00    -0.352 N 
ATOM     33  C   UNL A   1      40.785  19.745  25.977  1.00  0.00     0.251 C 
ATOM     34  H   UNL A   1      39.130  18.744  25.464  1.00  0.00     0.163 HD
ATOM     35  O   UNL A   1      41.541  18.801  25.784  1.00  0.00    -0.269 OA
BRANCH  33  36
ATOM     36  C   UNL A   1      41.306  20.998  26.559  1.00  0.00     0.039 A 
ATOM     37  C   UNL A   1      41.885  21.950  25.718  1.00  0.00     0.014 A 
ATOM     38  C   UNL A   1      41.226  21.226  27.936  1.00  0.00     0.014 A 
ATOM     39  C   UNL A   1      42.331  23.161  26.251  1.00  0.00     0.010 A 
ATOM     40  C   UNL A   1      41.601  22.462  28.453  1.00  0.00     0.010 A 
ATOM     41  C   UNL A   1      42.161  23.440  27.617  1.00  0.00    -0.014 A 
BRANCH  41  42
ATOM     42  C   UNL A   1      42.556  24.748  28.192  1.00  0.00     0.031 A 
ATOM     43  C   UNL A   1      41.529  25.828  28.393  1.00  0.00     0.074 A 
ATOM     44  C   UNL A   1      43.853  24.990  28.470  1.00  0.00     0.049 A 
ATOM     45  N   UNL A   1      41.693  27.056  28.814  1.00  0.00    -0.248 NA
ATOM     46  C   UNL A   1      40.136  25.490  28.054  1.00  0.00     0.031 C 
ATOM     47  C   UNL A   1      44.951  24.038  28.289  1.00  0.00     0.029 A 
ATOM     48  N   UNL A   1      44.467  26.116  28.959  1.00  0.00    -0.354 N 
ATOM     49  C   UNL A   1      40.433  27.640  28.775  1.00  0.00     0.074 A 
ATOM     50  C   UNL A   1      39.524  26.650  28.240  1.00  0.00     0.031 C 
ATOM     51  C   UNL A   1      46.098  24.611  28.690  1.00  0.00     0.029 A 
ATOM     52  C   UNL A   1      45.826  25.981  29.109  1.00  0.00     0.049 A 
ATOM     53  H   UNL A   1      43.980  26.942  29.180  1.00  0.00     0.167 HD
ATOM     54  C   UNL A   1      40.062  28.882  29.166  1.00  0.00     0.031 A 
ATOM     55  C   UNL A   1      46.750  26.864  29.530  1.00  0.00     0.031 A 
ATOM     56  C   UNL A   1      40.965  29.864  29.703  1.00  0.00     0.049 A 
ATOM     57  C   UNL A   1      46.316  28.247  29.930  1.00  0.00     0.074 A 
ATOM     58  C   UNL A   1      40.677  31.132  30.176  1.00  0.00     0.029 A 
ATOM     59  N   UNL A   1      42.333  29.688  29.838  1.00  0.00    -0.354 N 
ATOM     60  N   UNL A   1      45.111  28.763  29.944  1.00  0.00    -0.248 NA
ATOM     61  C   UNL A   1      47.371  29.166  30.382  1.00  0.00     0.031 C 
ATOM     62  C   UNL A   1      41.879  31.745  30.542  1.00  0.00     0.029 A 
ATOM     63  C   UNL A   1      42.908  30.835  30.359  1.00  0.00     0.049 A 
ATOM     64  H   UNL A   1      42.825  28.869  29.598  1.00  0.00     0.167 HD
ATOM     65  C   UNL A   1      45.258  30.053  30.437  1.00  0.00     0.074 A 
ATOM     66  C   UNL A   1      46.667  30.235  30.722  1.00  0.00     0.031 C 
ATOM     67  C   UNL A   1      44.311  31.002  30.638  1.00  0.00     0.031 A 
BRANCH  54  68
ATOM     68  C   UNL A   1      38.612  29.252  29.015  1.00  0.00    -0.014 A 
ATOM     69  C   UNL A   1      37.716  29.149  30.092  1.00  0.00     0.009 A 
ATOM     70  C   UNL A   1      38.142  29.748  27.789  1.00  0.00     0.009 A 
ATOM     71  C   UNL A   1      36.374  29.498  29.933  1.00  0.00     0.001 A 
ATOM     72  C   UNL A   1      36.806  30.127  27.642  1.00  0.00     0.001 A 
ATOM     73  C   UNL A   1      35.922  29.992  28.710  1.00  0.00     0.000 A 
ENDBRANCH  54  68
BRANCH  55  74
ATOM     74  C   UNL A   1      48.181  26.467  29.606  1.00  0.00    -0.014 A 
ATOM     75  C   UNL A   1      48.695  25.876  30.770  1.00  0.00     0.009 A 
ATOM     76  C   UNL A   1      49.044  26.687  28.520  1.00  0.00     0.009 A 
ATOM     77  C   UNL A   1      50.048  25.540  30.857  1.00  0.00     0.001 A 
ATOM     78  C   UNL A   1      50.390  26.321  28.598  1.00  0.00     0.001 A 
ATOM     79  C   UNL A   1      50.892  25.759  29.770  1.00  0.00     0.000 A 
ENDBRANCH  55  74
BRANCH  67  80
ATOM     80  C   UNL A   1      44.758  32.308  31.232  1.00  0.00    -0.014 A 
ATOM     81  C   UNL A   1      44.773  32.515  32.620  1.00  0.00     0.009 A 
ATOM     82  C   UNL A   1      45.213  33.332  30.387  1.00  0.00     0.009 A 
ATOM     83  C   UNL A   1      45.205  33.733  33.147  1.00  0.00     0.001 A 
ATOM     84  C   UNL A   1      45.674  34.538  30.918  1.00  0.00     0.001 A 
ATOM     85  C   UNL A   1      45.660  34.741  32.297  1.00  0.00     0.000 A 
ENDBRANCH  67  80
ENDBRANCH  41  42
ENDBRANCH  33  36
ENDBRANCH  31  32
ENDBRANCH  30  31
ENDBRANCH  29  30
ENDBRANCH  28  29
ENDBRANCH   1  28
TORSDOF 17
ENDMDL
