MODEL 1
REMARK VINA RESULT:     -11.1      0.000      0.000
REMARK SMILES COc1cccc([C@H]2C=C(C(=O)NCCCCCCNC(=O)c3ccc(-c4c5nc(c(-c6ccccc6)c6ccc([nH]6)c(-c6ccccc6)c6nc(c(-c7ccccc7)c7ccc4[nH]7)C=C6)C=C5)cc3)Nc3nnnn32)c1OC
REMARK SMILES IDX 16 1 15 2 14 3 13 4 11 5 12 6 10 8 8 9 9 10 76 11 72 12
REMARK SMILES IDX 75 13 71 14 73 15 74 16 7 18 3 19 4 20 77 21 5 22 6 23 2 24
REMARK SMILES IDX 1 25 78 26 79 27 17 28 18 29 19 30 20 31 21 32 22 34 23 35
REMARK SMILES IDX 24 36 70 37 25 38 69 39 26 40 27 41 28 42 63 43 29 44 68 45
REMARK SMILES IDX 62 46 64 47 30 48 67 49 61 50 60 51 31 53 53 54 38 55 52 56
REMARK SMILES IDX 39 57 42 58 51 59 65 60 40 61 41 62 50 64 66 65 43 66 32 67
REMARK SMILES IDX 33 68 37 69 34 70 36 71 35 72 54 73 55 74 59 75 56 76 58 77
REMARK SMILES IDX 57 78 44 79 45 80 49 81 46 82 48 83 47 84
REMARK H PARENT 13 7 71 17 20 33 64 52 42 63
REMARK Flexibility Score: inf
ROOT
ATOM      1  C   UNL A   1      34.308  20.908  24.716  1.00  0.00     0.002 C 
ENDROOT
BRANCH   1   2
ATOM      2  C   UNL A   1      33.566  20.578  26.008  1.00  0.00     0.021 C 
BRANCH   2   3
ATOM      3  C   UNL A   1      33.675  21.601  27.130  1.00  0.00     0.116 C 
BRANCH   3   4
ATOM      4  N   UNL A   1      32.415  22.210  27.495  1.00  0.00    -0.351 N 
ATOM      5  C   UNL A   1      31.720  23.246  26.949  1.00  0.00     0.267 C 
ATOM      6  O   UNL A   1      30.675  23.605  27.500  1.00  0.00    -0.268 OA
ATOM      7  H   UNL A   1      31.982  21.803  28.279  1.00  0.00     0.163 HD
BRANCH   5   8
ATOM      8  C   UNL A   1      32.200  24.025  25.747  1.00  0.00     0.105 C 
ATOM      9  C   UNL A   1      33.350  25.870  24.516  1.00  0.00     0.172 C 
ATOM     10  C   UNL A   1      33.039  25.080  25.784  1.00  0.00     0.037 C 
ATOM     11  N   UNL A   1      33.243  24.973  23.373  1.00  0.00    -0.200 N 
ATOM     12  C   UNL A   1      32.467  23.845  23.370  1.00  0.00     0.248 A 
ATOM     13  N   UNL A   1      33.999  25.029  22.265  1.00  0.00    -0.043 NA
ATOM     14  N   UNL A   1      31.833  23.495  24.508  1.00  0.00    -0.319 N 
ATOM     15  N   UNL A   1      32.602  23.273  22.197  1.00  0.00    -0.090 NA
ATOM     16  N   UNL A   1      33.560  24.015  21.524  1.00  0.00    -0.022 NA
ATOM     17  H   UNL A   1      31.090  22.849  24.464  1.00  0.00     0.170 HD
BRANCH   9  18
ATOM     18  C   UNL A   1      32.489  27.155  24.437  1.00  0.00     0.027 A 
ATOM     19  C   UNL A   1      31.855  29.427  25.092  1.00  0.00     0.161 A 
ATOM     20  C   UNL A   1      30.673  29.326  24.357  1.00  0.00     0.050 A 
ATOM     21  C   UNL A   1      32.785  28.370  25.103  1.00  0.00     0.166 A 
ATOM     22  C   UNL A   1      30.405  28.174  23.627  1.00  0.00     0.004 A 
ATOM     23  C   UNL A   1      31.283  27.091  23.694  1.00  0.00     0.010 A 
BRANCH  19  24
ATOM     24  O   UNL A   1      31.989  30.523  25.903  1.00  0.00    -0.493 OA
ATOM     25  C   UNL A   1      30.949  31.479  25.729  1.00  0.00     0.278 C 
ENDBRANCH  19  24
BRANCH  21  26
ATOM     26  O   UNL A   1      34.049  28.489  25.605  1.00  0.00    -0.492 OA
ATOM     27  C   UNL A   1      34.244  28.548  27.009  1.00  0.00     0.278 C 
ENDBRANCH  21  26
ENDBRANCH   9  18
ENDBRANCH   5   8
ENDBRANCH   3   4
ENDBRANCH   2   3
ENDBRANCH   1   2
BRANCH   1  28
ATOM     28  C   UNL A   1      35.748  21.403  24.872  1.00  0.00     0.002 C 
BRANCH  28  29
ATOM     29  C   UNL A   1      36.006  22.864  24.495  1.00  0.00     0.021 C 
BRANCH  29  30
ATOM     30  C   UNL A   1      37.129  23.556  25.258  1.00  0.00     0.116 C 
BRANCH  30  31
ATOM     31  N   UNL A   1      38.245  22.671  25.535  1.00  0.00    -0.352 N 
ATOM     32  C   UNL A   1      39.442  22.938  26.152  1.00  0.00     0.251 C 
ATOM     33  H   UNL A   1      38.126  21.741  25.236  1.00  0.00     0.163 HD
ATOM     34  O   UNL A   1      40.335  22.100  26.150  1.00  0.00    -0.269 OA
BRANCH  32  35
ATOM     35  C   UNL A   1      39.667  24.251  26.798  1.00  0.00     0.039 A 
ATOM     36  C   UNL A   1      39.165  24.458  28.086  1.00  0.00     0.014 A 
ATOM     37  C   UNL A   1      40.351  25.276  26.141  1.00  0.00     0.014 A 
ATOM     38  C   UNL A   1      39.402  25.670  28.736  1.00  0.00     0.010 A 
ATOM     39  C   UNL A   1      40.649  26.458  26.817  1.00  0.00     0.010 A 
ATOM     40  C   UNL A   1      40.177  26.668  28.122  1.00  0.00    -0.014 A 
BRANCH  40  41
ATOM     41  C   UNL A   1      40.510  27.927  28.836  1.00  0.00     0.031 A 
ATOM     42  C   UNL A   1      41.832  28.079  29.539  1.00  0.00     0.074 A 
ATOM     43  C   UNL A   1      39.593  28.914  28.904  1.00  0.00     0.049 A 
ATOM     44  N   UNL A   1      42.274  29.083  30.255  1.00  0.00    -0.248 NA
ATOM     45  C   UNL A   1      42.771  26.950  29.447  1.00  0.00     0.031 C 
ATOM     46  C   UNL A   1      38.257  28.874  28.304  1.00  0.00     0.029 A 
ATOM     47  N   UNL A   1      39.642  30.142  29.517  1.00  0.00    -0.354 N 
ATOM     48  C   UNL A   1      43.527  28.698  30.713  1.00  0.00     0.074 A 
ATOM     49  C   UNL A   1      43.762  27.356  30.230  1.00  0.00     0.031 C 
ATOM     50  C   UNL A   1      37.623  30.029  28.562  1.00  0.00     0.029 A 
ATOM     51  C   UNL A   1      38.486  30.873  29.380  1.00  0.00     0.049 A 
ATOM     52  H   UNL A   1      40.431  30.467  30.009  1.00  0.00     0.167 HD
ATOM     53  C   UNL A   1      44.410  29.405  31.458  1.00  0.00     0.031 A 
ATOM     54  C   UNL A   1      38.152  32.082  29.871  1.00  0.00     0.031 A 
ATOM     55  C   UNL A   1      44.187  30.749  31.920  1.00  0.00     0.049 A 
ATOM     56  C   UNL A   1      39.153  32.842  30.699  1.00  0.00     0.074 A 
ATOM     57  C   UNL A   1      45.055  31.574  32.614  1.00  0.00     0.029 A 
ATOM     58  N   UNL A   1      43.011  31.462  31.745  1.00  0.00    -0.354 N 
ATOM     59  N   UNL A   1      40.370  32.497  31.044  1.00  0.00    -0.248 NA
ATOM     60  C   UNL A   1      38.739  34.162  31.192  1.00  0.00     0.031 C 
ATOM     61  C   UNL A   1      44.383  32.762  32.915  1.00  0.00     0.029 A 
ATOM     62  C   UNL A   1      43.119  32.702  32.349  1.00  0.00     0.049 A 
ATOM     63  H   UNL A   1      42.218  31.134  31.262  1.00  0.00     0.167 HD
ATOM     64  C   UNL A   1      40.875  33.570  31.769  1.00  0.00     0.074 A 
ATOM     65  C   UNL A   1      39.841  34.584  31.795  1.00  0.00     0.031 C 
ATOM     66  C   UNL A   1      42.085  33.703  32.363  1.00  0.00     0.031 A 
BRANCH  53  67
ATOM     67  C   UNL A   1      45.706  28.742  31.836  1.00  0.00    -0.014 A 
ATOM     68  C   UNL A   1      45.802  27.915  32.966  1.00  0.00     0.009 A 
ATOM     69  C   UNL A   1      46.825  28.883  31.000  1.00  0.00     0.009 A 
ATOM     70  C   UNL A   1      47.000  27.261  33.263  1.00  0.00     0.001 A 
ATOM     71  C   UNL A   1      48.013  28.205  31.284  1.00  0.00     0.001 A 
ATOM     72  C   UNL A   1      48.101  27.401  32.418  1.00  0.00     0.000 A 
ENDBRANCH  53  67
BRANCH  54  73
ATOM     73  C   UNL A   1      36.803  32.653  29.612  1.00  0.00    -0.014 A 
ATOM     74  C   UNL A   1      36.574  33.485  28.505  1.00  0.00     0.009 A 
ATOM     75  C   UNL A   1      35.743  32.398  30.496  1.00  0.00     0.009 A 
ATOM     76  C   UNL A   1      35.325  34.083  28.314  1.00  0.00     0.001 A 
ATOM     77  C   UNL A   1      34.486  32.969  30.283  1.00  0.00     0.001 A 
ATOM     78  C   UNL A   1      34.282  33.822  29.200  1.00  0.00     0.000 A 
ENDBRANCH  54  73
BRANCH  66  79
ATOM     79  C   UNL A   1      42.374  35.004  33.058  1.00  0.00    -0.014 A 
ATOM     80  C   UNL A   1      41.903  35.262  34.355  1.00  0.00     0.009 A 
ATOM     81  C   UNL A   1      43.165  35.971  32.417  1.00  0.00     0.009 A 
ATOM     82  C   UNL A   1      42.189  36.477  34.981  1.00  0.00     0.001 A 
ATOM     83  C   UNL A   1      43.478  37.170  33.058  1.00  0.00     0.001 A 
ATOM     84  C   UNL A   1      42.981  37.426  34.334  1.00  0.00     0.000 A 
ENDBRANCH  66  79
ENDBRANCH  40  41
ENDBRANCH  32  35
ENDBRANCH  30  31
ENDBRANCH  29  30
ENDBRANCH  28  29
ENDBRANCH   1  28
TORSDOF 16
ENDMDL
MODEL 2
REMARK VINA RESULT:     -11.1      2.551      6.716
REMARK SMILES COc1cccc([C@H]2C=C(C(=O)NCCCCCCNC(=O)c3ccc(-c4c5nc(c(-c6ccccc6)c6ccc([nH]6)c(-c6ccccc6)c6nc(c(-c7ccccc7)c7ccc4[nH]7)C=C6)C=C5)cc3)Nc3nnnn32)c1OC
REMARK SMILES IDX 16 1 15 2 14 3 13 4 11 5 12 6 10 8 8 9 9 10 76 11 72 12
REMARK SMILES IDX 75 13 71 14 73 15 74 16 7 18 3 19 4 20 77 21 5 22 6 23 2 24
REMARK SMILES IDX 1 25 78 26 79 27 17 28 18 29 19 30 20 31 21 32 22 34 23 35
REMARK SMILES IDX 24 36 70 37 25 38 69 39 26 40 27 41 28 42 63 43 29 44 68 45
REMARK SMILES IDX 62 46 64 47 30 48 67 49 61 50 60 51 31 53 53 54 38 55 52 56
REMARK SMILES IDX 39 57 42 58 51 59 65 60 40 61 41 62 50 64 66 65 43 66 32 67
REMARK SMILES IDX 33 68 37 69 34 70 36 71 35 72 54 73 55 74 59 75 56 76 58 77
REMARK SMILES IDX 57 78 44 79 45 80 49 81 46 82 48 83 47 84
REMARK H PARENT 13 7 71 17 20 33 64 52 42 63
REMARK Flexibility Score: inf
ROOT
ATOM      1  C   UNL A   1      35.491  21.187  25.265  1.00  0.00     0.002 C 
ENDROOT
BRANCH   1   2
ATOM      2  C   UNL A   1      34.217  21.009  26.086  1.00  0.00     0.021 C 
BRANCH   2   3
ATOM      3  C   UNL A   1      34.011  21.989  27.232  1.00  0.00     0.116 C 
BRANCH   3   4
ATOM      4  N   UNL A   1      32.622  22.252  27.539  1.00  0.00    -0.351 N 
ATOM      5  C   UNL A   1      31.669  22.965  26.877  1.00  0.00     0.267 C 
ATOM      6  O   UNL A   1      30.555  23.076  27.397  1.00  0.00    -0.268 OA
ATOM      7  H   UNL A   1      32.309  21.841  28.377  1.00  0.00     0.163 HD
BRANCH   5   8
ATOM      8  C   UNL A   1      31.928  23.688  25.577  1.00  0.00     0.105 C 
ATOM      9  C   UNL A   1      32.413  25.636  24.089  1.00  0.00     0.172 C 
ATOM     10  C   UNL A   1      32.308  24.978  25.462  1.00  0.00     0.037 C 
ATOM     11  N   UNL A   1      32.748  24.614  23.108  1.00  0.00    -0.200 N 
ATOM     12  C   UNL A   1      32.452  23.287  23.270  1.00  0.00     0.248 A 
ATOM     13  N   UNL A   1      33.524  24.795  22.027  1.00  0.00    -0.043 NA
ATOM     14  N   UNL A   1      31.896  22.888  24.433  1.00  0.00    -0.319 N 
ATOM     15  N   UNL A   1      32.893  22.648  22.212  1.00  0.00    -0.090 NA
ATOM     16  N   UNL A   1      33.562  23.596  21.452  1.00  0.00    -0.022 NA
ATOM     17  H   UNL A   1      31.454  22.008  24.476  1.00  0.00     0.170 HD
BRANCH   9  18
ATOM     18  C   UNL A   1      31.146  26.470  23.775  1.00  0.00     0.027 A 
ATOM     19  C   UNL A   1      29.948  28.523  23.186  1.00  0.00     0.161 A 
ATOM     20  C   UNL A   1      28.728  27.913  23.479  1.00  0.00     0.050 A 
ATOM     21  C   UNL A   1      31.153  27.801  23.288  1.00  0.00     0.166 A 
ATOM     22  C   UNL A   1      28.693  26.582  23.876  1.00  0.00     0.004 A 
ATOM     23  C   UNL A   1      29.887  25.881  24.055  1.00  0.00     0.010 A 
BRANCH  19  24
ATOM     24  O   UNL A   1      29.925  29.871  22.944  1.00  0.00    -0.493 OA
ATOM     25  C   UNL A   1      29.499  30.197  21.626  1.00  0.00     0.278 C 
ENDBRANCH  19  24
BRANCH  21  26
ATOM     26  O   UNL A   1      32.345  28.258  22.802  1.00  0.00    -0.492 OA
ATOM     27  C   UNL A   1      33.228  28.964  23.659  1.00  0.00     0.278 C 
ENDBRANCH  21  26
ENDBRANCH   9  18
ENDBRANCH   5   8
ENDBRANCH   3   4
ENDBRANCH   2   3
ENDBRANCH   1   2
BRANCH   1  28
ATOM     28  C   UNL A   1      36.307  19.919  25.001  1.00  0.00     0.002 C 
BRANCH  28  29
ATOM     29  C   UNL A   1      37.770  20.126  24.602  1.00  0.00     0.021 C 
BRANCH  29  30
ATOM     30  C   UNL A   1      38.745  20.340  25.754  1.00  0.00     0.116 C 
BRANCH  30  31
ATOM     31  N   UNL A   1      39.809  19.354  25.776  1.00  0.00    -0.352 N 
ATOM     32  C   UNL A   1      41.144  19.513  26.056  1.00  0.00     0.251 C 
ATOM     33  H   UNL A   1      39.533  18.435  25.558  1.00  0.00     0.163 HD
ATOM     34  O   UNL A   1      41.926  18.590  25.863  1.00  0.00    -0.269 OA
BRANCH  32  35
ATOM     35  C   UNL A   1      41.647  20.808  26.566  1.00  0.00     0.039 A 
ATOM     36  C   UNL A   1      42.071  21.771  25.645  1.00  0.00     0.014 A 
ATOM     37  C   UNL A   1      41.717  21.072  27.936  1.00  0.00     0.014 A 
ATOM     38  C   UNL A   1      42.508  23.017  26.097  1.00  0.00     0.010 A 
ATOM     39  C   UNL A   1      42.083  22.340  28.382  1.00  0.00     0.010 A 
ATOM     40  C   UNL A   1      42.484  23.326  27.467  1.00  0.00    -0.014 A 
BRANCH  40  41
ATOM     41  C   UNL A   1      42.862  24.678  27.954  1.00  0.00     0.031 A 
ATOM     42  C   UNL A   1      41.807  25.719  28.215  1.00  0.00     0.074 A 
ATOM     43  C   UNL A   1      44.166  24.988  28.102  1.00  0.00     0.049 A 
ATOM     44  N   UNL A   1      41.953  26.964  28.591  1.00  0.00    -0.248 NA
ATOM     45  C   UNL A   1      40.407  25.318  28.003  1.00  0.00     0.031 C 
ATOM     46  C   UNL A   1      45.290  24.085  27.840  1.00  0.00     0.029 A 
ATOM     47  N   UNL A   1      44.770  26.156  28.502  1.00  0.00    -0.354 N 
ATOM     48  C   UNL A   1      40.672  27.497  28.641  1.00  0.00     0.074 A 
ATOM     49  C   UNL A   1      39.762  26.457  28.218  1.00  0.00     0.031 C 
ATOM     50  C   UNL A   1      46.440  24.724  28.103  1.00  0.00     0.029 A 
ATOM     51  C   UNL A   1      46.142  26.092  28.511  1.00  0.00     0.049 A 
ATOM     52  H   UNL A   1      44.265  26.962  28.758  1.00  0.00     0.167 HD
ATOM     53  C   UNL A   1      40.286  28.740  29.018  1.00  0.00     0.031 A 
ATOM     54  C   UNL A   1      47.060  27.035  28.800  1.00  0.00     0.031 A 
ATOM     55  C   UNL A   1      41.189  29.770  29.460  1.00  0.00     0.049 A 
ATOM     56  C   UNL A   1      46.600  28.407  29.212  1.00  0.00     0.074 A 
ATOM     57  C   UNL A   1      40.884  31.033  29.936  1.00  0.00     0.029 A 
ATOM     58  N   UNL A   1      42.570  29.660  29.472  1.00  0.00    -0.354 N 
ATOM     59  N   UNL A   1      45.379  28.864  29.341  1.00  0.00    -0.248 NA
ATOM     60  C   UNL A   1      47.647  29.388  29.531  1.00  0.00     0.031 C 
ATOM     61  C   UNL A   1      42.082  31.711  30.176  1.00  0.00     0.029 A 
ATOM     62  C   UNL A   1      43.132  30.846  29.913  1.00  0.00     0.049 A 
ATOM     63  H   UNL A   1      43.076  28.858  29.207  1.00  0.00     0.167 HD
ATOM     64  C   UNL A   1      45.511  30.175  29.784  1.00  0.00     0.074 A 
ATOM     65  C   UNL A   1      46.929  30.431  29.922  1.00  0.00     0.031 C 
ATOM     66  C   UNL A   1      44.544  31.086  30.050  1.00  0.00     0.031 A 
BRANCH  53  67
ATOM     67  C   UNL A   1      38.820  29.071  28.964  1.00  0.00    -0.014 A 
ATOM     68  C   UNL A   1      38.004  28.965  30.100  1.00  0.00     0.009 A 
ATOM     69  C   UNL A   1      38.268  29.576  27.775  1.00  0.00     0.009 A 
ATOM     70  C   UNL A   1      36.658  29.336  30.041  1.00  0.00     0.001 A 
ATOM     71  C   UNL A   1      36.930  29.973  27.727  1.00  0.00     0.001 A 
ATOM     72  C   UNL A   1      36.126  29.847  28.858  1.00  0.00     0.000 A 
ENDBRANCH  53  67
BRANCH  54  73
ATOM     73  C   UNL A   1      48.513  26.727  28.696  1.00  0.00    -0.014 A 
ATOM     74  C   UNL A   1      49.222  26.993  27.515  1.00  0.00     0.009 A 
ATOM     75  C   UNL A   1      49.189  26.129  29.771  1.00  0.00     0.009 A 
ATOM     76  C   UNL A   1      50.566  26.626  27.398  1.00  0.00     0.001 A 
ATOM     77  C   UNL A   1      50.541  25.796  29.663  1.00  0.00     0.001 A 
ATOM     78  C   UNL A   1      51.224  26.031  28.472  1.00  0.00     0.000 A 
ENDBRANCH  54  73
BRANCH  66  79
ATOM     79  C   UNL A   1      44.983  32.432  30.555  1.00  0.00    -0.014 A 
ATOM     80  C   UNL A   1      45.202  32.665  31.922  1.00  0.00     0.009 A 
ATOM     81  C   UNL A   1      45.220  33.471  29.641  1.00  0.00     0.009 A 
ATOM     82  C   UNL A   1      45.614  33.923  32.366  1.00  0.00     0.001 A 
ATOM     83  C   UNL A   1      45.665  34.717  30.084  1.00  0.00     0.001 A 
ATOM     84  C   UNL A   1      45.850  34.945  31.446  1.00  0.00     0.000 A 
ENDBRANCH  66  79
ENDBRANCH  40  41
ENDBRANCH  32  35
ENDBRANCH  30  31
ENDBRANCH  29  30
ENDBRANCH  28  29
ENDBRANCH   1  28
TORSDOF 16
ENDMDL
MODEL 3
REMARK VINA RESULT:     -11.0      2.489      8.097
REMARK SMILES COc1cccc([C@H]2C=C(C(=O)NCCCCCCNC(=O)c3ccc(-c4c5nc(c(-c6ccccc6)c6ccc([nH]6)c(-c6ccccc6)c6nc(c(-c7ccccc7)c7ccc4[nH]7)C=C6)C=C5)cc3)Nc3nnnn32)c1OC
REMARK SMILES IDX 16 1 15 2 14 3 13 4 11 5 12 6 10 8 8 9 9 10 76 11 72 12
REMARK SMILES IDX 75 13 71 14 73 15 74 16 7 18 3 19 4 20 77 21 5 22 6 23 2 24
REMARK SMILES IDX 1 25 78 26 79 27 17 28 18 29 19 30 20 31 21 32 22 34 23 35
REMARK SMILES IDX 24 36 70 37 25 38 69 39 26 40 27 41 28 42 63 43 29 44 68 45
REMARK SMILES IDX 62 46 64 47 30 48 67 49 61 50 60 51 31 53 53 54 38 55 52 56
REMARK SMILES IDX 39 57 42 58 51 59 65 60 40 61 41 62 50 64 66 65 43 66 32 67
REMARK SMILES IDX 33 68 37 69 34 70 36 71 35 72 54 73 55 74 59 75 56 76 58 77
REMARK SMILES IDX 57 78 44 79 45 80 49 81 46 82 48 83 47 84
REMARK H PARENT 13 7 71 17 20 33 64 52 42 63
REMARK Flexibility Score: inf
ROOT
ATOM      1  C   UNL A   1      31.595  29.269  24.973  1.00  0.00     0.002 C 
ENDROOT
BRANCH   1   2
ATOM      2  C   UNL A   1      31.707  28.879  23.501  1.00  0.00     0.021 C 
BRANCH   2   3
ATOM      3  C   UNL A   1      33.117  28.738  22.946  1.00  0.00     0.116 C 
BRANCH   3   4
ATOM      4  N   UNL A   1      33.249  27.720  21.927  1.00  0.00    -0.351 N 
ATOM      5  C   UNL A   1      33.234  26.360  21.999  1.00  0.00     0.267 C 
ATOM      6  O   UNL A   1      33.425  25.717  20.963  1.00  0.00    -0.268 OA
ATOM      7  H   UNL A   1      33.371  28.074  21.017  1.00  0.00     0.163 HD
BRANCH   5   8
ATOM      8  C   UNL A   1      33.068  25.601  23.294  1.00  0.00     0.105 C 
ATOM      9  C   UNL A   1      33.783  24.522  25.431  1.00  0.00     0.172 C 
ATOM     10  C   UNL A   1      34.030  25.420  24.222  1.00  0.00     0.037 C 
ATOM     11  N   UNL A   1      32.362  24.551  25.748  1.00  0.00    -0.200 N 
ATOM     12  C   UNL A   1      31.389  24.834  24.827  1.00  0.00     0.248 A 
ATOM     13  N   UNL A   1      31.837  24.481  26.982  1.00  0.00    -0.043 NA
ATOM     14  N   UNL A   1      31.765  25.187  23.580  1.00  0.00    -0.319 N 
ATOM     15  N   UNL A   1      30.231  24.780  25.442  1.00  0.00    -0.090 NA
ATOM     16  N   UNL A   1      30.525  24.566  26.779  1.00  0.00    -0.022 NA
ATOM     17  H   UNL A   1      31.103  25.151  22.851  1.00  0.00     0.170 HD
BRANCH   9  18
ATOM     18  C   UNL A   1      34.387  23.113  25.209  1.00  0.00     0.027 A 
ATOM     19  C   UNL A   1      34.278  20.730  24.654  1.00  0.00     0.161 A 
ATOM     20  C   UNL A   1      35.590  20.552  25.095  1.00  0.00     0.050 A 
ATOM     21  C   UNL A   1      33.685  22.008  24.666  1.00  0.00     0.166 A 
ATOM     22  C   UNL A   1      36.324  21.640  25.552  1.00  0.00     0.004 A 
ATOM     23  C   UNL A   1      35.719  22.896  25.640  1.00  0.00     0.010 A 
BRANCH  19  24
ATOM     24  O   UNL A   1      33.565  19.599  24.357  1.00  0.00    -0.493 OA
ATOM     25  C   UNL A   1      34.332  18.407  24.472  1.00  0.00     0.278 C 
ENDBRANCH  19  24
BRANCH  21  26
ATOM     26  O   UNL A   1      32.503  22.292  24.043  1.00  0.00    -0.492 OA
ATOM     27  C   UNL A   1      32.366  22.046  22.653  1.00  0.00     0.278 C 
ENDBRANCH  21  26
ENDBRANCH   9  18
ENDBRANCH   5   8
ENDBRANCH   3   4
ENDBRANCH   2   3
ENDBRANCH   1   2
BRANCH   1  28
ATOM     28  C   UNL A   1      31.559  28.115  25.977  1.00  0.00     0.002 C 
BRANCH  28  29
ATOM     29  C   UNL A   1      32.613  28.150  27.086  1.00  0.00     0.021 C 
BRANCH  29  30
ATOM     30  C   UNL A   1      33.828  29.031  26.817  1.00  0.00     0.116 C 
BRANCH  30  31
ATOM     31  N   UNL A   1      33.758  30.307  27.503  1.00  0.00    -0.352 N 
ATOM     32  C   UNL A   1      34.660  30.893  28.356  1.00  0.00     0.251 C 
ATOM     33  H   UNL A   1      32.941  30.830  27.332  1.00  0.00     0.163 HD
ATOM     34  O   UNL A   1      34.353  31.907  28.973  1.00  0.00    -0.269 OA
BRANCH  32  35
ATOM     35  C   UNL A   1      35.996  30.288  28.554  1.00  0.00     0.039 A 
ATOM     36  C   UNL A   1      36.918  30.344  27.506  1.00  0.00     0.014 A 
ATOM     37  C   UNL A   1      36.336  29.656  29.752  1.00  0.00     0.014 A 
ATOM     38  C   UNL A   1      38.200  29.821  27.681  1.00  0.00     0.010 A 
ATOM     39  C   UNL A   1      37.638  29.199  29.952  1.00  0.00     0.010 A 
ATOM     40  C   UNL A   1      38.583  29.276  28.918  1.00  0.00    -0.014 A 
BRANCH  40  41
ATOM     41  C   UNL A   1      39.970  28.795  29.145  1.00  0.00     0.031 A 
ATOM     42  C   UNL A   1      41.009  29.712  29.734  1.00  0.00     0.074 A 
ATOM     43  C   UNL A   1      40.312  27.547  28.764  1.00  0.00     0.049 A 
ATOM     44  N   UNL A   1      42.279  29.483  29.955  1.00  0.00    -0.248 NA
ATOM     45  C   UNL A   1      40.572  31.069  30.099  1.00  0.00     0.031 C 
ATOM     46  C   UNL A   1      39.411  26.574  28.141  1.00  0.00     0.029 A 
ATOM     47  N   UNL A   1      41.513  26.885  28.836  1.00  0.00    -0.354 N 
ATOM     48  C   UNL A   1      42.794  30.669  30.464  1.00  0.00     0.074 A 
ATOM     49  C   UNL A   1      41.712  31.628  30.482  1.00  0.00     0.031 C 
ATOM     50  C   UNL A   1      40.085  25.437  27.905  1.00  0.00     0.029 A 
ATOM     51  C   UNL A   1      41.472  25.612  28.320  1.00  0.00     0.049 A 
ATOM     52  H   UNL A   1      42.326  27.285  29.221  1.00  0.00     0.167 HD
ATOM     53  C   UNL A   1      44.052  30.931  30.890  1.00  0.00     0.031 A 
ATOM     54  C   UNL A   1      42.447  24.693  28.181  1.00  0.00     0.031 A 
ATOM     55  C   UNL A   1      45.124  29.971  30.893  1.00  0.00     0.049 A 
ATOM     56  C   UNL A   1      43.836  25.015  28.661  1.00  0.00     0.074 A 
ATOM     57  C   UNL A   1      46.411  30.122  31.380  1.00  0.00     0.029 A 
ATOM     58  N   UNL A   1      45.037  28.687  30.380  1.00  0.00    -0.354 N 
ATOM     59  N   UNL A   1      44.281  26.112  29.224  1.00  0.00    -0.248 NA
ATOM     60  C   UNL A   1      44.853  23.967  28.498  1.00  0.00     0.031 C 
ATOM     61  C   UNL A   1      47.123  28.952  31.102  1.00  0.00     0.029 A 
ATOM     62  C   UNL A   1      46.259  28.048  30.505  1.00  0.00     0.049 A 
ATOM     63  H   UNL A   1      44.228  28.288  29.986  1.00  0.00     0.167 HD
ATOM     64  C   UNL A   1      45.620  25.874  29.509  1.00  0.00     0.074 A 
ATOM     65  C   UNL A   1      45.908  24.523  29.076  1.00  0.00     0.031 C 
ATOM     66  C   UNL A   1      46.531  26.701  30.075  1.00  0.00     0.031 A 
BRANCH  53  67
ATOM     67  C   UNL A   1      44.355  32.318  31.386  1.00  0.00    -0.014 A 
ATOM     68  C   UNL A   1      44.777  33.332  30.511  1.00  0.00     0.009 A 
ATOM     69  C   UNL A   1      44.136  32.635  32.736  1.00  0.00     0.009 A 
ATOM     70  C   UNL A   1      44.994  34.628  30.984  1.00  0.00     0.001 A 
ATOM     71  C   UNL A   1      44.325  33.938  33.200  1.00  0.00     0.001 A 
ATOM     72  C   UNL A   1      44.760  34.932  32.325  1.00  0.00     0.000 A 
ENDBRANCH  53  67
BRANCH  54  73
ATOM     73  C   UNL A   1      42.157  23.379  27.544  1.00  0.00    -0.014 A 
ATOM     74  C   UNL A   1      41.500  22.364  28.256  1.00  0.00     0.009 A 
ATOM     75  C   UNL A   1      42.573  23.121  26.228  1.00  0.00     0.009 A 
ATOM     76  C   UNL A   1      41.304  21.106  27.679  1.00  0.00     0.001 A 
ATOM     77  C   UNL A   1      42.345  21.874  25.642  1.00  0.00     0.001 A 
ATOM     78  C   UNL A   1      41.724  20.863  26.373  1.00  0.00     0.000 A 
ENDBRANCH  54  73
BRANCH  66  79
ATOM     79  C   UNL A   1      47.915  26.158  30.296  1.00  0.00    -0.014 A 
ATOM     80  C   UNL A   1      48.865  26.130  29.263  1.00  0.00     0.009 A 
ATOM     81  C   UNL A   1      48.284  25.703  31.572  1.00  0.00     0.009 A 
ATOM     82  C   UNL A   1      50.145  25.624  29.495  1.00  0.00     0.001 A 
ATOM     83  C   UNL A   1      49.574  25.230  31.810  1.00  0.00     0.001 A 
ATOM     84  C   UNL A   1      50.500  25.180  30.769  1.00  0.00     0.000 A 
ENDBRANCH  66  79
ENDBRANCH  40  41
ENDBRANCH  32  35
ENDBRANCH  30  31
ENDBRANCH  29  30
ENDBRANCH  28  29
ENDBRANCH   1  28
TORSDOF 16
ENDMDL
