MODEL 1
REMARK VINA RESULT:     -11.6      0.000      0.000
REMARK SMILES CCc1cccc(C)c1Nc1ccccc1CC(=O)NCCCCCCNC(=O)c1ccc(-c2c3nc(c(-c4ccccc4)c4ccc([nH]4)c(-c4ccccc4)c4nc(c(-c5ccccc5)c5ccc2[nH]5)C=C4)C=C3)cc1
REMARK SMILES IDX 22 1 21 2 20 3 18 4 19 5 17 7 16 8 11 9 12 10 13 11 15 12
REMARK SMILES IDX 14 13 10 14 9 16 3 17 4 18 5 19 7 20 6 21 8 22 2 23 1 24
REMARK SMILES IDX 23 25 24 26 25 27 26 28 27 29 28 30 29 32 30 33 31 34 77 35
REMARK SMILES IDX 32 36 76 37 33 38 34 39 35 40 70 41 36 42 75 43 69 44 71 45
REMARK SMILES IDX 37 46 74 47 68 48 67 49 38 51 60 52 45 53 59 54 46 55 49 56
REMARK SMILES IDX 58 57 72 58 47 59 48 60 57 62 73 63 50 64 39 65 40 66 44 67
REMARK SMILES IDX 41 68 43 69 42 70 61 71 62 72 66 73 63 74 65 75 64 76 51 77
REMARK SMILES IDX 52 78 56 79 53 80 55 81 54 82
REMARK H PARENT 20 6 10 15 27 31 71 50 49 61
REMARK Flexibility Score: inf
ROOT
ATOM      1  C   UNL A   1      31.513  27.202  25.597  1.00  0.00     0.021 C 
ENDROOT
BRANCH   1   2
ATOM      2  C   UNL A   1      30.308  26.309  25.900  1.00  0.00     0.116 C 
BRANCH   2   3
ATOM      3  N   UNL A   1      30.621  25.179  26.750  1.00  0.00    -0.356 N 
ATOM      4  C   UNL A   1      31.012  23.905  26.469  1.00  0.00     0.224 C 
ATOM      5  O   UNL A   1      31.484  23.259  27.412  1.00  0.00    -0.275 OA
ATOM      6  H   UNL A   1      30.535  25.368  27.713  1.00  0.00     0.163 HD
BRANCH   4   7
ATOM      7  C   UNL A   1      31.043  23.348  25.064  1.00  0.00     0.137 C 
BRANCH   7   8
ATOM      8  C   UNL A   1      32.002  23.953  24.058  1.00  0.00    -0.015 A 
ATOM      9  C   UNL A   1      33.403  24.013  24.235  1.00  0.00     0.042 A 
ATOM     10  C   UNL A   1      34.175  24.714  23.285  1.00  0.00     0.026 A 
ATOM     11  C   UNL A   1      33.595  25.343  22.185  1.00  0.00     0.002 A 
ATOM     12  C   UNL A   1      31.435  24.630  22.954  1.00  0.00     0.006 A 
ATOM     13  C   UNL A   1      32.219  25.304  22.021  1.00  0.00     0.000 A 
BRANCH   9  14
ATOM     14  N   UNL A   1      34.110  23.395  25.290  1.00  0.00    -0.355 N 
ATOM     15  H   UNL A   1      33.894  23.751  26.181  1.00  0.00     0.167 HD
BRANCH  14  16
ATOM     16  C   UNL A   1      35.072  22.358  25.300  1.00  0.00     0.045 A 
ATOM     17  C   UNL A   1      34.676  21.003  25.174  1.00  0.00    -0.024 A 
ATOM     18  C   UNL A   1      35.670  20.026  24.928  1.00  0.00     0.006 A 
ATOM     19  C   UNL A   1      37.021  20.345  24.885  1.00  0.00     0.001 A 
ATOM     20  C   UNL A   1      36.458  22.636  25.431  1.00  0.00    -0.027 A 
ATOM     21  C   UNL A   1      37.415  21.639  25.175  1.00  0.00     0.005 A 
ATOM     22  C   UNL A   1      36.962  23.955  25.948  1.00  0.00     0.046 C 
BRANCH  17  23
ATOM     23  C   UNL A   1      33.272  20.426  25.269  1.00  0.00     0.034 C 
ATOM     24  C   UNL A   1      32.488  20.038  24.025  1.00  0.00     0.009 C 
ENDBRANCH  17  23
ENDBRANCH  14  16
ENDBRANCH   9  14
ENDBRANCH   7   8
ENDBRANCH   4   7
ENDBRANCH   2   3
ENDBRANCH   1   2
BRANCH   1  25
ATOM     25  C   UNL A   1      32.755  26.954  26.469  1.00  0.00     0.002 C 
BRANCH  25  26
ATOM     26  C   UNL A   1      33.912  27.953  26.320  1.00  0.00     0.002 C 
BRANCH  26  27
ATOM     27  C   UNL A   1      34.055  28.978  27.444  1.00  0.00     0.021 C 
BRANCH  27  28
ATOM     28  C   UNL A   1      33.991  30.428  26.982  1.00  0.00     0.116 C 
BRANCH  28  29
ATOM     29  N   UNL A   1      34.552  31.392  27.917  1.00  0.00    -0.352 N 
ATOM     30  C   UNL A   1      35.650  31.289  28.758  1.00  0.00     0.251 C 
ATOM     31  H   UNL A   1      34.076  32.255  27.960  1.00  0.00     0.163 HD
ATOM     32  O   UNL A   1      35.886  32.183  29.551  1.00  0.00    -0.269 OA
BRANCH  30  33
ATOM     33  C   UNL A   1      36.624  30.173  28.593  1.00  0.00     0.039 A 
ATOM     34  C   UNL A   1      36.794  29.299  29.677  1.00  0.00     0.014 A 
ATOM     35  C   UNL A   1      37.490  30.094  27.509  1.00  0.00     0.014 A 
ATOM     36  C   UNL A   1      37.968  28.556  29.787  1.00  0.00     0.010 A 
ATOM     37  C   UNL A   1      38.700  29.449  27.661  1.00  0.00     0.010 A 
ATOM     38  C   UNL A   1      38.964  28.738  28.832  1.00  0.00    -0.014 A 
BRANCH  38  39
ATOM     39  C   UNL A   1      40.343  28.312  29.009  1.00  0.00     0.031 A 
ATOM     40  C   UNL A   1      40.801  27.024  28.462  1.00  0.00     0.074 A 
ATOM     41  C   UNL A   1      41.224  29.129  29.626  1.00  0.00     0.049 A 
ATOM     42  N   UNL A   1      41.830  26.382  28.900  1.00  0.00    -0.248 NA
ATOM     43  C   UNL A   1      40.082  26.311  27.413  1.00  0.00     0.031 C 
ATOM     44  C   UNL A   1      42.680  29.025  29.640  1.00  0.00     0.029 A 
ATOM     45  N   UNL A   1      40.954  30.120  30.553  1.00  0.00    -0.354 N 
ATOM     46  C   UNL A   1      42.089  25.365  28.014  1.00  0.00     0.074 A 
ATOM     47  C   UNL A   1      40.910  25.287  27.185  1.00  0.00     0.031 C 
ATOM     48  C   UNL A   1      43.158  29.734  30.676  1.00  0.00     0.029 A 
ATOM     49  C   UNL A   1      42.019  30.189  31.455  1.00  0.00     0.049 A 
ATOM     50  H   UNL A   1      40.146  30.684  30.573  1.00  0.00     0.167 HD
ATOM     51  C   UNL A   1      43.334  24.811  27.992  1.00  0.00     0.031 A 
ATOM     52  C   UNL A   1      41.834  29.924  32.784  1.00  0.00     0.031 A 
ATOM     53  C   UNL A   1      44.175  25.324  29.076  1.00  0.00     0.049 A 
ATOM     54  C   UNL A   1      42.619  28.729  33.287  1.00  0.00     0.074 A 
ATOM     55  C   UNL A   1      45.213  26.241  29.118  1.00  0.00     0.029 A 
ATOM     56  N   UNL A   1      43.802  25.092  30.394  1.00  0.00    -0.354 N 
ATOM     57  N   UNL A   1      43.161  27.830  32.513  1.00  0.00    -0.248 NA
ATOM     58  C   UNL A   1      42.815  28.427  34.703  1.00  0.00     0.031 C 
ATOM     59  C   UNL A   1      45.435  26.591  30.477  1.00  0.00     0.029 A 
ATOM     60  C   UNL A   1      44.550  25.866  31.257  1.00  0.00     0.049 A 
ATOM     61  H   UNL A   1      43.100  24.461  30.674  1.00  0.00     0.167 HD
ATOM     62  C   UNL A   1      43.745  26.850  33.274  1.00  0.00     0.074 A 
ATOM     63  C   UNL A   1      43.515  27.280  34.641  1.00  0.00     0.031 C 
ATOM     64  C   UNL A   1      44.343  25.764  32.697  1.00  0.00     0.031 A 
BRANCH  51  65
ATOM     65  C   UNL A   1      43.888  24.002  26.839  1.00  0.00    -0.014 A 
ATOM     66  C   UNL A   1      43.211  24.007  25.604  1.00  0.00     0.009 A 
ATOM     67  C   UNL A   1      45.014  23.165  26.907  1.00  0.00     0.009 A 
ATOM     68  C   UNL A   1      43.587  23.173  24.540  1.00  0.00     0.001 A 
ATOM     69  C   UNL A   1      45.389  22.315  25.856  1.00  0.00     0.001 A 
ATOM     70  C   UNL A   1      44.666  22.312  24.674  1.00  0.00     0.000 A 
ENDBRANCH  51  65
BRANCH  52  71
ATOM     71  C   UNL A   1      40.486  30.317  33.282  1.00  0.00    -0.014 A 
ATOM     72  C   UNL A   1      40.217  31.690  33.457  1.00  0.00     0.009 A 
ATOM     73  C   UNL A   1      39.405  29.428  33.202  1.00  0.00     0.009 A 
ATOM     74  C   UNL A   1      38.905  32.171  33.425  1.00  0.00     0.001 A 
ATOM     75  C   UNL A   1      38.091  29.914  33.183  1.00  0.00     0.001 A 
ATOM     76  C   UNL A   1      37.844  31.285  33.255  1.00  0.00     0.000 A 
ENDBRANCH  52  71
BRANCH  64  77
ATOM     77  C   UNL A   1      44.835  24.507  33.387  1.00  0.00    -0.014 A 
ATOM     78  C   UNL A   1      46.135  24.301  33.862  1.00  0.00     0.009 A 
ATOM     79  C   UNL A   1      43.897  23.487  33.685  1.00  0.00     0.009 A 
ATOM     80  C   UNL A   1      46.483  23.138  34.570  1.00  0.00     0.001 A 
ATOM     81  C   UNL A   1      44.226  22.350  34.428  1.00  0.00     0.001 A 
ATOM     82  C   UNL A   1      45.527  22.172  34.865  1.00  0.00     0.000 A 
ENDBRANCH  64  77
ENDBRANCH  38  39
ENDBRANCH  30  33
ENDBRANCH  28  29
ENDBRANCH  27  28
ENDBRANCH  26  27
ENDBRANCH  25  26
ENDBRANCH   1  25
TORSDOF 17
ENDMDL
MODEL 2
REMARK VINA RESULT:     -11.4      1.283      3.221
REMARK SMILES CCc1cccc(C)c1Nc1ccccc1CC(=O)NCCCCCCNC(=O)c1ccc(-c2c3nc(c(-c4ccccc4)c4ccc([nH]4)c(-c4ccccc4)c4nc(c(-c5ccccc5)c5ccc2[nH]5)C=C4)C=C3)cc1
REMARK SMILES IDX 22 1 21 2 20 3 18 4 19 5 17 7 16 8 11 9 12 10 13 11 15 12
REMARK SMILES IDX 14 13 10 14 9 16 3 17 4 18 5 19 7 20 6 21 8 22 2 23 1 24
REMARK SMILES IDX 23 25 24 26 25 27 26 28 27 29 28 30 29 32 30 33 31 34 77 35
REMARK SMILES IDX 32 36 76 37 33 38 34 39 35 40 70 41 36 42 75 43 69 44 71 45
REMARK SMILES IDX 37 46 74 47 68 48 67 49 38 51 60 52 45 53 59 54 46 55 49 56
REMARK SMILES IDX 58 57 72 58 47 59 48 60 57 62 73 63 50 64 39 65 40 66 44 67
REMARK SMILES IDX 41 68 43 69 42 70 61 71 62 72 66 73 63 74 65 75 64 76 51 77
REMARK SMILES IDX 52 78 56 79 53 80 55 81 54 82
REMARK H PARENT 20 6 10 15 27 31 71 50 49 61
REMARK Flexibility Score: inf
ROOT
ATOM      1  C   UNL A   1      33.105  26.069  25.991  1.00  0.00     0.021 C 
ENDROOT
BRANCH   1   2
ATOM      2  C   UNL A   1      31.619  26.207  26.326  1.00  0.00     0.116 C 
BRANCH   2   3
ATOM      3  N   UNL A   1      31.049  25.026  26.941  1.00  0.00    -0.356 N 
ATOM      4  C   UNL A   1      30.643  23.833  26.425  1.00  0.00     0.224 C 
ATOM      5  O   UNL A   1      30.471  22.918  27.238  1.00  0.00    -0.275 OA
ATOM      6  H   UNL A   1      30.933  25.100  27.916  1.00  0.00     0.163 HD
BRANCH   4   7
ATOM      7  C   UNL A   1      30.570  23.565  24.939  1.00  0.00     0.137 C 
BRANCH   7   8
ATOM      8  C   UNL A   1      31.856  23.518  24.140  1.00  0.00    -0.015 A 
ATOM      9  C   UNL A   1      32.073  24.235  22.942  1.00  0.00     0.042 A 
ATOM     10  C   UNL A   1      33.266  24.009  22.224  1.00  0.00     0.026 A 
ATOM     11  C   UNL A   1      34.229  23.102  22.664  1.00  0.00     0.002 A 
ATOM     12  C   UNL A   1      32.832  22.578  24.546  1.00  0.00     0.006 A 
ATOM     13  C   UNL A   1      34.009  22.381  23.828  1.00  0.00     0.000 A 
BRANCH   9  14
ATOM     14  N   UNL A   1      31.190  25.199  22.407  1.00  0.00    -0.355 N 
ATOM     15  H   UNL A   1      30.631  24.865  21.668  1.00  0.00     0.167 HD
BRANCH  14  16
ATOM     16  C   UNL A   1      30.959  26.554  22.738  1.00  0.00     0.045 A 
ATOM     17  C   UNL A   1      31.959  27.533  22.514  1.00  0.00    -0.024 A 
ATOM     18  C   UNL A   1      31.602  28.900  22.611  1.00  0.00     0.006 A 
ATOM     19  C   UNL A   1      30.330  29.304  22.995  1.00  0.00     0.001 A 
ATOM     20  C   UNL A   1      29.726  26.979  23.299  1.00  0.00    -0.027 A 
ATOM     21  C   UNL A   1      29.408  28.346  23.376  1.00  0.00     0.005 A 
ATOM     22  C   UNL A   1      28.761  26.013  23.930  1.00  0.00     0.046 C 
BRANCH  17  23
ATOM     23  C   UNL A   1      33.423  27.313  22.165  1.00  0.00     0.034 C 
ATOM     24  C   UNL A   1      34.479  28.360  22.481  1.00  0.00     0.009 C 
ENDBRANCH  17  23
ENDBRANCH  14  16
ENDBRANCH   9  14
ENDBRANCH   7   8
ENDBRANCH   4   7
ENDBRANCH   2   3
ENDBRANCH   1   2
BRANCH   1  25
ATOM     25  C   UNL A   1      33.918  27.373  26.042  1.00  0.00     0.002 C 
BRANCH  25  26
ATOM     26  C   UNL A   1      33.128  28.683  25.925  1.00  0.00     0.002 C 
BRANCH  26  27
ATOM     27  C   UNL A   1      33.841  29.938  26.428  1.00  0.00     0.021 C 
BRANCH  27  28
ATOM     28  C   UNL A   1      33.558  30.279  27.885  1.00  0.00     0.116 C 
BRANCH  28  29
ATOM     29  N   UNL A   1      34.319  31.404  28.408  1.00  0.00    -0.352 N 
ATOM     30  C   UNL A   1      35.604  31.450  28.929  1.00  0.00     0.251 C 
ATOM     31  H   UNL A   1      33.847  32.269  28.390  1.00  0.00     0.163 HD
ATOM     32  O   UNL A   1      36.016  32.487  29.420  1.00  0.00    -0.269 OA
BRANCH  30  33
ATOM     33  C   UNL A   1      36.530  30.296  28.754  1.00  0.00     0.039 A 
ATOM     34  C   UNL A   1      36.736  29.459  29.861  1.00  0.00     0.014 A 
ATOM     35  C   UNL A   1      37.330  30.147  27.626  1.00  0.00     0.014 A 
ATOM     36  C   UNL A   1      37.890  28.682  29.935  1.00  0.00     0.010 A 
ATOM     37  C   UNL A   1      38.525  29.468  27.736  1.00  0.00     0.010 A 
ATOM     38  C   UNL A   1      38.834  28.794  28.918  1.00  0.00    -0.014 A 
BRANCH  38  39
ATOM     39  C   UNL A   1      40.207  28.329  29.034  1.00  0.00     0.031 A 
ATOM     40  C   UNL A   1      40.592  27.005  28.514  1.00  0.00     0.074 A 
ATOM     41  C   UNL A   1      41.148  29.138  29.566  1.00  0.00     0.049 A 
ATOM     42  N   UNL A   1      41.624  26.347  28.918  1.00  0.00    -0.248 NA
ATOM     43  C   UNL A   1      39.792  26.277  27.537  1.00  0.00     0.031 C 
ATOM     44  C   UNL A   1      42.598  28.986  29.502  1.00  0.00     0.029 A 
ATOM     45  N   UNL A   1      40.963  30.173  30.466  1.00  0.00    -0.354 N 
ATOM     46  C   UNL A   1      41.799  25.289  28.062  1.00  0.00     0.074 A 
ATOM     47  C   UNL A   1      40.572  25.218  27.304  1.00  0.00     0.031 C 
ATOM     48  C   UNL A   1      43.157  29.717  30.480  1.00  0.00     0.029 A 
ATOM     49  C   UNL A   1      42.080  30.241  31.304  1.00  0.00     0.049 A 
ATOM     50  H   UNL A   1      40.176  30.764  30.509  1.00  0.00     0.167 HD
ATOM     51  C   UNL A   1      43.022  24.692  27.991  1.00  0.00     0.031 A 
ATOM     52  C   UNL A   1      41.964  30.033  32.650  1.00  0.00     0.031 A 
ATOM     53  C   UNL A   1      43.941  25.218  29.004  1.00  0.00     0.049 A 
ATOM     54  C   UNL A   1      42.738  28.833  33.155  1.00  0.00     0.074 A 
ATOM     55  C   UNL A   1      45.008  26.100  28.951  1.00  0.00     0.029 A 
ATOM     56  N   UNL A   1      43.637  25.049  30.349  1.00  0.00    -0.354 N 
ATOM     57  N   UNL A   1      43.207  27.887  32.389  1.00  0.00    -0.248 NA
ATOM     58  C   UNL A   1      43.006  28.579  34.569  1.00  0.00     0.031 C 
ATOM     59  C   UNL A   1      45.319  26.495  30.280  1.00  0.00     0.029 A 
ATOM     60  C   UNL A   1      44.458  25.830  31.137  1.00  0.00     0.049 A 
ATOM     61  H   UNL A   1      42.933  24.453  30.694  1.00  0.00     0.167 HD
ATOM     62  C   UNL A   1      43.802  26.917  33.155  1.00  0.00     0.074 A 
ATOM     63  C   UNL A   1      43.666  27.408  34.514  1.00  0.00     0.031 C 
ATOM     64  C   UNL A   1      44.331  25.791  32.590  1.00  0.00     0.031 A 
BRANCH  51  65
ATOM     65  C   UNL A   1      43.484  23.821  26.842  1.00  0.00    -0.014 A 
ATOM     66  C   UNL A   1      44.132  24.417  25.742  1.00  0.00     0.009 A 
ATOM     67  C   UNL A   1      43.258  22.439  26.735  1.00  0.00     0.009 A 
ATOM     68  C   UNL A   1      44.458  23.694  24.584  1.00  0.00     0.001 A 
ATOM     69  C   UNL A   1      43.563  21.711  25.575  1.00  0.00     0.001 A 
ATOM     70  C   UNL A   1      44.155  22.344  24.494  1.00  0.00     0.000 A 
ENDBRANCH  51  65
BRANCH  52  71
ATOM     71  C   UNL A   1      40.660  30.491  33.208  1.00  0.00    -0.014 A 
ATOM     72  C   UNL A   1      40.403  31.876  33.246  1.00  0.00     0.009 A 
ATOM     73  C   UNL A   1      39.578  29.606  33.316  1.00  0.00     0.009 A 
ATOM     74  C   UNL A   1      39.092  32.360  33.266  1.00  0.00     0.001 A 
ATOM     75  C   UNL A   1      38.266  30.096  33.349  1.00  0.00     0.001 A 
ATOM     76  C   UNL A   1      38.023  31.469  33.284  1.00  0.00     0.000 A 
ENDBRANCH  52  71
BRANCH  64  77
ATOM     77  C   UNL A   1      44.823  24.545  33.300  1.00  0.00    -0.014 A 
ATOM     78  C   UNL A   1      46.109  24.365  33.821  1.00  0.00     0.009 A 
ATOM     79  C   UNL A   1      43.894  23.509  33.570  1.00  0.00     0.009 A 
ATOM     80  C   UNL A   1      46.454  23.211  34.545  1.00  0.00     0.001 A 
ATOM     81  C   UNL A   1      44.218  22.381  34.328  1.00  0.00     0.001 A 
ATOM     82  C   UNL A   1      45.506  22.228  34.810  1.00  0.00     0.000 A 
ENDBRANCH  64  77
ENDBRANCH  38  39
ENDBRANCH  30  33
ENDBRANCH  28  29
ENDBRANCH  27  28
ENDBRANCH  26  27
ENDBRANCH  25  26
ENDBRANCH   1  25
TORSDOF 17
ENDMDL
MODEL 3
REMARK VINA RESULT:     -11.4      1.704      2.876
REMARK SMILES CCc1cccc(C)c1Nc1ccccc1CC(=O)NCCCCCCNC(=O)c1ccc(-c2c3nc(c(-c4ccccc4)c4ccc([nH]4)c(-c4ccccc4)c4nc(c(-c5ccccc5)c5ccc2[nH]5)C=C4)C=C3)cc1
REMARK SMILES IDX 22 1 21 2 20 3 18 4 19 5 17 7 16 8 11 9 12 10 13 11 15 12
REMARK SMILES IDX 14 13 10 14 9 16 3 17 4 18 5 19 7 20 6 21 8 22 2 23 1 24
REMARK SMILES IDX 23 25 24 26 25 27 26 28 27 29 28 30 29 32 30 33 31 34 77 35
REMARK SMILES IDX 32 36 76 37 33 38 34 39 35 40 70 41 36 42 75 43 69 44 71 45
REMARK SMILES IDX 37 46 74 47 68 48 67 49 38 51 60 52 45 53 59 54 46 55 49 56
REMARK SMILES IDX 58 57 72 58 47 59 48 60 57 62 73 63 50 64 39 65 40 66 44 67
REMARK SMILES IDX 41 68 43 69 42 70 61 71 62 72 66 73 63 74 65 75 64 76 51 77
REMARK SMILES IDX 52 78 56 79 53 80 55 81 54 82
REMARK H PARENT 20 6 10 15 27 31 71 50 49 61
REMARK Flexibility Score: inf
ROOT
ATOM      1  C   UNL A   1      31.997  27.559  25.552  1.00  0.00     0.021 C 
ENDROOT
BRANCH   1   2
ATOM      2  C   UNL A   1      30.741  26.808  25.997  1.00  0.00     0.116 C 
BRANCH   2   3
ATOM      3  N   UNL A   1      31.016  25.667  26.847  1.00  0.00    -0.356 N 
ATOM      4  C   UNL A   1      31.224  24.351  26.570  1.00  0.00     0.224 C 
ATOM      5  O   UNL A   1      31.722  23.675  27.478  1.00  0.00    -0.275 OA
ATOM      6  H   UNL A   1      31.062  25.886  27.806  1.00  0.00     0.163 HD
BRANCH   4   7
ATOM      7  C   UNL A   1      31.033  23.763  25.190  1.00  0.00     0.137 C 
BRANCH   7   8
ATOM      8  C   UNL A   1      31.995  24.157  24.088  1.00  0.00    -0.015 A 
ATOM      9  C   UNL A   1      33.399  24.043  24.182  1.00  0.00     0.042 A 
ATOM     10  C   UNL A   1      34.192  24.561  23.137  1.00  0.00     0.026 A 
ATOM     11  C   UNL A   1      33.628  25.178  22.021  1.00  0.00     0.002 A 
ATOM     12  C   UNL A   1      31.448  24.818  22.963  1.00  0.00     0.006 A 
ATOM     13  C   UNL A   1      32.250  25.310  21.936  1.00  0.00     0.000 A 
BRANCH   9  14
ATOM     14  N   UNL A   1      34.089  23.417  25.244  1.00  0.00    -0.355 N 
ATOM     15  H   UNL A   1      33.864  23.773  26.134  1.00  0.00     0.167 HD
BRANCH  14  16
ATOM     16  C   UNL A   1      35.042  22.373  25.265  1.00  0.00     0.045 A 
ATOM     17  C   UNL A   1      34.635  21.020  25.144  1.00  0.00    -0.024 A 
ATOM     18  C   UNL A   1      35.623  20.035  24.908  1.00  0.00     0.006 A 
ATOM     19  C   UNL A   1      36.977  20.342  24.869  1.00  0.00     0.001 A 
ATOM     20  C   UNL A   1      36.430  22.641  25.401  1.00  0.00    -0.027 A 
ATOM     21  C   UNL A   1      37.380  21.634  25.154  1.00  0.00     0.005 A 
ATOM     22  C   UNL A   1      36.941  23.958  25.913  1.00  0.00     0.046 C 
BRANCH  17  23
ATOM     23  C   UNL A   1      33.226  20.455  25.235  1.00  0.00     0.034 C 
ATOM     24  C   UNL A   1      32.341  20.329  24.005  1.00  0.00     0.009 C 
ENDBRANCH  17  23
ENDBRANCH  14  16
ENDBRANCH   9  14
ENDBRANCH   7   8
ENDBRANCH   4   7
ENDBRANCH   2   3
ENDBRANCH   1   2
BRANCH   1  25
ATOM     25  C   UNL A   1      33.223  27.398  26.467  1.00  0.00     0.002 C 
BRANCH  25  26
ATOM     26  C   UNL A   1      34.149  28.615  26.598  1.00  0.00     0.002 C 
BRANCH  26  27
ATOM     27  C   UNL A   1      33.462  29.943  26.918  1.00  0.00     0.021 C 
BRANCH  27  28
ATOM     28  C   UNL A   1      34.375  30.985  27.551  1.00  0.00     0.116 C 
BRANCH  28  29
ATOM     29  N   UNL A   1      33.711  32.216  27.953  1.00  0.00    -0.352 N 
ATOM     30  C   UNL A   1      34.061  33.147  28.920  1.00  0.00     0.251 C 
ATOM     31  H   UNL A   1      32.882  32.420  27.460  1.00  0.00     0.163 HD
ATOM     32  O   UNL A   1      33.298  34.062  29.176  1.00  0.00    -0.269 OA
BRANCH  30  33
ATOM     33  C   UNL A   1      35.418  33.123  29.533  1.00  0.00     0.039 A 
ATOM     34  C   UNL A   1      36.469  33.694  28.799  1.00  0.00     0.014 A 
ATOM     35  C   UNL A   1      35.704  32.394  30.682  1.00  0.00     0.014 A 
ATOM     36  C   UNL A   1      37.782  33.311  29.061  1.00  0.00     0.010 A 
ATOM     37  C   UNL A   1      36.987  31.926  30.878  1.00  0.00     0.010 A 
ATOM     38  C   UNL A   1      38.012  32.331  30.022  1.00  0.00    -0.014 A 
BRANCH  38  39
ATOM     39  C   UNL A   1      39.260  31.596  30.148  1.00  0.00     0.031 A 
ATOM     40  C   UNL A   1      39.425  30.289  29.488  1.00  0.00     0.074 A 
ATOM     41  C   UNL A   1      40.295  32.140  30.822  1.00  0.00     0.049 A 
ATOM     42  N   UNL A   1      40.282  29.400  29.859  1.00  0.00    -0.248 NA
ATOM     43  C   UNL A   1      38.574  29.845  28.390  1.00  0.00     0.031 C 
ATOM     44  C   UNL A   1      41.692  31.715  30.811  1.00  0.00     0.029 A 
ATOM     45  N   UNL A   1      40.244  33.084  31.833  1.00  0.00    -0.354 N 
ATOM     46  C   UNL A   1      40.316  28.430  28.888  1.00  0.00     0.074 A 
ATOM     47  C   UNL A   1      39.156  28.687  28.067  1.00  0.00     0.031 C 
ATOM     48  C   UNL A   1      42.306  32.209  31.899  1.00  0.00     0.029 A 
ATOM     49  C   UNL A   1      41.290  32.838  32.727  1.00  0.00     0.049 A 
ATOM     50  H   UNL A   1      39.582  33.810  31.909  1.00  0.00     0.167 HD
ATOM     51  C   UNL A   1      41.406  27.617  28.805  1.00  0.00     0.031 A 
ATOM     52  C   UNL A   1      41.040  32.508  34.030  1.00  0.00     0.031 A 
ATOM     53  C   UNL A   1      42.331  27.836  29.919  1.00  0.00     0.049 A 
ATOM     54  C   UNL A   1      41.535  31.131  34.420  1.00  0.00     0.074 A 
ATOM     55  C   UNL A   1      43.547  28.492  30.028  1.00  0.00     0.029 A 
ATOM     56  N   UNL A   1      41.905  27.581  31.216  1.00  0.00    -0.354 N 
ATOM     57  N   UNL A   1      41.871  30.203  33.567  1.00  0.00    -0.248 NA
ATOM     58  C   UNL A   1      41.647  30.673  35.804  1.00  0.00     0.031 C 
ATOM     59  C   UNL A   1      43.829  28.668  31.410  1.00  0.00     0.029 A 
ATOM     60  C   UNL A   1      42.799  28.094  32.135  1.00  0.00     0.049 A 
ATOM     61  H   UNL A   1      41.078  27.101  31.450  1.00  0.00     0.167 HD
ATOM     62  C   UNL A   1      42.215  29.056  34.237  1.00  0.00     0.074 A 
ATOM     63  C   UNL A   1      42.076  29.409  35.637  1.00  0.00     0.031 C 
ATOM     64  C   UNL A   1      42.562  27.918  33.563  1.00  0.00     0.031 A 
BRANCH  51  65
ATOM     65  C   UNL A   1      41.777  26.806  27.581  1.00  0.00    -0.014 A 
ATOM     66  C   UNL A   1      41.624  25.407  27.609  1.00  0.00     0.009 A 
ATOM     67  C   UNL A   1      42.343  27.329  26.407  1.00  0.00     0.009 A 
ATOM     68  C   UNL A   1      42.078  24.583  26.568  1.00  0.00     0.001 A 
ATOM     69  C   UNL A   1      42.816  26.515  25.368  1.00  0.00     0.001 A 
ATOM     70  C   UNL A   1      42.693  25.137  25.455  1.00  0.00     0.000 A 
ENDBRANCH  51  65
BRANCH  52  71
ATOM     71  C   UNL A   1      39.808  33.148  34.574  1.00  0.00    -0.014 A 
ATOM     72  C   UNL A   1      38.587  32.457  34.441  1.00  0.00     0.009 A 
ATOM     73  C   UNL A   1      39.896  34.178  35.521  1.00  0.00     0.009 A 
ATOM     74  C   UNL A   1      37.526  32.707  35.316  1.00  0.00     0.001 A 
ATOM     75  C   UNL A   1      38.826  34.433  36.387  1.00  0.00     0.001 A 
ATOM     76  C   UNL A   1      37.658  33.673  36.310  1.00  0.00     0.000 A 
ENDBRANCH  52  71
BRANCH  64  77
ATOM     77  C   UNL A   1      42.757  26.528  34.138  1.00  0.00    -0.014 A 
ATOM     78  C   UNL A   1      41.866  25.876  34.998  1.00  0.00     0.009 A 
ATOM     79  C   UNL A   1      43.866  25.763  33.698  1.00  0.00     0.009 A 
ATOM     80  C   UNL A   1      42.082  24.552  35.413  1.00  0.00     0.001 A 
ATOM     81  C   UNL A   1      44.062  24.431  34.070  1.00  0.00     0.001 A 
ATOM     82  C   UNL A   1      43.170  23.826  34.939  1.00  0.00     0.000 A 
ENDBRANCH  64  77
ENDBRANCH  38  39
ENDBRANCH  30  33
ENDBRANCH  28  29
ENDBRANCH  27  28
ENDBRANCH  26  27
ENDBRANCH  25  26
ENDBRANCH   1  25
TORSDOF 17
ENDMDL
