MODEL 1
REMARK VINA RESULT:     -11.6      0.000      0.000
REMARK SMILES COc1cccc([C@@H]2CC(c3cccc(C)c3)=NN2C(=O)CCC(=O)NCCCCCCNC(=O)c2ccc(-c3c4nc(c(-c5ccccc5)c5ccc([nH]5)c(-c5ccccc5)c5nc(c(-c6ccccc6)c6ccc3[nH]6)C=C5)C=C4)cc2)c1
REMARK SMILES IDX 28 1 27 2 26 3 24 4 25 5 23 7 22 8 20 9 21 10 19 11 8 12
REMARK SMILES IDX 9 13 10 14 18 15 7 16 3 17 4 18 84 19 5 20 6 21 2 22 1 23
REMARK SMILES IDX 11 24 12 25 17 26 13 27 15 28 14 29 16 30 29 31 30 32 31 33
REMARK SMILES IDX 32 34 33 35 34 36 35 38 36 39 37 40 83 41 38 42 82 43 39 44
REMARK SMILES IDX 40 45 41 46 76 47 42 48 81 49 75 50 77 51 43 52 80 53 74 54
REMARK SMILES IDX 73 55 44 57 66 58 51 59 65 60 52 61 55 62 64 63 78 64 53 65
REMARK SMILES IDX 54 66 63 68 79 69 56 70 45 71 46 72 50 73 47 74 49 75 48 76
REMARK SMILES IDX 67 77 68 78 72 79 69 80 71 81 70 82 57 83 58 84 62 85 59 86
REMARK SMILES IDX 61 87 60 88
REMARK H PARENT 26 6 33 37 77 56 55 67
REMARK Flexibility Score: inf
ROOT
ATOM      1  C   UNL A   1      34.917  30.591  27.770  1.00  0.00     0.021 C 
ENDROOT
BRANCH   1   2
ATOM      2  C   UNL A   1      33.545  30.609  27.093  1.00  0.00     0.116 C 
BRANCH   2   3
ATOM      3  N   UNL A   1      32.502  29.776  27.664  1.00  0.00    -0.356 N 
ATOM      4  C   UNL A   1      32.019  28.570  27.267  1.00  0.00     0.220 C 
ATOM      5  O   UNL A   1      31.341  27.913  28.060  1.00  0.00    -0.275 OA
ATOM      6  H   UNL A   1      32.076  30.145  28.471  1.00  0.00     0.163 HD
BRANCH   4   7
ATOM      7  C   UNL A   1      32.219  28.098  25.845  1.00  0.00     0.110 C 
BRANCH   7   8
ATOM      8  C   UNL A   1      33.619  27.516  25.650  1.00  0.00     0.112 C 
BRANCH   8   9
ATOM      9  C   UNL A   1      33.900  27.256  24.181  1.00  0.00     0.243 C 
ATOM     10  O   UNL A   1      34.271  28.189  23.466  1.00  0.00    -0.273 OA
BRANCH   9  11
ATOM     11  N   UNL A   1      33.614  25.982  23.711  1.00  0.00    -0.225 N 
ATOM     12  C   UNL A   1      32.800  25.626  22.542  1.00  0.00     0.147 C 
ATOM     13  C   UNL A   1      32.924  24.107  22.455  1.00  0.00     0.091 C 
ATOM     14  C   UNL A   1      33.640  23.842  23.746  1.00  0.00     0.071 C 
ATOM     15  N   UNL A   1      33.966  24.882  24.443  1.00  0.00    -0.174 NA
BRANCH  12  16
ATOM     16  C   UNL A   1      31.388  26.146  22.762  1.00  0.00    -0.019 A 
ATOM     17  C   UNL A   1      29.807  27.980  22.555  1.00  0.00     0.119 A 
ATOM     18  C   UNL A   1      28.989  27.375  23.510  1.00  0.00     0.046 A 
ATOM     19  C   UNL A   1      31.006  27.367  22.185  1.00  0.00     0.052 A 
ATOM     20  C   UNL A   1      29.332  26.142  24.060  1.00  0.00     0.004 A 
ATOM     21  C   UNL A   1      30.516  25.522  23.674  1.00  0.00     0.006 A 
BRANCH  17  22
ATOM     22  O   UNL A   1      29.362  29.187  22.090  1.00  0.00    -0.497 OA
ATOM     23  C   UNL A   1      27.995  29.487  22.346  1.00  0.00     0.278 C 
ENDBRANCH  17  22
ENDBRANCH  12  16
BRANCH  14  24
ATOM     24  C   UNL A   1      33.953  22.481  24.189  1.00  0.00    -0.002 A 
ATOM     25  C   UNL A   1      35.271  22.198  24.542  1.00  0.00     0.010 A 
ATOM     26  C   UNL A   1      32.989  21.467  24.110  1.00  0.00     0.013 A 
ATOM     27  C   UNL A   1      35.622  20.895  24.878  1.00  0.00     0.001 A 
ATOM     28  C   UNL A   1      33.351  20.147  24.409  1.00  0.00    -0.050 A 
ATOM     29  C   UNL A   1      34.665  19.881  24.823  1.00  0.00     0.003 A 
ATOM     30  C   UNL A   1      32.413  18.998  24.172  1.00  0.00     0.044 C 
ENDBRANCH  14  24
ENDBRANCH   9  11
ENDBRANCH   8   9
ENDBRANCH   7   8
ENDBRANCH   4   7
ENDBRANCH   2   3
ENDBRANCH   1   2
BRANCH   1  31
ATOM     31  C   UNL A   1      35.700  31.896  27.951  1.00  0.00     0.002 C 
BRANCH  31  32
ATOM     32  C   UNL A   1      34.914  33.208  28.023  1.00  0.00     0.002 C 
BRANCH  32  33
ATOM     33  C   UNL A   1      34.231  33.454  29.364  1.00  0.00     0.021 C 
BRANCH  33  34
ATOM     34  C   UNL A   1      34.147  34.930  29.721  1.00  0.00     0.116 C 
BRANCH  34  35
ATOM     35  N   UNL A   1      32.984  35.281  30.535  1.00  0.00    -0.352 N 
ATOM     36  C   UNL A   1      32.867  35.149  31.902  1.00  0.00     0.251 C 
ATOM     37  H   UNL A   1      32.206  35.650  30.057  1.00  0.00     0.163 HD
ATOM     38  O   UNL A   1      31.818  35.335  32.506  1.00  0.00    -0.269 OA
BRANCH  36  39
ATOM     39  C   UNL A   1      34.054  34.684  32.630  1.00  0.00     0.039 A 
ATOM     40  C   UNL A   1      34.034  33.393  33.156  1.00  0.00     0.014 A 
ATOM     41  C   UNL A   1      35.226  35.443  32.588  1.00  0.00     0.014 A 
ATOM     42  C   UNL A   1      35.236  32.807  33.527  1.00  0.00     0.010 A 
ATOM     43  C   UNL A   1      36.431  34.823  32.866  1.00  0.00     0.010 A 
ATOM     44  C   UNL A   1      36.441  33.494  33.313  1.00  0.00    -0.014 A 
BRANCH  44  45
ATOM     45  C   UNL A   1      37.728  32.802  33.519  1.00  0.00     0.031 A 
ATOM     46  C   UNL A   1      38.506  33.049  34.772  1.00  0.00     0.074 A 
ATOM     47  C   UNL A   1      38.181  31.976  32.555  1.00  0.00     0.049 A 
ATOM     48  N   UNL A   1      39.619  32.493  35.169  1.00  0.00    -0.248 NA
ATOM     49  C   UNL A   1      37.978  34.070  35.691  1.00  0.00     0.031 C 
ATOM     50  C   UNL A   1      37.518  31.731  31.269  1.00  0.00     0.029 A 
ATOM     51  N   UNL A   1      39.291  31.177  32.511  1.00  0.00    -0.354 N 
ATOM     52  C   UNL A   1      39.925  33.100  36.379  1.00  0.00     0.074 A 
ATOM     53  C   UNL A   1      38.919  34.109  36.621  1.00  0.00     0.031 C 
ATOM     54  C   UNL A   1      38.205  30.797  30.591  1.00  0.00     0.029 A 
ATOM     55  C   UNL A   1      39.365  30.401  31.379  1.00  0.00     0.049 A 
ATOM     56  H   UNL A   1      39.971  31.159  33.223  1.00  0.00     0.167 HD
ATOM     57  C   UNL A   1      40.940  32.817  37.225  1.00  0.00     0.031 A 
ATOM     58  C   UNL A   1      40.262  29.460  31.034  1.00  0.00     0.031 A 
ATOM     59  C   UNL A   1      41.930  31.809  36.963  1.00  0.00     0.049 A 
ATOM     60  C   UNL A   1      41.368  29.149  32.004  1.00  0.00     0.074 A 
ATOM     61  C   UNL A   1      42.992  31.411  37.752  1.00  0.00     0.029 A 
ATOM     62  N   UNL A   1      41.970  31.037  35.810  1.00  0.00    -0.354 N 
ATOM     63  N   UNL A   1      41.605  29.677  33.181  1.00  0.00    -0.248 NA
ATOM     64  C   UNL A   1      42.318  28.102  31.609  1.00  0.00     0.031 C 
ATOM     65  C   UNL A   1      43.697  30.421  37.058  1.00  0.00     0.029 A 
ATOM     66  C   UNL A   1      43.046  30.170  35.859  1.00  0.00     0.049 A 
ATOM     67  H   UNL A   1      41.326  31.097  35.067  1.00  0.00     0.167 HD
ATOM     68  C   UNL A   1      42.720  29.017  33.676  1.00  0.00     0.074 A 
ATOM     69  C   UNL A   1      43.092  28.030  32.682  1.00  0.00     0.031 C 
ATOM     70  C   UNL A   1      43.383  29.207  34.844  1.00  0.00     0.031 A 
BRANCH  57  71
ATOM     71  C   UNL A   1      41.014  33.618  38.493  1.00  0.00    -0.014 A 
ATOM     72  C   UNL A   1      40.352  33.195  39.658  1.00  0.00     0.009 A 
ATOM     73  C   UNL A   1      41.736  34.821  38.523  1.00  0.00     0.009 A 
ATOM     74  C   UNL A   1      40.374  33.981  40.812  1.00  0.00     0.001 A 
ATOM     75  C   UNL A   1      41.780  35.590  39.687  1.00  0.00     0.001 A 
ATOM     76  C   UNL A   1      41.090  35.177  40.826  1.00  0.00     0.000 A 
ENDBRANCH  57  71
BRANCH  58  77
ATOM     77  C   UNL A   1      40.128  28.721  29.750  1.00  0.00    -0.014 A 
ATOM     78  C   UNL A   1      39.460  27.487  29.701  1.00  0.00     0.009 A 
ATOM     79  C   UNL A   1      40.667  29.244  28.564  1.00  0.00     0.009 A 
ATOM     80  C   UNL A   1      39.360  26.780  28.500  1.00  0.00     0.001 A 
ATOM     81  C   UNL A   1      40.541  28.548  27.359  1.00  0.00     0.001 A 
ATOM     82  C   UNL A   1      39.897  27.313  27.329  1.00  0.00     0.000 A 
ENDBRANCH  58  77
BRANCH  70  83
ATOM     83  C   UNL A   1      44.559  28.313  35.102  1.00  0.00    -0.014 A 
ATOM     84  C   UNL A   1      44.400  27.076  35.745  1.00  0.00     0.009 A 
ATOM     85  C   UNL A   1      45.834  28.700  34.663  1.00  0.00     0.009 A 
ATOM     86  C   UNL A   1      45.506  26.258  35.975  1.00  0.00     0.001 A 
ATOM     87  C   UNL A   1      46.932  27.867  34.869  1.00  0.00     0.001 A 
ATOM     88  C   UNL A   1      46.769  26.651  35.533  1.00  0.00     0.000 A 
ENDBRANCH  70  83
ENDBRANCH  44  45
ENDBRANCH  36  39
ENDBRANCH  34  35
ENDBRANCH  33  34
ENDBRANCH  32  33
ENDBRANCH  31  32
ENDBRANCH   1  31
TORSDOF 19
ENDMDL
MODEL 2
REMARK VINA RESULT:     -11.6      2.606      5.461
REMARK SMILES COc1cccc([C@@H]2CC(c3cccc(C)c3)=NN2C(=O)CCC(=O)NCCCCCCNC(=O)c2ccc(-c3c4nc(c(-c5ccccc5)c5ccc([nH]5)c(-c5ccccc5)c5nc(c(-c6ccccc6)c6ccc3[nH]6)C=C5)C=C4)cc2)c1
REMARK SMILES IDX 28 1 27 2 26 3 24 4 25 5 23 7 22 8 20 9 21 10 19 11 8 12
REMARK SMILES IDX 9 13 10 14 18 15 7 16 3 17 4 18 84 19 5 20 6 21 2 22 1 23
REMARK SMILES IDX 11 24 12 25 17 26 13 27 15 28 14 29 16 30 29 31 30 32 31 33
REMARK SMILES IDX 32 34 33 35 34 36 35 38 36 39 37 40 83 41 38 42 82 43 39 44
REMARK SMILES IDX 40 45 41 46 76 47 42 48 81 49 75 50 77 51 43 52 80 53 74 54
REMARK SMILES IDX 73 55 44 57 66 58 51 59 65 60 52 61 55 62 64 63 78 64 53 65
REMARK SMILES IDX 54 66 63 68 79 69 56 70 45 71 46 72 50 73 47 74 49 75 48 76
REMARK SMILES IDX 67 77 68 78 72 79 69 80 71 81 70 82 57 83 58 84 62 85 59 86
REMARK SMILES IDX 61 87 60 88
REMARK H PARENT 26 6 33 37 77 56 55 67
REMARK Flexibility Score: inf
ROOT
ATOM      1  C   UNL A   1      32.081  25.904  26.533  1.00  0.00     0.021 C 
ENDROOT
BRANCH   1   2
ATOM      2  C   UNL A   1      31.356  24.563  26.651  1.00  0.00     0.116 C 
BRANCH   2   3
ATOM      3  N   UNL A   1      32.107  23.436  27.172  1.00  0.00    -0.356 N 
ATOM      4  C   UNL A   1      32.469  22.266  26.583  1.00  0.00     0.220 C 
ATOM      5  O   UNL A   1      33.349  21.584  27.111  1.00  0.00    -0.275 OA
ATOM      6  H   UNL A   1      32.403  23.535  28.106  1.00  0.00     0.163 HD
BRANCH   4   7
ATOM      7  C   UNL A   1      31.729  21.766  25.364  1.00  0.00     0.110 C 
BRANCH   7   8
ATOM      8  C   UNL A   1      32.703  21.291  24.285  1.00  0.00     0.112 C 
BRANCH   8   9
ATOM      9  C   UNL A   1      32.320  21.845  22.924  1.00  0.00     0.243 C 
ATOM     10  O   UNL A   1      32.087  21.063  22.001  1.00  0.00    -0.273 OA
BRANCH   9  11
ATOM     11  N   UNL A   1      32.364  23.224  22.782  1.00  0.00    -0.225 N 
ATOM     12  C   UNL A   1      33.519  24.044  22.394  1.00  0.00     0.147 C 
ATOM     13  C   UNL A   1      32.952  25.459  22.301  1.00  0.00     0.091 C 
ATOM     14  C   UNL A   1      31.585  25.216  22.867  1.00  0.00     0.071 C 
ATOM     15  N   UNL A   1      31.300  23.991  23.170  1.00  0.00    -0.174 NA
BRANCH  12  16
ATOM     16  C   UNL A   1      34.615  23.855  23.432  1.00  0.00    -0.019 A 
ATOM     17  C   UNL A   1      36.430  22.487  24.293  1.00  0.00     0.119 A 
ATOM     18  C   UNL A   1      36.347  23.157  25.515  1.00  0.00     0.046 A 
ATOM     19  C   UNL A   1      35.562  22.834  23.255  1.00  0.00     0.052 A 
ATOM     20  C   UNL A   1      35.442  24.201  25.691  1.00  0.00     0.004 A 
ATOM     21  C   UNL A   1      34.593  24.561  24.649  1.00  0.00     0.006 A 
BRANCH  17  22
ATOM     22  O   UNL A   1      37.356  21.482  24.243  1.00  0.00    -0.497 OA
ATOM     23  C   UNL A   1      38.274  21.428  25.329  1.00  0.00     0.278 C 
ENDBRANCH  17  22
ENDBRANCH  12  16
BRANCH  14  24
ATOM     24  C   UNL A   1      30.628  26.308  23.063  1.00  0.00    -0.002 A 
ATOM     25  C   UNL A   1      29.409  26.004  23.668  1.00  0.00     0.010 A 
ATOM     26  C   UNL A   1      30.872  27.577  22.521  1.00  0.00     0.013 A 
ATOM     27  C   UNL A   1      28.441  26.994  23.785  1.00  0.00     0.001 A 
ATOM     28  C   UNL A   1      29.881  28.564  22.603  1.00  0.00    -0.050 A 
ATOM     29  C   UNL A   1      28.682  28.268  23.268  1.00  0.00     0.003 A 
ATOM     30  C   UNL A   1      30.015  29.878  21.888  1.00  0.00     0.044 C 
ENDBRANCH  14  24
ENDBRANCH   9  11
ENDBRANCH   8   9
ENDBRANCH   7   8
ENDBRANCH   4   7
ENDBRANCH   2   3
ENDBRANCH   1   2
BRANCH   1  31
ATOM     31  C   UNL A   1      31.281  27.212  26.543  1.00  0.00     0.002 C 
BRANCH  31  32
ATOM     32  C   UNL A   1      31.868  28.414  27.288  1.00  0.00     0.002 C 
BRANCH  32  33
ATOM     33  C   UNL A   1      31.480  29.765  26.699  1.00  0.00     0.021 C 
BRANCH  33  34
ATOM     34  C   UNL A   1      32.679  30.668  26.453  1.00  0.00     0.116 C 
BRANCH  34  35
ATOM     35  N   UNL A   1      32.540  32.010  27.016  1.00  0.00    -0.352 N 
ATOM     36  C   UNL A   1      33.482  32.691  27.758  1.00  0.00     0.251 C 
ATOM     37  H   UNL A   1      31.688  32.473  26.849  1.00  0.00     0.163 HD
ATOM     38  O   UNL A   1      33.252  33.757  28.315  1.00  0.00    -0.269 OA
BRANCH  36  39
ATOM     39  C   UNL A   1      34.786  32.042  27.937  1.00  0.00     0.039 A 
ATOM     40  C   UNL A   1      35.916  32.855  28.017  1.00  0.00     0.014 A 
ATOM     41  C   UNL A   1      34.839  30.679  28.237  1.00  0.00     0.014 A 
ATOM     42  C   UNL A   1      37.087  32.317  28.531  1.00  0.00     0.010 A 
ATOM     43  C   UNL A   1      35.977  30.172  28.838  1.00  0.00     0.010 A 
ATOM     44  C   UNL A   1      37.097  30.997  29.009  1.00  0.00    -0.014 A 
BRANCH  44  45
ATOM     45  C   UNL A   1      38.276  30.488  29.735  1.00  0.00     0.031 A 
ATOM     46  C   UNL A   1      38.473  30.855  31.172  1.00  0.00     0.074 A 
ATOM     47  C   UNL A   1      39.162  29.719  29.073  1.00  0.00     0.049 A 
ATOM     48  N   UNL A   1      39.403  30.460  31.998  1.00  0.00    -0.248 NA
ATOM     49  C   UNL A   1      37.512  31.808  31.751  1.00  0.00     0.031 C 
ATOM     50  C   UNL A   1      39.084  29.368  27.650  1.00  0.00     0.029 A 
ATOM     51  N   UNL A   1      40.290  29.076  29.509  1.00  0.00    -0.354 N 
ATOM     52  C   UNL A   1      39.141  31.119  33.192  1.00  0.00     0.074 A 
ATOM     53  C   UNL A   1      38.008  31.986  32.966  1.00  0.00     0.031 C 
ATOM     54  C   UNL A   1      40.086  28.526  27.348  1.00  0.00     0.029 A 
ATOM     55  C   UNL A   1      40.889  28.301  28.544  1.00  0.00     0.049 A 
ATOM     56  H   UNL A   1      40.638  29.160  30.425  1.00  0.00     0.167 HD
ATOM     57  C   UNL A   1      39.776  30.988  34.378  1.00  0.00     0.031 A 
ATOM     58  C   UNL A   1      41.955  27.486  28.629  1.00  0.00     0.031 A 
ATOM     59  C   UNL A   1      40.903  30.119  34.579  1.00  0.00     0.049 A 
ATOM     60  C   UNL A   1      42.627  27.340  29.965  1.00  0.00     0.074 A 
ATOM     61  C   UNL A   1      41.616  29.879  35.738  1.00  0.00     0.029 A 
ATOM     62  N   UNL A   1      41.478  29.344  33.582  1.00  0.00    -0.354 N 
ATOM     63  N   UNL A   1      42.325  27.912  31.107  1.00  0.00    -0.248 NA
ATOM     64  C   UNL A   1      43.774  26.426  30.032  1.00  0.00     0.031 C 
ATOM     65  C   UNL A   1      42.647  28.984  35.433  1.00  0.00     0.029 A 
ATOM     66  C   UNL A   1      42.546  28.631  34.095  1.00  0.00     0.049 A 
ATOM     67  H   UNL A   1      41.170  29.307  32.647  1.00  0.00     0.167 HD
ATOM     68  C   UNL A   1      43.231  27.415  32.032  1.00  0.00     0.074 A 
ATOM     69  C   UNL A   1      44.075  26.474  31.322  1.00  0.00     0.031 C 
ATOM     70  C   UNL A   1      43.362  27.708  33.350  1.00  0.00     0.031 A 
BRANCH  57  71
ATOM     71  C   UNL A   1      39.257  31.809  35.523  1.00  0.00    -0.014 A 
ATOM     72  C   UNL A   1      39.752  33.100  35.773  1.00  0.00     0.009 A 
ATOM     73  C   UNL A   1      38.278  31.281  36.378  1.00  0.00     0.009 A 
ATOM     74  C   UNL A   1      39.308  33.828  36.879  1.00  0.00     0.001 A 
ATOM     75  C   UNL A   1      37.815  32.024  37.466  1.00  0.00     0.001 A 
ATOM     76  C   UNL A   1      38.339  33.290  37.723  1.00  0.00     0.000 A 
ENDBRANCH  57  71
BRANCH  58  77
ATOM     77  C   UNL A   1      42.417  26.718  27.442  1.00  0.00    -0.014 A 
ATOM     78  C   UNL A   1      43.331  27.282  26.537  1.00  0.00     0.009 A 
ATOM     79  C   UNL A   1      41.950  25.416  27.206  1.00  0.00     0.009 A 
ATOM     80  C   UNL A   1      43.742  26.571  25.406  1.00  0.00     0.001 A 
ATOM     81  C   UNL A   1      42.385  24.696  26.090  1.00  0.00     0.001 A 
ATOM     82  C   UNL A   1      43.272  25.277  25.186  1.00  0.00     0.000 A 
ENDBRANCH  58  77
BRANCH  70  83
ATOM     83  C   UNL A   1      44.445  26.986  34.095  1.00  0.00    -0.014 A 
ATOM     84  C   UNL A   1      45.749  27.499  34.152  1.00  0.00     0.009 A 
ATOM     85  C   UNL A   1      44.144  25.797  34.777  1.00  0.00     0.009 A 
ATOM     86  C   UNL A   1      46.743  26.814  34.851  1.00  0.00     0.001 A 
ATOM     87  C   UNL A   1      45.133  25.131  35.498  1.00  0.00     0.001 A 
ATOM     88  C   UNL A   1      46.433  25.634  35.527  1.00  0.00     0.000 A 
ENDBRANCH  70  83
ENDBRANCH  44  45
ENDBRANCH  36  39
ENDBRANCH  34  35
ENDBRANCH  33  34
ENDBRANCH  32  33
ENDBRANCH  31  32
ENDBRANCH   1  31
TORSDOF 19
ENDMDL
MODEL 3
REMARK VINA RESULT:     -11.3      3.930      7.769
REMARK SMILES COc1cccc([C@@H]2CC(c3cccc(C)c3)=NN2C(=O)CCC(=O)NCCCCCCNC(=O)c2ccc(-c3c4nc(c(-c5ccccc5)c5ccc([nH]5)c(-c5ccccc5)c5nc(c(-c6ccccc6)c6ccc3[nH]6)C=C5)C=C4)cc2)c1
REMARK SMILES IDX 28 1 27 2 26 3 24 4 25 5 23 7 22 8 20 9 21 10 19 11 8 12
REMARK SMILES IDX 9 13 10 14 18 15 7 16 3 17 4 18 84 19 5 20 6 21 2 22 1 23
REMARK SMILES IDX 11 24 12 25 17 26 13 27 15 28 14 29 16 30 29 31 30 32 31 33
REMARK SMILES IDX 32 34 33 35 34 36 35 38 36 39 37 40 83 41 38 42 82 43 39 44
REMARK SMILES IDX 40 45 41 46 76 47 42 48 81 49 75 50 77 51 43 52 80 53 74 54
REMARK SMILES IDX 73 55 44 57 66 58 51 59 65 60 52 61 55 62 64 63 78 64 53 65
REMARK SMILES IDX 54 66 63 68 79 69 56 70 45 71 46 72 50 73 47 74 49 75 48 76
REMARK SMILES IDX 67 77 68 78 72 79 69 80 71 81 70 82 57 83 58 84 62 85 59 86
REMARK SMILES IDX 61 87 60 88
REMARK H PARENT 26 6 33 37 77 56 55 67
REMARK Flexibility Score: inf
ROOT
ATOM      1  C   UNL A   1      30.926  28.586  23.383  1.00  0.00     0.021 C 
ENDROOT
BRANCH   1   2
ATOM      2  C   UNL A   1      30.167  27.259  23.370  1.00  0.00     0.116 C 
BRANCH   2   3
ATOM      3  N   UNL A   1      29.670  26.755  24.638  1.00  0.00    -0.356 N 
ATOM      4  C   UNL A   1      29.998  25.635  25.333  1.00  0.00     0.220 C 
ATOM      5  O   UNL A   1      29.669  25.556  26.518  1.00  0.00    -0.275 OA
ATOM      6  H   UNL A   1      28.984  27.318  25.064  1.00  0.00     0.163 HD
BRANCH   4   7
ATOM      7  C   UNL A   1      30.657  24.469  24.634  1.00  0.00     0.110 C 
BRANCH   7   8
ATOM      8  C   UNL A   1      30.659  23.224  25.522  1.00  0.00     0.112 C 
BRANCH   8   9
ATOM      9  C   UNL A   1      31.981  23.080  26.256  1.00  0.00     0.243 C 
ATOM     10  O   UNL A   1      32.167  23.724  27.290  1.00  0.00    -0.273 OA
BRANCH   9  11
ATOM     11  N   UNL A   1      32.949  22.299  25.641  1.00  0.00    -0.225 N 
ATOM     12  C   UNL A   1      34.286  22.718  25.202  1.00  0.00     0.147 C 
ATOM     13  C   UNL A   1      34.931  21.428  24.702  1.00  0.00     0.091 C 
ATOM     14  C   UNL A   1      33.742  20.518  24.759  1.00  0.00     0.071 C 
ATOM     15  N   UNL A   1      32.651  21.029  25.231  1.00  0.00    -0.174 NA
BRANCH  12  16
ATOM     16  C   UNL A   1      34.128  23.809  24.154  1.00  0.00    -0.019 A 
ATOM     17  C   UNL A   1      33.957  26.180  23.651  1.00  0.00     0.119 A 
ATOM     18  C   UNL A   1      33.397  25.870  22.410  1.00  0.00     0.046 A 
ATOM     19  C   UNL A   1      34.318  25.150  24.521  1.00  0.00     0.052 A 
ATOM     20  C   UNL A   1      33.243  24.544  22.013  1.00  0.00     0.004 A 
ATOM     21  C   UNL A   1      33.624  23.519  22.873  1.00  0.00     0.006 A 
BRANCH  17  22
ATOM     22  O   UNL A   1      34.056  27.517  23.925  1.00  0.00    -0.497 OA
ATOM     23  C   UNL A   1      34.318  28.363  22.812  1.00  0.00     0.278 C 
ENDBRANCH  17  22
ENDBRANCH  12  16
BRANCH  14  24
ATOM     24  C   UNL A   1      33.814  19.126  24.304  1.00  0.00    -0.002 A 
ATOM     25  C   UNL A   1      32.866  18.694  23.378  1.00  0.00     0.010 A 
ATOM     26  C   UNL A   1      34.709  18.227  24.899  1.00  0.00     0.013 A 
ATOM     27  C   UNL A   1      32.846  17.358  22.996  1.00  0.00     0.001 A 
ATOM     28  C   UNL A   1      34.664  16.873  24.545  1.00  0.00    -0.050 A 
ATOM     29  C   UNL A   1      33.748  16.457  23.566  1.00  0.00     0.003 A 
ATOM     30  C   UNL A   1      35.472  15.838  25.274  1.00  0.00     0.044 C 
ENDBRANCH  14  24
ENDBRANCH   9  11
ENDBRANCH   8   9
ENDBRANCH   7   8
ENDBRANCH   4   7
ENDBRANCH   2   3
ENDBRANCH   1   2
BRANCH   1  31
ATOM     31  C   UNL A   1      30.804  29.529  24.586  1.00  0.00     0.002 C 
BRANCH  31  32
ATOM     32  C   UNL A   1      32.029  29.719  25.483  1.00  0.00     0.002 C 
BRANCH  32  33
ATOM     33  C   UNL A   1      32.202  28.636  26.542  1.00  0.00     0.021 C 
BRANCH  33  34
ATOM     34  C   UNL A   1      33.271  28.979  27.569  1.00  0.00     0.116 C 
BRANCH  34  35
ATOM     35  N   UNL A   1      33.481  30.413  27.755  1.00  0.00    -0.352 N 
ATOM     36  C   UNL A   1      34.653  31.029  28.141  1.00  0.00     0.251 C 
ATOM     37  H   UNL A   1      32.708  30.998  27.586  1.00  0.00     0.163 HD
ATOM     38  O   UNL A   1      34.725  32.222  28.409  1.00  0.00    -0.269 OA
BRANCH  36  39
ATOM     39  C   UNL A   1      35.832  30.171  28.308  1.00  0.00     0.039 A 
ATOM     40  C   UNL A   1      36.740  30.096  27.252  1.00  0.00     0.014 A 
ATOM     41  C   UNL A   1      36.123  29.642  29.567  1.00  0.00     0.014 A 
ATOM     42  C   UNL A   1      38.010  29.595  27.502  1.00  0.00     0.010 A 
ATOM     43  C   UNL A   1      37.417  29.235  29.836  1.00  0.00     0.010 A 
ATOM     44  C   UNL A   1      38.372  29.234  28.809  1.00  0.00    -0.014 A 
BRANCH  44  45
ATOM     45  C   UNL A   1      39.774  28.891  29.115  1.00  0.00     0.031 A 
ATOM     46  C   UNL A   1      40.305  27.546  28.734  1.00  0.00     0.074 A 
ATOM     47  C   UNL A   1      40.538  29.799  29.753  1.00  0.00     0.049 A 
ATOM     48  N   UNL A   1      41.518  27.079  28.855  1.00  0.00    -0.248 NA
ATOM     49  C   UNL A   1      39.342  26.590  28.161  1.00  0.00     0.031 C 
ATOM     50  C   UNL A   1      40.081  31.111  30.225  1.00  0.00     0.029 A 
ATOM     51  N   UNL A   1      41.862  29.768  30.101  1.00  0.00    -0.354 N 
ATOM     52  C   UNL A   1      41.462  25.776  28.378  1.00  0.00     0.074 A 
ATOM     53  C   UNL A   1      40.087  25.504  28.027  1.00  0.00     0.031 C 
ATOM     54  C   UNL A   1      41.123  31.781  30.744  1.00  0.00     0.029 A 
ATOM     55  C   UNL A   1      42.309  30.937  30.668  1.00  0.00     0.049 A 
ATOM     56  H   UNL A   1      42.439  28.983  29.957  1.00  0.00     0.167 HD
ATOM     57  C   UNL A   1      42.477  24.897  28.223  1.00  0.00     0.031 A 
ATOM     58  C   UNL A   1      43.547  31.289  31.061  1.00  0.00     0.031 A 
ATOM     59  C   UNL A   1      43.837  25.189  28.581  1.00  0.00     0.049 A 
ATOM     60  C   UNL A   1      44.661  30.302  30.854  1.00  0.00     0.074 A 
ATOM     61  C   UNL A   1      44.959  24.392  28.448  1.00  0.00     0.029 A 
ATOM     62  N   UNL A   1      44.256  26.387  29.146  1.00  0.00    -0.354 N 
ATOM     63  N   UNL A   1      44.610  29.098  30.333  1.00  0.00    -0.248 NA
ATOM     64  C   UNL A   1      46.003  30.723  31.272  1.00  0.00     0.031 C 
ATOM     65  C   UNL A   1      46.051  25.096  28.968  1.00  0.00     0.029 A 
ATOM     66  C   UNL A   1      45.617  26.348  29.379  1.00  0.00     0.049 A 
ATOM     67  H   UNL A   1      43.668  27.150  29.349  1.00  0.00     0.167 HD
ATOM     68  C   UNL A   1      45.914  28.625  30.343  1.00  0.00     0.074 A 
ATOM     69  C   UNL A   1      46.735  29.684  30.896  1.00  0.00     0.031 C 
ATOM     70  C   UNL A   1      46.395  27.424  29.937  1.00  0.00     0.031 A 
BRANCH  57  71
ATOM     71  C   UNL A   1      42.132  23.553  27.649  1.00  0.00    -0.014 A 
ATOM     72  C   UNL A   1      42.313  23.280  26.283  1.00  0.00     0.009 A 
ATOM     73  C   UNL A   1      41.601  22.552  28.476  1.00  0.00     0.009 A 
ATOM     74  C   UNL A   1      41.928  22.048  25.748  1.00  0.00     0.001 A 
ATOM     75  C   UNL A   1      41.244  21.311  27.944  1.00  0.00     0.001 A 
ATOM     76  C   UNL A   1      41.396  21.064  26.580  1.00  0.00     0.000 A 
ENDBRANCH  57  71
BRANCH  58  77
ATOM     77  C   UNL A   1      43.803  32.636  31.636  1.00  0.00    -0.014 A 
ATOM     78  C   UNL A   1      43.730  32.848  33.022  1.00  0.00     0.009 A 
ATOM     79  C   UNL A   1      44.125  33.720  30.804  1.00  0.00     0.009 A 
ATOM     80  C   UNL A   1      43.943  34.121  33.559  1.00  0.00     0.001 A 
ATOM     81  C   UNL A   1      44.365  34.986  31.346  1.00  0.00     0.001 A 
ATOM     82  C   UNL A   1      44.264  35.188  32.721  1.00  0.00     0.000 A 
ENDBRANCH  58  77
BRANCH  70  83
ATOM     83  C   UNL A   1      47.874  27.214  30.065  1.00  0.00    -0.014 A 
ATOM     84  C   UNL A   1      48.426  26.641  31.220  1.00  0.00     0.009 A 
ATOM     85  C   UNL A   1      48.719  27.562  29.000  1.00  0.00     0.009 A 
ATOM     86  C   UNL A   1      49.804  26.452  31.321  1.00  0.00     0.001 A 
ATOM     87  C   UNL A   1      50.093  27.345  29.093  1.00  0.00     0.001 A 
ATOM     88  C   UNL A   1      50.635  26.800  30.256  1.00  0.00     0.000 A 
ENDBRANCH  70  83
ENDBRANCH  44  45
ENDBRANCH  36  39
ENDBRANCH  34  35
ENDBRANCH  33  34
ENDBRANCH  32  33
ENDBRANCH  31  32
ENDBRANCH   1  31
TORSDOF 19
ENDMDL
