MODEL 1
REMARK VINA RESULT:     -11.4      0.000      0.000
REMARK SMILES CCN1C(=O)[C@H](CC(=O)Nc2ccc(C(=O)NCCCCCCNC(=O)c3ccc(-c4c5nc(c(-c6ccccc6)c6ccc([nH]6)c(-c6ccccc6)c6nc(c(-c7ccccc7)c7ccc4[nH]7)C=C6)C=C5)cc3)cc2)S/C1=[NH+]\c1ccc(Cl)cc1
REMARK SMILES IDX 19 1 18 2 17 3 15 4 16 5 14 7 11 8 12 9 76 10 13 11 75 12
REMARK SMILES IDX 10 13 8 14 9 15 7 17 6 18 3 19 4 20 78 21 5 22 77 23 79 24
REMARK SMILES IDX 2 26 1 27 80 28 81 29 86 30 82 31 85 32 83 33 84 34 20 35
REMARK SMILES IDX 21 36 22 37 23 38 24 39 25 40 26 42 27 43 28 44 74 45 29 46
REMARK SMILES IDX 73 47 30 48 31 49 32 50 67 51 33 52 72 53 66 54 68 55 34 56
REMARK SMILES IDX 71 57 65 58 64 59 35 61 57 62 42 63 56 64 43 65 46 66 55 67
REMARK SMILES IDX 69 68 44 69 45 70 54 72 70 73 47 74 36 75 37 76 41 77 38 78
REMARK SMILES IDX 40 79 39 80 58 81 59 82 63 83 60 84 62 85 61 86 48 87 49 88
REMARK SMILES IDX 53 89 50 90 52 91 51 92
REMARK H PARENT 17 6 10 16 79 25 24 41 68 60 46 71
REMARK Flexibility Score: inf
ROOT
ATOM      1  C   UNL A   1      35.819  22.125  23.999  1.00  0.00     0.021 C 
ENDROOT
BRANCH   1   2
ATOM      2  C   UNL A   1      34.357  22.360  23.597  1.00  0.00     0.116 C 
BRANCH   2   3
ATOM      3  N   UNL A   1      33.453  21.319  24.073  1.00  0.00    -0.352 N 
ATOM      4  C   UNL A   1      32.353  21.353  24.900  1.00  0.00     0.251 C 
ATOM      5  O   UNL A   1      31.796  20.292  25.181  1.00  0.00    -0.269 OA
ATOM      6  H   UNL A   1      33.671  20.420  23.736  1.00  0.00     0.163 HD
BRANCH   4   7
ATOM      7  C   UNL A   1      31.855  22.603  25.535  1.00  0.00     0.039 A 
ATOM      8  C   UNL A   1      31.232  25.161  26.581  1.00  0.00     0.041 A 
ATOM      9  C   UNL A   1      32.290  24.405  27.107  1.00  0.00     0.027 A 
ATOM     10  C   UNL A   1      30.398  24.547  25.650  1.00  0.00     0.027 A 
ATOM     11  C   UNL A   1      32.601  23.142  26.590  1.00  0.00     0.016 A 
ATOM     12  C   UNL A   1      30.701  23.272  25.135  1.00  0.00     0.016 A 
BRANCH   8  13
ATOM     13  N   UNL A   1      31.160  26.495  27.022  1.00  0.00    -0.326 N 
ATOM     14  C   UNL A   1      32.014  27.553  27.082  1.00  0.00     0.226 C 
ATOM     15  O   UNL A   1      31.608  28.584  27.631  1.00  0.00    -0.275 OA
ATOM     16  H   UNL A   1      30.269  26.720  27.374  1.00  0.00     0.169 HD
BRANCH  14  17
ATOM     17  C   UNL A   1      33.412  27.528  26.527  1.00  0.00     0.128 C 
BRANCH  17  18
ATOM     18  C   UNL A   1      33.508  27.654  25.013  1.00  0.00     0.183 C 
ATOM     19  N   UNL A   1      32.355  26.280  23.405  1.00  0.00    -0.190 N 
ATOM     20  C   UNL A   1      33.481  26.380  24.198  1.00  0.00     0.324 C 
ATOM     21  C   UNL A   1      31.537  27.384  23.345  1.00  0.00     0.319 C 
ATOM     22  O   UNL A   1      34.407  25.572  24.203  1.00  0.00    -0.245 OA
ATOM     23  S   UNL A   1      32.140  28.662  24.372  1.00  0.00    -0.022 SA
ATOM     24  N   UNL A   1      30.486  27.436  22.591  1.00  0.00    -0.235 N 
ATOM     25  H   UNL A   1      30.173  26.622  22.135  1.00  0.00     0.313 HD
BRANCH  19  26
ATOM     26  C   UNL A   1      32.240  25.178  22.454  1.00  0.00     0.243 C 
ATOM     27  C   UNL A   1      32.744  25.468  21.048  1.00  0.00     0.054 C 
ENDBRANCH  19  26
BRANCH  24  28
ATOM     28  C   UNL A   1      29.786  28.643  22.420  1.00  0.00     0.125 A 
ATOM     29  C   UNL A   1      30.310  29.691  21.658  1.00  0.00     0.053 A 
ATOM     30  C   UNL A   1      28.580  28.842  23.107  1.00  0.00     0.053 A 
ATOM     31  C   UNL A   1      29.620  30.907  21.558  1.00  0.00     0.025 A 
ATOM     32  C   UNL A   1      27.885  30.049  23.004  1.00  0.00     0.025 A 
ATOM     33  C   UNL A   1      28.409  31.078  22.228  1.00  0.00     0.041 A 
ATOM     34  Cl  UNL A   1      27.559  32.568  22.110  1.00  0.00    -0.084 Cl
ENDBRANCH  24  28
ENDBRANCH  17  18
ENDBRANCH  14  17
ENDBRANCH   8  13
ENDBRANCH   4   7
ENDBRANCH   2   3
ENDBRANCH   1   2
BRANCH   1  35
ATOM     35  C   UNL A   1      36.049  21.298  25.266  1.00  0.00     0.002 C 
BRANCH  35  36
ATOM     36  C   UNL A   1      36.468  19.837  25.043  1.00  0.00     0.002 C 
BRANCH  36  37
ATOM     37  C   UNL A   1      37.953  19.585  24.750  1.00  0.00     0.021 C 
BRANCH  37  38
ATOM     38  C   UNL A   1      38.936  20.029  25.833  1.00  0.00     0.116 C 
BRANCH  38  39
ATOM     39  N   UNL A   1      40.158  19.239  25.833  1.00  0.00    -0.352 N 
ATOM     40  C   UNL A   1      41.464  19.605  26.049  1.00  0.00     0.251 C 
ATOM     41  H   UNL A   1      40.027  18.283  25.647  1.00  0.00     0.163 HD
ATOM     42  O   UNL A   1      42.365  18.810  25.793  1.00  0.00    -0.269 OA
BRANCH  40  43
ATOM     43  C   UNL A   1      41.811  20.942  26.582  1.00  0.00     0.039 A 
ATOM     44  C   UNL A   1      42.198  21.944  25.686  1.00  0.00     0.014 A 
ATOM     45  C   UNL A   1      41.826  21.199  27.955  1.00  0.00     0.014 A 
ATOM     46  C   UNL A   1      42.543  23.214  26.159  1.00  0.00     0.010 A 
ATOM     47  C   UNL A   1      42.108  22.484  28.422  1.00  0.00     0.010 A 
ATOM     48  C   UNL A   1      42.471  23.504  27.530  1.00  0.00    -0.014 A 
BRANCH  48  49
ATOM     49  C   UNL A   1      42.762  24.869  28.046  1.00  0.00     0.031 A 
ATOM     50  C   UNL A   1      44.161  25.250  28.453  1.00  0.00     0.074 A 
ATOM     51  C   UNL A   1      41.755  25.749  28.205  1.00  0.00     0.049 A 
ATOM     52  N   UNL A   1      44.591  26.370  28.979  1.00  0.00    -0.248 NA
ATOM     53  C   UNL A   1      45.207  24.233  28.265  1.00  0.00     0.031 C 
ATOM     54  C   UNL A   1      40.350  25.497  27.877  1.00  0.00     0.029 A 
ATOM     55  N   UNL A   1      41.757  27.034  28.690  1.00  0.00    -0.354 N 
ATOM     56  C   UNL A   1      45.951  26.185  29.201  1.00  0.00     0.074 A 
ATOM     57  C   UNL A   1      46.264  24.831  28.796  1.00  0.00     0.031 C 
ATOM     58  C   UNL A   1      39.632  26.600  28.145  1.00  0.00     0.029 A 
ATOM     59  C   UNL A   1      40.514  27.619  28.703  1.00  0.00     0.049 A 
ATOM     60  H   UNL A   1      42.572  27.491  28.998  1.00  0.00     0.167 HD
ATOM     61  C   UNL A   1      46.861  27.066  29.683  1.00  0.00     0.031 A 
ATOM     62  C   UNL A   1      40.125  28.837  29.125  1.00  0.00     0.031 A 
ATOM     63  C   UNL A   1      46.553  28.415  30.080  1.00  0.00     0.049 A 
ATOM     64  C   UNL A   1      41.150  29.789  29.677  1.00  0.00     0.074 A 
ATOM     65  C   UNL A   1      47.416  29.399  30.532  1.00  0.00     0.029 A 
ATOM     66  N   UNL A   1      45.283  28.968  30.079  1.00  0.00    -0.354 N 
ATOM     67  N   UNL A   1      42.442  29.619  29.821  1.00  0.00    -0.248 NA
ATOM     68  C   UNL A   1      40.663  31.104  30.115  1.00  0.00     0.031 C 
ATOM     69  C   UNL A   1      46.660  30.529  30.856  1.00  0.00     0.029 A 
ATOM     70  C   UNL A   1      45.334  30.271  30.547  1.00  0.00     0.049 A 
ATOM     71  H   UNL A   1      44.465  28.504  29.787  1.00  0.00     0.167 HD
ATOM     72  C   UNL A   1      42.926  30.815  30.337  1.00  0.00     0.074 A 
ATOM     73  C   UNL A   1      41.791  31.706  30.465  1.00  0.00     0.031 C 
ATOM     74  C   UNL A   1      44.197  31.146  30.673  1.00  0.00     0.031 A 
BRANCH  61  75
ATOM     75  C   UNL A   1      48.283  26.591  29.818  1.00  0.00    -0.014 A 
ATOM     76  C   UNL A   1      49.217  26.781  28.787  1.00  0.00     0.009 A 
ATOM     77  C   UNL A   1      48.706  25.979  31.009  1.00  0.00     0.009 A 
ATOM     78  C   UNL A   1      50.532  26.334  28.931  1.00  0.00     0.001 A 
ATOM     79  C   UNL A   1      50.028  25.560  31.162  1.00  0.00     0.001 A 
ATOM     80  C   UNL A   1      50.938  25.727  30.119  1.00  0.00     0.000 A 
ENDBRANCH  61  75
BRANCH  62  81
ATOM     81  C   UNL A   1      38.695  29.235  29.033  1.00  0.00    -0.014 A 
ATOM     82  C   UNL A   1      37.845  29.100  30.141  1.00  0.00     0.009 A 
ATOM     83  C   UNL A   1      38.171  29.747  27.835  1.00  0.00     0.009 A 
ATOM     84  C   UNL A   1      36.494  29.441  30.042  1.00  0.00     0.001 A 
ATOM     85  C   UNL A   1      36.828  30.118  27.750  1.00  0.00     0.001 A 
ATOM     86  C   UNL A   1      35.988  29.955  28.849  1.00  0.00     0.000 A 
ENDBRANCH  62  81
BRANCH  74  87
ATOM     87  C   UNL A   1      44.434  32.541  31.178  1.00  0.00    -0.014 A 
ATOM     88  C   UNL A   1      44.561  33.627  30.298  1.00  0.00     0.009 A 
ATOM     89  C   UNL A   1      44.492  32.777  32.561  1.00  0.00     0.009 A 
ATOM     90  C   UNL A   1      44.775  34.916  30.792  1.00  0.00     0.001 A 
ATOM     91  C   UNL A   1      44.675  34.070  33.053  1.00  0.00     0.001 A 
ATOM     92  C   UNL A   1      44.827  35.137  32.169  1.00  0.00     0.000 A 
ENDBRANCH  74  87
ENDBRANCH  48  49
ENDBRANCH  40  43
ENDBRANCH  38  39
ENDBRANCH  37  38
ENDBRANCH  36  37
ENDBRANCH  35  36
ENDBRANCH   1  35
TORSDOF 18
ENDMDL
MODEL 2
REMARK VINA RESULT:     -11.4      0.520      5.568
REMARK SMILES CCN1C(=O)[C@H](CC(=O)Nc2ccc(C(=O)NCCCCCCNC(=O)c3ccc(-c4c5nc(c(-c6ccccc6)c6ccc([nH]6)c(-c6ccccc6)c6nc(c(-c7ccccc7)c7ccc4[nH]7)C=C6)C=C5)cc3)cc2)S/C1=[NH+]\c1ccc(Cl)cc1
REMARK SMILES IDX 19 1 18 2 17 3 15 4 16 5 14 7 11 8 12 9 76 10 13 11 75 12
REMARK SMILES IDX 10 13 8 14 9 15 7 17 6 18 3 19 4 20 78 21 5 22 77 23 79 24
REMARK SMILES IDX 2 26 1 27 80 28 81 29 86 30 82 31 85 32 83 33 84 34 20 35
REMARK SMILES IDX 21 36 22 37 23 38 24 39 25 40 26 42 27 43 28 44 74 45 29 46
REMARK SMILES IDX 73 47 30 48 31 49 32 50 67 51 33 52 72 53 66 54 68 55 34 56
REMARK SMILES IDX 71 57 65 58 64 59 35 61 57 62 42 63 56 64 43 65 46 66 55 67
REMARK SMILES IDX 69 68 44 69 45 70 54 72 70 73 47 74 36 75 37 76 41 77 38 78
REMARK SMILES IDX 40 79 39 80 58 81 59 82 63 83 60 84 62 85 61 86 48 87 49 88
REMARK SMILES IDX 53 89 50 90 52 91 51 92
REMARK H PARENT 17 6 10 16 79 25 24 41 68 60 46 71
REMARK Flexibility Score: inf
ROOT
ATOM      1  C   UNL A   1      35.688  22.378  24.350  1.00  0.00     0.021 C 
ENDROOT
BRANCH   1   2
ATOM      2  C   UNL A   1      34.424  22.262  23.487  1.00  0.00     0.116 C 
BRANCH   2   3
ATOM      3  N   UNL A   1      33.490  21.250  23.966  1.00  0.00    -0.352 N 
ATOM      4  C   UNL A   1      32.394  21.319  24.797  1.00  0.00     0.251 C 
ATOM      5  O   UNL A   1      31.805  20.276  25.080  1.00  0.00    -0.269 OA
ATOM      6  H   UNL A   1      33.678  20.344  23.629  1.00  0.00     0.163 HD
BRANCH   4   7
ATOM      7  C   UNL A   1      31.938  22.585  25.433  1.00  0.00     0.039 A 
ATOM      8  C   UNL A   1      31.410  25.156  26.497  1.00  0.00     0.041 A 
ATOM      9  C   UNL A   1      32.401  24.335  27.053  1.00  0.00     0.027 A 
ATOM     10  C   UNL A   1      30.585  24.603  25.520  1.00  0.00     0.027 A 
ATOM     11  C   UNL A   1      32.666  23.065  26.527  1.00  0.00     0.016 A 
ATOM     12  C   UNL A   1      30.840  23.323  24.996  1.00  0.00     0.016 A 
BRANCH   8  13
ATOM     13  N   UNL A   1      31.391  26.486  26.958  1.00  0.00    -0.326 N 
ATOM     14  C   UNL A   1      32.265  27.529  26.971  1.00  0.00     0.226 C 
ATOM     15  O   UNL A   1      31.916  28.558  27.559  1.00  0.00    -0.275 OA
ATOM     16  H   UNL A   1      30.532  26.720  27.376  1.00  0.00     0.169 HD
BRANCH  14  17
ATOM     17  C   UNL A   1      33.619  27.490  26.317  1.00  0.00     0.128 C 
BRANCH  17  18
ATOM     18  C   UNL A   1      33.617  27.723  24.812  1.00  0.00     0.183 C 
ATOM     19  N   UNL A   1      32.147  26.670  23.221  1.00  0.00    -0.190 N 
ATOM     20  C   UNL A   1      33.332  26.537  23.917  1.00  0.00     0.324 C 
ATOM     21  C   UNL A   1      31.506  27.883  23.310  1.00  0.00     0.319 C 
ATOM     22  O   UNL A   1      34.121  25.605  23.785  1.00  0.00    -0.245 OA
ATOM     23  S   UNL A   1      32.375  28.971  24.365  1.00  0.00    -0.022 SA
ATOM     24  N   UNL A   1      30.421  28.150  22.657  1.00  0.00    -0.235 N 
ATOM     25  H   UNL A   1      29.952  27.431  22.175  1.00  0.00     0.313 HD
BRANCH  19  26
ATOM     26  C   UNL A   1      31.792  25.677  22.211  1.00  0.00     0.243 C 
ATOM     27  C   UNL A   1      32.504  25.818  20.873  1.00  0.00     0.054 C 
ENDBRANCH  19  26
BRANCH  24  28
ATOM     28  C   UNL A   1      29.903  29.456  22.632  1.00  0.00     0.125 A 
ATOM     29  C   UNL A   1      29.679  30.177  23.808  1.00  0.00     0.053 A 
ATOM     30  C   UNL A   1      29.509  30.017  21.408  1.00  0.00     0.053 A 
ATOM     31  C   UNL A   1      29.101  31.454  23.757  1.00  0.00     0.025 A 
ATOM     32  C   UNL A   1      28.940  31.291  21.352  1.00  0.00     0.025 A 
ATOM     33  C   UNL A   1      28.739  32.005  22.528  1.00  0.00     0.041 A 
ATOM     34  Cl  UNL A   1      28.029  33.570  22.460  1.00  0.00    -0.084 Cl
ENDBRANCH  24  28
ENDBRANCH  17  18
ENDBRANCH  14  17
ENDBRANCH   8  13
ENDBRANCH   4   7
ENDBRANCH   2   3
ENDBRANCH   1   2
BRANCH   1  35
ATOM     35  C   UNL A   1      35.860  21.322  25.445  1.00  0.00     0.002 C 
BRANCH  35  36
ATOM     36  C   UNL A   1      36.350  19.945  24.973  1.00  0.00     0.002 C 
BRANCH  36  37
ATOM     37  C   UNL A   1      37.843  19.825  24.638  1.00  0.00     0.021 C 
BRANCH  37  38
ATOM     38  C   UNL A   1      38.815  20.235  25.745  1.00  0.00     0.116 C 
BRANCH  38  39
ATOM     39  N   UNL A   1      39.968  19.351  25.828  1.00  0.00    -0.352 N 
ATOM     40  C   UNL A   1      41.283  19.615  26.124  1.00  0.00     0.251 C 
ATOM     41  H   UNL A   1      39.774  18.406  25.640  1.00  0.00     0.163 HD
ATOM     42  O   UNL A   1      42.132  18.748  25.931  1.00  0.00    -0.269 OA
BRANCH  40  43
ATOM     43  C   UNL A   1      41.700  20.927  26.669  1.00  0.00     0.039 A 
ATOM     44  C   UNL A   1      42.156  21.909  25.783  1.00  0.00     0.014 A 
ATOM     45  C   UNL A   1      41.714  21.176  28.043  1.00  0.00     0.014 A 
ATOM     46  C   UNL A   1      42.569  23.155  26.267  1.00  0.00     0.010 A 
ATOM     47  C   UNL A   1      42.065  22.440  28.521  1.00  0.00     0.010 A 
ATOM     48  C   UNL A   1      42.497  23.442  27.639  1.00  0.00    -0.014 A 
BRANCH  48  49
ATOM     49  C   UNL A   1      42.862  24.784  28.166  1.00  0.00     0.031 A 
ATOM     50  C   UNL A   1      41.805  25.834  28.384  1.00  0.00     0.074 A 
ATOM     51  C   UNL A   1      44.157  25.080  28.392  1.00  0.00     0.049 A 
ATOM     52  N   UNL A   1      41.943  27.076  28.778  1.00  0.00    -0.248 NA
ATOM     53  C   UNL A   1      40.415  25.444  28.103  1.00  0.00     0.031 C 
ATOM     54  C   UNL A   1      45.283  24.165  28.193  1.00  0.00     0.029 A 
ATOM     55  N   UNL A   1      44.746  26.240  28.832  1.00  0.00    -0.354 N 
ATOM     56  C   UNL A   1      40.664  27.618  28.774  1.00  0.00     0.074 A 
ATOM     57  C   UNL A   1      39.769  26.586  28.295  1.00  0.00     0.031 C 
ATOM     58  C   UNL A   1      46.422  24.789  28.535  1.00  0.00     0.029 A 
ATOM     59  C   UNL A   1      46.114  26.158  28.934  1.00  0.00     0.049 A 
ATOM     60  H   UNL A   1      44.237  27.052  29.053  1.00  0.00     0.167 HD
ATOM     61  C   UNL A   1      40.265  28.858  29.149  1.00  0.00     0.031 A 
ATOM     62  C   UNL A   1      47.021  27.083  29.300  1.00  0.00     0.031 A 
ATOM     63  C   UNL A   1      41.151  29.884  29.632  1.00  0.00     0.049 A 
ATOM     64  C   UNL A   1      46.556  28.459  29.691  1.00  0.00     0.074 A 
ATOM     65  C   UNL A   1      40.835  31.154  30.085  1.00  0.00     0.029 A 
ATOM     66  N   UNL A   1      42.529  29.761  29.719  1.00  0.00    -0.354 N 
ATOM     67  N   UNL A   1      45.335  28.934  29.741  1.00  0.00    -0.248 NA
ATOM     68  C   UNL A   1      47.594  29.421  30.085  1.00  0.00     0.031 C 
ATOM     69  C   UNL A   1      42.026  31.817  30.395  1.00  0.00     0.029 A 
ATOM     70  C   UNL A   1      43.080  30.940  30.193  1.00  0.00     0.049 A 
ATOM     71  H   UNL A   1      43.040  28.953  29.481  1.00  0.00     0.167 HD
ATOM     72  C   UNL A   1      45.456  30.240  30.200  1.00  0.00     0.074 A 
ATOM     73  C   UNL A   1      46.867  30.475  30.430  1.00  0.00     0.031 C 
ATOM     74  C   UNL A   1      44.485  31.161  30.414  1.00  0.00     0.031 A 
BRANCH  61  75
ATOM     75  C   UNL A   1      38.798  29.178  29.041  1.00  0.00    -0.014 A 
ATOM     76  C   UNL A   1      37.941  29.056  30.147  1.00  0.00     0.009 A 
ATOM     77  C   UNL A   1      38.271  29.644  27.825  1.00  0.00     0.009 A 
ATOM     78  C   UNL A   1      36.582  29.357  30.027  1.00  0.00     0.001 A 
ATOM     79  C   UNL A   1      36.920  29.973  27.716  1.00  0.00     0.001 A 
ATOM     80  C   UNL A   1      36.073  29.819  28.814  1.00  0.00     0.000 A 
ENDBRANCH  61  75
BRANCH  62  81
ATOM     81  C   UNL A   1      48.467  26.738  29.326  1.00  0.00    -0.014 A 
ATOM     82  C   UNL A   1      49.056  26.227  30.493  1.00  0.00     0.009 A 
ATOM     83  C   UNL A   1      49.269  26.923  28.188  1.00  0.00     0.009 A 
ATOM     84  C   UNL A   1      50.422  25.935  30.528  1.00  0.00     0.001 A 
ATOM     85  C   UNL A   1      50.626  26.601  28.216  1.00  0.00     0.001 A 
ATOM     86  C   UNL A   1      51.204  26.117  29.388  1.00  0.00     0.000 A 
ENDBRANCH  62  81
BRANCH  74  87
ATOM     87  C   UNL A   1      44.911  32.497  30.957  1.00  0.00    -0.014 A 
ATOM     88  C   UNL A   1      45.014  32.727  32.338  1.00  0.00     0.009 A 
ATOM     89  C   UNL A   1      45.254  33.528  30.069  1.00  0.00     0.009 A 
ATOM     90  C   UNL A   1      45.418  33.976  32.817  1.00  0.00     0.001 A 
ATOM     91  C   UNL A   1      45.687  34.765  30.549  1.00  0.00     0.001 A 
ATOM     92  C   UNL A   1      45.759  34.991  31.923  1.00  0.00     0.000 A 
ENDBRANCH  74  87
ENDBRANCH  48  49
ENDBRANCH  40  43
ENDBRANCH  38  39
ENDBRANCH  37  38
ENDBRANCH  36  37
ENDBRANCH  35  36
ENDBRANCH   1  35
TORSDOF 18
ENDMDL
MODEL 3
REMARK VINA RESULT:     -11.2      3.729      7.134
REMARK SMILES CCN1C(=O)[C@H](CC(=O)Nc2ccc(C(=O)NCCCCCCNC(=O)c3ccc(-c4c5nc(c(-c6ccccc6)c6ccc([nH]6)c(-c6ccccc6)c6nc(c(-c7ccccc7)c7ccc4[nH]7)C=C6)C=C5)cc3)cc2)S/C1=[NH+]\c1ccc(Cl)cc1
REMARK SMILES IDX 19 1 18 2 17 3 15 4 16 5 14 7 11 8 12 9 76 10 13 11 75 12
REMARK SMILES IDX 10 13 8 14 9 15 7 17 6 18 3 19 4 20 78 21 5 22 77 23 79 24
REMARK SMILES IDX 2 26 1 27 80 28 81 29 86 30 82 31 85 32 83 33 84 34 20 35
REMARK SMILES IDX 21 36 22 37 23 38 24 39 25 40 26 42 27 43 28 44 74 45 29 46
REMARK SMILES IDX 73 47 30 48 31 49 32 50 67 51 33 52 72 53 66 54 68 55 34 56
REMARK SMILES IDX 71 57 65 58 64 59 35 61 57 62 42 63 56 64 43 65 46 66 55 67
REMARK SMILES IDX 69 68 44 69 45 70 54 72 70 73 47 74 36 75 37 76 41 77 38 78
REMARK SMILES IDX 40 79 39 80 58 81 59 82 63 83 60 84 62 85 61 86 48 87 49 88
REMARK SMILES IDX 53 89 50 90 52 91 51 92
REMARK H PARENT 17 6 10 16 79 25 24 41 68 60 46 71
REMARK Flexibility Score: inf
ROOT
ATOM      1  C   UNL A   1      33.878  21.571  24.125  1.00  0.00     0.021 C 
ENDROOT
BRANCH   1   2
ATOM      2  C   UNL A   1      32.432  21.715  24.618  1.00  0.00     0.116 C 
BRANCH   2   3
ATOM      3  N   UNL A   1      32.332  21.917  26.059  1.00  0.00    -0.352 N 
ATOM      4  C   UNL A   1      32.188  23.049  26.829  1.00  0.00     0.251 C 
ATOM      5  O   UNL A   1      32.182  22.929  28.054  1.00  0.00    -0.269 OA
ATOM      6  H   UNL A   1      32.374  21.083  26.580  1.00  0.00     0.163 HD
BRANCH   4   7
ATOM      7  C   UNL A   1      32.119  24.419  26.251  1.00  0.00     0.039 A 
ATOM      8  C   UNL A   1      31.844  27.139  25.509  1.00  0.00     0.041 A 
ATOM      9  C   UNL A   1      30.720  26.314  25.659  1.00  0.00     0.027 A 
ATOM     10  C   UNL A   1      33.099  26.538  25.572  1.00  0.00     0.027 A 
ATOM     11  C   UNL A   1      30.853  24.971  26.028  1.00  0.00     0.016 A 
ATOM     12  C   UNL A   1      33.239  25.184  25.931  1.00  0.00     0.016 A 
BRANCH   8  13
ATOM     13  N   UNL A   1      31.577  28.513  25.363  1.00  0.00    -0.326 N 
ATOM     14  C   UNL A   1      31.868  29.645  26.059  1.00  0.00     0.226 C 
ATOM     15  O   UNL A   1      31.375  30.705  25.655  1.00  0.00    -0.275 OA
ATOM     16  H   UNL A   1      31.048  28.702  24.555  1.00  0.00     0.169 HD
BRANCH  14  17
ATOM     17  C   UNL A   1      32.743  29.671  27.282  1.00  0.00     0.128 C 
BRANCH  17  18
ATOM     18  C   UNL A   1      33.988  30.540  27.168  1.00  0.00     0.183 C 
ATOM     19  N   UNL A   1      35.073  31.698  28.981  1.00  0.00    -0.190 N 
ATOM     20  C   UNL A   1      34.066  31.775  28.039  1.00  0.00     0.324 C 
ATOM     21  C   UNL A   1      35.932  30.629  28.887  1.00  0.00     0.319 C 
ATOM     22  O   UNL A   1      33.348  32.756  27.860  1.00  0.00    -0.245 OA
ATOM     23  S   UNL A   1      35.474  29.575  27.571  1.00  0.00    -0.022 SA
ATOM     24  N   UNL A   1      36.949  30.478  29.673  1.00  0.00    -0.235 N 
ATOM     25  H   UNL A   1      37.056  31.070  30.452  1.00  0.00     0.313 HD
BRANCH  19  26
ATOM     26  C   UNL A   1      35.371  32.862  29.810  1.00  0.00     0.243 C 
ATOM     27  C   UNL A   1      34.760  32.849  31.203  1.00  0.00     0.054 C 
ENDBRANCH  19  26
BRANCH  24  28
ATOM     28  C   UNL A   1      37.903  29.475  29.425  1.00  0.00     0.125 A 
ATOM     29  C   UNL A   1      38.114  28.428  30.327  1.00  0.00     0.053 A 
ATOM     30  C   UNL A   1      38.731  29.576  28.298  1.00  0.00     0.053 A 
ATOM     31  C   UNL A   1      39.117  27.478  30.086  1.00  0.00     0.025 A 
ATOM     32  C   UNL A   1      39.725  28.627  28.050  1.00  0.00     0.025 A 
ATOM     33  C   UNL A   1      39.914  27.581  28.946  1.00  0.00     0.041 A 
ATOM     34  Cl  UNL A   1      41.146  26.418  28.646  1.00  0.00    -0.084 Cl
ENDBRANCH  24  28
ENDBRANCH  17  18
ENDBRANCH  14  17
ENDBRANCH   8  13
ENDBRANCH   4   7
ENDBRANCH   2   3
ENDBRANCH   1   2
BRANCH   1  35
ATOM     35  C   UNL A   1      34.502  22.811  23.479  1.00  0.00     0.002 C 
BRANCH  35  36
ATOM     36  C   UNL A   1      35.961  23.099  23.862  1.00  0.00     0.002 C 
BRANCH  36  37
ATOM     37  C   UNL A   1      36.451  22.514  25.193  1.00  0.00     0.021 C 
BRANCH  37  38
ATOM     38  C   UNL A   1      37.965  22.383  25.353  1.00  0.00     0.116 C 
BRANCH  38  39
ATOM     39  N   UNL A   1      38.396  20.997  25.462  1.00  0.00    -0.352 N 
ATOM     40  C   UNL A   1      39.620  20.459  25.775  1.00  0.00     0.251 C 
ATOM     41  H   UNL A   1      37.693  20.335  25.281  1.00  0.00     0.163 HD
ATOM     42  O   UNL A   1      39.814  19.258  25.603  1.00  0.00    -0.269 OA
BRANCH  40  43
ATOM     43  C   UNL A   1      40.715  21.298  26.312  1.00  0.00     0.039 A 
ATOM     44  C   UNL A   1      42.038  20.883  26.119  1.00  0.00     0.014 A 
ATOM     45  C   UNL A   1      40.454  22.448  27.061  1.00  0.00     0.014 A 
ATOM     46  C   UNL A   1      43.094  21.648  26.625  1.00  0.00     0.010 A 
ATOM     47  C   UNL A   1      41.508  23.244  27.510  1.00  0.00     0.010 A 
ATOM     48  C   UNL A   1      42.839  22.853  27.299  1.00  0.00    -0.014 A 
BRANCH  48  49
ATOM     49  C   UNL A   1      43.950  23.717  27.780  1.00  0.00     0.031 A 
ATOM     50  C   UNL A   1      44.201  23.891  29.254  1.00  0.00     0.074 A 
ATOM     51  C   UNL A   1      44.699  24.394  26.889  1.00  0.00     0.049 A 
ATOM     52  N   UNL A   1      45.081  24.650  29.858  1.00  0.00    -0.248 NA
ATOM     53  C   UNL A   1      43.334  23.132  30.169  1.00  0.00     0.031 C 
ATOM     54  C   UNL A   1      44.542  24.338  25.434  1.00  0.00     0.029 A 
ATOM     55  N   UNL A   1      45.739  25.272  27.076  1.00  0.00    -0.354 N 
ATOM     56  C   UNL A   1      44.863  24.472  31.219  1.00  0.00     0.074 A 
ATOM     57  C   UNL A   1      43.738  23.571  31.353  1.00  0.00     0.031 C 
ATOM     58  C   UNL A   1      45.469  25.124  24.862  1.00  0.00     0.029 A 
ATOM     59  C   UNL A   1      46.255  25.772  25.906  1.00  0.00     0.049 A 
ATOM     60  H   UNL A   1      46.081  25.517  27.965  1.00  0.00     0.167 HD
ATOM     61  C   UNL A   1      45.546  24.998  32.266  1.00  0.00     0.031 A 
ATOM     62  C   UNL A   1      47.246  26.660  25.695  1.00  0.00     0.031 A 
ATOM     63  C   UNL A   1      46.669  25.889  32.136  1.00  0.00     0.049 A 
ATOM     64  C   UNL A   1      47.974  27.246  26.873  1.00  0.00     0.074 A 
ATOM     65  C   UNL A   1      47.458  26.433  33.135  1.00  0.00     0.029 A 
ATOM     66  N   UNL A   1      47.160  26.371  30.933  1.00  0.00    -0.354 N 
ATOM     67  N   UNL A   1      47.795  27.018  28.152  1.00  0.00    -0.248 NA
ATOM     68  C   UNL A   1      49.047  28.204  26.577  1.00  0.00     0.031 C 
ATOM     69  C   UNL A   1      48.391  27.287  32.540  1.00  0.00     0.029 A 
ATOM     70  C   UNL A   1      48.223  27.227  31.166  1.00  0.00     0.049 A 
ATOM     71  H   UNL A   1      46.805  26.138  30.045  1.00  0.00     0.167 HD
ATOM     72  C   UNL A   1      48.752  27.781  28.810  1.00  0.00     0.074 A 
ATOM     73  C   UNL A   1      49.518  28.464  27.788  1.00  0.00     0.031 C 
ATOM     74  C   UNL A   1      48.976  27.903  30.141  1.00  0.00     0.031 A 
BRANCH  61  75
ATOM     75  C   UNL A   1      45.086  24.629  33.650  1.00  0.00    -0.014 A 
ATOM     76  C   UNL A   1      44.195  25.446  34.366  1.00  0.00     0.009 A 
ATOM     77  C   UNL A   1      45.520  23.428  34.235  1.00  0.00     0.009 A 
ATOM     78  C   UNL A   1      43.780  25.087  35.650  1.00  0.00     0.001 A 
ATOM     79  C   UNL A   1      45.080  23.057  35.506  1.00  0.00     0.001 A 
ATOM     80  C   UNL A   1      44.218  23.892  36.218  1.00  0.00     0.000 A 
ENDBRANCH  61  75
BRANCH  62  81
ATOM     81  C   UNL A   1      47.618  27.044  24.308  1.00  0.00    -0.014 A 
ATOM     82  C   UNL A   1      46.922  28.062  23.639  1.00  0.00     0.009 A 
ATOM     83  C   UNL A   1      48.668  26.390  23.642  1.00  0.00     0.009 A 
ATOM     84  C   UNL A   1      47.251  28.398  22.323  1.00  0.00     0.001 A 
ATOM     85  C   UNL A   1      49.015  26.750  22.339  1.00  0.00     0.001 A 
ATOM     86  C   UNL A   1      48.299  27.746  21.677  1.00  0.00     0.000 A 
ENDBRANCH  62  81
BRANCH  74  87
ATOM     87  C   UNL A   1      50.119  28.781  30.569  1.00  0.00    -0.014 A 
ATOM     88  C   UNL A   1      51.433  28.293  30.632  1.00  0.00     0.009 A 
ATOM     89  C   UNL A   1      49.879  30.130  30.875  1.00  0.00     0.009 A 
ATOM     90  C   UNL A   1      52.479  29.131  31.027  1.00  0.00     0.001 A 
ATOM     91  C   UNL A   1      50.930  30.973  31.239  1.00  0.00     0.001 A 
ATOM     92  C   UNL A   1      52.227  30.470  31.325  1.00  0.00     0.000 A 
ENDBRANCH  74  87
ENDBRANCH  48  49
ENDBRANCH  40  43
ENDBRANCH  38  39
ENDBRANCH  37  38
ENDBRANCH  36  37
ENDBRANCH  35  36
ENDBRANCH   1  35
TORSDOF 18
ENDMDL
