MODEL 1
REMARK VINA RESULT:      -9.8      0.000      0.000
REMARK SMILES Cc1cccc(N2C(=O)/C(=C/c3ccc(C(=O)NCCCCCCNC(=O)c4ccc(-c5c6nc(c(-c7ccccc7)c7ccc([nH]7)c(-c7ccccc7)c7nc(c(-c8ccccc8)c8ccc5[nH]8)C=C7)C=C6)cc4)cc3)c3ccccc3C2=O)c1
REMARK SMILES IDX 21 1 20 2 19 3 18 4 16 5 17 6 15 8 12 9 13 10 77 11 14 12
REMARK SMILES IDX 76 13 11 14 7 15 8 16 84 17 9 18 10 19 83 20 85 21 78 22
REMARK SMILES IDX 82 23 79 24 81 25 80 26 6 27 1 28 2 29 3 30 86 31 4 32 5 33
REMARK SMILES IDX 22 34 23 35 24 36 25 37 26 38 27 40 28 41 29 42 75 43 30 44
REMARK SMILES IDX 74 45 31 46 32 47 33 48 68 49 34 50 73 51 67 52 69 53 35 54
REMARK SMILES IDX 72 55 66 56 65 57 36 59 58 60 43 61 57 62 44 63 47 64 56 65
REMARK SMILES IDX 70 66 45 67 46 68 55 70 71 71 48 72 37 73 38 74 42 75 39 76
REMARK SMILES IDX 41 77 40 78 59 79 60 80 64 81 61 82 63 83 62 84 49 85 50 86
REMARK SMILES IDX 54 87 51 88 53 89 52 90
REMARK H PARENT 18 7 25 39 69 58 47 69
REMARK Flexibility Score: inf
ROOT
ATOM      1  C   UNL A   1      40.004  34.451  30.337  1.00  0.00     0.002 C 
ENDROOT
BRANCH   1   2
ATOM      2  C   UNL A   1      40.916  35.354  29.498  1.00  0.00     0.021 C 
BRANCH   2   3
ATOM      3  C   UNL A   1      40.793  35.253  27.978  1.00  0.00     0.116 C 
BRANCH   3   4
ATOM      4  N   UNL A   1      41.704  36.119  27.253  1.00  0.00    -0.352 N 
ATOM      5  C   UNL A   1      42.973  35.858  26.790  1.00  0.00     0.251 C 
ATOM      6  O   UNL A   1      43.614  36.739  26.226  1.00  0.00    -0.269 OA
ATOM      7  H   UNL A   1      41.365  37.024  27.065  1.00  0.00     0.163 HD
BRANCH   5   8
ATOM      8  C   UNL A   1      43.600  34.536  27.025  1.00  0.00     0.039 A 
ATOM      9  C   UNL A   1      45.049  32.174  27.412  1.00  0.00    -0.025 A 
ATOM     10  C   UNL A   1      44.858  32.677  26.121  1.00  0.00     0.009 A 
ATOM     11  C   UNL A   1      44.397  32.787  28.492  1.00  0.00     0.009 A 
ATOM     12  C   UNL A   1      44.134  33.856  25.927  1.00  0.00     0.014 A 
ATOM     13  C   UNL A   1      43.676  33.968  28.300  1.00  0.00     0.014 A 
BRANCH   9  14
ATOM     14  C   UNL A   1      45.948  31.027  27.603  1.00  0.00     0.022 C 
ATOM     15  N   UNL A   1      46.933  27.708  26.605  1.00  0.00    -0.242 N 
ATOM     16  C   UNL A   1      46.867  28.792  27.506  1.00  0.00     0.265 C 
ATOM     17  C   UNL A   1      45.988  27.564  25.567  1.00  0.00     0.265 C 
ATOM     18  O   UNL A   1      47.694  29.080  28.372  1.00  0.00    -0.268 OA
ATOM     19  C   UNL A   1      45.705  29.730  27.301  1.00  0.00     0.049 C 
ATOM     20  C   UNL A   1      44.648  28.159  25.782  1.00  0.00     0.048 A 
ATOM     21  O   UNL A   1      46.131  26.974  24.498  1.00  0.00    -0.268 OA
ATOM     22  C   UNL A   1      44.484  29.186  26.703  1.00  0.00    -0.000 A 
ATOM     23  C   UNL A   1      43.545  27.658  25.070  1.00  0.00     0.014 A 
ATOM     24  C   UNL A   1      43.184  29.628  26.994  1.00  0.00     0.010 A 
ATOM     25  C   UNL A   1      42.266  28.153  25.318  1.00  0.00     0.001 A 
ATOM     26  C   UNL A   1      42.084  29.124  26.295  1.00  0.00     0.001 A 
BRANCH  15  27
ATOM     27  C   UNL A   1      48.066  26.782  26.690  1.00  0.00     0.053 A 
ATOM     28  C   UNL A   1      51.481  26.230  25.012  1.00  0.00     0.044 C 
ATOM     29  C   UNL A   1      50.302  26.052  25.924  1.00  0.00    -0.049 A 
ATOM     30  C   UNL A   1      50.294  25.009  26.847  1.00  0.00     0.003 A 
ATOM     31  C   UNL A   1      49.205  26.933  25.870  1.00  0.00     0.030 A 
ATOM     32  C   UNL A   1      49.203  24.846  27.688  1.00  0.00     0.002 A 
ATOM     33  C   UNL A   1      48.108  25.716  27.605  1.00  0.00     0.027 A 
ENDBRANCH  15  27
ENDBRANCH   9  14
ENDBRANCH   5   8
ENDBRANCH   3   4
ENDBRANCH   2   3
ENDBRANCH   1   2
BRANCH   1  34
ATOM     34  C   UNL A   1      39.258  33.322  29.612  1.00  0.00     0.002 C 
BRANCH  34  35
ATOM     35  C   UNL A   1      37.800  33.584  29.239  1.00  0.00     0.021 C 
BRANCH  35  36
ATOM     36  C   UNL A   1      36.767  32.921  30.139  1.00  0.00     0.116 C 
BRANCH  36  37
ATOM     37  N   UNL A   1      35.512  32.574  29.487  1.00  0.00    -0.352 N 
ATOM     38  C   UNL A   1      35.190  31.462  28.715  1.00  0.00     0.251 C 
ATOM     39  H   UNL A   1      34.783  33.224  29.609  1.00  0.00     0.163 HD
ATOM     40  O   UNL A   1      34.095  31.373  28.203  1.00  0.00    -0.269 OA
BRANCH  38  41
ATOM     41  C   UNL A   1      36.139  30.315  28.647  1.00  0.00     0.039 A 
ATOM     42  C   UNL A   1      36.319  29.555  29.810  1.00  0.00     0.014 A 
ATOM     43  C   UNL A   1      36.990  30.134  27.564  1.00  0.00     0.014 A 
ATOM     44  C   UNL A   1      37.504  28.841  29.983  1.00  0.00     0.010 A 
ATOM     45  C   UNL A   1      38.211  29.529  27.774  1.00  0.00     0.010 A 
ATOM     46  C   UNL A   1      38.496  28.951  29.012  1.00  0.00    -0.014 A 
BRANCH  46  47
ATOM     47  C   UNL A   1      39.891  28.614  29.246  1.00  0.00     0.031 A 
ATOM     48  C   UNL A   1      40.453  27.348  28.731  1.00  0.00     0.074 A 
ATOM     49  C   UNL A   1      40.708  29.495  29.870  1.00  0.00     0.049 A 
ATOM     50  N   UNL A   1      41.490  26.769  29.238  1.00  0.00    -0.248 NA
ATOM     51  C   UNL A   1      39.867  26.606  27.621  1.00  0.00     0.031 C 
ATOM     52  C   UNL A   1      42.169  29.451  29.927  1.00  0.00     0.029 A 
ATOM     53  N   UNL A   1      40.417  30.569  30.696  1.00  0.00    -0.354 N 
ATOM     54  C   UNL A   1      41.894  25.805  28.349  1.00  0.00     0.074 A 
ATOM     55  C   UNL A   1      40.796  25.667  27.417  1.00  0.00     0.031 C 
ATOM     56  C   UNL A   1      42.585  30.208  30.956  1.00  0.00     0.029 A 
ATOM     57  C   UNL A   1      41.401  30.617  31.686  1.00  0.00     0.049 A 
ATOM     58  H   UNL A   1      39.654  31.185  30.602  1.00  0.00     0.167 HD
ATOM     59  C   UNL A   1      43.173  25.339  28.401  1.00  0.00     0.031 A 
ATOM     60  C   UNL A   1      41.182  30.369  33.013  1.00  0.00     0.031 A 
ATOM     61  C   UNL A   1      43.941  25.942  29.491  1.00  0.00     0.049 A 
ATOM     62  C   UNL A   1      42.031  29.237  33.583  1.00  0.00     0.074 A 
ATOM     63  C   UNL A   1      44.936  26.906  29.542  1.00  0.00     0.029 A 
ATOM     64  N   UNL A   1      43.523  25.757  30.801  1.00  0.00    -0.354 N 
ATOM     65  N   UNL A   1      42.749  28.422  32.861  1.00  0.00    -0.248 NA
ATOM     66  C   UNL A   1      42.057  28.873  34.998  1.00  0.00     0.031 C 
ATOM     67  C   UNL A   1      45.134  27.275  30.900  1.00  0.00     0.029 A 
ATOM     68  C   UNL A   1      44.266  26.528  31.673  1.00  0.00     0.049 A 
ATOM     69  H   UNL A   1      42.794  25.154  31.072  1.00  0.00     0.167 HD
ATOM     70  C   UNL A   1      43.285  27.433  33.650  1.00  0.00     0.074 A 
ATOM     71  C   UNL A   1      42.817  27.763  34.984  1.00  0.00     0.031 C 
ATOM     72  C   UNL A   1      44.027  26.418  33.108  1.00  0.00     0.031 A 
BRANCH  59  73
ATOM     73  C   UNL A   1      43.808  24.539  27.288  1.00  0.00    -0.014 A 
ATOM     74  C   UNL A   1      44.953  23.765  27.553  1.00  0.00     0.009 A 
ATOM     75  C   UNL A   1      43.357  24.532  25.957  1.00  0.00     0.009 A 
ATOM     76  C   UNL A   1      45.665  23.116  26.536  1.00  0.00     0.001 A 
ATOM     77  C   UNL A   1      44.086  23.920  24.928  1.00  0.00     0.001 A 
ATOM     78  C   UNL A   1      45.250  23.222  25.216  1.00  0.00     0.000 A 
ENDBRANCH  59  73
BRANCH  60  79
ATOM     79  C   UNL A   1      39.803  30.683  33.472  1.00  0.00    -0.014 A 
ATOM     80  C   UNL A   1      39.448  32.034  33.650  1.00  0.00     0.009 A 
ATOM     81  C   UNL A   1      38.781  29.728  33.368  1.00  0.00     0.009 A 
ATOM     82  C   UNL A   1      38.110  32.434  33.589  1.00  0.00     0.001 A 
ATOM     83  C   UNL A   1      37.441  30.133  33.323  1.00  0.00     0.001 A 
ATOM     84  C   UNL A   1      37.110  31.486  33.393  1.00  0.00     0.000 A 
ENDBRANCH  60  79
BRANCH  72  85
ATOM     85  C   UNL A   1      44.598  25.201  33.816  1.00  0.00    -0.014 A 
ATOM     86  C   UNL A   1      45.929  25.041  34.213  1.00  0.00     0.009 A 
ATOM     87  C   UNL A   1      43.745  24.098  34.073  1.00  0.00     0.009 A 
ATOM     88  C   UNL A   1      46.361  23.886  34.891  1.00  0.00     0.001 A 
ATOM     89  C   UNL A   1      44.167  22.943  34.737  1.00  0.00     0.001 A 
ATOM     90  C   UNL A   1      45.480  22.845  35.161  1.00  0.00     0.000 A 
ENDBRANCH  72  85
ENDBRANCH  46  47
ENDBRANCH  38  41
ENDBRANCH  36  37
ENDBRANCH  35  36
ENDBRANCH  34  35
ENDBRANCH   1  34
TORSDOF 15
ENDMDL
MODEL 2
REMARK VINA RESULT:      -9.7      4.921      9.447
REMARK SMILES Cc1cccc(N2C(=O)/C(=C/c3ccc(C(=O)NCCCCCCNC(=O)c4ccc(-c5c6nc(c(-c7ccccc7)c7ccc([nH]7)c(-c7ccccc7)c7nc(c(-c8ccccc8)c8ccc5[nH]8)C=C7)C=C6)cc4)cc3)c3ccccc3C2=O)c1
REMARK SMILES IDX 21 1 20 2 19 3 18 4 16 5 17 6 15 8 12 9 13 10 77 11 14 12
REMARK SMILES IDX 76 13 11 14 7 15 8 16 84 17 9 18 10 19 83 20 85 21 78 22
REMARK SMILES IDX 82 23 79 24 81 25 80 26 6 27 1 28 2 29 3 30 86 31 4 32 5 33
REMARK SMILES IDX 22 34 23 35 24 36 25 37 26 38 27 40 28 41 29 42 75 43 30 44
REMARK SMILES IDX 74 45 31 46 32 47 33 48 68 49 34 50 73 51 67 52 69 53 35 54
REMARK SMILES IDX 72 55 66 56 65 57 36 59 58 60 43 61 57 62 44 63 47 64 56 65
REMARK SMILES IDX 70 66 45 67 46 68 55 70 71 71 48 72 37 73 38 74 42 75 39 76
REMARK SMILES IDX 41 77 40 78 59 79 60 80 64 81 61 82 63 83 62 84 49 85 50 86
REMARK SMILES IDX 54 87 51 88 53 89 52 90
REMARK H PARENT 18 7 25 39 69 58 47 69
REMARK Flexibility Score: inf
ROOT
ATOM      1  C   UNL A   1      36.236  30.258  27.936  1.00  0.00     0.002 C 
ENDROOT
BRANCH   1   2
ATOM      2  C   UNL A   1      35.403  31.517  27.663  1.00  0.00     0.021 C 
BRANCH   2   3
ATOM      3  C   UNL A   1      34.031  31.606  28.331  1.00  0.00     0.116 C 
BRANCH   3   4
ATOM      4  N   UNL A   1      32.946  31.897  27.413  1.00  0.00    -0.352 N 
ATOM      5  C   UNL A   1      32.176  31.033  26.670  1.00  0.00     0.251 C 
ATOM      6  O   UNL A   1      31.319  31.474  25.909  1.00  0.00    -0.269 OA
ATOM      7  H   UNL A   1      32.729  32.852  27.307  1.00  0.00     0.163 HD
BRANCH   5   8
ATOM      8  C   UNL A   1      32.416  29.572  26.731  1.00  0.00     0.039 A 
ATOM      9  C   UNL A   1      32.664  26.787  26.627  1.00  0.00    -0.025 A 
ATOM     10  C   UNL A   1      31.531  27.370  27.205  1.00  0.00     0.009 A 
ATOM     11  C   UNL A   1      33.729  27.606  26.224  1.00  0.00     0.009 A 
ATOM     12  C   UNL A   1      31.407  28.761  27.258  1.00  0.00     0.014 A 
ATOM     13  C   UNL A   1      33.605  28.997  26.273  1.00  0.00     0.014 A 
BRANCH   9  14
ATOM     14  C   UNL A   1      32.695  25.330  26.437  1.00  0.00     0.022 C 
ATOM     15  N   UNL A   1      33.209  22.539  24.217  1.00  0.00    -0.242 N 
ATOM     16  C   UNL A   1      32.705  23.154  25.383  1.00  0.00     0.265 C 
ATOM     17  C   UNL A   1      33.530  23.300  23.072  1.00  0.00     0.265 C 
ATOM     18  O   UNL A   1      32.498  22.611  26.469  1.00  0.00    -0.268 OA
ATOM     19  C   UNL A   1      32.497  24.643  25.288  1.00  0.00     0.049 C 
ATOM     20  C   UNL A   1      32.801  24.576  22.881  1.00  0.00     0.048 A 
ATOM     21  O   UNL A   1      34.333  23.019  22.185  1.00  0.00    -0.268 OA
ATOM     22  C   UNL A   1      32.215  25.212  23.968  1.00  0.00    -0.000 A 
ATOM     23  C   UNL A   1      32.685  25.121  21.590  1.00  0.00     0.014 A 
ATOM     24  C   UNL A   1      31.408  26.336  23.736  1.00  0.00     0.010 A 
ATOM     25  C   UNL A   1      31.937  26.278  21.381  1.00  0.00     0.001 A 
ATOM     26  C   UNL A   1      31.282  26.874  22.453  1.00  0.00     0.001 A 
BRANCH  15  27
ATOM     27  C   UNL A   1      33.503  21.104  24.241  1.00  0.00     0.053 A 
ATOM     28  C   UNL A   1      32.119  17.842  22.749  1.00  0.00     0.044 C 
ATOM     29  C   UNL A   1      32.985  18.795  23.521  1.00  0.00    -0.049 A 
ATOM     30  C   UNL A   1      34.065  18.308  24.253  1.00  0.00     0.003 A 
ATOM     31  C   UNL A   1      32.730  20.180  23.506  1.00  0.00     0.030 A 
ATOM     32  C   UNL A   1      34.863  19.190  24.967  1.00  0.00     0.002 A 
ATOM     33  C   UNL A   1      34.581  20.563  24.962  1.00  0.00     0.027 A 
ENDBRANCH  15  27
ENDBRANCH   9  14
ENDBRANCH   5   8
ENDBRANCH   3   4
ENDBRANCH   2   3
ENDBRANCH   1   2
BRANCH   1  34
ATOM     34  C   UNL A   1      37.741  30.439  28.177  1.00  0.00     0.002 C 
BRANCH  34  35
ATOM     35  C   UNL A   1      38.163  31.619  29.052  1.00  0.00     0.021 C 
BRANCH  35  36
ATOM     36  C   UNL A   1      38.877  31.250  30.345  1.00  0.00     0.116 C 
BRANCH  36  37
ATOM     37  N   UNL A   1      38.027  30.670  31.375  1.00  0.00    -0.352 N 
ATOM     38  C   UNL A   1      37.910  29.348  31.791  1.00  0.00     0.251 C 
ATOM     39  H   UNL A   1      37.446  31.310  31.847  1.00  0.00     0.163 HD
ATOM     40  O   UNL A   1      37.097  29.045  32.637  1.00  0.00    -0.269 OA
BRANCH  38  41
ATOM     41  C   UNL A   1      38.889  28.336  31.303  1.00  0.00     0.039 A 
ATOM     42  C   UNL A   1      40.197  28.409  31.801  1.00  0.00     0.014 A 
ATOM     43  C   UNL A   1      38.603  27.498  30.232  1.00  0.00     0.014 A 
ATOM     44  C   UNL A   1      41.244  27.874  31.053  1.00  0.00     0.010 A 
ATOM     45  C   UNL A   1      39.639  27.071  29.430  1.00  0.00     0.010 A 
ATOM     46  C   UNL A   1      40.959  27.329  29.803  1.00  0.00    -0.014 A 
BRANCH  46  47
ATOM     47  C   UNL A   1      41.961  27.122  28.769  1.00  0.00     0.031 A 
ATOM     48  C   UNL A   1      42.510  25.773  28.518  1.00  0.00     0.074 A 
ATOM     49  C   UNL A   1      42.341  28.149  27.975  1.00  0.00     0.049 A 
ATOM     50  N   UNL A   1      43.661  25.561  27.973  1.00  0.00    -0.248 NA
ATOM     51  C   UNL A   1      41.820  24.545  28.897  1.00  0.00     0.031 C 
ATOM     52  C   UNL A   1      43.097  28.061  26.725  1.00  0.00     0.029 A 
ATOM     53  N   UNL A   1      42.242  29.519  28.159  1.00  0.00    -0.354 N 
ATOM     54  C   UNL A   1      43.712  24.233  27.632  1.00  0.00     0.074 A 
ATOM     55  C   UNL A   1      42.597  23.622  28.321  1.00  0.00     0.031 C 
ATOM     56  C   UNL A   1      43.640  29.262  26.462  1.00  0.00     0.029 A 
ATOM     57  C   UNL A   1      43.390  30.101  27.619  1.00  0.00     0.049 A 
ATOM     58  H   UNL A   1      41.496  29.996  28.592  1.00  0.00     0.167 HD
ATOM     59  C   UNL A   1      44.596  23.819  26.680  1.00  0.00     0.031 A 
ATOM     60  C   UNL A   1      44.363  30.725  28.349  1.00  0.00     0.031 A 
ATOM     61  C   UNL A   1      45.428  24.914  26.181  1.00  0.00     0.049 A 
ATOM     62  C   UNL A   1      45.755  30.126  28.175  1.00  0.00     0.074 A 
ATOM     63  C   UNL A   1      45.440  25.648  25.004  1.00  0.00     0.029 A 
ATOM     64  N   UNL A   1      46.262  25.590  27.060  1.00  0.00    -0.354 N 
ATOM     65  N   UNL A   1      45.999  28.998  27.565  1.00  0.00    -0.248 NA
ATOM     66  C   UNL A   1      46.966  30.698  28.759  1.00  0.00     0.031 C 
ATOM     67  C   UNL A   1      46.316  26.754  25.176  1.00  0.00     0.029 A 
ATOM     68  C   UNL A   1      46.841  26.686  26.452  1.00  0.00     0.049 A 
ATOM     69  H   UNL A   1      46.421  25.322  27.994  1.00  0.00     0.167 HD
ATOM     70  C   UNL A   1      47.325  28.664  27.693  1.00  0.00     0.074 A 
ATOM     71  C   UNL A   1      47.887  29.766  28.454  1.00  0.00     0.031 C 
ATOM     72  C   UNL A   1      47.811  27.487  27.191  1.00  0.00     0.031 A 
BRANCH  59  73
ATOM     73  C   UNL A   1      44.512  22.471  26.005  1.00  0.00    -0.014 A 
ATOM     74  C   UNL A   1      43.296  21.761  26.018  1.00  0.00     0.009 A 
ATOM     75  C   UNL A   1      45.590  21.828  25.374  1.00  0.00     0.009 A 
ATOM     76  C   UNL A   1      43.193  20.451  25.533  1.00  0.00     0.001 A 
ATOM     77  C   UNL A   1      45.507  20.504  24.923  1.00  0.00     0.001 A 
ATOM     78  C   UNL A   1      44.310  19.809  25.015  1.00  0.00     0.000 A 
ENDBRANCH  59  73
BRANCH  60  79
ATOM     79  C   UNL A   1      43.877  31.335  29.615  1.00  0.00    -0.014 A 
ATOM     80  C   UNL A   1      42.918  32.365  29.537  1.00  0.00     0.009 A 
ATOM     81  C   UNL A   1      44.058  30.679  30.841  1.00  0.00     0.009 A 
ATOM     82  C   UNL A   1      42.072  32.635  30.616  1.00  0.00     0.001 A 
ATOM     83  C   UNL A   1      43.218  30.965  31.924  1.00  0.00     0.001 A 
ATOM     84  C   UNL A   1      42.202  31.912  31.798  1.00  0.00     0.000 A 
ENDBRANCH  60  79
BRANCH  72  85
ATOM     85  C   UNL A   1      49.213  26.921  27.337  1.00  0.00    -0.014 A 
ATOM     86  C   UNL A   1      49.912  26.215  26.352  1.00  0.00     0.009 A 
ATOM     87  C   UNL A   1      49.883  27.065  28.578  1.00  0.00     0.009 A 
ATOM     88  C   UNL A   1      51.222  25.752  26.568  1.00  0.00     0.001 A 
ATOM     89  C   UNL A   1      51.181  26.600  28.805  1.00  0.00     0.001 A 
ATOM     90  C   UNL A   1      51.859  25.953  27.788  1.00  0.00     0.000 A 
ENDBRANCH  72  85
ENDBRANCH  46  47
ENDBRANCH  38  41
ENDBRANCH  36  37
ENDBRANCH  35  36
ENDBRANCH  34  35
ENDBRANCH   1  34
TORSDOF 15
ENDMDL
MODEL 3
REMARK VINA RESULT:      -9.4      4.692     11.782
REMARK SMILES Cc1cccc(N2C(=O)/C(=C/c3ccc(C(=O)NCCCCCCNC(=O)c4ccc(-c5c6nc(c(-c7ccccc7)c7ccc([nH]7)c(-c7ccccc7)c7nc(c(-c8ccccc8)c8ccc5[nH]8)C=C7)C=C6)cc4)cc3)c3ccccc3C2=O)c1
REMARK SMILES IDX 21 1 20 2 19 3 18 4 16 5 17 6 15 8 12 9 13 10 77 11 14 12
REMARK SMILES IDX 76 13 11 14 7 15 8 16 84 17 9 18 10 19 83 20 85 21 78 22
REMARK SMILES IDX 82 23 79 24 81 25 80 26 6 27 1 28 2 29 3 30 86 31 4 32 5 33
REMARK SMILES IDX 22 34 23 35 24 36 25 37 26 38 27 40 28 41 29 42 75 43 30 44
REMARK SMILES IDX 74 45 31 46 32 47 33 48 68 49 34 50 73 51 67 52 69 53 35 54
REMARK SMILES IDX 72 55 66 56 65 57 36 59 58 60 43 61 57 62 44 63 47 64 56 65
REMARK SMILES IDX 70 66 45 67 46 68 55 70 71 71 48 72 37 73 38 74 42 75 39 76
REMARK SMILES IDX 41 77 40 78 59 79 60 80 64 81 61 82 63 83 62 84 49 85 50 86
REMARK SMILES IDX 54 87 51 88 53 89 52 90
REMARK H PARENT 18 7 25 39 69 58 47 69
REMARK Flexibility Score: inf
ROOT
ATOM      1  C   UNL A   1      42.298  21.913  27.361  1.00  0.00     0.002 C 
ENDROOT
BRANCH   1   2
ATOM      2  C   UNL A   1      40.821  22.080  27.737  1.00  0.00     0.021 C 
BRANCH   2   3
ATOM      3  C   UNL A   1      39.812  22.156  26.591  1.00  0.00     0.116 C 
BRANCH   3   4
ATOM      4  N   UNL A   1      39.404  20.863  26.076  1.00  0.00    -0.352 N 
ATOM      5  C   UNL A   1      38.292  20.529  25.339  1.00  0.00     0.251 C 
ATOM      6  O   UNL A   1      38.093  19.360  25.023  1.00  0.00    -0.269 OA
ATOM      7  H   UNL A   1      40.011  20.116  26.284  1.00  0.00     0.163 HD
BRANCH   5   8
ATOM      8  C   UNL A   1      37.294  21.563  24.975  1.00  0.00     0.039 A 
ATOM      9  C   UNL A   1      35.591  23.714  24.426  1.00  0.00    -0.025 A 
ATOM     10  C   UNL A   1      35.671  23.195  25.723  1.00  0.00     0.009 A 
ATOM     11  C   UNL A   1      36.267  23.064  23.383  1.00  0.00     0.009 A 
ATOM     12  C   UNL A   1      36.521  22.120  25.997  1.00  0.00     0.014 A 
ATOM     13  C   UNL A   1      37.119  21.992  23.656  1.00  0.00     0.014 A 
BRANCH   9  14
ATOM     14  C   UNL A   1      34.817  24.943  24.199  1.00  0.00     0.022 C 
ATOM     15  N   UNL A   1      31.884  26.898  24.945  1.00  0.00    -0.242 N 
ATOM     16  C   UNL A   1      32.991  26.527  24.152  1.00  0.00     0.265 C 
ATOM     17  C   UNL A   1      31.328  26.003  25.884  1.00  0.00     0.265 C 
ATOM     18  O   UNL A   1      33.625  27.256  23.388  1.00  0.00    -0.268 OA
ATOM     19  C   UNL A   1      33.484  25.117  24.352  1.00  0.00     0.049 C 
ATOM     20  C   UNL A   1      31.491  24.554  25.619  1.00  0.00     0.048 A 
ATOM     21  O   UNL A   1      30.691  26.279  26.898  1.00  0.00    -0.268 OA
ATOM     22  C   UNL A   1      32.515  24.110  24.792  1.00  0.00    -0.000 A 
ATOM     23  C   UNL A   1      30.587  23.640  26.187  1.00  0.00     0.014 A 
ATOM     24  C   UNL A   1      32.556  22.752  24.440  1.00  0.00     0.010 A 
ATOM     25  C   UNL A   1      30.680  22.283  25.885  1.00  0.00     0.001 A 
ATOM     26  C   UNL A   1      31.653  21.842  24.995  1.00  0.00     0.001 A 
BRANCH  15  27
ATOM     27  C   UNL A   1      31.380  28.271  24.863  1.00  0.00     0.053 A 
ATOM     28  C   UNL A   1      31.771  31.612  26.726  1.00  0.00     0.044 C 
ATOM     29  C   UNL A   1      31.323  30.591  25.721  1.00  0.00    -0.049 A 
ATOM     30  C   UNL A   1      30.432  30.957  24.715  1.00  0.00     0.003 A 
ATOM     31  C   UNL A   1      31.800  29.267  25.772  1.00  0.00     0.030 A 
ATOM     32  C   UNL A   1      30.017  30.011  23.789  1.00  0.00     0.002 A 
ATOM     33  C   UNL A   1      30.482  28.692  23.867  1.00  0.00     0.027 A 
ENDBRANCH  15  27
ENDBRANCH   9  14
ENDBRANCH   5   8
ENDBRANCH   3   4
ENDBRANCH   2   3
ENDBRANCH   1   2
BRANCH   1  34
ATOM     34  C   UNL A   1      43.194  23.158  27.426  1.00  0.00     0.002 C 
BRANCH  34  35
ATOM     35  C   UNL A   1      42.839  24.210  28.477  1.00  0.00     0.021 C 
BRANCH  35  36
ATOM     36  C   UNL A   1      42.126  25.446  27.947  1.00  0.00     0.116 C 
BRANCH  36  37
ATOM     37  N   UNL A   1      42.567  25.898  26.635  1.00  0.00    -0.352 N 
ATOM     38  C   UNL A   1      42.216  27.041  25.924  1.00  0.00     0.251 C 
ATOM     39  H   UNL A   1      43.210  25.304  26.182  1.00  0.00     0.163 HD
ATOM     40  O   UNL A   1      42.650  27.221  24.807  1.00  0.00    -0.269 OA
BRANCH  38  41
ATOM     41  C   UNL A   1      41.427  28.111  26.598  1.00  0.00     0.039 A 
ATOM     42  C   UNL A   1      42.134  29.198  27.129  1.00  0.00     0.014 A 
ATOM     43  C   UNL A   1      40.082  27.945  26.902  1.00  0.00     0.014 A 
ATOM     44  C   UNL A   1      41.574  29.933  28.172  1.00  0.00     0.010 A 
ATOM     45  C   UNL A   1      39.568  28.589  28.008  1.00  0.00     0.010 A 
ATOM     46  C   UNL A   1      40.346  29.526  28.690  1.00  0.00    -0.014 A 
BRANCH  46  47
ATOM     47  C   UNL A   1      39.855  29.923  30.000  1.00  0.00     0.031 A 
ATOM     48  C   UNL A   1      39.095  31.180  30.166  1.00  0.00     0.074 A 
ATOM     49  C   UNL A   1      40.021  29.105  31.065  1.00  0.00     0.049 A 
ATOM     50  N   UNL A   1      39.010  31.820  31.284  1.00  0.00    -0.248 NA
ATOM     51  C   UNL A   1      38.396  31.842  29.071  1.00  0.00     0.031 C 
ATOM     52  C   UNL A   1      39.351  29.203  32.362  1.00  0.00     0.029 A 
ATOM     53  N   UNL A   1      40.914  28.066  31.276  1.00  0.00    -0.354 N 
ATOM     54  C   UNL A   1      38.011  32.750  31.146  1.00  0.00     0.074 A 
ATOM     55  C   UNL A   1      37.735  32.801  29.727  1.00  0.00     0.031 C 
ATOM     56  C   UNL A   1      40.064  28.515  33.270  1.00  0.00     0.029 A 
ATOM     57  C   UNL A   1      41.293  28.103  32.619  1.00  0.00     0.049 A 
ATOM     58  H   UNL A   1      41.224  27.419  30.601  1.00  0.00     0.167 HD
ATOM     59  C   UNL A   1      37.414  33.263  32.259  1.00  0.00     0.031 A 
ATOM     60  C   UNL A   1      42.548  28.412  33.065  1.00  0.00     0.031 A 
ATOM     61  C   UNL A   1      38.002  32.744  33.494  1.00  0.00     0.049 A 
ATOM     62  C   UNL A   1      42.595  29.601  34.020  1.00  0.00     0.074 A 
ATOM     63  C   UNL A   1      37.584  31.819  34.439  1.00  0.00     0.029 A 
ATOM     64  N   UNL A   1      39.342  32.982  33.762  1.00  0.00    -0.354 N 
ATOM     65  N   UNL A   1      41.591  30.402  34.246  1.00  0.00    -0.248 NA
ATOM     66  C   UNL A   1      43.803  30.038  34.715  1.00  0.00     0.031 C 
ATOM     67  C   UNL A   1      38.680  31.528  35.297  1.00  0.00     0.029 A 
ATOM     68  C   UNL A   1      39.758  32.283  34.878  1.00  0.00     0.049 A 
ATOM     69  H   UNL A   1      39.920  33.572  33.227  1.00  0.00     0.167 HD
ATOM     70  C   UNL A   1      41.986  31.449  35.043  1.00  0.00     0.074 A 
ATOM     71  C   UNL A   1      43.387  31.172  35.308  1.00  0.00     0.031 C 
ATOM     72  C   UNL A   1      41.121  32.459  35.367  1.00  0.00     0.031 A 
BRANCH  59  73
ATOM     73  C   UNL A   1      36.111  34.025  32.222  1.00  0.00    -0.014 A 
ATOM     74  C   UNL A   1      35.187  33.774  31.190  1.00  0.00     0.009 A 
ATOM     75  C   UNL A   1      35.746  35.022  33.141  1.00  0.00     0.009 A 
ATOM     76  C   UNL A   1      34.029  34.544  31.022  1.00  0.00     0.001 A 
ATOM     77  C   UNL A   1      34.611  35.824  32.958  1.00  0.00     0.001 A 
ATOM     78  C   UNL A   1      33.758  35.593  31.889  1.00  0.00     0.000 A 
ENDBRANCH  59  73
BRANCH  60  79
ATOM     79  C   UNL A   1      43.634  28.075  32.107  1.00  0.00    -0.014 A 
ATOM     80  C   UNL A   1      44.096  26.745  32.060  1.00  0.00     0.009 A 
ATOM     81  C   UNL A   1      43.930  28.927  31.033  1.00  0.00     0.009 A 
ATOM     82  C   UNL A   1      44.716  26.246  30.911  1.00  0.00     0.001 A 
ATOM     83  C   UNL A   1      44.566  28.426  29.891  1.00  0.00     0.001 A 
ATOM     84  C   UNL A   1      44.921  27.079  29.815  1.00  0.00     0.000 A 
ENDBRANCH  60  79
BRANCH  72  85
ATOM     85  C   UNL A   1      41.423  33.731  36.142  1.00  0.00    -0.014 A 
ATOM     86  C   UNL A   1      42.416  34.662  35.824  1.00  0.00     0.009 A 
ATOM     87  C   UNL A   1      40.680  34.006  37.319  1.00  0.00     0.009 A 
ATOM     88  C   UNL A   1      42.604  35.828  36.587  1.00  0.00     0.001 A 
ATOM     89  C   UNL A   1      40.866  35.157  38.088  1.00  0.00     0.001 A 
ATOM     90  C   UNL A   1      41.824  36.081  37.710  1.00  0.00     0.000 A 
ENDBRANCH  72  85
ENDBRANCH  46  47
ENDBRANCH  38  41
ENDBRANCH  36  37
ENDBRANCH  35  36
ENDBRANCH  34  35
ENDBRANCH   1  34
TORSDOF 15
ENDMDL
