MODEL 1
REMARK VINA RESULT:     -11.8      0.000      0.000
REMARK SMILES O=C(NCCCCCCNC(=O)c1ccc(-c2c3nc(c(-c4ccccc4)c4ccc([nH]4)c(-c4ccccc4)c4nc(c(-c5ccccc5)c5ccc2[nH]5)C=C4)C=C3)cc1)C1=Cc2c(ccc(Cl)c2-c2ccccc2)O[C@H]1C(F)(F)F
REMARK SMILES IDX 7 1 6 2 5 3 4 4 3 5 1 6 2 7 61 9 62 10 77 11 63 12 76 13
REMARK SMILES IDX 64 14 69 15 65 16 67 17 66 18 68 19 78 20 79 21 80 22 81 23
REMARK SMILES IDX 70 24 71 25 75 26 72 27 74 28 73 29 8 30 9 31 10 32 11 33
REMARK SMILES IDX 12 35 13 36 14 37 60 38 15 39 59 40 16 41 17 42 18 43 53 44
REMARK SMILES IDX 19 45 58 46 52 47 54 48 20 49 57 50 51 51 50 52 21 54 43 55
REMARK SMILES IDX 28 56 42 57 29 58 32 59 41 60 55 61 30 62 31 63 40 65 56 66
REMARK SMILES IDX 33 67 22 68 23 69 27 70 24 71 26 72 25 73 44 74 45 75 49 76
REMARK SMILES IDX 46 77 48 78 47 79 34 80 35 81 39 82 36 83 38 84 37 85
REMARK H PARENT 3 8 10 34 54 53 32 64
REMARK Flexibility Score: inf
ROOT
ATOM      1  C   UNL A   1      36.172  19.750  25.015  1.00  0.00     0.002 C 
ENDROOT
BRANCH   1   2
ATOM      2  C   UNL A   1      34.973  18.869  24.647  1.00  0.00     0.002 C 
BRANCH   2   3
ATOM      3  C   UNL A   1      33.573  19.450  24.869  1.00  0.00     0.021 C 
BRANCH   3   4
ATOM      4  C   UNL A   1      33.377  20.923  24.513  1.00  0.00     0.116 C 
BRANCH   4   5
ATOM      5  N   UNL A   1      33.138  21.806  25.639  1.00  0.00    -0.352 N 
ATOM      6  O   UNL A   1      33.372  23.623  26.943  1.00  0.00    -0.270 OA
ATOM      7  C   UNL A   1      33.656  23.047  25.895  1.00  0.00     0.251 C 
ATOM      8  H   UNL A   1      32.512  21.463  26.317  1.00  0.00     0.163 HD
BRANCH   7   9
ATOM      9  C   UNL A   1      34.534  23.730  24.923  1.00  0.00     0.067 C 
ATOM     10  C   UNL A   1      34.559  25.068  24.945  1.00  0.00     0.026 C 
ATOM     11  C   UNL A   1      35.030  23.050  23.687  1.00  0.00     0.314 C 
ATOM     12  C   UNL A   1      33.757  25.578  23.798  1.00  0.00     0.027 A 
ATOM     13  O   UNL A   1      34.453  23.646  22.470  1.00  0.00    -0.475 OA
ATOM     14  C   UNL A   1      33.740  24.817  22.617  1.00  0.00     0.128 A 
ATOM     15  C   UNL A   1      32.899  26.691  24.002  1.00  0.00     0.011 A 
ATOM     16  C   UNL A   1      32.859  25.161  21.601  1.00  0.00     0.049 A 
ATOM     17  C   UNL A   1      31.996  26.995  22.974  1.00  0.00     0.049 A 
ATOM     18  C   UNL A   1      31.981  26.236  21.786  1.00  0.00     0.025 A 
ATOM     19  Cl  UNL A   1      30.815  28.241  23.143  1.00  0.00    -0.084 Cl
BRANCH  11  20
ATOM     20  C   UNL A   1      36.577  23.038  23.611  1.00  0.00     0.429 C 
ATOM     21  F   UNL A   1      37.085  21.845  23.216  1.00  0.00    -0.167 F 
ATOM     22  F   UNL A   1      37.029  23.967  22.735  1.00  0.00    -0.167 F 
ATOM     23  F   UNL A   1      37.145  23.314  24.811  1.00  0.00    -0.167 F 
ENDBRANCH  11  20
BRANCH  15  24
ATOM     24  C   UNL A   1      32.919  27.298  25.354  1.00  0.00    -0.016 A 
ATOM     25  C   UNL A   1      33.618  28.500  25.550  1.00  0.00     0.009 A 
ATOM     26  C   UNL A   1      31.928  26.947  26.286  1.00  0.00     0.009 A 
ATOM     27  C   UNL A   1      33.224  29.406  26.535  1.00  0.00     0.001 A 
ATOM     28  C   UNL A   1      31.525  27.860  27.265  1.00  0.00     0.001 A 
ATOM     29  C   UNL A   1      32.149  29.102  27.363  1.00  0.00     0.000 A 
ENDBRANCH  15  24
ENDBRANCH   7   9
ENDBRANCH   4   5
ENDBRANCH   3   4
ENDBRANCH   2   3
ENDBRANCH   1   2
BRANCH   1  30
ATOM     30  C   UNL A   1      37.567  19.144  24.864  1.00  0.00     0.021 C 
BRANCH  30  31
ATOM     31  C   UNL A   1      38.702  19.917  25.523  1.00  0.00     0.116 C 
BRANCH  31  32
ATOM     32  N   UNL A   1      39.910  19.126  25.687  1.00  0.00    -0.352 N 
ATOM     33  C   UNL A   1      41.168  19.499  26.087  1.00  0.00     0.251 C 
ATOM     34  H   UNL A   1      39.811  18.170  25.477  1.00  0.00     0.163 HD
ATOM     35  O   UNL A   1      42.090  18.681  26.028  1.00  0.00    -0.269 OA
BRANCH  33  36
ATOM     36  C   UNL A   1      41.448  20.871  26.568  1.00  0.00     0.039 A 
ATOM     37  C   UNL A   1      41.227  21.169  27.917  1.00  0.00     0.014 A 
ATOM     38  C   UNL A   1      41.889  21.877  25.704  1.00  0.00     0.014 A 
ATOM     39  C   UNL A   1      41.498  22.449  28.407  1.00  0.00     0.010 A 
ATOM     40  C   UNL A   1      42.240  23.128  26.208  1.00  0.00     0.010 A 
ATOM     41  C   UNL A   1      42.037  23.432  27.563  1.00  0.00    -0.014 A 
BRANCH  41  42
ATOM     42  C   UNL A   1      42.380  24.785  28.076  1.00  0.00     0.031 A 
ATOM     43  C   UNL A   1      43.792  25.109  28.483  1.00  0.00     0.074 A 
ATOM     44  C   UNL A   1      41.411  25.709  28.227  1.00  0.00     0.049 A 
ATOM     45  N   UNL A   1      44.272  26.214  28.996  1.00  0.00    -0.248 NA
ATOM     46  C   UNL A   1      44.792  24.042  28.315  1.00  0.00     0.031 C 
ATOM     47  C   UNL A   1      39.996  25.513  27.906  1.00  0.00     0.029 A 
ATOM     48  N   UNL A   1      41.471  26.999  28.694  1.00  0.00    -0.354 N 
ATOM     49  C   UNL A   1      45.621  25.969  29.224  1.00  0.00     0.074 A 
ATOM     50  C   UNL A   1      45.870  24.594  28.850  1.00  0.00     0.031 C 
ATOM     51  C   UNL A   1      39.327  26.649  28.160  1.00  0.00     0.029 A 
ATOM     52  C   UNL A   1      40.255  27.639  28.700  1.00  0.00     0.049 A 
ATOM     53  H   UNL A   1      42.306  27.424  28.995  1.00  0.00     0.167 HD
ATOM     54  C   UNL A   1      46.574  26.817  29.682  1.00  0.00     0.031 A 
ATOM     55  C   UNL A   1      39.920  28.879  29.101  1.00  0.00     0.031 A 
ATOM     56  C   UNL A   1      46.329  28.186  30.052  1.00  0.00     0.049 A 
ATOM     57  C   UNL A   1      40.989  29.796  29.627  1.00  0.00     0.074 A 
ATOM     58  C   UNL A   1      47.237  29.139  30.483  1.00  0.00     0.029 A 
ATOM     59  N   UNL A   1      45.084  28.795  30.042  1.00  0.00    -0.354 N 
ATOM     60  N   UNL A   1      42.271  29.569  29.776  1.00  0.00    -0.248 NA
ATOM     61  C   UNL A   1      40.564  31.144  30.029  1.00  0.00     0.031 C 
ATOM     62  C   UNL A   1      46.530  30.307  30.787  1.00  0.00     0.029 A 
ATOM     63  C   UNL A   1      45.194  30.102  30.485  1.00  0.00     0.049 A 
ATOM     64  H   UNL A   1      44.245  28.361  29.761  1.00  0.00     0.167 HD
ATOM     65  C   UNL A   1      42.812  30.752  30.263  1.00  0.00     0.074 A 
ATOM     66  C   UNL A   1      41.720  31.699  30.367  1.00  0.00     0.031 C 
ATOM     67  C   UNL A   1      44.097  31.031  30.592  1.00  0.00     0.031 A 
BRANCH  54  68
ATOM     68  C   UNL A   1      47.972  26.273  29.816  1.00  0.00    -0.014 A 
ATOM     69  C   UNL A   1      48.434  25.739  31.031  1.00  0.00     0.009 A 
ATOM     70  C   UNL A   1      48.835  26.279  28.709  1.00  0.00     0.009 A 
ATOM     71  C   UNL A   1      49.743  25.269  31.147  1.00  0.00     0.001 A 
ATOM     72  C   UNL A   1      50.132  25.775  28.818  1.00  0.00     0.001 A 
ATOM     73  C   UNL A   1      50.591  25.284  30.040  1.00  0.00     0.000 A 
ENDBRANCH  54  68
BRANCH  55  74
ATOM     74  C   UNL A   1      38.506  29.330  29.009  1.00  0.00    -0.014 A 
ATOM     75  C   UNL A   1      37.995  29.839  27.805  1.00  0.00     0.009 A 
ATOM     76  C   UNL A   1      37.656  29.244  30.123  1.00  0.00     0.009 A 
ATOM     77  C   UNL A   1      36.670  30.272  27.726  1.00  0.00     0.001 A 
ATOM     78  C   UNL A   1      36.323  29.649  30.032  1.00  0.00     0.001 A 
ATOM     79  C   UNL A   1      35.833  30.172  28.837  1.00  0.00     0.000 A 
ENDBRANCH  55  74
BRANCH  67  80
ATOM     80  C   UNL A   1      44.399  32.425  31.068  1.00  0.00    -0.014 A 
ATOM     81  C   UNL A   1      44.420  32.744  32.435  1.00  0.00     0.009 A 
ATOM     82  C   UNL A   1      44.709  33.426  30.133  1.00  0.00     0.009 A 
ATOM     83  C   UNL A   1      44.710  34.045  32.853  1.00  0.00     0.001 A 
ATOM     84  C   UNL A   1      45.030  34.716  30.554  1.00  0.00     0.001 A 
ATOM     85  C   UNL A   1      45.020  35.028  31.912  1.00  0.00     0.000 A 
ENDBRANCH  67  80
ENDBRANCH  41  42
ENDBRANCH  33  36
ENDBRANCH  31  32
ENDBRANCH  30  31
ENDBRANCH   1  30
TORSDOF 15
ENDMDL
MODEL 2
REMARK VINA RESULT:     -11.8      0.307      5.720
REMARK SMILES O=C(NCCCCCCNC(=O)c1ccc(-c2c3nc(c(-c4ccccc4)c4ccc([nH]4)c(-c4ccccc4)c4nc(c(-c5ccccc5)c5ccc2[nH]5)C=C4)C=C3)cc1)C1=Cc2c(ccc(Cl)c2-c2ccccc2)O[C@H]1C(F)(F)F
REMARK SMILES IDX 7 1 6 2 5 3 4 4 3 5 1 6 2 7 61 9 62 10 77 11 63 12 76 13
REMARK SMILES IDX 64 14 69 15 65 16 67 17 66 18 68 19 78 20 79 21 80 22 81 23
REMARK SMILES IDX 70 24 71 25 75 26 72 27 74 28 73 29 8 30 9 31 10 32 11 33
REMARK SMILES IDX 12 35 13 36 14 37 60 38 15 39 59 40 16 41 17 42 18 43 53 44
REMARK SMILES IDX 19 45 58 46 52 47 54 48 20 49 57 50 51 51 50 52 21 54 43 55
REMARK SMILES IDX 28 56 42 57 29 58 32 59 41 60 55 61 30 62 31 63 40 65 56 66
REMARK SMILES IDX 33 67 22 68 23 69 27 70 24 71 26 72 25 73 44 74 45 75 49 76
REMARK SMILES IDX 46 77 48 78 47 79 34 80 35 81 39 82 36 83 38 84 37 85
REMARK H PARENT 3 8 10 34 54 53 32 64
REMARK Flexibility Score: inf
ROOT
ATOM      1  C   UNL A   1      36.107  19.881  25.034  1.00  0.00     0.002 C 
ENDROOT
BRANCH   1   2
ATOM      2  C   UNL A   1      34.951  18.951  24.648  1.00  0.00     0.002 C 
BRANCH   2   3
ATOM      3  C   UNL A   1      33.525  19.494  24.800  1.00  0.00     0.021 C 
BRANCH   3   4
ATOM      4  C   UNL A   1      33.313  20.968  24.463  1.00  0.00     0.116 C 
BRANCH   4   5
ATOM      5  N   UNL A   1      33.111  21.842  25.603  1.00  0.00    -0.352 N 
ATOM      6  O   UNL A   1      33.394  23.644  26.918  1.00  0.00    -0.270 OA
ATOM      7  C   UNL A   1      33.645  23.076  25.858  1.00  0.00     0.251 C 
ATOM      8  H   UNL A   1      32.501  21.497  26.295  1.00  0.00     0.163 HD
BRANCH   7   9
ATOM      9  C   UNL A   1      34.503  23.762  24.869  1.00  0.00     0.067 C 
ATOM     10  C   UNL A   1      34.530  25.100  24.896  1.00  0.00     0.026 C 
ATOM     11  C   UNL A   1      34.971  23.086  23.620  1.00  0.00     0.314 C 
ATOM     12  C   UNL A   1      33.704  25.615  23.769  1.00  0.00     0.027 A 
ATOM     13  O   UNL A   1      34.368  23.688  22.418  1.00  0.00    -0.475 OA
ATOM     14  C   UNL A   1      33.660  24.859  22.585  1.00  0.00     0.128 A 
ATOM     15  C   UNL A   1      32.852  26.728  23.996  1.00  0.00     0.011 A 
ATOM     16  C   UNL A   1      32.757  25.207  21.590  1.00  0.00     0.049 A 
ATOM     17  C   UNL A   1      31.927  27.037  22.988  1.00  0.00     0.049 A 
ATOM     18  C   UNL A   1      31.885  26.284  21.799  1.00  0.00     0.025 A 
ATOM     19  Cl  UNL A   1      30.752  28.284  23.189  1.00  0.00    -0.084 Cl
BRANCH  11  20
ATOM     20  C   UNL A   1      36.515  23.072  23.510  1.00  0.00     0.429 C 
ATOM     21  F   UNL A   1      37.139  23.041  24.713  1.00  0.00    -0.167 F 
ATOM     22  F   UNL A   1      36.945  21.990  22.817  1.00  0.00    -0.167 F 
ATOM     23  F   UNL A   1      36.987  24.168  22.867  1.00  0.00    -0.167 F 
ENDBRANCH  11  20
BRANCH  15  24
ATOM     24  C   UNL A   1      32.903  27.330  25.349  1.00  0.00    -0.016 A 
ATOM     25  C   UNL A   1      33.606  28.531  25.534  1.00  0.00     0.009 A 
ATOM     26  C   UNL A   1      31.932  26.976  26.302  1.00  0.00     0.009 A 
ATOM     27  C   UNL A   1      33.234  29.433  26.531  1.00  0.00     0.001 A 
ATOM     28  C   UNL A   1      31.552  27.886  27.293  1.00  0.00     0.001 A 
ATOM     29  C   UNL A   1      32.178  29.127  27.382  1.00  0.00     0.000 A 
ENDBRANCH  15  24
ENDBRANCH   7   9
ENDBRANCH   4   5
ENDBRANCH   3   4
ENDBRANCH   2   3
ENDBRANCH   1   2
BRANCH   1  30
ATOM     30  C   UNL A   1      37.526  19.408  24.724  1.00  0.00     0.021 C 
BRANCH  30  31
ATOM     31  C   UNL A   1      38.635  20.051  25.547  1.00  0.00     0.116 C 
BRANCH  31  32
ATOM     32  N   UNL A   1      39.805  19.200  25.690  1.00  0.00    -0.352 N 
ATOM     33  C   UNL A   1      41.082  19.506  26.085  1.00  0.00     0.251 C 
ATOM     34  H   UNL A   1      39.657  18.253  25.467  1.00  0.00     0.163 HD
ATOM     35  O   UNL A   1      41.963  18.645  26.007  1.00  0.00    -0.269 OA
BRANCH  33  36
ATOM     36  C   UNL A   1      41.432  20.856  26.584  1.00  0.00     0.039 A 
ATOM     37  C   UNL A   1      41.286  21.127  27.948  1.00  0.00     0.014 A 
ATOM     38  C   UNL A   1      41.866  21.867  25.722  1.00  0.00     0.014 A 
ATOM     39  C   UNL A   1      41.625  22.385  28.453  1.00  0.00     0.010 A 
ATOM     40  C   UNL A   1      42.282  23.092  26.237  1.00  0.00     0.010 A 
ATOM     41  C   UNL A   1      42.156  23.370  27.607  1.00  0.00    -0.014 A 
BRANCH  41  42
ATOM     42  C   UNL A   1      42.569  24.698  28.133  1.00  0.00     0.031 A 
ATOM     43  C   UNL A   1      41.549  25.784  28.341  1.00  0.00     0.074 A 
ATOM     44  C   UNL A   1      43.870  24.946  28.377  1.00  0.00     0.049 A 
ATOM     45  N   UNL A   1      41.724  27.018  28.744  1.00  0.00    -0.248 NA
ATOM     46  C   UNL A   1      40.150  25.449  28.028  1.00  0.00     0.031 C 
ATOM     47  C   UNL A   1      44.966  23.995  28.184  1.00  0.00     0.029 A 
ATOM     48  N   UNL A   1      44.493  26.081  28.836  1.00  0.00    -0.354 N 
ATOM     49  C   UNL A   1      40.465  27.605  28.720  1.00  0.00     0.074 A 
ATOM     50  C   UNL A   1      39.546  26.614  28.206  1.00  0.00     0.031 C 
ATOM     51  C   UNL A   1      46.121  24.574  28.546  1.00  0.00     0.029 A 
ATOM     52  C   UNL A   1      45.856  25.950  28.957  1.00  0.00     0.049 A 
ATOM     53  H   UNL A   1      44.009  26.909  29.057  1.00  0.00     0.167 HD
ATOM     54  C   UNL A   1      40.099  28.850  29.111  1.00  0.00     0.031 A 
ATOM     55  C   UNL A   1      46.789  26.837  29.349  1.00  0.00     0.031 A 
ATOM     56  C   UNL A   1      41.011  29.838  29.624  1.00  0.00     0.049 A 
ATOM     57  C   UNL A   1      46.364  28.220  29.757  1.00  0.00     0.074 A 
ATOM     58  C   UNL A   1      40.732  31.111  30.091  1.00  0.00     0.029 A 
ATOM     59  N   UNL A   1      42.382  29.664  29.733  1.00  0.00    -0.354 N 
ATOM     60  N   UNL A   1      45.161  28.739  29.789  1.00  0.00    -0.248 NA
ATOM     61  C   UNL A   1      47.428  29.136  30.195  1.00  0.00     0.031 C 
ATOM     62  C   UNL A   1      41.942  31.727  30.428  1.00  0.00     0.029 A 
ATOM     63  C   UNL A   1      42.967  30.816  30.233  1.00  0.00     0.049 A 
ATOM     64  H   UNL A   1      42.869  28.843  29.490  1.00  0.00     0.167 HD
ATOM     65  C   UNL A   1      45.318  30.031  30.274  1.00  0.00     0.074 A 
ATOM     66  C   UNL A   1      46.731  30.210  30.539  1.00  0.00     0.031 C 
ATOM     67  C   UNL A   1      44.375  30.983  30.483  1.00  0.00     0.031 A 
BRANCH  54  68
ATOM     68  C   UNL A   1      38.643  29.213  28.983  1.00  0.00    -0.014 A 
ATOM     69  C   UNL A   1      37.762  29.088  30.070  1.00  0.00     0.009 A 
ATOM     70  C   UNL A   1      38.148  29.702  27.764  1.00  0.00     0.009 A 
ATOM     71  C   UNL A   1      36.408  29.398  29.925  1.00  0.00     0.001 A 
ATOM     72  C   UNL A   1      36.801  30.045  27.632  1.00  0.00     0.001 A 
ATOM     73  C   UNL A   1      35.929  29.880  28.707  1.00  0.00     0.000 A 
ENDBRANCH  54  68
BRANCH  55  74
ATOM     74  C   UNL A   1      48.221  26.438  29.383  1.00  0.00    -0.014 A 
ATOM     75  C   UNL A   1      48.771  25.850  30.533  1.00  0.00     0.009 A 
ATOM     76  C   UNL A   1      49.043  26.633  28.263  1.00  0.00     0.009 A 
ATOM     77  C   UNL A   1      50.119  25.486  30.566  1.00  0.00     0.001 A 
ATOM     78  C   UNL A   1      50.383  26.240  28.288  1.00  0.00     0.001 A 
ATOM     79  C   UNL A   1      50.923  25.676  29.442  1.00  0.00     0.000 A 
ENDBRANCH  55  74
BRANCH  67  80
ATOM     80  C   UNL A   1      44.838  32.296  31.054  1.00  0.00    -0.014 A 
ATOM     81  C   UNL A   1      45.205  33.367  30.225  1.00  0.00     0.009 A 
ATOM     82  C   UNL A   1      44.867  32.474  32.447  1.00  0.00     0.009 A 
ATOM     83  C   UNL A   1      45.625  34.578  30.779  1.00  0.00     0.001 A 
ATOM     84  C   UNL A   1      45.256  33.695  32.997  1.00  0.00     0.001 A 
ATOM     85  C   UNL A   1      45.645  34.743  32.164  1.00  0.00     0.000 A 
ENDBRANCH  67  80
ENDBRANCH  41  42
ENDBRANCH  33  36
ENDBRANCH  31  32
ENDBRANCH  30  31
ENDBRANCH   1  30
TORSDOF 15
ENDMDL
MODEL 3
REMARK VINA RESULT:     -11.7      3.774      8.882
REMARK SMILES O=C(NCCCCCCNC(=O)c1ccc(-c2c3nc(c(-c4ccccc4)c4ccc([nH]4)c(-c4ccccc4)c4nc(c(-c5ccccc5)c5ccc2[nH]5)C=C4)C=C3)cc1)C1=Cc2c(ccc(Cl)c2-c2ccccc2)O[C@H]1C(F)(F)F
REMARK SMILES IDX 7 1 6 2 5 3 4 4 3 5 1 6 2 7 61 9 62 10 77 11 63 12 76 13
REMARK SMILES IDX 64 14 69 15 65 16 67 17 66 18 68 19 78 20 79 21 80 22 81 23
REMARK SMILES IDX 70 24 71 25 75 26 72 27 74 28 73 29 8 30 9 31 10 32 11 33
REMARK SMILES IDX 12 35 13 36 14 37 60 38 15 39 59 40 16 41 17 42 18 43 53 44
REMARK SMILES IDX 19 45 58 46 52 47 54 48 20 49 57 50 51 51 50 52 21 54 43 55
REMARK SMILES IDX 28 56 42 57 29 58 32 59 41 60 55 61 30 62 31 63 40 65 56 66
REMARK SMILES IDX 33 67 22 68 23 69 27 70 24 71 26 72 25 73 44 74 45 75 49 76
REMARK SMILES IDX 46 77 48 78 47 79 34 80 35 81 39 82 36 83 38 84 37 85
REMARK H PARENT 3 8 10 34 54 53 32 64
REMARK Flexibility Score: inf
ROOT
ATOM      1  C   UNL A   1      30.987  30.954  25.116  1.00  0.00     0.002 C 
ENDROOT
BRANCH   1   2
ATOM      2  C   UNL A   1      29.809  30.761  24.155  1.00  0.00     0.002 C 
BRANCH   2   3
ATOM      3  C   UNL A   1      29.862  29.562  23.202  1.00  0.00     0.021 C 
BRANCH   3   4
ATOM      4  C   UNL A   1      30.401  28.253  23.776  1.00  0.00     0.116 C 
BRANCH   4   5
ATOM      5  N   UNL A   1      31.693  27.837  23.263  1.00  0.00    -0.352 N 
ATOM      6  O   UNL A   1      33.809  27.080  23.325  1.00  0.00    -0.270 OA
ATOM      7  C   UNL A   1      32.769  27.323  23.934  1.00  0.00     0.251 C 
ATOM      8  H   UNL A   1      31.812  27.940  22.291  1.00  0.00     0.163 HD
BRANCH   7   9
ATOM      9  C   UNL A   1      32.705  27.026  25.380  1.00  0.00     0.067 C 
ATOM     10  C   UNL A   1      33.544  26.099  25.859  1.00  0.00     0.026 C 
ATOM     11  C   UNL A   1      31.509  27.370  26.208  1.00  0.00     0.314 C 
ATOM     12  C   UNL A   1      32.780  24.842  26.091  1.00  0.00     0.027 A 
ATOM     13  O   UNL A   1      30.808  26.163  26.678  1.00  0.00    -0.475 OA
ATOM     14  C   UNL A   1      31.434  24.951  26.478  1.00  0.00     0.128 A 
ATOM     15  C   UNL A   1      33.373  23.602  25.730  1.00  0.00     0.011 A 
ATOM     16  C   UNL A   1      30.644  23.810  26.518  1.00  0.00     0.049 A 
ATOM     17  C   UNL A   1      32.544  22.472  25.748  1.00  0.00     0.049 A 
ATOM     18  C   UNL A   1      31.195  22.578  26.140  1.00  0.00     0.025 A 
ATOM     19  Cl  UNL A   1      33.104  20.930  25.213  1.00  0.00    -0.084 Cl
BRANCH  11  20
ATOM     20  C   UNL A   1      31.872  28.292  27.398  1.00  0.00     0.429 C 
ATOM     21  F   UNL A   1      32.081  27.617  28.555  1.00  0.00    -0.167 F 
ATOM     22  F   UNL A   1      33.003  28.994  27.144  1.00  0.00    -0.167 F 
ATOM     23  F   UNL A   1      30.894  29.194  27.656  1.00  0.00    -0.167 F 
ENDBRANCH  11  20
BRANCH  15  24
ATOM     24  C   UNL A   1      34.753  23.666  25.195  1.00  0.00    -0.016 A 
ATOM     25  C   UNL A   1      35.827  23.351  26.043  1.00  0.00     0.009 A 
ATOM     26  C   UNL A   1      34.962  23.598  23.807  1.00  0.00     0.009 A 
ATOM     27  C   UNL A   1      37.011  22.817  25.533  1.00  0.00     0.001 A 
ATOM     28  C   UNL A   1      36.143  23.051  23.297  1.00  0.00     0.001 A 
ATOM     29  C   UNL A   1      37.150  22.628  24.162  1.00  0.00     0.000 A 
ENDBRANCH  15  24
ENDBRANCH   7   9
ENDBRANCH   4   5
ENDBRANCH   3   4
ENDBRANCH   2   3
ENDBRANCH   1   2
BRANCH   1  30
ATOM     30  C   UNL A   1      30.887  32.086  26.138  1.00  0.00     0.021 C 
BRANCH  30  31
ATOM     31  C   UNL A   1      32.173  32.425  26.882  1.00  0.00     0.116 C 
BRANCH  31  32
ATOM     32  N   UNL A   1      32.179  33.774  27.422  1.00  0.00    -0.352 N 
ATOM     33  C   UNL A   1      33.047  34.375  28.297  1.00  0.00     0.251 C 
ATOM     34  H   UNL A   1      31.443  34.348  27.111  1.00  0.00     0.163 HD
ATOM     35  O   UNL A   1      32.787  35.501  28.730  1.00  0.00    -0.269 OA
BRANCH  33  36
ATOM     36  C   UNL A   1      34.280  33.692  28.752  1.00  0.00     0.039 A 
ATOM     37  C   UNL A   1      35.488  33.990  28.111  1.00  0.00     0.014 A 
ATOM     38  C   UNL A   1      34.257  32.738  29.772  1.00  0.00     0.014 A 
ATOM     39  C   UNL A   1      36.672  33.376  28.527  1.00  0.00     0.010 A 
ATOM     40  C   UNL A   1      35.449  32.190  30.242  1.00  0.00     0.010 A 
ATOM     41  C   UNL A   1      36.669  32.493  29.618  1.00  0.00    -0.014 A 
BRANCH  41  42
ATOM     42  C   UNL A   1      37.925  31.868  30.108  1.00  0.00     0.031 A 
ATOM     43  C   UNL A   1      38.755  32.553  31.161  1.00  0.00     0.074 A 
ATOM     44  C   UNL A   1      38.351  30.709  29.570  1.00  0.00     0.049 A 
ATOM     45  N   UNL A   1      39.902  32.188  31.677  1.00  0.00    -0.248 NA
ATOM     46  C   UNL A   1      38.241  33.830  31.683  1.00  0.00     0.031 C 
ATOM     47  C   UNL A   1      37.662  29.960  28.517  1.00  0.00     0.029 A 
ATOM     48  N   UNL A   1      39.471  29.959  29.832  1.00  0.00    -0.354 N 
ATOM     49  C   UNL A   1      40.250  33.193  32.571  1.00  0.00     0.074 A 
ATOM     50  C   UNL A   1      39.226  34.211  32.483  1.00  0.00     0.031 C 
ATOM     51  C   UNL A   1      38.359  28.846  28.243  1.00  0.00     0.029 A 
ATOM     52  C   UNL A   1      39.564  28.822  29.067  1.00  0.00     0.049 A 
ATOM     53  H   UNL A   1      40.144  30.213  30.505  1.00  0.00     0.167 HD
ATOM     54  C   UNL A   1      41.315  33.257  33.407  1.00  0.00     0.031 A 
ATOM     55  C   UNL A   1      40.513  27.868  29.028  1.00  0.00     0.031 A 
ATOM     56  C   UNL A   1      42.334  32.245  33.498  1.00  0.00     0.049 A 
ATOM     57  C   UNL A   1      41.697  27.970  29.948  1.00  0.00     0.074 A 
ATOM     58  C   UNL A   1      43.427  32.195  34.347  1.00  0.00     0.029 A 
ATOM     59  N   UNL A   1      42.390  31.108  32.707  1.00  0.00    -0.354 N 
ATOM     60  N   UNL A   1      41.979  28.895  30.832  1.00  0.00    -0.248 NA
ATOM     61  C   UNL A   1      42.688  26.887  29.872  1.00  0.00     0.031 C 
ATOM     62  C   UNL A   1      44.173  31.055  34.029  1.00  0.00     0.029 A 
ATOM     63  C   UNL A   1      43.511  30.363  33.028  1.00  0.00     0.049 A 
ATOM     64  H   UNL A   1      41.728  30.866  32.018  1.00  0.00     0.167 HD
ATOM     65  C   UNL A   1      43.163  28.495  31.437  1.00  0.00     0.074 A 
ATOM     66  C   UNL A   1      43.537  27.233  30.830  1.00  0.00     0.031 C 
ATOM     67  C   UNL A   1      43.876  29.115  32.409  1.00  0.00     0.031 A 
BRANCH  54  68
ATOM     68  C   UNL A   1      41.430  34.476  34.284  1.00  0.00    -0.014 A 
ATOM     69  C   UNL A   1      40.855  34.511  35.565  1.00  0.00     0.009 A 
ATOM     70  C   UNL A   1      42.139  35.600  33.830  1.00  0.00     0.009 A 
ATOM     71  C   UNL A   1      40.945  35.661  36.351  1.00  0.00     0.001 A 
ATOM     72  C   UNL A   1      42.257  36.736  34.633  1.00  0.00     0.001 A 
ATOM     73  C   UNL A   1      41.648  36.772  35.886  1.00  0.00     0.000 A 
ENDBRANCH  54  68
BRANCH  55  74
ATOM     74  C   UNL A   1      40.375  26.726  28.086  1.00  0.00    -0.014 A 
ATOM     75  C   UNL A   1      40.967  26.773  26.814  1.00  0.00     0.009 A 
ATOM     76  C   UNL A   1      39.657  25.578  28.457  1.00  0.00     0.009 A 
ATOM     77  C   UNL A   1      40.825  25.703  25.927  1.00  0.00     0.001 A 
ATOM     78  C   UNL A   1      39.543  24.497  27.580  1.00  0.00     0.001 A 
ATOM     79  C   UNL A   1      40.119  24.564  26.312  1.00  0.00     0.000 A 
ENDBRANCH  55  74
BRANCH  67  80
ATOM     80  C   UNL A   1      45.119  28.423  32.899  1.00  0.00    -0.014 A 
ATOM     81  C   UNL A   1      46.375  28.681  32.327  1.00  0.00     0.009 A 
ATOM     82  C   UNL A   1      45.035  27.527  33.978  1.00  0.00     0.009 A 
ATOM     83  C   UNL A   1      47.515  28.031  32.804  1.00  0.00     0.001 A 
ATOM     84  C   UNL A   1      46.180  26.904  34.472  1.00  0.00     0.001 A 
ATOM     85  C   UNL A   1      47.418  27.147  33.879  1.00  0.00     0.000 A 
ENDBRANCH  67  80
ENDBRANCH  41  42
ENDBRANCH  33  36
ENDBRANCH  31  32
ENDBRANCH  30  31
ENDBRANCH   1  30
TORSDOF 15
ENDMDL
