MODEL 1
REMARK VINA RESULT:     -10.2      0.000      0.000
REMARK SMILES CCCCCCNC(=O)Oc1cccc(-c2ccc([C@@H](C)C(=O)NCCCCCCNC(=O)c3ccc(-c4c5nc(c(-c6ccccc6)c6ccc([nH]6)c(-c6ccccc6)c6nc(c(-c7ccccc7)c7ccc4[nH]7)C=C6)C=C5)cc3)cc2C(F)(F)F)c1
REMARK SMILES IDX 22 1 23 2 24 3 20 5 21 6 19 7 16 8 17 9 83 10 18 11 82 12
REMARK SMILES IDX 15 13 11 14 12 15 88 16 13 17 14 18 10 19 8 20 7 21 9 23
REMARK SMILES IDX 6 24 5 25 4 26 3 27 2 28 1 29 84 30 85 31 86 32 87 33 25 34
REMARK SMILES IDX 26 35 27 36 28 37 29 38 30 39 31 40 32 41 33 43 34 44 35 45
REMARK SMILES IDX 81 46 36 47 80 48 37 49 38 50 39 51 74 52 40 53 79 54 73 55
REMARK SMILES IDX 75 56 41 57 78 58 72 59 71 60 42 62 64 63 49 64 63 65 50 66
REMARK SMILES IDX 53 67 62 68 76 69 51 70 52 71 61 73 77 74 54 75 43 76 44 77
REMARK SMILES IDX 48 78 45 79 47 80 46 81 65 82 66 83 70 84 67 85 69 86 68 87
REMARK SMILES IDX 55 88 56 89 60 90 57 91 59 92 58 93
REMARK H PARENT 24 4 7 22 31 42 75 61 53 72
REMARK Flexibility Score: inf
ROOT
ATOM      1  C   UNL A   1      33.907  19.533  24.851  1.00  0.00     0.227 C 
ATOM      2  O   UNL A   1      34.598  18.629  24.367  1.00  0.00    -0.274 OA
ATOM      3  N   UNL A   1      34.409  20.144  25.958  1.00  0.00    -0.356 N 
ATOM      4  H   UNL A   1      35.320  19.857  26.197  1.00  0.00     0.163 HD
ENDROOT
BRANCH   1   5
ATOM      5  C   UNL A   1      32.578  19.917  24.185  1.00  0.00     0.105 C 
ATOM      6  C   UNL A   1      32.094  18.932  23.122  1.00  0.00     0.023 C 
BRANCH   5   7
ATOM      7  C   UNL A   1      32.466  21.386  23.805  1.00  0.00    -0.035 A 
ATOM      8  C   UNL A   1      32.303  24.191  23.223  1.00  0.00    -0.006 A 
ATOM      9  C   UNL A   1      32.864  23.264  22.322  1.00  0.00     0.009 A 
ATOM     10  C   UNL A   1      31.747  23.676  24.413  1.00  0.00     0.064 A 
ATOM     11  C   UNL A   1      32.897  21.893  22.584  1.00  0.00     0.005 A 
ATOM     12  C   UNL A   1      31.891  22.295  24.707  1.00  0.00     0.018 A 
BRANCH   8  13
ATOM     13  C   UNL A   1      32.323  25.622  22.847  1.00  0.00    -0.014 A 
ATOM     14  C   UNL A   1      31.202  27.710  22.319  1.00  0.00     0.133 A 
ATOM     15  C   UNL A   1      32.419  28.347  22.093  1.00  0.00     0.047 A 
ATOM     16  C   UNL A   1      31.143  26.373  22.718  1.00  0.00     0.056 A 
ATOM     17  C   UNL A   1      33.599  27.635  22.264  1.00  0.00     0.004 A 
ATOM     18  C   UNL A   1      33.548  26.284  22.621  1.00  0.00     0.009 A 
BRANCH  14  19
ATOM     19  O   UNL A   1      30.050  28.425  21.941  1.00  0.00    -0.410 OA
BRANCH  19  20
ATOM     20  C   UNL A   1      30.010  29.806  22.040  1.00  0.00     0.412 C 
ATOM     21  N   UNL A   1      29.974  30.239  23.338  1.00  0.00    -0.321 N 
ATOM     22  H   UNL A   1      29.888  31.210  23.479  1.00  0.00     0.167 HD
ATOM     23  O   UNL A   1      29.999  30.593  21.103  1.00  0.00    -0.224 OA
BRANCH  21  24
ATOM     24  C   UNL A   1      30.046  29.412  24.527  1.00  0.00     0.119 C 
BRANCH  24  25
ATOM     25  C   UNL A   1      31.424  29.478  25.189  1.00  0.00     0.021 C 
BRANCH  25  26
ATOM     26  C   UNL A   1      31.719  30.783  25.938  1.00  0.00     0.002 C 
BRANCH  26  27
ATOM     27  C   UNL A   1      32.560  30.637  27.210  1.00  0.00    -0.000 C 
BRANCH  27  28
ATOM     28  C   UNL A   1      34.048  30.360  26.984  1.00  0.00    -0.003 C 
ATOM     29  C   UNL A   1      34.382  28.877  26.929  1.00  0.00     0.004 C 
ENDBRANCH  27  28
ENDBRANCH  26  27
ENDBRANCH  25  26
ENDBRANCH  24  25
ENDBRANCH  21  24
ENDBRANCH  19  20
ENDBRANCH  14  19
ENDBRANCH   8  13
BRANCH  10  30
ATOM     30  C   UNL A   1      30.957  24.489  25.419  1.00  0.00     0.417 C 
ATOM     31  F   UNL A   1      30.568  23.728  26.486  1.00  0.00    -0.166 F 
ATOM     32  F   UNL A   1      31.689  25.508  25.950  1.00  0.00    -0.166 F 
ATOM     33  F   UNL A   1      29.806  25.050  24.961  1.00  0.00    -0.166 F 
ENDBRANCH  10  30
ENDBRANCH   5   7
ENDBRANCH   1   5
BRANCH   3  34
ATOM     34  C   UNL A   1      33.850  21.138  26.849  1.00  0.00     0.116 C 
BRANCH  34  35
ATOM     35  C   UNL A   1      34.858  22.250  27.152  1.00  0.00     0.021 C 
BRANCH  35  36
ATOM     36  C   UNL A   1      34.383  23.647  26.742  1.00  0.00     0.002 C 
BRANCH  36  37
ATOM     37  C   UNL A   1      35.194  24.302  25.617  1.00  0.00     0.002 C 
BRANCH  37  38
ATOM     38  C   UNL A   1      35.852  23.333  24.629  1.00  0.00     0.021 C 
BRANCH  38  39
ATOM     39  C   UNL A   1      37.364  23.500  24.482  1.00  0.00     0.116 C 
BRANCH  39  40
ATOM     40  N   UNL A   1      38.093  22.474  25.211  1.00  0.00    -0.352 N 
ATOM     41  C   UNL A   1      39.117  22.598  26.114  1.00  0.00     0.251 C 
ATOM     42  H   UNL A   1      37.808  21.549  25.027  1.00  0.00     0.163 HD
ATOM     43  O   UNL A   1      39.768  21.613  26.446  1.00  0.00    -0.269 OA
BRANCH  41  44
ATOM     44  C   UNL A   1      39.447  23.921  26.687  1.00  0.00     0.039 A 
ATOM     45  C   UNL A   1      38.872  24.294  27.905  1.00  0.00     0.014 A 
ATOM     46  C   UNL A   1      40.290  24.806  26.008  1.00  0.00     0.014 A 
ATOM     47  C   UNL A   1      39.186  25.532  28.470  1.00  0.00     0.010 A 
ATOM     48  C   UNL A   1      40.651  26.013  26.603  1.00  0.00     0.010 A 
ATOM     49  C   UNL A   1      40.100  26.389  27.838  1.00  0.00    -0.014 A 
BRANCH  49  50
ATOM     50  C   UNL A   1      40.502  27.677  28.457  1.00  0.00     0.031 A 
ATOM     51  C   UNL A   1      41.884  27.849  29.026  1.00  0.00     0.074 A 
ATOM     52  C   UNL A   1      39.595  28.668  28.576  1.00  0.00     0.049 A 
ATOM     53  N   UNL A   1      42.389  28.871  29.670  1.00  0.00    -0.248 NA
ATOM     54  C   UNL A   1      42.812  26.717  28.874  1.00  0.00     0.031 C 
ATOM     55  C   UNL A   1      38.209  28.609  28.108  1.00  0.00     0.029 A 
ATOM     56  N   UNL A   1      39.702  29.913  29.143  1.00  0.00    -0.354 N 
ATOM     57  C   UNL A   1      43.679  28.495  30.022  1.00  0.00     0.074 A 
ATOM     58  C   UNL A   1      43.870  27.141  29.550  1.00  0.00     0.031 C 
ATOM     59  C   UNL A   1      37.598  29.770  28.397  1.00  0.00     0.029 A 
ATOM     60  C   UNL A   1      38.536  30.639  29.101  1.00  0.00     0.049 A 
ATOM     61  H   UNL A   1      40.535  30.255  29.542  1.00  0.00     0.167 HD
ATOM     62  C   UNL A   1      44.624  29.218  30.670  1.00  0.00     0.031 A 
ATOM     63  C   UNL A   1      38.247  31.861  29.589  1.00  0.00     0.031 A 
ATOM     64  C   UNL A   1      44.444  30.573  31.115  1.00  0.00     0.049 A 
ATOM     65  C   UNL A   1      39.321  32.644  30.292  1.00  0.00     0.074 A 
ATOM     66  C   UNL A   1      45.372  31.416  31.703  1.00  0.00     0.029 A 
ATOM     67  N   UNL A   1      43.258  31.283  31.024  1.00  0.00    -0.354 N 
ATOM     68  N   UNL A   1      40.562  32.306  30.537  1.00  0.00    -0.248 NA
ATOM     69  C   UNL A   1      38.953  33.983  30.775  1.00  0.00     0.031 C 
ATOM     70  C   UNL A   1      44.733  32.619  32.016  1.00  0.00     0.029 A 
ATOM     71  C   UNL A   1      43.421  32.544  31.574  1.00  0.00     0.049 A 
ATOM     72  H   UNL A   1      42.424  30.943  30.628  1.00  0.00     0.167 HD
ATOM     73  C   UNL A   1      41.131  33.399  31.179  1.00  0.00     0.074 A 
ATOM     74  C   UNL A   1      40.105  34.416  31.268  1.00  0.00     0.031 C 
ATOM     75  C   UNL A   1      42.392  33.545  31.653  1.00  0.00     0.031 A 
BRANCH  62  76
ATOM     76  C   UNL A   1      45.945  28.557  30.946  1.00  0.00    -0.014 A 
ATOM     77  C   UNL A   1      46.164  27.827  32.124  1.00  0.00     0.009 A 
ATOM     78  C   UNL A   1      46.961  28.607  29.979  1.00  0.00     0.009 A 
ATOM     79  C   UNL A   1      47.384  27.183  32.340  1.00  0.00     0.001 A 
ATOM     80  C   UNL A   1      48.171  27.941  30.184  1.00  0.00     0.001 A 
ATOM     81  C   UNL A   1      48.383  27.235  31.367  1.00  0.00     0.000 A 
ENDBRANCH  62  76
BRANCH  63  82
ATOM     82  C   UNL A   1      36.880  32.423  29.435  1.00  0.00    -0.014 A 
ATOM     83  C   UNL A   1      36.535  33.163  28.295  1.00  0.00     0.009 A 
ATOM     84  C   UNL A   1      35.920  32.240  30.443  1.00  0.00     0.009 A 
ATOM     85  C   UNL A   1      35.267  33.739  28.182  1.00  0.00     0.001 A 
ATOM     86  C   UNL A   1      34.643  32.792  30.313  1.00  0.00     0.001 A 
ATOM     87  C   UNL A   1      34.322  33.550  29.189  1.00  0.00     0.000 A 
ENDBRANCH  63  82
BRANCH  75  88
ATOM     88  C   UNL A   1      42.740  34.863  32.283  1.00  0.00    -0.014 A 
ATOM     89  C   UNL A   1      43.384  35.872  31.549  1.00  0.00     0.009 A 
ATOM     90  C   UNL A   1      42.380  35.115  33.615  1.00  0.00     0.009 A 
ATOM     91  C   UNL A   1      43.686  37.096  32.149  1.00  0.00     0.001 A 
ATOM     92  C   UNL A   1      42.658  36.348  34.204  1.00  0.00     0.001 A 
ATOM     93  C   UNL A   1      43.318  37.335  33.473  1.00  0.00     0.000 A 
ENDBRANCH  75  88
ENDBRANCH  49  50
ENDBRANCH  41  44
ENDBRANCH  39  40
ENDBRANCH  38  39
ENDBRANCH  37  38
ENDBRANCH  36  37
ENDBRANCH  35  36
ENDBRANCH  34  35
ENDBRANCH   3  34
TORSDOF 23
ENDMDL
MODEL 2
REMARK VINA RESULT:     -10.2      2.861      3.786
REMARK SMILES CCCCCCNC(=O)Oc1cccc(-c2ccc([C@@H](C)C(=O)NCCCCCCNC(=O)c3ccc(-c4c5nc(c(-c6ccccc6)c6ccc([nH]6)c(-c6ccccc6)c6nc(c(-c7ccccc7)c7ccc4[nH]7)C=C6)C=C5)cc3)cc2C(F)(F)F)c1
REMARK SMILES IDX 22 1 23 2 24 3 20 5 21 6 19 7 16 8 17 9 83 10 18 11 82 12
REMARK SMILES IDX 15 13 11 14 12 15 88 16 13 17 14 18 10 19 8 20 7 21 9 23
REMARK SMILES IDX 6 24 5 25 4 26 3 27 2 28 1 29 84 30 85 31 86 32 87 33 25 34
REMARK SMILES IDX 26 35 27 36 28 37 29 38 30 39 31 40 32 41 33 43 34 44 35 45
REMARK SMILES IDX 81 46 36 47 80 48 37 49 38 50 39 51 74 52 40 53 79 54 73 55
REMARK SMILES IDX 75 56 41 57 78 58 72 59 71 60 42 62 64 63 49 64 63 65 50 66
REMARK SMILES IDX 53 67 62 68 76 69 51 70 52 71 61 73 77 74 54 75 43 76 44 77
REMARK SMILES IDX 48 78 45 79 47 80 46 81 65 82 66 83 70 84 67 85 69 86 68 87
REMARK SMILES IDX 55 88 56 89 60 90 57 91 59 92 58 93
REMARK H PARENT 24 4 7 22 31 42 75 61 53 72
REMARK Flexibility Score: inf
ROOT
ATOM      1  C   UNL A   1      33.670  19.595  24.717  1.00  0.00     0.227 C 
ATOM      2  O   UNL A   1      34.192  18.544  24.325  1.00  0.00    -0.274 OA
ATOM      3  N   UNL A   1      34.128  20.088  25.899  1.00  0.00    -0.356 N 
ATOM      4  H   UNL A   1      34.898  19.597  26.267  1.00  0.00     0.163 HD
ENDROOT
BRANCH   1   5
ATOM      5  C   UNL A   1      32.586  20.271  23.865  1.00  0.00     0.105 C 
ATOM      6  C   UNL A   1      32.163  19.478  22.629  1.00  0.00     0.023 C 
BRANCH   5   7
ATOM      7  C   UNL A   1      32.804  21.760  23.636  1.00  0.00    -0.035 A 
ATOM      8  C   UNL A   1      33.153  24.591  23.332  1.00  0.00    -0.006 A 
ATOM      9  C   UNL A   1      34.181  23.670  23.054  1.00  0.00     0.009 A 
ATOM     10  C   UNL A   1      31.898  24.063  23.703  1.00  0.00     0.064 A 
ATOM     11  C   UNL A   1      33.996  22.289  23.153  1.00  0.00     0.005 A 
ATOM     12  C   UNL A   1      31.765  22.664  23.903  1.00  0.00     0.018 A 
BRANCH   8  13
ATOM     13  C   UNL A   1      33.458  26.033  23.198  1.00  0.00    -0.014 A 
ATOM     14  C   UNL A   1      33.941  28.215  24.146  1.00  0.00     0.133 A 
ATOM     15  C   UNL A   1      34.004  28.791  22.880  1.00  0.00     0.047 A 
ATOM     16  C   UNL A   1      33.700  26.849  24.314  1.00  0.00     0.056 A 
ATOM     17  C   UNL A   1      33.817  27.989  21.761  1.00  0.00     0.004 A 
ATOM     18  C   UNL A   1      33.531  26.630  21.921  1.00  0.00     0.009 A 
BRANCH  14  19
ATOM     19  O   UNL A   1      33.943  29.109  25.233  1.00  0.00    -0.410 OA
BRANCH  19  20
ATOM     20  C   UNL A   1      33.220  28.831  26.381  1.00  0.00     0.412 C 
ATOM     21  N   UNL A   1      31.955  29.352  26.345  1.00  0.00    -0.321 N 
ATOM     22  H   UNL A   1      31.406  29.238  27.154  1.00  0.00     0.167 HD
ATOM     23  O   UNL A   1      33.625  28.201  27.349  1.00  0.00    -0.224 OA
BRANCH  21  24
ATOM     24  C   UNL A   1      31.343  30.058  25.236  1.00  0.00     0.119 C 
BRANCH  24  25
ATOM     25  C   UNL A   1      30.656  29.104  24.257  1.00  0.00     0.021 C 
BRANCH  25  26
ATOM     26  C   UNL A   1      30.227  29.740  22.929  1.00  0.00     0.002 C 
BRANCH  26  27
ATOM     27  C   UNL A   1      28.863  29.292  22.395  1.00  0.00    -0.000 C 
BRANCH  27  28
ATOM     28  C   UNL A   1      27.794  30.386  22.326  1.00  0.00    -0.003 C 
ATOM     29  C   UNL A   1      27.736  31.249  23.577  1.00  0.00     0.004 C 
ENDBRANCH  27  28
ENDBRANCH  26  27
ENDBRANCH  25  26
ENDBRANCH  24  25
ENDBRANCH  21  24
ENDBRANCH  19  20
ENDBRANCH  14  19
ENDBRANCH   8  13
BRANCH  10  30
ATOM     30  C   UNL A   1      30.634  24.881  23.877  1.00  0.00     0.417 C 
ATOM     31  F   UNL A   1      29.519  24.157  23.557  1.00  0.00    -0.166 F 
ATOM     32  F   UNL A   1      30.449  25.278  25.167  1.00  0.00    -0.166 F 
ATOM     33  F   UNL A   1      30.541  26.005  23.119  1.00  0.00    -0.166 F 
ENDBRANCH  10  30
ENDBRANCH   5   7
ENDBRANCH   1   5
BRANCH   3  34
ATOM     34  C   UNL A   1      33.692  21.201  26.715  1.00  0.00     0.116 C 
BRANCH  34  35
ATOM     35  C   UNL A   1      34.836  22.182  26.981  1.00  0.00     0.021 C 
BRANCH  35  36
ATOM     36  C   UNL A   1      34.614  23.573  26.379  1.00  0.00     0.002 C 
BRANCH  36  37
ATOM     37  C   UNL A   1      35.896  24.351  26.058  1.00  0.00     0.002 C 
BRANCH  37  38
ATOM     38  C   UNL A   1      37.175  23.511  25.973  1.00  0.00     0.021 C 
BRANCH  38  39
ATOM     39  C   UNL A   1      38.343  24.040  26.804  1.00  0.00     0.116 C 
BRANCH  39  40
ATOM     40  N   UNL A   1      39.510  24.313  25.982  1.00  0.00    -0.352 N 
ATOM     41  C   UNL A   1      40.384  25.369  26.019  1.00  0.00     0.251 C 
ATOM     42  H   UNL A   1      39.703  23.636  25.292  1.00  0.00     0.163 HD
ATOM     43  O   UNL A   1      41.168  25.553  25.094  1.00  0.00    -0.269 OA
BRANCH  41  44
ATOM     44  C   UNL A   1      40.379  26.297  27.170  1.00  0.00     0.039 A 
ATOM     45  C   UNL A   1      41.122  27.479  27.090  1.00  0.00     0.014 A 
ATOM     46  C   UNL A   1      39.678  25.987  28.339  1.00  0.00     0.014 A 
ATOM     47  C   UNL A   1      41.116  28.376  28.160  1.00  0.00     0.010 A 
ATOM     48  C   UNL A   1      39.622  26.911  29.380  1.00  0.00     0.010 A 
ATOM     49  C   UNL A   1      40.343  28.113  29.302  1.00  0.00    -0.014 A 
BRANCH  49  50
ATOM     50  C   UNL A   1      40.266  29.087  30.420  1.00  0.00     0.031 A 
ATOM     51  C   UNL A   1      41.179  28.954  31.608  1.00  0.00     0.074 A 
ATOM     52  C   UNL A   1      39.319  30.046  30.401  1.00  0.00     0.049 A 
ATOM     53  N   UNL A   1      41.207  29.661  32.710  1.00  0.00    -0.248 NA
ATOM     54  C   UNL A   1      42.175  27.871  31.565  1.00  0.00     0.031 C 
ATOM     55  C   UNL A   1      38.341  30.252  29.330  1.00  0.00     0.029 A 
ATOM     56  N   UNL A   1      39.014  31.019  31.320  1.00  0.00    -0.354 N 
ATOM     57  C   UNL A   1      42.200  29.094  33.498  1.00  0.00     0.074 A 
ATOM     58  C   UNL A   1      42.730  27.965  32.765  1.00  0.00     0.031 C 
ATOM     59  C   UNL A   1      37.554  31.292  29.648  1.00  0.00     0.029 A 
ATOM     60  C   UNL A   1      37.944  31.803  30.958  1.00  0.00     0.049 A 
ATOM     61  H   UNL A   1      39.513  31.144  32.159  1.00  0.00     0.167 HD
ATOM     62  C   UNL A   1      42.639  29.486  34.718  1.00  0.00     0.031 A 
ATOM     63  C   UNL A   1      37.336  32.810  31.613  1.00  0.00     0.031 A 
ATOM     64  C   UNL A   1      42.131  30.624  35.435  1.00  0.00     0.049 A 
ATOM     65  C   UNL A   1      37.854  33.231  32.960  1.00  0.00     0.074 A 
ATOM     66  C   UNL A   1      42.573  31.149  36.638  1.00  0.00     0.029 A 
ATOM     67  N   UNL A   1      41.070  31.411  35.018  1.00  0.00    -0.354 N 
ATOM     68  N   UNL A   1      38.852  32.738  33.650  1.00  0.00    -0.248 NA
ATOM     69  C   UNL A   1      37.168  34.355  33.611  1.00  0.00     0.031 C 
ATOM     70  C   UNL A   1      41.744  32.224  36.975  1.00  0.00     0.029 A 
ATOM     71  C   UNL A   1      40.822  32.400  35.956  1.00  0.00     0.049 A 
ATOM     72  H   UNL A   1      40.568  31.286  34.181  1.00  0.00     0.167 HD
ATOM     73  C   UNL A   1      38.930  33.507  34.804  1.00  0.00     0.074 A 
ATOM     74  C   UNL A   1      37.890  34.510  34.712  1.00  0.00     0.031 C 
ATOM     75  C   UNL A   1      39.786  33.391  35.848  1.00  0.00     0.031 A 
BRANCH  62  76
ATOM     76  C   UNL A   1      43.724  28.673  35.366  1.00  0.00    -0.014 A 
ATOM     77  C   UNL A   1      45.061  29.097  35.351  1.00  0.00     0.009 A 
ATOM     78  C   UNL A   1      43.391  27.500  36.062  1.00  0.00     0.009 A 
ATOM     79  C   UNL A   1      46.047  28.349  35.998  1.00  0.00     0.001 A 
ATOM     80  C   UNL A   1      44.374  26.767  36.730  1.00  0.00     0.001 A 
ATOM     81  C   UNL A   1      45.702  27.189  36.692  1.00  0.00     0.000 A 
ENDBRANCH  62  76
BRANCH  63  82
ATOM     82  C   UNL A   1      36.162  33.493  31.009  1.00  0.00    -0.014 A 
ATOM     83  C   UNL A   1      36.243  34.058  29.728  1.00  0.00     0.009 A 
ATOM     84  C   UNL A   1      34.958  33.601  31.724  1.00  0.00     0.009 A 
ATOM     85  C   UNL A   1      35.156  34.749  29.189  1.00  0.00     0.001 A 
ATOM     86  C   UNL A   1      33.863  34.266  31.170  1.00  0.00     0.001 A 
ATOM     87  C   UNL A   1      33.966  34.849  29.908  1.00  0.00     0.000 A 
ENDBRANCH  63  82
BRANCH  75  88
ATOM     88  C   UNL A   1      39.654  34.394  36.959  1.00  0.00    -0.014 A 
ATOM     89  C   UNL A   1      40.217  35.675  36.853  1.00  0.00     0.009 A 
ATOM     90  C   UNL A   1      38.919  34.066  38.108  1.00  0.00     0.009 A 
ATOM     91  C   UNL A   1      40.070  36.597  37.890  1.00  0.00     0.001 A 
ATOM     92  C   UNL A   1      38.751  34.999  39.131  1.00  0.00     0.001 A 
ATOM     93  C   UNL A   1      39.334  36.260  39.026  1.00  0.00     0.000 A 
ENDBRANCH  75  88
ENDBRANCH  49  50
ENDBRANCH  41  44
ENDBRANCH  39  40
ENDBRANCH  38  39
ENDBRANCH  37  38
ENDBRANCH  36  37
ENDBRANCH  35  36
ENDBRANCH  34  35
ENDBRANCH   3  34
TORSDOF 23
ENDMDL
MODEL 3
REMARK VINA RESULT:     -10.1      5.893     10.799
REMARK SMILES CCCCCCNC(=O)Oc1cccc(-c2ccc([C@@H](C)C(=O)NCCCCCCNC(=O)c3ccc(-c4c5nc(c(-c6ccccc6)c6ccc([nH]6)c(-c6ccccc6)c6nc(c(-c7ccccc7)c7ccc4[nH]7)C=C6)C=C5)cc3)cc2C(F)(F)F)c1
REMARK SMILES IDX 22 1 23 2 24 3 20 5 21 6 19 7 16 8 17 9 83 10 18 11 82 12
REMARK SMILES IDX 15 13 11 14 12 15 88 16 13 17 14 18 10 19 8 20 7 21 9 23
REMARK SMILES IDX 6 24 5 25 4 26 3 27 2 28 1 29 84 30 85 31 86 32 87 33 25 34
REMARK SMILES IDX 26 35 27 36 28 37 29 38 30 39 31 40 32 41 33 43 34 44 35 45
REMARK SMILES IDX 81 46 36 47 80 48 37 49 38 50 39 51 74 52 40 53 79 54 73 55
REMARK SMILES IDX 75 56 41 57 78 58 72 59 71 60 42 62 64 63 49 64 63 65 50 66
REMARK SMILES IDX 53 67 62 68 76 69 51 70 52 71 61 73 77 74 54 75 43 76 44 77
REMARK SMILES IDX 48 78 45 79 47 80 46 81 65 82 66 83 70 84 67 85 69 86 68 87
REMARK SMILES IDX 55 88 56 89 60 90 57 91 59 92 58 93
REMARK H PARENT 24 4 7 22 31 42 75 61 53 72
REMARK Flexibility Score: inf
ROOT
ATOM      1  C   UNL A   1      39.521  28.329  32.145  1.00  0.00     0.227 C 
ATOM      2  O   UNL A   1      39.124  27.449  32.919  1.00  0.00    -0.274 OA
ATOM      3  N   UNL A   1      39.989  27.901  30.941  1.00  0.00    -0.356 N 
ATOM      4  H   UNL A   1      39.871  26.936  30.784  1.00  0.00     0.163 HD
ENDROOT
BRANCH   1   5
ATOM      5  C   UNL A   1      39.446  29.804  32.563  1.00  0.00     0.105 C 
ATOM      6  C   UNL A   1      39.571  30.043  34.067  1.00  0.00     0.023 C 
BRANCH   5   7
ATOM      7  C   UNL A   1      38.350  30.599  31.870  1.00  0.00    -0.035 A 
ATOM      8  C   UNL A   1      36.365  32.098  30.440  1.00  0.00    -0.006 A 
ATOM      9  C   UNL A   1      36.037  30.997  31.255  1.00  0.00     0.009 A 
ATOM     10  C   UNL A   1      37.719  32.494  30.406  1.00  0.00     0.064 A 
ATOM     11  C   UNL A   1      36.998  30.299  31.991  1.00  0.00     0.005 A 
ATOM     12  C   UNL A   1      38.691  31.703  31.073  1.00  0.00     0.018 A 
BRANCH   8  13
ATOM     13  C   UNL A   1      35.269  32.764  29.702  1.00  0.00    -0.014 A 
ATOM     14  C   UNL A   1      33.624  34.532  29.452  1.00  0.00     0.133 A 
ATOM     15  C   UNL A   1      33.154  33.976  28.265  1.00  0.00     0.047 A 
ATOM     16  C   UNL A   1      34.685  33.958  30.155  1.00  0.00     0.056 A 
ATOM     17  C   UNL A   1      33.753  32.823  27.774  1.00  0.00     0.004 A 
ATOM     18  C   UNL A   1      34.786  32.217  28.494  1.00  0.00     0.009 A 
BRANCH  14  19
ATOM     19  O   UNL A   1      32.852  35.578  29.992  1.00  0.00    -0.410 OA
BRANCH  19  20
ATOM     20  C   UNL A   1      33.295  36.890  29.928  1.00  0.00     0.412 C 
ATOM     21  N   UNL A   1      33.552  37.418  31.164  1.00  0.00    -0.321 N 
ATOM     22  H   UNL A   1      33.818  38.366  31.194  1.00  0.00     0.167 HD
ATOM     23  O   UNL A   1      33.447  37.547  28.907  1.00  0.00    -0.224 OA
BRANCH  21  24
ATOM     24  C   UNL A   1      33.472  36.724  32.434  1.00  0.00     0.119 C 
BRANCH  24  25
ATOM     25  C   UNL A   1      34.817  36.125  32.848  1.00  0.00     0.021 C 
BRANCH  25  26
ATOM     26  C   UNL A   1      34.759  35.173  34.048  1.00  0.00     0.002 C 
BRANCH  26  27
ATOM     27  C   UNL A   1      35.020  33.696  33.732  1.00  0.00    -0.000 C 
BRANCH  27  28
ATOM     28  C   UNL A   1      36.332  33.130  34.280  1.00  0.00    -0.003 C 
ATOM     29  C   UNL A   1      37.553  33.942  33.876  1.00  0.00     0.004 C 
ENDBRANCH  27  28
ENDBRANCH  26  27
ENDBRANCH  25  26
ENDBRANCH  24  25
ENDBRANCH  21  24
ENDBRANCH  19  20
ENDBRANCH  14  19
ENDBRANCH   8  13
BRANCH  10  30
ATOM     30  C   UNL A   1      38.235  33.746  29.726  1.00  0.00     0.417 C 
ATOM     31  F   UNL A   1      39.587  33.689  29.528  1.00  0.00    -0.166 F 
ATOM     32  F   UNL A   1      37.696  33.922  28.488  1.00  0.00    -0.166 F 
ATOM     33  F   UNL A   1      38.037  34.913  30.394  1.00  0.00    -0.166 F 
ENDBRANCH  10  30
ENDBRANCH   5   7
ENDBRANCH   1   5
BRANCH   3  34
ATOM     34  C   UNL A   1      40.629  28.603  29.850  1.00  0.00     0.116 C 
BRANCH  34  35
ATOM     35  C   UNL A   1      39.752  28.606  28.594  1.00  0.00     0.021 C 
BRANCH  35  36
ATOM     36  C   UNL A   1      40.534  28.410  27.292  1.00  0.00     0.002 C 
BRANCH  36  37
ATOM     37  C   UNL A   1      40.416  27.013  26.670  1.00  0.00     0.002 C 
BRANCH  37  38
ATOM     38  C   UNL A   1      39.593  26.000  27.473  1.00  0.00     0.021 C 
BRANCH  38  39
ATOM     39  C   UNL A   1      40.419  24.992  28.269  1.00  0.00     0.116 C 
BRANCH  39  40
ATOM     40  N   UNL A   1      40.821  23.859  27.451  1.00  0.00    -0.352 N 
ATOM     41  C   UNL A   1      41.882  23.727  26.592  1.00  0.00     0.251 C 
ATOM     42  H   UNL A   1      40.243  23.065  27.525  1.00  0.00     0.163 HD
ATOM     43  O   UNL A   1      41.926  22.785  25.808  1.00  0.00    -0.269 OA
BRANCH  41  44
ATOM     44  C   UNL A   1      42.974  24.724  26.601  1.00  0.00     0.039 A 
ATOM     45  C   UNL A   1      43.353  25.322  25.396  1.00  0.00     0.014 A 
ATOM     46  C   UNL A   1      43.647  25.041  27.784  1.00  0.00     0.014 A 
ATOM     47  C   UNL A   1      44.371  26.279  25.387  1.00  0.00     0.010 A 
ATOM     48  C   UNL A   1      44.618  26.040  27.784  1.00  0.00     0.010 A 
ATOM     49  C   UNL A   1      44.991  26.667  26.585  1.00  0.00    -0.014 A 
BRANCH  49  50
ATOM     50  C   UNL A   1      46.024  27.733  26.607  1.00  0.00     0.031 A 
ATOM     51  C   UNL A   1      45.622  29.178  26.719  1.00  0.00     0.074 A 
ATOM     52  C   UNL A   1      47.321  27.404  26.448  1.00  0.00     0.049 A 
ATOM     53  N   UNL A   1      46.375  30.249  26.678  1.00  0.00    -0.248 NA
ATOM     54  C   UNL A   1      44.186  29.461  26.871  1.00  0.00     0.031 C 
ATOM     55  C   UNL A   1      47.837  26.043  26.281  1.00  0.00     0.029 A 
ATOM     56  N   UNL A   1      48.442  28.193  26.384  1.00  0.00    -0.354 N 
ATOM     57  C   UNL A   1      45.504  31.327  26.773  1.00  0.00     0.074 A 
ATOM     58  C   UNL A   1      44.165  30.786  26.840  1.00  0.00     0.031 C 
ATOM     59  C   UNL A   1      49.172  26.093  26.146  1.00  0.00     0.029 A 
ATOM     60  C   UNL A   1      49.602  27.486  26.178  1.00  0.00     0.049 A 
ATOM     61  H   UNL A   1      48.418  29.174  26.476  1.00  0.00     0.167 HD
ATOM     62  C   UNL A   1      45.796  32.650  26.812  1.00  0.00     0.031 A 
ATOM     63  C   UNL A   1      50.870  27.912  26.019  1.00  0.00     0.031 A 
ATOM     64  C   UNL A   1      47.129  33.187  26.773  1.00  0.00     0.049 A 
ATOM     65  C   UNL A   1      51.164  29.385  26.080  1.00  0.00     0.074 A 
ATOM     66  C   UNL A   1      47.528  34.507  26.894  1.00  0.00     0.029 A 
ATOM     67  N   UNL A   1      48.279  32.435  26.598  1.00  0.00    -0.354 N 
ATOM     68  N   UNL A   1      50.337  30.385  26.259  1.00  0.00    -0.248 NA
ATOM     69  C   UNL A   1      52.571  29.786  25.929  1.00  0.00     0.031 C 
ATOM     70  C   UNL A   1      48.916  34.560  26.740  1.00  0.00     0.029 A 
ATOM     71  C   UNL A   1      49.386  33.267  26.576  1.00  0.00     0.049 A 
ATOM     72  H   UNL A   1      48.305  31.456  26.503  1.00  0.00     0.167 HD
ATOM     73  C   UNL A   1      51.124  31.530  26.268  1.00  0.00     0.074 A 
ATOM     74  C   UNL A   1      52.495  31.099  26.094  1.00  0.00     0.031 C 
ATOM     75  C   UNL A   1      50.743  32.823  26.405  1.00  0.00     0.031 A 
BRANCH  62  76
ATOM     76  C   UNL A   1      44.650  33.617  26.897  1.00  0.00    -0.014 A 
ATOM     77  C   UNL A   1      44.152  34.053  28.135  1.00  0.00     0.009 A 
ATOM     78  C   UNL A   1      44.106  34.154  25.719  1.00  0.00     0.009 A 
ATOM     79  C   UNL A   1      43.115  34.986  28.190  1.00  0.00     0.001 A 
ATOM     80  C   UNL A   1      43.087  35.107  25.777  1.00  0.00     0.001 A 
ATOM     81  C   UNL A   1      42.589  35.517  27.013  1.00  0.00     0.000 A 
ENDBRANCH  62  76
BRANCH  63  82
ATOM     82  C   UNL A   1      51.963  26.934  25.779  1.00  0.00    -0.014 A 
ATOM     83  C   UNL A   1      52.708  26.418  26.850  1.00  0.00     0.009 A 
ATOM     84  C   UNL A   1      52.281  26.529  24.473  1.00  0.00     0.009 A 
ATOM     85  C   UNL A   1      53.772  25.543  26.615  1.00  0.00     0.001 A 
ATOM     86  C   UNL A   1      53.325  25.631  24.244  1.00  0.00     0.001 A 
ATOM     87  C   UNL A   1      54.077  25.148  25.314  1.00  0.00     0.000 A 
ENDBRANCH  63  82
BRANCH  75  88
ATOM     88  C   UNL A   1      51.828  33.862  26.406  1.00  0.00    -0.014 A 
ATOM     89  C   UNL A   1      52.236  34.489  25.218  1.00  0.00     0.009 A 
ATOM     90  C   UNL A   1      52.419  34.249  27.619  1.00  0.00     0.009 A 
ATOM     91  C   UNL A   1      53.236  35.462  25.243  1.00  0.00     0.001 A 
ATOM     92  C   UNL A   1      53.398  35.242  27.644  1.00  0.00     0.001 A 
ATOM     93  C   UNL A   1      53.812  35.842  26.456  1.00  0.00     0.000 A 
ENDBRANCH  75  88
ENDBRANCH  49  50
ENDBRANCH  41  44
ENDBRANCH  39  40
ENDBRANCH  38  39
ENDBRANCH  37  38
ENDBRANCH  36  37
ENDBRANCH  35  36
ENDBRANCH  34  35
ENDBRANCH   3  34
TORSDOF 23
ENDMDL
