MODEL 1
REMARK VINA RESULT:      -9.8      0.000      0.000
REMARK SMILES C[C@@H](Sc1ccccc1[N+](=O)[O-])[C@@H](C)C(=O)NCCCCCCNC(=O)c1ccc(-c2c3nc(c(-c4ccccc4)c4ccc([nH]4)c(-c4ccccc4)c4nc(c(-c5ccccc5)c5ccc2[nH]5)C=C4)C=C3)cc1
REMARK SMILES IDX 19 1 18 2 17 3 15 4 16 5 13 7 14 8 2 9 1 10 3 11 4 12 5 13
REMARK SMILES IDX 9 14 6 15 8 16 7 17 10 18 11 19 12 20 20 21 21 22 22 23
REMARK SMILES IDX 23 24 24 25 25 26 26 28 27 29 28 30 74 31 29 32 73 33 30 34
REMARK SMILES IDX 31 35 32 36 67 37 33 38 72 39 66 40 68 41 34 42 71 43 65 44
REMARK SMILES IDX 64 45 35 47 57 48 42 49 56 50 43 51 46 52 55 53 69 54 44 55
REMARK SMILES IDX 45 56 54 58 70 59 47 60 36 61 37 62 41 63 38 64 40 65 39 66
REMARK SMILES IDX 58 67 59 68 63 69 60 70 62 71 61 72 48 73 49 74 53 75 50 76
REMARK SMILES IDX 52 77 51 78
REMARK H PARENT 17 6 24 27 68 46 46 57
REMARK Flexibility Score: inf
ROOT
ATOM      1  C   UNL A   1      36.316  22.905  25.262  1.00  0.00     0.021 C 
ENDROOT
BRANCH   1   2
ATOM      2  C   UNL A   1      35.168  23.707  24.652  1.00  0.00     0.116 C 
BRANCH   2   3
ATOM      3  N   UNL A   1      34.897  24.905  25.418  1.00  0.00    -0.356 N 
ATOM      4  C   UNL A   1      33.995  25.905  25.248  1.00  0.00     0.223 C 
ATOM      5  O   UNL A   1      33.992  26.805  26.092  1.00  0.00    -0.275 OA
ATOM      6  H   UNL A   1      35.474  25.014  26.207  1.00  0.00     0.163 HD
BRANCH   4   7
ATOM      7  C   UNL A   1      32.967  25.905  24.117  1.00  0.00     0.088 C 
ATOM      8  C   UNL A   1      33.519  26.731  22.948  1.00  0.00     0.019 C 
BRANCH   7   9
ATOM      9  C   UNL A   1      31.521  26.264  24.550  1.00  0.00     0.061 C 
ATOM     10  C   UNL A   1      31.043  27.564  23.899  1.00  0.00     0.020 C 
BRANCH   9  11
ATOM     11  S   UNL A   1      30.386  24.864  24.104  1.00  0.00    -0.115 SA
BRANCH  11  12
ATOM     12  C   UNL A   1      31.331  23.358  24.350  1.00  0.00     0.085 A 
ATOM     13  C   UNL A   1      31.836  22.638  23.254  1.00  0.00     0.022 A 
ATOM     14  C   UNL A   1      31.516  22.781  25.623  1.00  0.00     0.282 A 
ATOM     15  C   UNL A   1      32.517  21.423  23.421  1.00  0.00     0.002 A 
ATOM     16  C   UNL A   1      32.186  21.554  25.797  1.00  0.00     0.087 A 
ATOM     17  C   UNL A   1      32.690  20.881  24.690  1.00  0.00     0.007 A 
BRANCH  14  18
ATOM     18  N   UNL A   1      31.023  23.417  26.838  1.00  0.00     0.063 N 
ATOM     19  O   UNL A   1      31.741  24.299  27.337  1.00  0.00    -0.258 OA
ATOM     20  O   UNL A   1      29.895  23.106  27.240  1.00  0.00    -0.258 OA
ENDBRANCH  14  18
ENDBRANCH  11  12
ENDBRANCH   9  11
ENDBRANCH   7   9
ENDBRANCH   4   7
ENDBRANCH   2   3
ENDBRANCH   1   2
BRANCH   1  21
ATOM     21  C   UNL A   1      36.899  21.837  24.329  1.00  0.00     0.002 C 
BRANCH  21  22
ATOM     22  C   UNL A   1      36.630  20.387  24.747  1.00  0.00     0.002 C 
BRANCH  22  23
ATOM     23  C   UNL A   1      37.873  19.501  24.863  1.00  0.00     0.021 C 
BRANCH  23  24
ATOM     24  C   UNL A   1      38.853  19.920  25.953  1.00  0.00     0.116 C 
BRANCH  24  25
ATOM     25  N   UNL A   1      40.112  19.195  25.867  1.00  0.00    -0.352 N 
ATOM     26  C   UNL A   1      41.393  19.653  26.026  1.00  0.00     0.251 C 
ATOM     27  H   UNL A   1      40.030  18.235  25.666  1.00  0.00     0.163 HD
ATOM     28  O   UNL A   1      42.348  18.938  25.720  1.00  0.00    -0.269 OA
BRANCH  26  29
ATOM     29  C   UNL A   1      41.634  21.016  26.543  1.00  0.00     0.039 A 
ATOM     30  C   UNL A   1      41.601  21.229  27.923  1.00  0.00     0.014 A 
ATOM     31  C   UNL A   1      41.890  22.078  25.672  1.00  0.00     0.014 A 
ATOM     32  C   UNL A   1      41.899  22.494  28.434  1.00  0.00     0.010 A 
ATOM     33  C   UNL A   1      42.252  23.321  26.185  1.00  0.00     0.010 A 
ATOM     34  C   UNL A   1      42.267  23.539  27.571  1.00  0.00    -0.014 A 
BRANCH  34  35
ATOM     35  C   UNL A   1      42.714  24.850  28.104  1.00  0.00     0.031 A 
ATOM     36  C   UNL A   1      41.719  25.936  28.403  1.00  0.00     0.074 A 
ATOM     37  C   UNL A   1      44.033  25.085  28.253  1.00  0.00     0.049 A 
ATOM     38  N   UNL A   1      41.934  27.157  28.823  1.00  0.00    -0.248 NA
ATOM     39  C   UNL A   1      40.301  25.617  28.180  1.00  0.00     0.031 C 
ATOM     40  C   UNL A   1      45.102  24.127  27.959  1.00  0.00     0.029 A 
ATOM     41  N   UNL A   1      44.699  26.204  28.684  1.00  0.00    -0.354 N 
ATOM     42  C   UNL A   1      40.683  27.755  28.904  1.00  0.00     0.074 A 
ATOM     43  C   UNL A   1      39.719  26.778  28.444  1.00  0.00     0.031 C 
ATOM     44  C   UNL A   1      46.287  24.691  28.242  1.00  0.00     0.029 A 
ATOM     45  C   UNL A   1      46.066  26.060  28.693  1.00  0.00     0.049 A 
ATOM     46  H   UNL A   1      44.242  27.032  28.958  1.00  0.00     0.167 HD
ATOM     47  C   UNL A   1      40.365  28.997  29.337  1.00  0.00     0.031 A 
ATOM     48  C   UNL A   1      47.036  26.936  29.017  1.00  0.00     0.031 A 
ATOM     49  C   UNL A   1      41.324  29.968  29.795  1.00  0.00     0.049 A 
ATOM     50  C   UNL A   1      46.657  28.320  29.464  1.00  0.00     0.074 A 
ATOM     51  C   UNL A   1      41.093  31.229  30.316  1.00  0.00     0.029 A 
ATOM     52  N   UNL A   1      42.699  29.787  29.779  1.00  0.00    -0.354 N 
ATOM     53  N   UNL A   1      45.464  28.842  29.610  1.00  0.00    -0.248 NA
ATOM     54  C   UNL A   1      47.760  29.232  29.795  1.00  0.00     0.031 C 
ATOM     55  C   UNL A   1      42.330  31.837  30.555  1.00  0.00     0.029 A 
ATOM     56  C   UNL A   1      43.330  30.930  30.242  1.00  0.00     0.049 A 
ATOM     57  H   UNL A   1      43.157  28.968  29.484  1.00  0.00     0.167 HD
ATOM     58  C   UNL A   1      45.671  30.137  30.065  1.00  0.00     0.074 A 
ATOM     59  C   UNL A   1      47.103  30.312  30.194  1.00  0.00     0.031 C 
ATOM     60  C   UNL A   1      44.757  31.097  30.347  1.00  0.00     0.031 A 
BRANCH  47  61
ATOM     61  C   UNL A   1      38.912  29.386  29.321  1.00  0.00    -0.014 A 
ATOM     62  C   UNL A   1      38.329  29.987  28.193  1.00  0.00     0.009 A 
ATOM     63  C   UNL A   1      38.103  29.111  30.436  1.00  0.00     0.009 A 
ATOM     64  C   UNL A   1      36.977  30.337  28.197  1.00  0.00     0.001 A 
ATOM     65  C   UNL A   1      36.745  29.435  30.426  1.00  0.00     0.001 A 
ATOM     66  C   UNL A   1      36.186  30.057  29.310  1.00  0.00     0.000 A 
ENDBRANCH  47  61
BRANCH  48  67
ATOM     67  C   UNL A   1      48.462  26.530  28.930  1.00  0.00    -0.014 A 
ATOM     68  C   UNL A   1      49.091  25.895  30.012  1.00  0.00     0.009 A 
ATOM     69  C   UNL A   1      49.203  26.773  27.763  1.00  0.00     0.009 A 
ATOM     70  C   UNL A   1      50.438  25.533  29.934  1.00  0.00     0.001 A 
ATOM     71  C   UNL A   1      50.541  26.383  27.678  1.00  0.00     0.001 A 
ATOM     72  C   UNL A   1      51.160  25.772  28.767  1.00  0.00     0.000 A 
ENDBRANCH  48  67
BRANCH  60  73
ATOM     73  C   UNL A   1      45.279  32.420  30.831  1.00  0.00    -0.014 A 
ATOM     74  C   UNL A   1      45.499  32.657  32.198  1.00  0.00     0.009 A 
ATOM     75  C   UNL A   1      45.592  33.429  29.907  1.00  0.00     0.009 A 
ATOM     76  C   UNL A   1      45.991  33.890  32.630  1.00  0.00     0.001 A 
ATOM     77  C   UNL A   1      46.112  34.649  30.340  1.00  0.00     0.001 A 
ATOM     78  C   UNL A   1      46.303  34.882  31.701  1.00  0.00     0.000 A 
ENDBRANCH  60  73
ENDBRANCH  34  35
ENDBRANCH  26  29
ENDBRANCH  24  25
ENDBRANCH  23  24
ENDBRANCH  22  23
ENDBRANCH  21  22
ENDBRANCH   1  21
TORSDOF 17
ENDMDL
MODEL 2
REMARK VINA RESULT:      -9.7      1.186      2.700
REMARK SMILES C[C@@H](Sc1ccccc1[N+](=O)[O-])[C@@H](C)C(=O)NCCCCCCNC(=O)c1ccc(-c2c3nc(c(-c4ccccc4)c4ccc([nH]4)c(-c4ccccc4)c4nc(c(-c5ccccc5)c5ccc2[nH]5)C=C4)C=C3)cc1
REMARK SMILES IDX 19 1 18 2 17 3 15 4 16 5 13 7 14 8 2 9 1 10 3 11 4 12 5 13
REMARK SMILES IDX 9 14 6 15 8 16 7 17 10 18 11 19 12 20 20 21 21 22 22 23
REMARK SMILES IDX 23 24 24 25 25 26 26 28 27 29 28 30 74 31 29 32 73 33 30 34
REMARK SMILES IDX 31 35 32 36 67 37 33 38 72 39 66 40 68 41 34 42 71 43 65 44
REMARK SMILES IDX 64 45 35 47 57 48 42 49 56 50 43 51 46 52 55 53 69 54 44 55
REMARK SMILES IDX 45 56 54 58 70 59 47 60 36 61 37 62 41 63 38 64 40 65 39 66
REMARK SMILES IDX 58 67 59 68 63 69 60 70 62 71 61 72 48 73 49 74 53 75 50 76
REMARK SMILES IDX 52 77 51 78
REMARK H PARENT 17 6 24 27 68 46 46 57
REMARK Flexibility Score: inf
ROOT
ATOM      1  C   UNL A   1      35.746  23.331  26.208  1.00  0.00     0.021 C 
ENDROOT
BRANCH   1   2
ATOM      2  C   UNL A   1      34.666  24.250  25.638  1.00  0.00     0.116 C 
BRANCH   2   3
ATOM      3  N   UNL A   1      33.501  24.288  26.495  1.00  0.00    -0.356 N 
ATOM      4  C   UNL A   1      32.283  23.697  26.396  1.00  0.00     0.223 C 
ATOM      5  O   UNL A   1      31.482  23.910  27.311  1.00  0.00    -0.275 OA
ATOM      6  H   UNL A   1      33.613  24.846  27.298  1.00  0.00     0.163 HD
BRANCH   4   7
ATOM      7  C   UNL A   1      31.917  22.748  25.256  1.00  0.00     0.088 C 
ATOM      8  C   UNL A   1      32.466  21.353  25.579  1.00  0.00     0.019 C 
BRANCH   7   9
ATOM      9  C   UNL A   1      32.253  23.275  23.836  1.00  0.00     0.061 C 
ATOM     10  C   UNL A   1      32.549  22.129  22.864  1.00  0.00     0.020 C 
BRANCH   9  11
ATOM     11  S   UNL A   1      30.834  24.298  23.213  1.00  0.00    -0.115 SA
BRANCH  11  12
ATOM     12  C   UNL A   1      31.327  26.012  23.419  1.00  0.00     0.085 A 
ATOM     13  C   UNL A   1      30.646  26.855  24.313  1.00  0.00     0.022 A 
ATOM     14  C   UNL A   1      32.334  26.608  22.632  1.00  0.00     0.282 A 
ATOM     15  C   UNL A   1      30.971  28.214  24.437  1.00  0.00     0.002 A 
ATOM     16  C   UNL A   1      32.655  27.975  22.741  1.00  0.00     0.087 A 
ATOM     17  C   UNL A   1      31.973  28.774  23.651  1.00  0.00     0.007 A 
BRANCH  14  18
ATOM     18  N   UNL A   1      33.102  25.848  21.653  1.00  0.00     0.063 N 
ATOM     19  O   UNL A   1      32.716  25.906  20.475  1.00  0.00    -0.258 OA
ATOM     20  O   UNL A   1      34.127  25.274  22.039  1.00  0.00    -0.258 OA
ENDBRANCH  14  18
ENDBRANCH  11  12
ENDBRANCH   9  11
ENDBRANCH   7   9
ENDBRANCH   4   7
ENDBRANCH   2   3
ENDBRANCH   1   2
BRANCH   1  21
ATOM     21  C   UNL A   1      36.694  22.749  25.153  1.00  0.00     0.002 C 
BRANCH  21  22
ATOM     22  C   UNL A   1      36.313  21.361  24.627  1.00  0.00     0.002 C 
BRANCH  22  23
ATOM     23  C   UNL A   1      37.424  20.309  24.698  1.00  0.00     0.021 C 
BRANCH  23  24
ATOM     24  C   UNL A   1      38.605  20.691  25.583  1.00  0.00     0.116 C 
BRANCH  24  25
ATOM     25  N   UNL A   1      39.597  19.631  25.661  1.00  0.00    -0.352 N 
ATOM     26  C   UNL A   1      40.922  19.700  26.005  1.00  0.00     0.251 C 
ATOM     27  H   UNL A   1      39.269  18.731  25.434  1.00  0.00     0.163 HD
ATOM     28  O   UNL A   1      41.660  18.732  25.822  1.00  0.00    -0.269 OA
BRANCH  26  29
ATOM     29  C   UNL A   1      41.475  20.946  26.574  1.00  0.00     0.039 A 
ATOM     30  C   UNL A   1      42.038  21.889  25.712  1.00  0.00     0.014 A 
ATOM     31  C   UNL A   1      41.439  21.183  27.951  1.00  0.00     0.014 A 
ATOM     32  C   UNL A   1      42.499  23.104  26.223  1.00  0.00     0.010 A 
ATOM     33  C   UNL A   1      41.838  22.421  28.451  1.00  0.00     0.010 A 
ATOM     34  C   UNL A   1      42.364  23.396  27.590  1.00  0.00    -0.014 A 
BRANCH  34  35
ATOM     35  C   UNL A   1      42.726  24.731  28.128  1.00  0.00     0.031 A 
ATOM     36  C   UNL A   1      41.677  25.786  28.333  1.00  0.00     0.074 A 
ATOM     37  C   UNL A   1      44.023  25.014  28.367  1.00  0.00     0.049 A 
ATOM     38  N   UNL A   1      41.820  27.021  28.743  1.00  0.00    -0.248 NA
ATOM     39  C   UNL A   1      40.290  25.415  28.014  1.00  0.00     0.031 C 
ATOM     40  C   UNL A   1      45.142  24.089  28.170  1.00  0.00     0.029 A 
ATOM     41  N   UNL A   1      44.618  26.163  28.822  1.00  0.00    -0.354 N 
ATOM     42  C   UNL A   1      40.547  27.577  28.721  1.00  0.00     0.074 A 
ATOM     43  C   UNL A   1      39.652  26.559  28.213  1.00  0.00     0.031 C 
ATOM     44  C   UNL A   1      46.284  24.698  28.526  1.00  0.00     0.029 A 
ATOM     45  C   UNL A   1      45.985  26.067  28.933  1.00  0.00     0.049 A 
ATOM     46  H   UNL A   1      44.115  26.979  29.047  1.00  0.00     0.167 HD
ATOM     47  C   UNL A   1      40.157  28.815  29.105  1.00  0.00     0.031 A 
ATOM     48  C   UNL A   1      46.899  26.981  29.309  1.00  0.00     0.031 A 
ATOM     49  C   UNL A   1      41.048  29.826  29.612  1.00  0.00     0.049 A 
ATOM     50  C   UNL A   1      46.442  28.358  29.700  1.00  0.00     0.074 A 
ATOM     51  C   UNL A   1      40.737  31.088  30.090  1.00  0.00     0.029 A 
ATOM     52  N   UNL A   1      42.425  29.692  29.699  1.00  0.00    -0.354 N 
ATOM     53  N   UNL A   1      45.225  28.842  29.749  1.00  0.00    -0.248 NA
ATOM     54  C   UNL A   1      47.487  29.314  30.091  1.00  0.00     0.031 C 
ATOM     55  C   UNL A   1      41.932  31.742  30.406  1.00  0.00     0.029 A 
ATOM     56  C   UNL A   1      42.982  30.865  30.183  1.00  0.00     0.049 A 
ATOM     57  H   UNL A   1      42.931  28.885  29.454  1.00  0.00     0.167 HD
ATOM     58  C   UNL A   1      45.355  30.151  30.191  1.00  0.00     0.074 A 
ATOM     59  C   UNL A   1      46.768  30.378  30.420  1.00  0.00     0.031 C 
ATOM     60  C   UNL A   1      44.392  31.083  30.388  1.00  0.00     0.031 A 
BRANCH  47  61
ATOM     61  C   UNL A   1      38.697  29.153  28.977  1.00  0.00    -0.014 A 
ATOM     62  C   UNL A   1      37.818  29.015  30.063  1.00  0.00     0.009 A 
ATOM     63  C   UNL A   1      38.201  29.656  27.763  1.00  0.00     0.009 A 
ATOM     64  C   UNL A   1      36.466  29.338  29.925  1.00  0.00     0.001 A 
ATOM     65  C   UNL A   1      36.855  30.006  27.637  1.00  0.00     0.001 A 
ATOM     66  C   UNL A   1      35.987  29.837  28.715  1.00  0.00     0.000 A 
ENDBRANCH  47  61
BRANCH  48  67
ATOM     67  C   UNL A   1      48.340  26.623  29.333  1.00  0.00    -0.014 A 
ATOM     68  C   UNL A   1      48.920  26.075  30.486  1.00  0.00     0.009 A 
ATOM     69  C   UNL A   1      49.145  26.826  28.200  1.00  0.00     0.009 A 
ATOM     70  C   UNL A   1      50.281  25.759  30.513  1.00  0.00     0.001 A 
ATOM     71  C   UNL A   1      50.498  26.482  28.220  1.00  0.00     0.001 A 
ATOM     72  C   UNL A   1      51.067  25.957  29.379  1.00  0.00     0.000 A 
ENDBRANCH  48  67
BRANCH  60  73
ATOM     73  C   UNL A   1      44.833  32.431  30.882  1.00  0.00    -0.014 A 
ATOM     74  C   UNL A   1      44.801  32.750  32.250  1.00  0.00     0.009 A 
ATOM     75  C   UNL A   1      45.323  33.383  29.974  1.00  0.00     0.009 A 
ATOM     76  C   UNL A   1      45.221  34.005  32.693  1.00  0.00     0.001 A 
ATOM     77  C   UNL A   1      45.770  34.626  30.424  1.00  0.00     0.001 A 
ATOM     78  C   UNL A   1      45.710  34.939  31.781  1.00  0.00     0.000 A 
ENDBRANCH  60  73
ENDBRANCH  34  35
ENDBRANCH  26  29
ENDBRANCH  24  25
ENDBRANCH  23  24
ENDBRANCH  22  23
ENDBRANCH  21  22
ENDBRANCH   1  21
TORSDOF 17
ENDMDL
MODEL 3
REMARK VINA RESULT:      -9.7      4.654      9.537
REMARK SMILES C[C@@H](Sc1ccccc1[N+](=O)[O-])[C@@H](C)C(=O)NCCCCCCNC(=O)c1ccc(-c2c3nc(c(-c4ccccc4)c4ccc([nH]4)c(-c4ccccc4)c4nc(c(-c5ccccc5)c5ccc2[nH]5)C=C4)C=C3)cc1
REMARK SMILES IDX 19 1 18 2 17 3 15 4 16 5 13 7 14 8 2 9 1 10 3 11 4 12 5 13
REMARK SMILES IDX 9 14 6 15 8 16 7 17 10 18 11 19 12 20 20 21 21 22 22 23
REMARK SMILES IDX 23 24 24 25 25 26 26 28 27 29 28 30 74 31 29 32 73 33 30 34
REMARK SMILES IDX 31 35 32 36 67 37 33 38 72 39 66 40 68 41 34 42 71 43 65 44
REMARK SMILES IDX 64 45 35 47 57 48 42 49 56 50 43 51 46 52 55 53 69 54 44 55
REMARK SMILES IDX 45 56 54 58 70 59 47 60 36 61 37 62 41 63 38 64 40 65 39 66
REMARK SMILES IDX 58 67 59 68 63 69 60 70 62 71 61 72 48 73 49 74 53 75 50 76
REMARK SMILES IDX 52 77 51 78
REMARK H PARENT 17 6 24 27 68 46 46 57
REMARK Flexibility Score: inf
ROOT
ATOM      1  C   UNL A   1      33.185  29.555  24.929  1.00  0.00     0.021 C 
ENDROOT
BRANCH   1   2
ATOM      2  C   UNL A   1      33.247  29.007  23.504  1.00  0.00     0.116 C 
BRANCH   2   3
ATOM      3  N   UNL A   1      31.938  28.995  22.887  1.00  0.00    -0.356 N 
ATOM      4  C   UNL A   1      31.139  27.977  22.476  1.00  0.00     0.223 C 
ATOM      5  O   UNL A   1      30.047  28.285  21.990  1.00  0.00    -0.275 OA
ATOM      6  H   UNL A   1      31.557  29.890  22.738  1.00  0.00     0.163 HD
BRANCH   4   7
ATOM      7  C   UNL A   1      31.514  26.507  22.662  1.00  0.00     0.088 C 
ATOM      8  C   UNL A   1      31.853  25.907  21.292  1.00  0.00     0.019 C 
BRANCH   7   9
ATOM      9  C   UNL A   1      30.512  25.682  23.511  1.00  0.00     0.061 C 
ATOM     10  C   UNL A   1      30.671  24.178  23.269  1.00  0.00     0.020 C 
BRANCH   9  11
ATOM     11  S   UNL A   1      30.766  26.075  25.308  1.00  0.00    -0.115 SA
BRANCH  11  12
ATOM     12  C   UNL A   1      31.654  24.679  26.004  1.00  0.00     0.085 A 
ATOM     13  C   UNL A   1      30.970  23.654  26.678  1.00  0.00     0.022 A 
ATOM     14  C   UNL A   1      33.062  24.601  25.998  1.00  0.00     0.282 A 
ATOM     15  C   UNL A   1      31.652  22.591  27.288  1.00  0.00     0.002 A 
ATOM     16  C   UNL A   1      33.753  23.544  26.622  1.00  0.00     0.087 A 
ATOM     17  C   UNL A   1      33.042  22.537  27.262  1.00  0.00     0.007 A 
BRANCH  14  18
ATOM     18  N   UNL A   1      33.890  25.611  25.350  1.00  0.00     0.063 N 
ATOM     19  O   UNL A   1      34.229  25.385  24.178  1.00  0.00    -0.258 OA
ATOM     20  O   UNL A   1      34.123  26.656  25.970  1.00  0.00    -0.258 OA
ENDBRANCH  14  18
ENDBRANCH  11  12
ENDBRANCH   9  11
ENDBRANCH   7   9
ENDBRANCH   4   7
ENDBRANCH   2   3
ENDBRANCH   1   2
BRANCH   1  21
ATOM     21  C   UNL A   1      31.765  29.864  25.420  1.00  0.00     0.002 C 
BRANCH  21  22
ATOM     22  C   UNL A   1      31.680  30.490  26.816  1.00  0.00     0.002 C 
BRANCH  22  23
ATOM     23  C   UNL A   1      31.504  32.011  26.838  1.00  0.00     0.021 C 
BRANCH  23  24
ATOM     24  C   UNL A   1      32.753  32.790  27.236  1.00  0.00     0.116 C 
BRANCH  24  25
ATOM     25  N   UNL A   1      32.451  34.169  27.585  1.00  0.00    -0.352 N 
ATOM     26  C   UNL A   1      32.989  34.958  28.569  1.00  0.00     0.251 C 
ATOM     27  H   UNL A   1      31.758  34.600  27.034  1.00  0.00     0.163 HD
ATOM     28  O   UNL A   1      32.470  36.038  28.849  1.00  0.00    -0.269 OA
BRANCH  26  29
ATOM     29  C   UNL A   1      34.181  34.502  29.313  1.00  0.00     0.039 A 
ATOM     30  C   UNL A   1      34.013  33.965  30.592  1.00  0.00     0.014 A 
ATOM     31  C   UNL A   1      35.458  34.605  28.754  1.00  0.00     0.014 A 
ATOM     32  C   UNL A   1      35.119  33.462  31.280  1.00  0.00     0.010 A 
ATOM     33  C   UNL A   1      36.548  34.043  29.414  1.00  0.00     0.010 A 
ATOM     34  C   UNL A   1      36.388  33.459  30.679  1.00  0.00    -0.014 A 
BRANCH  34  35
ATOM     35  C   UNL A   1      37.547  32.810  31.341  1.00  0.00     0.031 A 
ATOM     36  C   UNL A   1      38.197  31.599  30.736  1.00  0.00     0.074 A 
ATOM     37  C   UNL A   1      37.970  33.278  32.532  1.00  0.00     0.049 A 
ATOM     38  N   UNL A   1      39.184  30.875  31.201  1.00  0.00    -0.248 NA
ATOM     39  C   UNL A   1      37.655  31.125  29.453  1.00  0.00     0.031 C 
ATOM     40  C   UNL A   1      37.397  34.423  33.246  1.00  0.00     0.029 A 
ATOM     41  N   UNL A   1      38.978  32.845  33.357  1.00  0.00    -0.354 N 
ATOM     42  C   UNL A   1      39.373  29.856  30.276  1.00  0.00     0.074 A 
ATOM     43  C   UNL A   1      38.369  30.028  29.248  1.00  0.00     0.031 C 
ATOM     44  C   UNL A   1      38.077  34.616  34.386  1.00  0.00     0.029 A 
ATOM     45  C   UNL A   1      39.103  33.586  34.508  1.00  0.00     0.049 A 
ATOM     46  H   UNL A   1      39.555  32.076  33.145  1.00  0.00     0.167 HD
ATOM     47  C   UNL A   1      40.307  28.876  30.275  1.00  0.00     0.031 A 
ATOM     48  C   UNL A   1      39.942  33.446  35.551  1.00  0.00     0.031 A 
ATOM     49  C   UNL A   1      41.307  28.707  31.298  1.00  0.00     0.049 A 
ATOM     50  C   UNL A   1      40.949  32.331  35.540  1.00  0.00     0.074 A 
ATOM     51  C   UNL A   1      42.338  27.785  31.350  1.00  0.00     0.029 A 
ATOM     52  N   UNL A   1      41.393  29.471  32.451  1.00  0.00    -0.354 N 
ATOM     53  N   UNL A   1      41.166  31.424  34.619  1.00  0.00    -0.248 NA
ATOM     54  C   UNL A   1      41.830  32.224  36.711  1.00  0.00     0.031 C 
ATOM     55  C   UNL A   1      43.010  27.950  32.566  1.00  0.00     0.029 A 
ATOM     56  C   UNL A   1      42.435  29.015  33.242  1.00  0.00     0.049 A 
ATOM     57  H   UNL A   1      40.802  30.225  32.674  1.00  0.00     0.167 HD
ATOM     58  C   UNL A   1      42.217  30.649  35.091  1.00  0.00     0.074 A 
ATOM     59  C   UNL A   1      42.610  31.209  36.369  1.00  0.00     0.031 C 
ATOM     60  C   UNL A   1      42.803  29.570  34.519  1.00  0.00     0.031 A 
BRANCH  47  61
ATOM     61  C   UNL A   1      40.284  27.896  29.134  1.00  0.00    -0.014 A 
ATOM     62  C   UNL A   1      39.546  26.704  29.210  1.00  0.00     0.009 A 
ATOM     63  C   UNL A   1      40.978  28.189  27.949  1.00  0.00     0.009 A 
ATOM     64  C   UNL A   1      39.534  25.810  28.138  1.00  0.00     0.001 A 
ATOM     65  C   UNL A   1      40.941  27.306  26.868  1.00  0.00     0.001 A 
ATOM     66  C   UNL A   1      40.227  26.113  26.967  1.00  0.00     0.000 A 
ENDBRANCH  47  61
BRANCH  48  67
ATOM     67  C   UNL A   1      39.864  34.388  36.697  1.00  0.00    -0.014 A 
ATOM     68  C   UNL A   1      40.548  35.612  36.662  1.00  0.00     0.009 A 
ATOM     69  C   UNL A   1      39.104  34.068  37.833  1.00  0.00     0.009 A 
ATOM     70  C   UNL A   1      40.490  36.487  37.750  1.00  0.00     0.001 A 
ATOM     71  C   UNL A   1      39.024  34.958  38.907  1.00  0.00     0.001 A 
ATOM     72  C   UNL A   1      39.725  36.162  38.868  1.00  0.00     0.000 A 
ENDBRANCH  48  67
BRANCH  60  73
ATOM     73  C   UNL A   1      43.936  28.927  35.269  1.00  0.00    -0.014 A 
ATOM     74  C   UNL A   1      45.268  29.304  35.032  1.00  0.00     0.009 A 
ATOM     75  C   UNL A   1      43.667  27.961  36.250  1.00  0.00     0.009 A 
ATOM     76  C   UNL A   1      46.309  28.702  35.741  1.00  0.00     0.001 A 
ATOM     77  C   UNL A   1      44.707  27.383  36.979  1.00  0.00     0.001 A 
ATOM     78  C   UNL A   1      46.027  27.747  36.718  1.00  0.00     0.000 A 
ENDBRANCH  60  73
ENDBRANCH  34  35
ENDBRANCH  26  29
ENDBRANCH  24  25
ENDBRANCH  23  24
ENDBRANCH  22  23
ENDBRANCH  21  22
ENDBRANCH   1  21
TORSDOF 17
ENDMDL
