MODEL 1
REMARK VINA RESULT:      -9.4      0.000      0.000
REMARK SMILES CC1(C)CC[C@@]2(C(=O)NCCCCCCNC(=O)c3ccc(-c4c5nc(c(-c6ccccc6)c6ccc([nH]6)c(-c6ccccc6)c6nc(c(-c7ccccc7)c7ccc4[nH]7)C=C6)C=C5)cc3)CC[C@@]3(C)C(=CC[C@H]4[C@@]5(C)CC[C@H](O)C(C)(C)[C@@H]5CC[C@]43C)[C@@H]2C1
REMARK SMILES IDX 13 1 12 2 11 3 10 4 9 5 7 6 8 7 6 9 1 10 2 11 3 12 4 13
REMARK SMILES IDX 90 14 5 15 89 16 71 17 67 18 69 19 72 20 68 21 70 22 87 23
REMARK SMILES IDX 73 24 74 25 86 26 88 27 75 28 85 29 76 30 77 31 84 32 78 33
REMARK SMILES IDX 81 34 79 35 82 36 83 37 80 38 14 40 15 41 16 42 17 43 18 45
REMARK SMILES IDX 19 46 20 47 66 48 21 49 65 50 22 51 23 52 24 53 59 54 25 55
REMARK SMILES IDX 64 56 58 57 60 58 26 59 63 60 57 61 56 62 27 64 49 65 34 66
REMARK SMILES IDX 48 67 35 68 38 69 47 70 61 71 36 72 37 73 46 75 62 76 39 77
REMARK SMILES IDX 28 78 29 79 33 80 30 81 32 82 31 83 50 84 51 85 55 86 52 87
REMARK SMILES IDX 54 88 53 89 40 90 41 91 45 92 42 93 44 94 43 95
REMARK H PARENT 9 8 80 39 16 44 60 63 38 74
REMARK Flexibility Score: inf
ROOT
ATOM      1  C   UNL A   1      41.189  35.585  28.445  1.00  0.00     0.002 C 
ENDROOT
BRANCH   1   2
ATOM      2  C   UNL A   1      40.901  34.630  29.597  1.00  0.00     0.002 C 
BRANCH   2   3
ATOM      3  C   UNL A   1      39.451  34.204  29.897  1.00  0.00     0.021 C 
BRANCH   3   4
ATOM      4  C   UNL A   1      38.724  34.721  31.139  1.00  0.00     0.116 C 
BRANCH   4   5
ATOM      5  N   UNL A   1      38.755  33.953  32.361  1.00  0.00    -0.356 N 
ATOM      6  C   UNL A   1      38.575  34.425  33.652  1.00  0.00     0.226 C 
ATOM      7  O   UNL A   1      39.062  35.492  34.022  1.00  0.00    -0.274 OA
ATOM      8  H   UNL A   1      38.924  32.988  32.266  1.00  0.00     0.163 HD
BRANCH   6   9
ATOM      9  C   UNL A   1      37.562  33.617  34.557  1.00  0.00     0.056 C 
ATOM     10  C   UNL A   1      34.063  33.021  32.609  1.00  0.00     0.011 C 
ATOM     11  C   UNL A   1      35.523  33.435  32.341  1.00  0.00    -0.035 C 
ATOM     12  C   UNL A   1      35.577  33.808  30.830  1.00  0.00     0.011 C 
ATOM     13  C   UNL A   1      35.791  34.727  33.136  1.00  0.00     0.007 C 
ATOM     14  C   UNL A   1      36.500  32.217  32.675  1.00  0.00     0.015 C 
ATOM     15  C   UNL A   1      36.256  34.449  34.549  1.00  0.00     0.018 C 
ATOM     16  C   UNL A   1      37.275  32.177  34.068  1.00  0.00     0.031 C 
ATOM     17  C   UNL A   1      38.635  31.361  34.228  1.00  0.00    -0.064 C 
ATOM     18  C   UNL A   1      37.974  33.535  36.040  1.00  0.00     0.018 C 
ATOM     19  C   UNL A   1      39.353  31.354  35.630  1.00  0.00    -0.006 C 
ATOM     20  C   UNL A   1      39.238  30.782  33.174  1.00  0.00    -0.027 C 
ATOM     21  C   UNL A   1      39.256  32.758  36.275  1.00  0.00     0.013 C 
ATOM     22  C   UNL A   1      38.500  30.382  36.509  1.00  0.00     0.017 C 
ATOM     23  C   UNL A   1      40.946  30.841  35.620  1.00  0.00    -0.020 C 
ATOM     24  C   UNL A   1      40.691  30.437  33.105  1.00  0.00     0.032 C 
ATOM     25  C   UNL A   1      41.605  31.031  34.215  1.00  0.00     0.006 C 
ATOM     26  C   UNL A   1      41.893  31.437  36.744  1.00  0.00     0.008 C 
ATOM     27  C   UNL A   1      41.008  29.285  35.879  1.00  0.00     0.012 C 
ATOM     28  C   UNL A   1      42.464  32.362  33.893  1.00  0.00    -0.025 C 
ATOM     29  C   UNL A   1      43.239  32.055  36.268  1.00  0.00     0.005 C 
ATOM     30  C   UNL A   1      43.607  31.842  32.969  1.00  0.00     0.012 C 
ATOM     31  C   UNL A   1      41.737  33.486  33.171  1.00  0.00     0.010 C 
ATOM     32  C   UNL A   1      42.948  33.089  35.190  1.00  0.00     0.003 C 
ATOM     33  C   UNL A   1      42.571  34.719  32.814  1.00  0.00     0.033 C 
ATOM     34  C   UNL A   1      43.918  34.327  34.976  1.00  0.00    -0.006 C 
ATOM     35  C   UNL A   1      43.197  35.356  34.043  1.00  0.00     0.120 C 
ATOM     36  C   UNL A   1      45.311  33.977  34.423  1.00  0.00     0.014 C 
ATOM     37  C   UNL A   1      44.157  35.063  36.318  1.00  0.00     0.014 C 
BRANCH  35  38
ATOM     38  O   UNL A   1      44.084  36.393  33.620  1.00  0.00    -0.393 OA
ATOM     39  H   UNL A   1      43.971  36.547  32.668  1.00  0.00     0.210 HD
ENDBRANCH  35  38
ENDBRANCH   6   9
ENDBRANCH   4   5
ENDBRANCH   3   4
ENDBRANCH   2   3
ENDBRANCH   1   2
BRANCH   1  40
ATOM     40  C   UNL A   1      42.415  36.468  28.600  1.00  0.00     0.021 C 
BRANCH  40  41
ATOM     41  C   UNL A   1      43.223  36.245  29.867  1.00  0.00     0.116 C 
BRANCH  41  42
ATOM     42  N   UNL A   1      44.505  36.926  29.921  1.00  0.00    -0.352 N 
ATOM     43  C   UNL A   1      45.732  36.337  29.682  1.00  0.00     0.251 C 
ATOM     44  H   UNL A   1      44.499  37.885  30.146  1.00  0.00     0.163 HD
ATOM     45  O   UNL A   1      46.778  36.954  29.722  1.00  0.00    -0.269 OA
BRANCH  43  46
ATOM     46  C   UNL A   1      45.710  34.884  29.419  1.00  0.00     0.039 A 
ATOM     47  C   UNL A   1      45.696  34.017  30.511  1.00  0.00     0.014 A 
ATOM     48  C   UNL A   1      45.479  34.424  28.120  1.00  0.00     0.014 A 
ATOM     49  C   UNL A   1      45.392  32.673  30.303  1.00  0.00     0.010 A 
ATOM     50  C   UNL A   1      45.104  33.100  27.928  1.00  0.00     0.010 A 
ATOM     51  C   UNL A   1      45.064  32.213  29.017  1.00  0.00    -0.014 A 
BRANCH  51  52
ATOM     52  C   UNL A   1      44.707  30.791  28.795  1.00  0.00     0.031 A 
ATOM     53  C   UNL A   1      43.277  30.359  28.947  1.00  0.00     0.074 A 
ATOM     54  C   UNL A   1      45.665  29.894  28.492  1.00  0.00     0.049 A 
ATOM     55  N   UNL A   1      42.755  29.170  28.789  1.00  0.00    -0.248 NA
ATOM     56  C   UNL A   1      42.310  31.391  29.355  1.00  0.00     0.031 C 
ATOM     57  C   UNL A   1      47.097  30.182  28.373  1.00  0.00     0.029 A 
ATOM     58  N   UNL A   1      45.575  28.549  28.230  1.00  0.00    -0.354 N 
ATOM     59  C   UNL A   1      41.409  29.310  29.099  1.00  0.00     0.074 A 
ATOM     60  C   UNL A   1      41.202  30.682  29.502  1.00  0.00     0.031 C 
ATOM     61  C   UNL A   1      47.745  29.054  28.033  1.00  0.00     0.029 A 
ATOM     62  C   UNL A   1      46.783  27.961  27.937  1.00  0.00     0.049 A 
ATOM     63  H   UNL A   1      44.726  28.052  28.250  1.00  0.00     0.167 HD
ATOM     64  C   UNL A   1      40.425  28.384  29.031  1.00  0.00     0.031 A 
ATOM     65  C   UNL A   1      47.077  26.685  27.620  1.00  0.00     0.031 A 
ATOM     66  C   UNL A   1      40.627  27.028  28.601  1.00  0.00     0.049 A 
ATOM     67  C   UNL A   1      45.960  25.681  27.527  1.00  0.00     0.074 A 
ATOM     68  C   UNL A   1      39.683  26.034  28.418  1.00  0.00     0.029 A 
ATOM     69  N   UNL A   1      41.860  26.479  28.288  1.00  0.00    -0.354 N 
ATOM     70  N   UNL A   1      44.676  25.854  27.726  1.00  0.00    -0.248 NA
ATOM     71  C   UNL A   1      46.332  24.310  27.147  1.00  0.00     0.031 C 
ATOM     72  C   UNL A   1      40.353  24.865  28.040  1.00  0.00     0.029 A 
ATOM     73  C   UNL A   1      41.705  25.149  27.938  1.00  0.00     0.049 A 
ATOM     74  H   UNL A   1      42.717  26.963  28.311  1.00  0.00     0.167 HD
ATOM     75  C   UNL A   1      44.084  24.623  27.473  1.00  0.00     0.074 A 
ATOM     76  C   UNL A   1      45.147  23.718  27.087  1.00  0.00     0.031 C 
ATOM     77  C   UNL A   1      42.778  24.271  27.554  1.00  0.00     0.031 A 
BRANCH  64  78
ATOM     78  C   UNL A   1      39.043  28.810  29.434  1.00  0.00    -0.014 A 
ATOM     79  C   UNL A   1      38.535  28.527  30.713  1.00  0.00     0.009 A 
ATOM     80  C   UNL A   1      38.248  29.535  28.534  1.00  0.00     0.009 A 
ATOM     81  C   UNL A   1      37.247  28.930  31.068  1.00  0.00     0.001 A 
ATOM     82  C   UNL A   1      36.971  29.961  28.900  1.00  0.00     0.001 A 
ATOM     83  C   UNL A   1      36.468  29.651  30.163  1.00  0.00     0.000 A 
ENDBRANCH  64  78
BRANCH  65  84
ATOM     84  C   UNL A   1      48.482  26.282  27.352  1.00  0.00    -0.014 A 
ATOM     85  C   UNL A   1      49.032  26.412  26.066  1.00  0.00     0.009 A 
ATOM     86  C   UNL A   1      49.276  25.743  28.376  1.00  0.00     0.009 A 
ATOM     87  C   UNL A   1      50.336  25.981  25.806  1.00  0.00     0.001 A 
ATOM     88  C   UNL A   1      50.589  25.339  28.118  1.00  0.00     0.001 A 
ATOM     89  C   UNL A   1      51.113  25.448  26.832  1.00  0.00     0.000 A 
ENDBRANCH  65  84
BRANCH  77  90
ATOM     90  C   UNL A   1      42.424  22.857  27.192  1.00  0.00    -0.014 A 
ATOM     91  C   UNL A   1      42.386  22.436  25.854  1.00  0.00     0.009 A 
ATOM     92  C   UNL A   1      42.176  21.921  28.210  1.00  0.00     0.009 A 
ATOM     93  C   UNL A   1      42.077  21.112  25.541  1.00  0.00     0.001 A 
ATOM     94  C   UNL A   1      41.896  20.592  27.895  1.00  0.00     0.001 A 
ATOM     95  C   UNL A   1      41.839  20.191  26.560  1.00  0.00     0.000 A 
ENDBRANCH  77  90
ENDBRANCH  51  52
ENDBRANCH  43  46
ENDBRANCH  41  42
ENDBRANCH  40  41
ENDBRANCH   1  40
TORSDOF 14
ENDMDL
MODEL 2
REMARK VINA RESULT:      -9.3      3.517      8.636
REMARK SMILES CC1(C)CC[C@@]2(C(=O)NCCCCCCNC(=O)c3ccc(-c4c5nc(c(-c6ccccc6)c6ccc([nH]6)c(-c6ccccc6)c6nc(c(-c7ccccc7)c7ccc4[nH]7)C=C6)C=C5)cc3)CC[C@@]3(C)C(=CC[C@H]4[C@@]5(C)CC[C@H](O)C(C)(C)[C@@H]5CC[C@]43C)[C@@H]2C1
REMARK SMILES IDX 13 1 12 2 11 3 10 4 9 5 7 6 8 7 6 9 1 10 2 11 3 12 4 13
REMARK SMILES IDX 90 14 5 15 89 16 71 17 67 18 69 19 72 20 68 21 70 22 87 23
REMARK SMILES IDX 73 24 74 25 86 26 88 27 75 28 85 29 76 30 77 31 84 32 78 33
REMARK SMILES IDX 81 34 79 35 82 36 83 37 80 38 14 40 15 41 16 42 17 43 18 45
REMARK SMILES IDX 19 46 20 47 66 48 21 49 65 50 22 51 23 52 24 53 59 54 25 55
REMARK SMILES IDX 64 56 58 57 60 58 26 59 63 60 57 61 56 62 27 64 49 65 34 66
REMARK SMILES IDX 48 67 35 68 38 69 47 70 61 71 36 72 37 73 46 75 62 76 39 77
REMARK SMILES IDX 28 78 29 79 33 80 30 81 32 82 31 83 50 84 51 85 55 86 52 87
REMARK SMILES IDX 54 88 53 89 40 90 41 91 45 92 42 93 44 94 43 95
REMARK H PARENT 9 8 80 39 16 44 60 63 38 74
REMARK Flexibility Score: inf
ROOT
ATOM      1  C   UNL A   1      40.058  26.523  28.820  1.00  0.00     0.002 C 
ENDROOT
BRANCH   1   2
ATOM      2  C   UNL A   1      40.472  27.668  27.905  1.00  0.00     0.002 C 
BRANCH   2   3
ATOM      3  C   UNL A   1      40.355  29.124  28.395  1.00  0.00     0.021 C 
BRANCH   3   4
ATOM      4  C   UNL A   1      41.466  29.760  29.234  1.00  0.00     0.116 C 
BRANCH   4   5
ATOM      5  N   UNL A   1      41.165  30.279  30.547  1.00  0.00    -0.356 N 
ATOM      6  C   UNL A   1      40.481  29.633  31.566  1.00  0.00     0.226 C 
ATOM      7  O   UNL A   1      39.486  28.947  31.341  1.00  0.00    -0.274 OA
ATOM      8  H   UNL A   1      41.479  31.192  30.739  1.00  0.00     0.163 HD
BRANCH   6   9
ATOM      9  C   UNL A   1      41.156  29.674  32.995  1.00  0.00     0.056 C 
ATOM     10  C   UNL A   1      44.894  28.124  32.860  1.00  0.00     0.011 C 
ATOM     11  C   UNL A   1      43.787  28.655  31.927  1.00  0.00    -0.035 C 
ATOM     12  C   UNL A   1      44.310  28.410  30.481  1.00  0.00     0.011 C 
ATOM     13  C   UNL A   1      42.551  27.756  32.119  1.00  0.00     0.007 C 
ATOM     14  C   UNL A   1      43.547  30.209  32.204  1.00  0.00     0.015 C 
ATOM     15  C   UNL A   1      41.662  28.233  33.248  1.00  0.00     0.018 C 
ATOM     16  C   UNL A   1      42.329  30.676  33.121  1.00  0.00     0.031 C 
ATOM     17  C   UNL A   1      41.702  32.134  32.974  1.00  0.00    -0.064 C 
ATOM     18  C   UNL A   1      40.170  29.959  34.146  1.00  0.00     0.018 C 
ATOM     19  C   UNL A   1      40.502  32.541  33.911  1.00  0.00    -0.006 C 
ATOM     20  C   UNL A   1      42.092  32.974  31.998  1.00  0.00    -0.027 C 
ATOM     21  C   UNL A   1      39.541  31.339  34.082  1.00  0.00     0.013 C 
ATOM     22  C   UNL A   1      41.160  32.808  35.304  1.00  0.00     0.017 C 
ATOM     23  C   UNL A   1      39.642  33.894  33.432  1.00  0.00    -0.020 C 
ATOM     24  C   UNL A   1      41.274  34.111  31.472  1.00  0.00     0.032 C 
ATOM     25  C   UNL A   1      39.779  34.151  31.896  1.00  0.00     0.006 C 
ATOM     26  C   UNL A   1      38.115  33.952  33.855  1.00  0.00     0.008 C 
ATOM     27  C   UNL A   1      40.255  35.183  34.106  1.00  0.00     0.012 C 
ATOM     28  C   UNL A   1      38.659  33.589  30.875  1.00  0.00    -0.025 C 
ATOM     29  C   UNL A   1      37.089  34.255  32.726  1.00  0.00     0.005 C 
ATOM     30  C   UNL A   1      38.574  34.697  29.783  1.00  0.00     0.012 C 
ATOM     31  C   UNL A   1      38.963  32.263  30.192  1.00  0.00     0.010 C 
ATOM     32  C   UNL A   1      37.307  33.265  31.590  1.00  0.00     0.003 C 
ATOM     33  C   UNL A   1      37.929  31.765  29.180  1.00  0.00     0.033 C 
ATOM     34  C   UNL A   1      36.102  32.841  30.647  1.00  0.00    -0.006 C 
ATOM     35  C   UNL A   1      36.555  31.600  29.808  1.00  0.00     0.120 C 
ATOM     36  C   UNL A   1      35.571  33.954  29.726  1.00  0.00     0.014 C 
ATOM     37  C   UNL A   1      34.896  32.366  31.494  1.00  0.00     0.014 C 
BRANCH  35  38
ATOM     38  O   UNL A   1      35.614  31.292  28.777  1.00  0.00    -0.393 OA
ATOM     39  H   UNL A   1      35.563  30.330  28.662  1.00  0.00     0.210 HD
ENDBRANCH  35  38
ENDBRANCH   6   9
ENDBRANCH   4   5
ENDBRANCH   3   4
ENDBRANCH   2   3
ENDBRANCH   1   2
BRANCH   1  40
ATOM     40  C   UNL A   1      39.308  25.378  28.161  1.00  0.00     0.021 C 
BRANCH  40  41
ATOM     41  C   UNL A   1      39.690  25.094  26.718  1.00  0.00     0.116 C 
BRANCH  41  42
ATOM     42  N   UNL A   1      40.345  23.819  26.483  1.00  0.00    -0.352 N 
ATOM     43  C   UNL A   1      41.709  23.632  26.368  1.00  0.00     0.251 C 
ATOM     44  H   UNL A   1      39.770  23.024  26.397  1.00  0.00     0.163 HD
ATOM     45  O   UNL A   1      42.212  22.541  26.188  1.00  0.00    -0.269 OA
BRANCH  43  46
ATOM     46  C   UNL A   1      42.536  24.855  26.428  1.00  0.00     0.039 A 
ATOM     47  C   UNL A   1      43.201  25.143  27.618  1.00  0.00     0.014 A 
ATOM     48  C   UNL A   1      42.812  25.555  25.251  1.00  0.00     0.014 A 
ATOM     49  C   UNL A   1      44.199  26.117  27.617  1.00  0.00     0.010 A 
ATOM     50  C   UNL A   1      43.856  26.471  25.237  1.00  0.00     0.010 A 
ATOM     51  C   UNL A   1      44.554  26.764  26.421  1.00  0.00    -0.014 A 
BRANCH  51  52
ATOM     52  C   UNL A   1      45.636  27.776  26.407  1.00  0.00     0.031 A 
ATOM     53  C   UNL A   1      45.290  29.226  26.588  1.00  0.00     0.074 A 
ATOM     54  C   UNL A   1      46.913  27.398  26.200  1.00  0.00     0.049 A 
ATOM     55  N   UNL A   1      46.084  30.265  26.616  1.00  0.00    -0.248 NA
ATOM     56  C   UNL A   1      43.862  29.556  26.730  1.00  0.00     0.031 C 
ATOM     57  C   UNL A   1      47.366  26.027  25.955  1.00  0.00     0.029 A 
ATOM     58  N   UNL A   1      48.066  28.140  26.163  1.00  0.00    -0.354 N 
ATOM     59  C   UNL A   1      45.251  31.367  26.757  1.00  0.00     0.074 A 
ATOM     60  C   UNL A   1      43.890  30.879  26.757  1.00  0.00     0.031 C 
ATOM     61  C   UNL A   1      48.704  26.023  25.822  1.00  0.00     0.029 A 
ATOM     62  C   UNL A   1      49.198  27.391  25.945  1.00  0.00     0.049 A 
ATOM     63  H   UNL A   1      48.083  29.117  26.281  1.00  0.00     0.167 HD
ATOM     64  C   UNL A   1      45.589  32.669  26.898  1.00  0.00     0.031 A 
ATOM     65  C   UNL A   1      50.489  27.768  25.860  1.00  0.00     0.031 A 
ATOM     66  C   UNL A   1      46.942  33.149  26.927  1.00  0.00     0.049 A 
ATOM     67  C   UNL A   1      50.839  29.219  26.046  1.00  0.00     0.074 A 
ATOM     68  C   UNL A   1      47.394  34.437  27.147  1.00  0.00     0.029 A 
ATOM     69  N   UNL A   1      48.061  32.356  26.729  1.00  0.00    -0.354 N 
ATOM     70  N   UNL A   1      50.046  30.237  26.278  1.00  0.00    -0.248 NA
ATOM     71  C   UNL A   1      52.266  29.571  25.974  1.00  0.00     0.031 C 
ATOM     72  C   UNL A   1      48.788  34.433  27.033  1.00  0.00     0.029 A 
ATOM     73  C   UNL A   1      49.204  33.133  26.795  1.00  0.00     0.049 A 
ATOM     74  H   UNL A   1      48.044  31.385  26.565  1.00  0.00     0.167 HD
ATOM     75  C   UNL A   1      50.877  31.343  26.405  1.00  0.00     0.074 A 
ATOM     76  C   UNL A   1      52.236  30.869  26.244  1.00  0.00     0.031 C 
ATOM     77  C   UNL A   1      50.545  32.637  26.634  1.00  0.00     0.031 A 
BRANCH  64  78
ATOM     78  C   UNL A   1      44.472  33.664  27.028  1.00  0.00    -0.014 A 
ATOM     79  C   UNL A   1      43.925  33.989  28.280  1.00  0.00     0.009 A 
ATOM     80  C   UNL A   1      43.979  34.310  25.884  1.00  0.00     0.009 A 
ATOM     81  C   UNL A   1      42.885  34.914  28.380  1.00  0.00     0.001 A 
ATOM     82  C   UNL A   1      42.958  35.256  25.989  1.00  0.00     0.001 A 
ATOM     83  C   UNL A   1      42.406  35.551  27.235  1.00  0.00     0.000 A 
ENDBRANCH  64  78
BRANCH  65  84
ATOM     84  C   UNL A   1      51.551  26.759  25.603  1.00  0.00    -0.014 A 
ATOM     85  C   UNL A   1      52.099  26.011  26.657  1.00  0.00     0.009 A 
ATOM     86  C   UNL A   1      52.039  26.555  24.303  1.00  0.00     0.009 A 
ATOM     87  C   UNL A   1      53.134  25.103  26.419  1.00  0.00     0.001 A 
ATOM     88  C   UNL A   1      53.056  25.626  24.065  1.00  0.00     0.001 A 
ATOM     89  C   UNL A   1      53.610  24.910  25.123  1.00  0.00     0.000 A 
ENDBRANCH  65  84
BRANCH  77  90
ATOM     90  C   UNL A   1      51.671  33.624  26.751  1.00  0.00    -0.014 A 
ATOM     91  C   UNL A   1      52.126  34.344  25.636  1.00  0.00     0.009 A 
ATOM     92  C   UNL A   1      52.248  33.873  28.007  1.00  0.00     0.009 A 
ATOM     93  C   UNL A   1      53.159  35.273  25.771  1.00  0.00     0.001 A 
ATOM     94  C   UNL A   1      53.260  34.822  28.144  1.00  0.00     0.001 A 
ATOM     95  C   UNL A   1      53.720  35.515  27.024  1.00  0.00     0.000 A 
ENDBRANCH  77  90
ENDBRANCH  51  52
ENDBRANCH  43  46
ENDBRANCH  41  42
ENDBRANCH  40  41
ENDBRANCH   1  40
TORSDOF 14
ENDMDL
MODEL 3
REMARK VINA RESULT:      -9.2      3.084     10.926
REMARK SMILES CC1(C)CC[C@@]2(C(=O)NCCCCCCNC(=O)c3ccc(-c4c5nc(c(-c6ccccc6)c6ccc([nH]6)c(-c6ccccc6)c6nc(c(-c7ccccc7)c7ccc4[nH]7)C=C6)C=C5)cc3)CC[C@@]3(C)C(=CC[C@H]4[C@@]5(C)CC[C@H](O)C(C)(C)[C@@H]5CC[C@]43C)[C@@H]2C1
REMARK SMILES IDX 13 1 12 2 11 3 10 4 9 5 7 6 8 7 6 9 1 10 2 11 3 12 4 13
REMARK SMILES IDX 90 14 5 15 89 16 71 17 67 18 69 19 72 20 68 21 70 22 87 23
REMARK SMILES IDX 73 24 74 25 86 26 88 27 75 28 85 29 76 30 77 31 84 32 78 33
REMARK SMILES IDX 81 34 79 35 82 36 83 37 80 38 14 40 15 41 16 42 17 43 18 45
REMARK SMILES IDX 19 46 20 47 66 48 21 49 65 50 22 51 23 52 24 53 59 54 25 55
REMARK SMILES IDX 64 56 58 57 60 58 26 59 63 60 57 61 56 62 27 64 49 65 34 66
REMARK SMILES IDX 48 67 35 68 38 69 47 70 61 71 36 72 37 73 46 75 62 76 39 77
REMARK SMILES IDX 28 78 29 79 33 80 30 81 32 82 31 83 50 84 51 85 55 86 52 87
REMARK SMILES IDX 54 88 53 89 40 90 41 91 45 92 42 93 44 94 43 95
REMARK H PARENT 9 8 80 39 16 44 60 63 38 74
REMARK Flexibility Score: inf
ROOT
ATOM      1  C   UNL A   1      48.604  27.127  32.279  1.00  0.00     0.002 C 
ENDROOT
BRANCH   1   2
ATOM      2  C   UNL A   1      49.233  27.399  30.919  1.00  0.00     0.002 C 
BRANCH   2   3
ATOM      3  C   UNL A   1      49.801  28.795  30.600  1.00  0.00     0.021 C 
BRANCH   3   4
ATOM      4  C   UNL A   1      49.120  29.702  29.574  1.00  0.00     0.116 C 
BRANCH   4   5
ATOM      5  N   UNL A   1      47.745  30.096  29.766  1.00  0.00    -0.356 N 
ATOM      6  C   UNL A   1      46.676  29.849  28.918  1.00  0.00     0.226 C 
ATOM      7  O   UNL A   1      46.787  29.941  27.697  1.00  0.00    -0.274 OA
ATOM      8  H   UNL A   1      47.544  30.596  30.590  1.00  0.00     0.163 HD
BRANCH   6   9
ATOM      9  C   UNL A   1      45.370  29.265  29.590  1.00  0.00     0.056 C 
ATOM     10  C   UNL A   1      42.504  32.112  29.866  1.00  0.00     0.011 C 
ATOM     11  C   UNL A   1      43.837  31.826  29.148  1.00  0.00    -0.035 C 
ATOM     12  C   UNL A   1      44.169  33.125  28.355  1.00  0.00     0.011 C 
ATOM     13  C   UNL A   1      44.922  31.669  30.231  1.00  0.00     0.007 C 
ATOM     14  C   UNL A   1      43.668  30.575  28.170  1.00  0.00     0.015 C 
ATOM     15  C   UNL A   1      45.028  30.246  30.738  1.00  0.00     0.018 C 
ATOM     16  C   UNL A   1      44.162  29.131  28.631  1.00  0.00     0.031 C 
ATOM     17  C   UNL A   1      44.550  28.015  27.561  1.00  0.00    -0.064 C 
ATOM     18  C   UNL A   1      45.576  27.901  30.278  1.00  0.00     0.018 C 
ATOM     19  C   UNL A   1      45.027  26.605  28.076  1.00  0.00    -0.006 C 
ATOM     20  C   UNL A   1      44.590  28.286  26.244  1.00  0.00    -0.027 C 
ATOM     21  C   UNL A   1      45.934  26.781  29.318  1.00  0.00     0.013 C 
ATOM     22  C   UNL A   1      43.720  25.894  28.556  1.00  0.00     0.017 C 
ATOM     23  C   UNL A   1      45.797  25.647  26.940  1.00  0.00    -0.020 C 
ATOM     24  C   UNL A   1      45.381  27.512  25.237  1.00  0.00     0.032 C 
ATOM     25  C   UNL A   1      46.426  26.503  25.794  1.00  0.00     0.006 C 
ATOM     26  C   UNL A   1      46.866  24.613  27.490  1.00  0.00     0.008 C 
ATOM     27  C   UNL A   1      44.741  24.726  26.214  1.00  0.00     0.012 C 
ATOM     28  C   UNL A   1      47.979  26.945  25.867  1.00  0.00    -0.025 C 
ATOM     29  C   UNL A   1      48.266  24.629  26.812  1.00  0.00     0.005 C 
ATOM     30  C   UNL A   1      48.442  26.892  24.380  1.00  0.00     0.012 C 
ATOM     31  C   UNL A   1      48.269  28.336  26.411  1.00  0.00     0.010 C 
ATOM     32  C   UNL A   1      48.809  26.051  26.846  1.00  0.00     0.003 C 
ATOM     33  C   UNL A   1      49.736  28.772  26.421  1.00  0.00     0.033 C 
ATOM     34  C   UNL A   1      50.374  26.317  26.878  1.00  0.00    -0.006 C 
ATOM     35  C   UNL A   1      50.604  27.824  27.231  1.00  0.00     0.120 C 
ATOM     36  C   UNL A   1      51.126  25.940  25.590  1.00  0.00     0.014 C 
ATOM     37  C   UNL A   1      51.035  25.506  28.020  1.00  0.00     0.014 C 
BRANCH  35  38
ATOM     38  O   UNL A   1      51.973  28.200  27.062  1.00  0.00    -0.393 OA
ATOM     39  H   UNL A   1      52.038  28.880  26.372  1.00  0.00     0.210 HD
ENDBRANCH  35  38
ENDBRANCH   6   9
ENDBRANCH   4   5
ENDBRANCH   3   4
ENDBRANCH   2   3
ENDBRANCH   1   2
BRANCH   1  40
ATOM     40  C   UNL A   1      47.962  25.762  32.458  1.00  0.00     0.021 C 
BRANCH  40  41
ATOM     41  C   UNL A   1      46.819  25.705  33.456  1.00  0.00     0.116 C 
BRANCH  41  42
ATOM     42  N   UNL A   1      47.209  25.560  34.848  1.00  0.00    -0.352 N 
ATOM     43  C   UNL A   1      46.606  26.195  35.916  1.00  0.00     0.251 C 
ATOM     44  H   UNL A   1      47.965  24.959  35.046  1.00  0.00     0.163 HD
ATOM     45  O   UNL A   1      46.958  26.028  37.067  1.00  0.00    -0.269 OA
BRANCH  43  46
ATOM     46  C   UNL A   1      45.526  27.144  35.577  1.00  0.00     0.039 A 
ATOM     47  C   UNL A   1      45.861  28.304  34.880  1.00  0.00     0.014 A 
ATOM     48  C   UNL A   1      44.194  26.759  35.753  1.00  0.00     0.014 A 
ATOM     49  C   UNL A   1      44.845  29.065  34.305  1.00  0.00     0.010 A 
ATOM     50  C   UNL A   1      43.191  27.479  35.115  1.00  0.00     0.010 A 
ATOM     51  C   UNL A   1      43.509  28.641  34.392  1.00  0.00    -0.014 A 
BRANCH  51  52
ATOM     52  C   UNL A   1      42.427  29.429  33.754  1.00  0.00     0.031 A 
ATOM     53  C   UNL A   1      41.897  29.001  32.415  1.00  0.00     0.074 A 
ATOM     54  C   UNL A   1      41.951  30.535  34.357  1.00  0.00     0.049 A 
ATOM     55  N   UNL A   1      40.951  29.544  31.693  1.00  0.00    -0.248 NA
ATOM     56  C   UNL A   1      42.528  27.825  31.795  1.00  0.00     0.031 C 
ATOM     57  C   UNL A   1      42.425  31.083  35.631  1.00  0.00     0.029 A 
ATOM     58  N   UNL A   1      40.957  31.401  33.974  1.00  0.00    -0.354 N 
ATOM     59  C   UNL A   1      40.892  28.789  30.529  1.00  0.00     0.074 A 
ATOM     60  C   UNL A   1      41.928  27.785  30.616  1.00  0.00     0.031 C 
ATOM     61  C   UNL A   1      41.702  32.175  35.936  1.00  0.00     0.029 A 
ATOM     62  C   UNL A   1      40.734  32.419  34.871  1.00  0.00     0.049 A 
ATOM     63  H   UNL A   1      40.450  31.303  33.136  1.00  0.00     0.167 HD
ATOM     64  C   UNL A   1      40.036  28.906  29.488  1.00  0.00     0.031 A 
ATOM     65  C   UNL A   1      39.845  33.430  34.838  1.00  0.00     0.031 A 
ATOM     66  C   UNL A   1      38.988  29.886  29.417  1.00  0.00     0.049 A 
ATOM     67  C   UNL A   1      38.887  33.522  33.680  1.00  0.00     0.074 A 
ATOM     68  C   UNL A   1      38.015  30.037  28.445  1.00  0.00     0.029 A 
ATOM     69  N   UNL A   1      38.779  30.882  30.357  1.00  0.00    -0.354 N 
ATOM     70  N   UNL A   1      38.779  32.740  32.634  1.00  0.00    -0.248 NA
ATOM     71  C   UNL A   1      37.917  34.627  33.709  1.00  0.00     0.031 C 
ATOM     72  C   UNL A   1      37.245  31.158  28.774  1.00  0.00     0.029 A 
ATOM     73  C   UNL A   1      37.708  31.670  29.975  1.00  0.00     0.049 A 
ATOM     74  H   UNL A   1      39.313  31.010  31.174  1.00  0.00     0.167 HD
ATOM     75  C   UNL A   1      37.716  33.241  31.894  1.00  0.00     0.074 A 
ATOM     76  C   UNL A   1      37.200  34.383  32.621  1.00  0.00     0.031 C 
ATOM     77  C   UNL A   1      37.211  32.798  30.717  1.00  0.00     0.031 A 
BRANCH  64  78
ATOM     78  C   UNL A   1      40.203  27.949  28.343  1.00  0.00    -0.014 A 
ATOM     79  C   UNL A   1      40.946  28.298  27.203  1.00  0.00     0.009 A 
ATOM     80  C   UNL A   1      39.635  26.669  28.418  1.00  0.00     0.009 A 
ATOM     81  C   UNL A   1      41.087  27.395  26.148  1.00  0.00     0.001 A 
ATOM     82  C   UNL A   1      39.801  25.757  27.375  1.00  0.00     0.001 A 
ATOM     83  C   UNL A   1      40.519  26.124  26.237  1.00  0.00     0.000 A 
ENDBRANCH  64  78
BRANCH  65  84
ATOM     84  C   UNL A   1      39.802  34.430  35.938  1.00  0.00    -0.014 A 
ATOM     85  C   UNL A   1      40.526  35.629  35.845  1.00  0.00     0.009 A 
ATOM     86  C   UNL A   1      39.055  34.179  37.098  1.00  0.00     0.009 A 
ATOM     87  C   UNL A   1      40.527  36.540  36.904  1.00  0.00     0.001 A 
ATOM     88  C   UNL A   1      39.035  35.105  38.144  1.00  0.00     0.001 A 
ATOM     89  C   UNL A   1      39.780  36.279  38.051  1.00  0.00     0.000 A 
ENDBRANCH  65  84
BRANCH  77  90
ATOM     90  C   UNL A   1      36.027  33.533  30.158  1.00  0.00    -0.014 A 
ATOM     91  C   UNL A   1      36.049  34.070  28.862  1.00  0.00     0.009 A 
ATOM     92  C   UNL A   1      34.854  33.642  30.923  1.00  0.00     0.009 A 
ATOM     93  C   UNL A   1      34.929  34.729  28.354  1.00  0.00     0.001 A 
ATOM     94  C   UNL A   1      33.727  34.276  30.402  1.00  0.00     0.001 A 
ATOM     95  C   UNL A   1      33.768  34.826  29.121  1.00  0.00     0.000 A 
ENDBRANCH  77  90
ENDBRANCH  51  52
ENDBRANCH  43  46
ENDBRANCH  41  42
ENDBRANCH  40  41
ENDBRANCH   1  40
TORSDOF 14
ENDMDL
