MODEL 1
REMARK VINA RESULT:     -12.5      0.000      0.000
REMARK SMILES Cc1ccc(N2C(=O)C[C@H](Sc3ccccc3C(=O)NCCCCCCNC(=O)c3ccc(-c4c5nc(c(-c6ccccc6)c6ccc([nH]6)c(-c6ccccc6)c6nc(c(-c7ccccc7)c7ccc4[nH]7)C=C6)C=C5)cc3)C2=O)cc1
REMARK SMILES IDX 23 1 22 2 21 3 20 4 18 5 19 6 17 8 12 9 13 10 14 11 16 12
REMARK SMILES IDX 15 13 11 14 10 15 6 16 7 17 78 18 8 19 9 20 79 21 5 22 1 23
REMARK SMILES IDX 2 24 3 25 81 26 4 27 80 28 24 29 25 30 26 31 27 32 28 33
REMARK SMILES IDX 29 35 30 36 31 37 77 38 32 39 76 40 33 41 34 42 35 43 70 44
REMARK SMILES IDX 36 45 75 46 69 47 71 48 37 49 74 50 68 51 67 52 38 54 60 55
REMARK SMILES IDX 45 56 59 57 46 58 49 59 58 60 72 61 47 62 48 63 57 65 73 66
REMARK SMILES IDX 50 67 39 68 40 69 44 70 41 71 43 72 42 73 61 74 62 75 66 76
REMARK SMILES IDX 63 77 65 78 64 79 51 80 52 81 56 82 53 83 55 84 54 85
REMARK H PARENT 20 7 27 34 71 53 49 64
REMARK Flexibility Score: inf
ROOT
ATOM      1  C   UNL A   1      33.287  28.445  27.147  1.00  0.00     0.002 C 
ENDROOT
BRANCH   1   2
ATOM      2  C   UNL A   1      32.032  29.311  27.010  1.00  0.00     0.021 C 
BRANCH   2   3
ATOM      3  C   UNL A   1      31.802  30.064  25.701  1.00  0.00     0.116 C 
BRANCH   3   4
ATOM      4  N   UNL A   1      32.267  29.394  24.503  1.00  0.00    -0.352 N 
ATOM      5  C   UNL A   1      31.597  29.031  23.353  1.00  0.00     0.252 C 
ATOM      6  O   UNL A   1      32.267  28.691  22.382  1.00  0.00    -0.269 OA
ATOM      7  H   UNL A   1      33.224  29.159  24.510  1.00  0.00     0.163 HD
BRANCH   5   8
ATOM      8  C   UNL A   1      30.108  28.989  23.298  1.00  0.00     0.053 A 
ATOM      9  C   UNL A   1      29.379  27.791  23.485  1.00  0.00     0.021 A 
ATOM     10  C   UNL A   1      27.973  27.842  23.414  1.00  0.00     0.016 A 
ATOM     11  C   UNL A   1      27.301  29.040  23.158  1.00  0.00     0.001 A 
ATOM     12  C   UNL A   1      29.416  30.170  22.969  1.00  0.00     0.015 A 
ATOM     13  C   UNL A   1      28.022  30.202  22.923  1.00  0.00     0.001 A 
BRANCH   9  14
ATOM     14  S   UNL A   1      30.067  26.129  23.515  1.00  0.00    -0.111 SA
BRANCH  14  15
ATOM     15  C   UNL A   1      31.407  26.154  24.749  1.00  0.00     0.151 C 
ATOM     16  N   UNL A   1      32.880  24.423  25.277  1.00  0.00    -0.250 N 
ATOM     17  C   UNL A   1      31.912  24.392  26.252  1.00  0.00     0.235 C 
ATOM     18  C   UNL A   1      32.650  25.407  24.336  1.00  0.00     0.247 C 
ATOM     19  O   UNL A   1      31.785  23.596  27.178  1.00  0.00    -0.274 OA
ATOM     20  C   UNL A   1      31.059  25.613  26.116  1.00  0.00     0.126 C 
ATOM     21  O   UNL A   1      33.296  25.646  23.333  1.00  0.00    -0.273 OA
BRANCH  16  22
ATOM     22  C   UNL A   1      34.022  23.590  25.283  1.00  0.00     0.052 A 
ATOM     23  C   UNL A   1      37.548  21.105  25.049  1.00  0.00     0.044 C 
ATOM     24  C   UNL A   1      36.323  21.962  25.154  1.00  0.00    -0.051 A 
ATOM     25  C   UNL A   1      35.101  21.505  24.651  1.00  0.00     0.005 A 
ATOM     26  C   UNL A   1      36.386  23.241  25.717  1.00  0.00     0.005 A 
ATOM     27  C   UNL A   1      33.955  22.300  24.740  1.00  0.00     0.027 A 
ATOM     28  C   UNL A   1      35.250  24.057  25.760  1.00  0.00     0.027 A 
ENDBRANCH  16  22
ENDBRANCH  14  15
ENDBRANCH   9  14
ENDBRANCH   5   8
ENDBRANCH   3   4
ENDBRANCH   2   3
ENDBRANCH   1   2
BRANCH   1  29
ATOM     29  C   UNL A   1      34.653  29.141  27.114  1.00  0.00     0.002 C 
BRANCH  29  30
ATOM     30  C   UNL A   1      34.945  30.143  28.222  1.00  0.00     0.021 C 
BRANCH  30  31
ATOM     31  C   UNL A   1      35.252  31.557  27.761  1.00  0.00     0.116 C 
BRANCH  31  32
ATOM     32  N   UNL A   1      34.265  32.546  28.176  1.00  0.00    -0.352 N 
ATOM     33  C   UNL A   1      34.258  33.419  29.252  1.00  0.00     0.251 C 
ATOM     34  H   UNL A   1      33.472  32.605  27.595  1.00  0.00     0.163 HD
ATOM     35  O   UNL A   1      33.279  34.136  29.443  1.00  0.00    -0.269 OA
BRANCH  33  36
ATOM     36  C   UNL A   1      35.494  33.642  30.047  1.00  0.00     0.039 A 
ATOM     37  C   UNL A   1      36.578  34.191  29.347  1.00  0.00     0.014 A 
ATOM     38  C   UNL A   1      35.709  32.939  31.221  1.00  0.00     0.014 A 
ATOM     39  C   UNL A   1      37.850  33.705  29.600  1.00  0.00     0.010 A 
ATOM     40  C   UNL A   1      36.920  32.318  31.362  1.00  0.00     0.010 A 
ATOM     41  C   UNL A   1      37.962  32.653  30.497  1.00  0.00    -0.014 A 
BRANCH  41  42
ATOM     42  C   UNL A   1      39.150  31.853  30.669  1.00  0.00     0.031 A 
ATOM     43  C   UNL A   1      39.178  30.557  29.988  1.00  0.00     0.074 A 
ATOM     44  C   UNL A   1      40.223  32.393  31.283  1.00  0.00     0.049 A 
ATOM     45  N   UNL A   1      39.978  29.604  30.295  1.00  0.00    -0.248 NA
ATOM     46  C   UNL A   1      38.234  30.201  28.927  1.00  0.00     0.031 C 
ATOM     47  C   UNL A   1      41.608  31.938  31.258  1.00  0.00     0.029 A 
ATOM     48  N   UNL A   1      40.211  33.394  32.251  1.00  0.00    -0.354 N 
ATOM     49  C   UNL A   1      39.909  28.688  29.275  1.00  0.00     0.074 A 
ATOM     50  C   UNL A   1      38.717  29.019  28.537  1.00  0.00     0.031 C 
ATOM     51  C   UNL A   1      42.254  32.456  32.319  1.00  0.00     0.029 A 
ATOM     52  C   UNL A   1      41.256  33.107  33.153  1.00  0.00     0.049 A 
ATOM     53  H   UNL A   1      39.590  34.157  32.298  1.00  0.00     0.167 HD
ATOM     54  C   UNL A   1      40.977  27.870  29.080  1.00  0.00     0.031 A 
ATOM     55  C   UNL A   1      40.960  32.746  34.439  1.00  0.00     0.031 A 
ATOM     56  C   UNL A   1      41.972  28.061  30.138  1.00  0.00     0.049 A 
ATOM     57  C   UNL A   1      41.347  31.314  34.771  1.00  0.00     0.074 A 
ATOM     58  C   UNL A   1      43.181  28.733  30.207  1.00  0.00     0.029 A 
ATOM     59  N   UNL A   1      41.586  27.831  31.448  1.00  0.00    -0.354 N 
ATOM     60  N   UNL A   1      41.696  30.423  33.882  1.00  0.00    -0.248 NA
ATOM     61  C   UNL A   1      41.315  30.752  36.119  1.00  0.00     0.031 C 
ATOM     62  C   UNL A   1      43.511  28.903  31.585  1.00  0.00     0.029 A 
ATOM     63  C   UNL A   1      42.522  28.304  32.343  1.00  0.00     0.049 A 
ATOM     64  H   UNL A   1      40.748  27.385  31.708  1.00  0.00     0.167 HD
ATOM     65  C   UNL A   1      41.919  29.213  34.484  1.00  0.00     0.074 A 
ATOM     66  C   UNL A   1      41.640  29.466  35.888  1.00  0.00     0.031 C 
ATOM     67  C   UNL A   1      42.288  28.106  33.768  1.00  0.00     0.031 A 
BRANCH  54  68
ATOM     68  C   UNL A   1      41.247  27.094  27.819  1.00  0.00    -0.014 A 
ATOM     69  C   UNL A   1      42.062  27.674  26.830  1.00  0.00     0.009 A 
ATOM     70  C   UNL A   1      40.705  25.836  27.504  1.00  0.00     0.009 A 
ATOM     71  C   UNL A   1      42.270  27.069  25.585  1.00  0.00     0.001 A 
ATOM     72  C   UNL A   1      40.897  25.228  26.256  1.00  0.00     0.001 A 
ATOM     73  C   UNL A   1      41.676  25.850  25.292  1.00  0.00     0.000 A 
ENDBRANCH  54  68
BRANCH  55  74
ATOM     74  C   UNL A   1      39.742  33.458  34.947  1.00  0.00    -0.014 A 
ATOM     75  C   UNL A   1      38.488  32.850  34.713  1.00  0.00     0.009 A 
ATOM     76  C   UNL A   1      39.850  34.375  36.004  1.00  0.00     0.009 A 
ATOM     77  C   UNL A   1      37.438  33.000  35.626  1.00  0.00     0.001 A 
ATOM     78  C   UNL A   1      38.780  34.547  36.894  1.00  0.00     0.001 A 
ATOM     79  C   UNL A   1      37.602  33.816  36.740  1.00  0.00     0.000 A 
ENDBRANCH  55  74
BRANCH  67  80
ATOM     80  C   UNL A   1      42.437  26.701  34.311  1.00  0.00    -0.014 A 
ATOM     81  C   UNL A   1      41.525  26.089  35.174  1.00  0.00     0.009 A 
ATOM     82  C   UNL A   1      43.603  25.955  34.008  1.00  0.00     0.009 A 
ATOM     83  C   UNL A   1      41.724  24.775  35.630  1.00  0.00     0.001 A 
ATOM     84  C   UNL A   1      43.817  24.658  34.472  1.00  0.00     0.001 A 
ATOM     85  C   UNL A   1      42.861  24.058  35.271  1.00  0.00     0.000 A 
ENDBRANCH  67  80
ENDBRANCH  41  42
ENDBRANCH  33  36
ENDBRANCH  31  32
ENDBRANCH  30  31
ENDBRANCH  29  30
ENDBRANCH   1  29
TORSDOF 16
ENDMDL
MODEL 2
REMARK VINA RESULT:     -12.4      3.907      9.357
REMARK SMILES Cc1ccc(N2C(=O)C[C@H](Sc3ccccc3C(=O)NCCCCCCNC(=O)c3ccc(-c4c5nc(c(-c6ccccc6)c6ccc([nH]6)c(-c6ccccc6)c6nc(c(-c7ccccc7)c7ccc4[nH]7)C=C6)C=C5)cc3)C2=O)cc1
REMARK SMILES IDX 23 1 22 2 21 3 20 4 18 5 19 6 17 8 12 9 13 10 14 11 16 12
REMARK SMILES IDX 15 13 11 14 10 15 6 16 7 17 78 18 8 19 9 20 79 21 5 22 1 23
REMARK SMILES IDX 2 24 3 25 81 26 4 27 80 28 24 29 25 30 26 31 27 32 28 33
REMARK SMILES IDX 29 35 30 36 31 37 77 38 32 39 76 40 33 41 34 42 35 43 70 44
REMARK SMILES IDX 36 45 75 46 69 47 71 48 37 49 74 50 68 51 67 52 38 54 60 55
REMARK SMILES IDX 45 56 59 57 46 58 49 59 58 60 72 61 47 62 48 63 57 65 73 66
REMARK SMILES IDX 50 67 39 68 40 69 44 70 41 71 43 72 42 73 61 74 62 75 66 76
REMARK SMILES IDX 63 77 65 78 64 79 51 80 52 81 56 82 53 83 55 84 54 85
REMARK H PARENT 20 7 27 34 71 53 49 64
REMARK Flexibility Score: inf
ROOT
ATOM      1  C   UNL A   1      36.800  23.729  25.261  1.00  0.00     0.002 C 
ENDROOT
BRANCH   1   2
ATOM      2  C   UNL A   1      36.510  22.668  24.197  1.00  0.00     0.021 C 
BRANCH   2   3
ATOM      3  C   UNL A   1      36.084  21.274  24.652  1.00  0.00     0.116 C 
BRANCH   3   4
ATOM      4  N   UNL A   1      35.016  21.233  25.632  1.00  0.00    -0.352 N 
ATOM      5  C   UNL A   1      33.890  20.441  25.709  1.00  0.00     0.252 C 
ATOM      6  O   UNL A   1      33.265  20.433  26.766  1.00  0.00    -0.269 OA
ATOM      7  H   UNL A   1      35.112  21.880  26.369  1.00  0.00     0.163 HD
BRANCH   5   8
ATOM      8  C   UNL A   1      33.403  19.661  24.536  1.00  0.00     0.053 A 
ATOM      9  C   UNL A   1      32.568  20.230  23.546  1.00  0.00     0.021 A 
ATOM     10  C   UNL A   1      32.152  19.420  22.471  1.00  0.00     0.016 A 
ATOM     11  C   UNL A   1      32.541  18.081  22.376  1.00  0.00     0.001 A 
ATOM     12  C   UNL A   1      33.723  18.292  24.460  1.00  0.00     0.015 A 
ATOM     13  C   UNL A   1      33.317  17.513  23.377  1.00  0.00     0.001 A 
BRANCH   9  14
ATOM     14  S   UNL A   1      31.725  21.815  23.658  1.00  0.00    -0.111 SA
BRANCH  14  15
ATOM     15  C   UNL A   1      33.030  23.086  23.686  1.00  0.00     0.151 C 
ATOM     16  N   UNL A   1      32.815  25.326  24.300  1.00  0.00    -0.250 N 
ATOM     17  C   UNL A   1      32.780  25.318  22.927  1.00  0.00     0.235 C 
ATOM     18  C   UNL A   1      32.931  24.058  24.833  1.00  0.00     0.247 C 
ATOM     19  O   UNL A   1      32.608  26.261  22.160  1.00  0.00    -0.274 OA
ATOM     20  C   UNL A   1      33.143  23.947  22.449  1.00  0.00     0.126 C 
ATOM     21  O   UNL A   1      32.935  23.740  26.008  1.00  0.00    -0.273 OA
BRANCH  16  22
ATOM     22  C   UNL A   1      32.809  26.509  25.074  1.00  0.00     0.052 A 
ATOM     23  C   UNL A   1      32.861  30.257  27.224  1.00  0.00     0.044 C 
ATOM     24  C   UNL A   1      32.835  28.945  26.498  1.00  0.00    -0.051 A 
ATOM     25  C   UNL A   1      34.029  28.273  26.219  1.00  0.00     0.005 A 
ATOM     26  C   UNL A   1      31.629  28.393  26.054  1.00  0.00     0.005 A 
ATOM     27  C   UNL A   1      34.015  27.052  25.539  1.00  0.00     0.027 A 
ATOM     28  C   UNL A   1      31.619  27.197  25.328  1.00  0.00     0.027 A 
ENDBRANCH  16  22
ENDBRANCH  14  15
ENDBRANCH   9  14
ENDBRANCH   5   8
ENDBRANCH   3   4
ENDBRANCH   2   3
ENDBRANCH   1   2
BRANCH   1  29
ATOM     29  C   UNL A   1      38.062  23.570  26.117  1.00  0.00     0.002 C 
BRANCH  29  30
ATOM     30  C   UNL A   1      38.724  22.198  26.125  1.00  0.00     0.021 C 
BRANCH  30  31
ATOM     31  C   UNL A   1      40.161  22.168  26.614  1.00  0.00     0.116 C 
BRANCH  31  32
ATOM     32  N   UNL A   1      40.966  21.102  26.029  1.00  0.00    -0.352 N 
ATOM     33  C   UNL A   1      42.340  20.931  25.982  1.00  0.00     0.251 C 
ATOM     34  H   UNL A   1      40.448  20.386  25.596  1.00  0.00     0.163 HD
ATOM     35  O   UNL A   1      42.810  19.971  25.377  1.00  0.00    -0.269 OA
BRANCH  33  36
ATOM     36  C   UNL A   1      43.232  21.771  26.823  1.00  0.00     0.039 A 
ATOM     37  C   UNL A   1      42.950  21.774  28.197  1.00  0.00     0.014 A 
ATOM     38  C   UNL A   1      43.951  22.812  26.259  1.00  0.00     0.014 A 
ATOM     39  C   UNL A   1      43.035  22.968  28.893  1.00  0.00     0.010 A 
ATOM     40  C   UNL A   1      43.869  24.031  26.876  1.00  0.00     0.010 A 
ATOM     41  C   UNL A   1      43.338  24.109  28.164  1.00  0.00    -0.014 A 
BRANCH  41  42
ATOM     42  C   UNL A   1      43.199  25.455  28.662  1.00  0.00     0.031 A 
ATOM     43  C   UNL A   1      41.990  26.183  28.269  1.00  0.00     0.074 A 
ATOM     44  C   UNL A   1      44.071  25.908  29.586  1.00  0.00     0.049 A 
ATOM     45  N   UNL A   1      41.869  27.456  28.337  1.00  0.00    -0.248 NA
ATOM     46  C   UNL A   1      40.822  25.519  27.690  1.00  0.00     0.031 C 
ATOM     47  C   UNL A   1      43.936  27.052  30.480  1.00  0.00     0.029 A 
ATOM     48  N   UNL A   1      45.394  25.503  29.750  1.00  0.00    -0.354 N 
ATOM     49  C   UNL A   1      40.535  27.734  28.167  1.00  0.00     0.074 A 
ATOM     50  C   UNL A   1      39.956  26.533  27.621  1.00  0.00     0.031 C 
ATOM     51  C   UNL A   1      45.160  27.421  30.902  1.00  0.00     0.029 A 
ATOM     52  C   UNL A   1      46.127  26.640  30.146  1.00  0.00     0.049 A 
ATOM     53  H   UNL A   1      45.750  24.595  29.615  1.00  0.00     0.167 HD
ATOM     54  C   UNL A   1      40.056  28.897  28.683  1.00  0.00     0.031 A 
ATOM     55  C   UNL A   1      47.065  27.169  29.300  1.00  0.00     0.031 A 
ATOM     56  C   UNL A   1      41.147  29.710  29.223  1.00  0.00     0.049 A 
ATOM     57  C   UNL A   1      46.707  28.555  28.790  1.00  0.00     0.074 A 
ATOM     58  C   UNL A   1      41.614  29.961  30.503  1.00  0.00     0.029 A 
ATOM     59  N   UNL A   1      42.162  30.098  28.363  1.00  0.00    -0.354 N 
ATOM     60  N   UNL A   1      45.531  29.107  28.925  1.00  0.00    -0.248 NA
ATOM     61  C   UNL A   1      47.625  29.408  28.037  1.00  0.00     0.031 C 
ATOM     62  C   UNL A   1      42.929  30.504  30.393  1.00  0.00     0.029 A 
ATOM     63  C   UNL A   1      43.240  30.614  29.050  1.00  0.00     0.049 A 
ATOM     64  H   UNL A   1      42.118  30.015  27.383  1.00  0.00     0.167 HD
ATOM     65  C   UNL A   1      45.505  30.328  28.303  1.00  0.00     0.074 A 
ATOM     66  C   UNL A   1      46.838  30.459  27.737  1.00  0.00     0.031 C 
ATOM     67  C   UNL A   1      44.381  31.108  28.289  1.00  0.00     0.031 A 
BRANCH  54  68
ATOM     68  C   UNL A   1      38.601  29.190  28.935  1.00  0.00    -0.014 A 
ATOM     69  C   UNL A   1      37.848  29.797  27.913  1.00  0.00     0.009 A 
ATOM     70  C   UNL A   1      37.920  28.959  30.142  1.00  0.00     0.009 A 
ATOM     71  C   UNL A   1      36.522  30.204  28.105  1.00  0.00     0.001 A 
ATOM     72  C   UNL A   1      36.596  29.373  30.348  1.00  0.00     0.001 A 
ATOM     73  C   UNL A   1      35.899  30.004  29.329  1.00  0.00     0.000 A 
ENDBRANCH  54  68
BRANCH  55  74
ATOM     74  C   UNL A   1      47.758  26.102  28.508  1.00  0.00    -0.014 A 
ATOM     75  C   UNL A   1      47.429  25.992  27.138  1.00  0.00     0.009 A 
ATOM     76  C   UNL A   1      48.993  25.592  28.938  1.00  0.00     0.009 A 
ATOM     77  C   UNL A   1      48.384  25.573  26.204  1.00  0.00     0.001 A 
ATOM     78  C   UNL A   1      49.931  25.141  27.999  1.00  0.00     0.001 A 
ATOM     79  C   UNL A   1      49.649  25.189  26.633  1.00  0.00     0.000 A 
ENDBRANCH  55  74
BRANCH  67  80
ATOM     80  C   UNL A   1      44.205  32.406  27.531  1.00  0.00    -0.014 A 
ATOM     81  C   UNL A   1      43.980  33.646  28.134  1.00  0.00     0.009 A 
ATOM     82  C   UNL A   1      44.183  32.390  26.115  1.00  0.00     0.009 A 
ATOM     83  C   UNL A   1      43.838  34.813  27.365  1.00  0.00     0.001 A 
ATOM     84  C   UNL A   1      44.023  33.541  25.344  1.00  0.00     0.001 A 
ATOM     85  C   UNL A   1      43.869  34.762  25.974  1.00  0.00     0.000 A 
ENDBRANCH  67  80
ENDBRANCH  41  42
ENDBRANCH  33  36
ENDBRANCH  31  32
ENDBRANCH  30  31
ENDBRANCH  29  30
ENDBRANCH   1  29
TORSDOF 16
ENDMDL
MODEL 3
REMARK VINA RESULT:     -12.2      1.734      2.605
REMARK SMILES Cc1ccc(N2C(=O)C[C@H](Sc3ccccc3C(=O)NCCCCCCNC(=O)c3ccc(-c4c5nc(c(-c6ccccc6)c6ccc([nH]6)c(-c6ccccc6)c6nc(c(-c7ccccc7)c7ccc4[nH]7)C=C6)C=C5)cc3)C2=O)cc1
REMARK SMILES IDX 23 1 22 2 21 3 20 4 18 5 19 6 17 8 12 9 13 10 14 11 16 12
REMARK SMILES IDX 15 13 11 14 10 15 6 16 7 17 78 18 8 19 9 20 79 21 5 22 1 23
REMARK SMILES IDX 2 24 3 25 81 26 4 27 80 28 24 29 25 30 26 31 27 32 28 33
REMARK SMILES IDX 29 35 30 36 31 37 77 38 32 39 76 40 33 41 34 42 35 43 70 44
REMARK SMILES IDX 36 45 75 46 69 47 71 48 37 49 74 50 68 51 67 52 38 54 60 55
REMARK SMILES IDX 45 56 59 57 46 58 49 59 58 60 72 61 47 62 48 63 57 65 73 66
REMARK SMILES IDX 50 67 39 68 40 69 44 70 41 71 43 72 42 73 61 74 62 75 66 76
REMARK SMILES IDX 63 77 65 78 64 79 51 80 52 81 56 82 53 83 55 84 54 85
REMARK H PARENT 20 7 27 34 71 53 49 64
REMARK Flexibility Score: inf
ROOT
ATOM      1  C   UNL A   1      32.906  30.018  26.438  1.00  0.00     0.002 C 
ENDROOT
BRANCH   1   2
ATOM      2  C   UNL A   1      31.797  29.366  27.267  1.00  0.00     0.021 C 
BRANCH   2   3
ATOM      3  C   UNL A   1      31.907  27.878  27.593  1.00  0.00     0.116 C 
BRANCH   3   4
ATOM      4  N   UNL A   1      30.827  27.046  27.100  1.00  0.00    -0.352 N 
ATOM      5  C   UNL A   1      30.710  26.313  25.938  1.00  0.00     0.252 C 
ATOM      6  O   UNL A   1      29.794  25.499  25.863  1.00  0.00    -0.269 OA
ATOM      7  H   UNL A   1      30.044  26.995  27.696  1.00  0.00     0.163 HD
BRANCH   5   8
ATOM      8  C   UNL A   1      31.621  26.536  24.779  1.00  0.00     0.053 A 
ATOM      9  C   UNL A   1      32.776  25.749  24.565  1.00  0.00     0.021 A 
ATOM     10  C   UNL A   1      33.582  26.029  23.444  1.00  0.00     0.016 A 
ATOM     11  C   UNL A   1      33.265  27.064  22.561  1.00  0.00     0.001 A 
ATOM     12  C   UNL A   1      31.359  27.619  23.918  1.00  0.00     0.015 A 
ATOM     13  C   UNL A   1      32.159  27.867  22.803  1.00  0.00     0.001 A 
BRANCH   9  14
ATOM     14  S   UNL A   1      33.504  24.598  25.741  1.00  0.00    -0.111 SA
BRANCH  14  15
ATOM     15  C   UNL A   1      32.439  23.120  25.735  1.00  0.00     0.151 C 
ATOM     16  N   UNL A   1      33.009  20.965  25.048  1.00  0.00    -0.250 N 
ATOM     17  C   UNL A   1      32.333  21.521  23.989  1.00  0.00     0.235 C 
ATOM     18  C   UNL A   1      33.144  21.841  26.107  1.00  0.00     0.247 C 
ATOM     19  O   UNL A   1      32.116  21.037  22.882  1.00  0.00    -0.274 OA
ATOM     20  C   UNL A   1      31.734  22.817  24.434  1.00  0.00     0.126 C 
ATOM     21  O   UNL A   1      33.735  21.659  27.155  1.00  0.00    -0.273 OA
BRANCH  16  22
ATOM     22  C   UNL A   1      33.449  19.622  25.075  1.00  0.00     0.052 A 
ATOM     23  C   UNL A   1      34.664  15.478  24.934  1.00  0.00     0.044 C 
ATOM     24  C   UNL A   1      34.256  16.919  25.003  1.00  0.00    -0.051 A 
ATOM     25  C   UNL A   1      32.974  17.265  25.442  1.00  0.00     0.005 A 
ATOM     26  C   UNL A   1      35.128  17.933  24.595  1.00  0.00     0.005 A 
ATOM     27  C   UNL A   1      32.584  18.606  25.505  1.00  0.00     0.027 A 
ATOM     28  C   UNL A   1      34.720  19.271  24.609  1.00  0.00     0.027 A 
ENDBRANCH  16  22
ENDBRANCH  14  15
ENDBRANCH   9  14
ENDBRANCH   5   8
ENDBRANCH   3   4
ENDBRANCH   2   3
ENDBRANCH   1   2
BRANCH   1  29
ATOM     29  C   UNL A   1      34.356  29.612  26.723  1.00  0.00     0.002 C 
BRANCH  29  30
ATOM     30  C   UNL A   1      35.019  30.228  27.947  1.00  0.00     0.021 C 
BRANCH  30  31
ATOM     31  C   UNL A   1      35.440  31.680  27.802  1.00  0.00     0.116 C 
BRANCH  31  32
ATOM     32  N   UNL A   1      34.449  32.638  28.279  1.00  0.00    -0.352 N 
ATOM     33  C   UNL A   1      34.462  33.476  29.382  1.00  0.00     0.251 C 
ATOM     34  H   UNL A   1      33.637  32.699  27.725  1.00  0.00     0.163 HD
ATOM     35  O   UNL A   1      33.477  34.168  29.626  1.00  0.00    -0.269 OA
BRANCH  33  36
ATOM     36  C   UNL A   1      35.718  33.697  30.144  1.00  0.00     0.039 A 
ATOM     37  C   UNL A   1      36.796  34.209  29.407  1.00  0.00     0.014 A 
ATOM     38  C   UNL A   1      35.947  33.020  31.330  1.00  0.00     0.014 A 
ATOM     39  C   UNL A   1      38.065  33.708  29.645  1.00  0.00     0.010 A 
ATOM     40  C   UNL A   1      37.150  32.382  31.461  1.00  0.00     0.010 A 
ATOM     41  C   UNL A   1      38.179  32.677  30.566  1.00  0.00    -0.014 A 
BRANCH  41  42
ATOM     42  C   UNL A   1      39.356  31.861  30.733  1.00  0.00     0.031 A 
ATOM     43  C   UNL A   1      39.381  30.583  30.018  1.00  0.00     0.074 A 
ATOM     44  C   UNL A   1      40.426  32.374  31.375  1.00  0.00     0.049 A 
ATOM     45  N   UNL A   1      40.168  29.615  30.310  1.00  0.00    -0.248 NA
ATOM     46  C   UNL A   1      38.448  30.265  28.936  1.00  0.00     0.031 C 
ATOM     47  C   UNL A   1      41.807  31.906  31.356  1.00  0.00     0.029 A 
ATOM     48  N   UNL A   1      40.410  33.349  32.369  1.00  0.00    -0.354 N 
ATOM     49  C   UNL A   1      40.104  28.726  29.266  1.00  0.00     0.074 A 
ATOM     50  C   UNL A   1      38.925  29.089  28.521  1.00  0.00     0.031 C 
ATOM     51  C   UNL A   1      42.444  32.390  32.439  1.00  0.00     0.029 A 
ATOM     52  C   UNL A   1      41.441  33.029  33.276  1.00  0.00     0.049 A 
ATOM     53  H   UNL A   1      39.797  34.117  32.427  1.00  0.00     0.167 HD
ATOM     54  C   UNL A   1      41.167  27.903  29.064  1.00  0.00     0.031 A 
ATOM     55  C   UNL A   1      41.123  32.637  34.549  1.00  0.00     0.031 A 
ATOM     56  C   UNL A   1      42.149  28.056  30.139  1.00  0.00     0.049 A 
ATOM     57  C   UNL A   1      41.492  31.193  34.847  1.00  0.00     0.074 A 
ATOM     58  C   UNL A   1      43.363  28.714  30.242  1.00  0.00     0.029 A 
ATOM     59  N   UNL A   1      41.743  27.796  31.438  1.00  0.00    -0.354 N 
ATOM     60  N   UNL A   1      41.845  30.322  33.940  1.00  0.00    -0.248 NA
ATOM     61  C   UNL A   1      41.436  30.596  36.180  1.00  0.00     0.031 C 
ATOM     62  C   UNL A   1      43.676  28.845  31.628  1.00  0.00     0.029 A 
ATOM     63  C   UNL A   1      42.671  28.237  32.357  1.00  0.00     0.049 A 
ATOM     64  H   UNL A   1      40.897  27.351  31.675  1.00  0.00     0.167 HD
ATOM     65  C   UNL A   1      42.048  29.095  34.513  1.00  0.00     0.074 A 
ATOM     66  C   UNL A   1      41.752  29.313  35.919  1.00  0.00     0.031 C 
ATOM     67  C   UNL A   1      42.416  28.003  33.773  1.00  0.00     0.031 A 
BRANCH  54  68
ATOM     68  C   UNL A   1      41.446  27.158  27.786  1.00  0.00    -0.014 A 
ATOM     69  C   UNL A   1      41.464  25.752  27.815  1.00  0.00     0.009 A 
ATOM     70  C   UNL A   1      41.751  27.749  26.548  1.00  0.00     0.009 A 
ATOM     71  C   UNL A   1      41.824  24.987  26.699  1.00  0.00     0.001 A 
ATOM     72  C   UNL A   1      42.125  26.993  25.428  1.00  0.00     0.001 A 
ATOM     73  C   UNL A   1      42.169  25.609  25.507  1.00  0.00     0.000 A 
ENDBRANCH  54  68
BRANCH  55  74
ATOM     74  C   UNL A   1      39.906  33.348  35.059  1.00  0.00    -0.014 A 
ATOM     75  C   UNL A   1      38.667  32.676  34.949  1.00  0.00     0.009 A 
ATOM     76  C   UNL A   1      40.031  34.359  36.023  1.00  0.00     0.009 A 
ATOM     77  C   UNL A   1      37.661  32.870  35.902  1.00  0.00     0.001 A 
ATOM     78  C   UNL A   1      39.003  34.572  36.953  1.00  0.00     0.001 A 
ATOM     79  C   UNL A   1      37.849  33.788  36.930  1.00  0.00     0.000 A 
ENDBRANCH  55  74
BRANCH  67  80
ATOM     80  C   UNL A   1      42.544  26.583  34.281  1.00  0.00    -0.014 A 
ATOM     81  C   UNL A   1      41.629  25.967  35.138  1.00  0.00     0.009 A 
ATOM     82  C   UNL A   1      43.694  25.824  33.950  1.00  0.00     0.009 A 
ATOM     83  C   UNL A   1      41.808  24.639  35.559  1.00  0.00     0.001 A 
ATOM     84  C   UNL A   1      43.888  24.512  34.380  1.00  0.00     0.001 A 
ATOM     85  C   UNL A   1      42.929  23.910  35.173  1.00  0.00     0.000 A 
ENDBRANCH  67  80
ENDBRANCH  41  42
ENDBRANCH  33  36
ENDBRANCH  31  32
ENDBRANCH  30  31
ENDBRANCH  29  30
ENDBRANCH   1  29
TORSDOF 16
ENDMDL
