MODEL 1
REMARK VINA RESULT:     -10.8      0.000      0.000
REMARK SMILES C[C@H](c1ccccc1F)N(C)c1cccc(F)c1C(=O)NCCCCCCNC(=O)c1ccc(-c2c3nc(c(-c4ccccc4)c4ccc([nH]4)c(-c4ccccc4)c4nc(c(-c5ccccc5)c5ccc2[nH]5)C=C4)C=C3)cc1
REMARK SMILES IDX 24 1 23 2 22 3 21 4 19 5 20 6 18 8 12 9 13 10 14 11 16 12
REMARK SMILES IDX 15 13 17 14 10 15 11 16 2 17 1 18 3 19 4 20 8 21 5 22 7 23
REMARK SMILES IDX 9 24 6 25 25 26 26 27 27 28 28 29 29 30 30 32 31 33 32 34
REMARK SMILES IDX 78 35 33 36 77 37 34 38 35 39 36 40 71 41 37 42 76 43 70 44
REMARK SMILES IDX 72 45 38 46 75 47 69 48 68 49 39 51 61 52 46 53 60 54 47 55
REMARK SMILES IDX 50 56 59 57 73 58 48 59 49 60 58 62 74 63 51 64 40 65 41 66
REMARK SMILES IDX 45 67 42 68 44 69 43 70 62 71 63 72 67 73 64 74 66 75 65 76
REMARK SMILES IDX 52 77 53 78 57 79 54 80 56 81 55 82
REMARK H PARENT 21 7 28 31 72 50 50 61
REMARK Flexibility Score: inf
ROOT
ATOM      1  C   UNL A   1      32.521  29.887  25.585  1.00  0.00     0.002 C 
ENDROOT
BRANCH   1   2
ATOM      2  C   UNL A   1      32.710  28.862  26.705  1.00  0.00     0.021 C 
BRANCH   2   3
ATOM      3  C   UNL A   1      33.803  27.812  26.520  1.00  0.00     0.116 C 
BRANCH   3   4
ATOM      4  N   UNL A   1      34.034  27.408  25.145  1.00  0.00    -0.352 N 
ATOM      5  C   UNL A   1      33.792  26.199  24.514  1.00  0.00     0.256 C 
ATOM      6  O   UNL A   1      33.903  26.174  23.290  1.00  0.00    -0.269 OA
ATOM      7  H   UNL A   1      34.426  28.103  24.568  1.00  0.00     0.163 HD
BRANCH   5   8
ATOM      8  C   UNL A   1      33.453  24.968  25.284  1.00  0.00     0.098 A 
ATOM      9  C   UNL A   1      32.118  24.580  25.562  1.00  0.00     0.053 A 
ATOM     10  C   UNL A   1      31.918  23.305  26.135  1.00  0.00     0.027 A 
ATOM     11  C   UNL A   1      32.976  22.491  26.538  1.00  0.00     0.005 A 
ATOM     12  C   UNL A   1      34.500  24.185  25.792  1.00  0.00     0.138 A 
ATOM     13  C   UNL A   1      34.272  22.953  26.400  1.00  0.00     0.040 A 
ATOM     14  F   UNL A   1      35.773  24.604  25.720  1.00  0.00    -0.206 F 
BRANCH   9  15
ATOM     15  N   UNL A   1      30.984  25.356  25.356  1.00  0.00    -0.367 N 
ATOM     16  C   UNL A   1      30.424  26.090  26.480  1.00  0.00     0.144 C 
BRANCH  15  17
ATOM     17  C   UNL A   1      30.208  25.281  24.092  1.00  0.00     0.112 C 
ATOM     18  C   UNL A   1      30.852  24.353  23.053  1.00  0.00     0.036 C 
BRANCH  17  19
ATOM     19  C   UNL A   1      29.881  26.661  23.535  1.00  0.00     0.010 A 
ATOM     20  C   UNL A   1      30.837  27.475  22.898  1.00  0.00     0.009 A 
ATOM     21  C   UNL A   1      28.578  27.159  23.647  1.00  0.00     0.128 A 
ATOM     22  C   UNL A   1      30.492  28.733  22.396  1.00  0.00     0.001 A 
ATOM     23  C   UNL A   1      28.226  28.411  23.143  1.00  0.00     0.039 A 
ATOM     24  F   UNL A   1      27.625  26.421  24.238  1.00  0.00    -0.207 F 
ATOM     25  C   UNL A   1      29.186  29.201  22.515  1.00  0.00     0.003 A 
ENDBRANCH  17  19
ENDBRANCH  15  17
ENDBRANCH   9  15
ENDBRANCH   5   8
ENDBRANCH   3   4
ENDBRANCH   2   3
ENDBRANCH   1   2
BRANCH   1  26
ATOM     26  C   UNL A   1      31.190  30.643  25.541  1.00  0.00     0.002 C 
BRANCH  26  27
ATOM     27  C   UNL A   1      31.075  31.899  26.408  1.00  0.00     0.021 C 
BRANCH  27  28
ATOM     28  C   UNL A   1      32.378  32.482  26.947  1.00  0.00     0.116 C 
BRANCH  28  29
ATOM     29  N   UNL A   1      32.233  33.827  27.474  1.00  0.00    -0.352 N 
ATOM     30  C   UNL A   1      33.021  34.527  28.354  1.00  0.00     0.251 C 
ATOM     31  H   UNL A   1      31.444  34.316  27.148  1.00  0.00     0.163 HD
ATOM     32  O   UNL A   1      32.651  35.630  28.749  1.00  0.00    -0.269 OA
BRANCH  30  33
ATOM     33  C   UNL A   1      34.298  33.967  28.863  1.00  0.00     0.039 A 
ATOM     34  C   UNL A   1      34.251  33.116  29.973  1.00  0.00     0.014 A 
ATOM     35  C   UNL A   1      35.535  34.301  28.304  1.00  0.00     0.014 A 
ATOM     36  C   UNL A   1      35.428  32.561  30.482  1.00  0.00     0.010 A 
ATOM     37  C   UNL A   1      36.703  33.693  28.771  1.00  0.00     0.010 A 
ATOM     38  C   UNL A   1      36.664  32.821  29.869  1.00  0.00    -0.014 A 
BRANCH  38  39
ATOM     39  C   UNL A   1      37.906  32.178  30.372  1.00  0.00     0.031 A 
ATOM     40  C   UNL A   1      38.658  32.761  31.539  1.00  0.00     0.074 A 
ATOM     41  C   UNL A   1      38.372  31.067  29.766  1.00  0.00     0.049 A 
ATOM     42  N   UNL A   1      39.742  32.318  32.127  1.00  0.00    -0.248 NA
ATOM     43  C   UNL A   1      38.135  34.012  32.112  1.00  0.00     0.031 C 
ATOM     44  C   UNL A   1      37.763  30.418  28.602  1.00  0.00     0.029 A 
ATOM     45  N   UNL A   1      39.462  30.281  30.051  1.00  0.00    -0.354 N 
ATOM     46  C   UNL A   1      40.030  33.233  33.132  1.00  0.00     0.074 A 
ATOM     47  C   UNL A   1      39.040  34.285  33.040  1.00  0.00     0.031 C 
ATOM     48  C   UNL A   1      38.464  29.313  28.299  1.00  0.00     0.029 A 
ATOM     49  C   UNL A   1      39.587  29.193  29.222  1.00  0.00     0.049 A 
ATOM     50  H   UNL A   1      40.094  30.480  30.780  1.00  0.00     0.167 HD
ATOM     51  C   UNL A   1      41.015  33.195  34.062  1.00  0.00     0.031 A 
ATOM     52  C   UNL A   1      40.501  28.203  29.209  1.00  0.00     0.031 A 
ATOM     53  C   UNL A   1      42.001  32.152  34.160  1.00  0.00     0.049 A 
ATOM     54  C   UNL A   1      41.592  28.194  30.243  1.00  0.00     0.074 A 
ATOM     55  C   UNL A   1      43.015  32.008  35.093  1.00  0.00     0.029 A 
ATOM     56  N   UNL A   1      42.098  31.073  33.296  1.00  0.00    -0.354 N 
ATOM     57  N   UNL A   1      41.809  29.035  31.225  1.00  0.00    -0.248 NA
ATOM     58  C   UNL A   1      42.556  27.086  30.173  1.00  0.00     0.031 C 
ATOM     59  C   UNL A   1      43.754  30.865  34.765  1.00  0.00     0.029 A 
ATOM     60  C   UNL A   1      43.165  30.269  33.662  1.00  0.00     0.049 A 
ATOM     61  H   UNL A   1      41.498  30.903  32.534  1.00  0.00     0.167 HD
ATOM     62  C   UNL A   1      42.915  28.542  31.906  1.00  0.00     0.074 A 
ATOM     63  C   UNL A   1      43.309  27.319  31.239  1.00  0.00     0.031 C 
ATOM     64  C   UNL A   1      43.548  29.056  32.988  1.00  0.00     0.031 A 
BRANCH  51  65
ATOM     65  C   UNL A   1      41.071  34.320  35.059  1.00  0.00    -0.014 A 
ATOM     66  C   UNL A   1      41.817  35.481  34.798  1.00  0.00     0.009 A 
ATOM     67  C   UNL A   1      40.334  34.241  36.251  1.00  0.00     0.009 A 
ATOM     68  C   UNL A   1      41.847  36.527  35.724  1.00  0.00     0.001 A 
ATOM     69  C   UNL A   1      40.344  35.299  37.162  1.00  0.00     0.001 A 
ATOM     70  C   UNL A   1      41.107  36.437  36.902  1.00  0.00     0.000 A 
ENDBRANCH  51  65
BRANCH  52  71
ATOM     71  C   UNL A   1      40.415  27.116  28.199  1.00  0.00    -0.014 A 
ATOM     72  C   UNL A   1      41.061  27.243  26.959  1.00  0.00     0.009 A 
ATOM     73  C   UNL A   1      39.665  25.958  28.457  1.00  0.00     0.009 A 
ATOM     74  C   UNL A   1      40.928  26.250  25.985  1.00  0.00     0.001 A 
ATOM     75  C   UNL A   1      39.559  24.953  27.493  1.00  0.00     0.001 A 
ATOM     76  C   UNL A   1      40.180  25.105  26.254  1.00  0.00     0.000 A 
ENDBRANCH  52  71
BRANCH  64  77
ATOM     77  C   UNL A   1      44.709  28.275  33.535  1.00  0.00    -0.014 A 
ATOM     78  C   UNL A   1      46.023  28.525  33.108  1.00  0.00     0.009 A 
ATOM     79  C   UNL A   1      44.486  27.285  34.506  1.00  0.00     0.009 A 
ATOM     80  C   UNL A   1      47.084  27.768  33.610  1.00  0.00     0.001 A 
ATOM     81  C   UNL A   1      45.552  26.552  35.027  1.00  0.00     0.001 A 
ATOM     82  C   UNL A   1      46.848  26.786  34.571  1.00  0.00     0.000 A 
ENDBRANCH  64  77
ENDBRANCH  38  39
ENDBRANCH  30  33
ENDBRANCH  28  29
ENDBRANCH  27  28
ENDBRANCH  26  27
ENDBRANCH   1  26
TORSDOF 16
ENDMDL
MODEL 2
REMARK VINA RESULT:     -10.8      3.901      9.014
REMARK SMILES C[C@H](c1ccccc1F)N(C)c1cccc(F)c1C(=O)NCCCCCCNC(=O)c1ccc(-c2c3nc(c(-c4ccccc4)c4ccc([nH]4)c(-c4ccccc4)c4nc(c(-c5ccccc5)c5ccc2[nH]5)C=C4)C=C3)cc1
REMARK SMILES IDX 24 1 23 2 22 3 21 4 19 5 20 6 18 8 12 9 13 10 14 11 16 12
REMARK SMILES IDX 15 13 17 14 10 15 11 16 2 17 1 18 3 19 4 20 8 21 5 22 7 23
REMARK SMILES IDX 9 24 6 25 25 26 26 27 27 28 28 29 29 30 30 32 31 33 32 34
REMARK SMILES IDX 78 35 33 36 77 37 34 38 35 39 36 40 71 41 37 42 76 43 70 44
REMARK SMILES IDX 72 45 38 46 75 47 69 48 68 49 39 51 61 52 46 53 60 54 47 55
REMARK SMILES IDX 50 56 59 57 73 58 48 59 49 60 58 62 74 63 51 64 40 65 41 66
REMARK SMILES IDX 45 67 42 68 44 69 43 70 62 71 63 72 67 73 64 74 66 75 65 76
REMARK SMILES IDX 52 77 53 78 57 79 54 80 56 81 55 82
REMARK H PARENT 21 7 28 31 72 50 50 61
REMARK Flexibility Score: inf
ROOT
ATOM      1  C   UNL A   1      36.817  21.784  24.933  1.00  0.00     0.002 C 
ENDROOT
BRANCH   1   2
ATOM      2  C   UNL A   1      36.124  22.458  26.120  1.00  0.00     0.021 C 
BRANCH   2   3
ATOM      3  C   UNL A   1      35.621  23.886  25.923  1.00  0.00     0.116 C 
BRANCH   3   4
ATOM      4  N   UNL A   1      34.300  24.148  26.463  1.00  0.00    -0.352 N 
ATOM      5  C   UNL A   1      33.243  24.869  25.934  1.00  0.00     0.256 C 
ATOM      6  O   UNL A   1      32.160  24.782  26.509  1.00  0.00    -0.269 OA
ATOM      7  H   UNL A   1      34.126  23.751  27.347  1.00  0.00     0.163 HD
BRANCH   5   8
ATOM      8  C   UNL A   1      33.413  25.748  24.741  1.00  0.00     0.098 A 
ATOM      9  C   UNL A   1      33.390  25.254  23.413  1.00  0.00     0.053 A 
ATOM     10  C   UNL A   1      33.376  26.202  22.367  1.00  0.00     0.027 A 
ATOM     11  C   UNL A   1      33.507  27.571  22.596  1.00  0.00     0.005 A 
ATOM     12  C   UNL A   1      33.652  27.115  24.945  1.00  0.00     0.138 A 
ATOM     13  C   UNL A   1      33.685  28.024  23.891  1.00  0.00     0.040 A 
ATOM     14  F   UNL A   1      33.871  27.602  26.177  1.00  0.00    -0.206 F 
BRANCH   9  15
ATOM     15  N   UNL A   1      33.414  23.915  23.041  1.00  0.00    -0.367 N 
ATOM     16  C   UNL A   1      34.669  23.338  22.585  1.00  0.00     0.144 C 
BRANCH  15  17
ATOM     17  C   UNL A   1      32.166  23.127  22.885  1.00  0.00     0.112 C 
ATOM     18  C   UNL A   1      30.928  23.862  23.416  1.00  0.00     0.036 C 
BRANCH  17  19
ATOM     19  C   UNL A   1      32.303  21.715  23.441  1.00  0.00     0.010 A 
ATOM     20  C   UNL A   1      32.568  21.451  24.798  1.00  0.00     0.009 A 
ATOM     21  C   UNL A   1      32.160  20.619  22.583  1.00  0.00     0.128 A 
ATOM     22  C   UNL A   1      32.681  20.138  25.268  1.00  0.00     0.001 A 
ATOM     23  C   UNL A   1      32.266  19.307  23.047  1.00  0.00     0.039 A 
ATOM     24  F   UNL A   1      31.899  20.813  21.281  1.00  0.00    -0.207 F 
ATOM     25  C   UNL A   1      32.527  19.066  24.393  1.00  0.00     0.003 A 
ENDBRANCH  17  19
ENDBRANCH  15  17
ENDBRANCH   9  15
ENDBRANCH   5   8
ENDBRANCH   3   4
ENDBRANCH   2   3
ENDBRANCH   1   2
BRANCH   1  26
ATOM     26  C   UNL A   1      36.622  20.275  24.769  1.00  0.00     0.002 C 
BRANCH  26  27
ATOM     27  C   UNL A   1      37.845  19.386  24.998  1.00  0.00     0.021 C 
BRANCH  27  28
ATOM     28  C   UNL A   1      39.010  20.007  25.764  1.00  0.00     0.116 C 
BRANCH  28  29
ATOM     29  N   UNL A   1      40.223  19.211  25.714  1.00  0.00    -0.352 N 
ATOM     30  C   UNL A   1      41.517  19.539  26.037  1.00  0.00     0.251 C 
ATOM     31  H   UNL A   1      40.098  18.287  25.398  1.00  0.00     0.163 HD
ATOM     32  O   UNL A   1      42.416  18.731  25.818  1.00  0.00    -0.269 OA
BRANCH  30  33
ATOM     33  C   UNL A   1      41.857  20.861  26.619  1.00  0.00     0.039 A 
ATOM     34  C   UNL A   1      42.257  21.882  25.751  1.00  0.00     0.014 A 
ATOM     35  C   UNL A   1      41.838  21.097  27.997  1.00  0.00     0.014 A 
ATOM     36  C   UNL A   1      42.581  23.145  26.254  1.00  0.00     0.010 A 
ATOM     37  C   UNL A   1      42.096  22.378  28.493  1.00  0.00     0.010 A 
ATOM     38  C   UNL A   1      42.476  23.414  27.628  1.00  0.00    -0.014 A 
BRANCH  38  39
ATOM     39  C   UNL A   1      42.758  24.776  28.154  1.00  0.00     0.031 A 
ATOM     40  C   UNL A   1      44.161  25.188  28.514  1.00  0.00     0.074 A 
ATOM     41  C   UNL A   1      41.742  25.647  28.325  1.00  0.00     0.049 A 
ATOM     42  N   UNL A   1      44.593  26.342  28.960  1.00  0.00    -0.248 NA
ATOM     43  C   UNL A   1      45.213  24.170  28.370  1.00  0.00     0.031 C 
ATOM     44  C   UNL A   1      40.331  25.365  28.052  1.00  0.00     0.029 A 
ATOM     45  N   UNL A   1      41.742  26.949  28.760  1.00  0.00    -0.354 N 
ATOM     46  C   UNL A   1      45.961  26.188  29.151  1.00  0.00     0.074 A 
ATOM     47  C   UNL A   1      46.278  24.814  28.825  1.00  0.00     0.031 C 
ATOM     48  C   UNL A   1      39.609  26.473  28.287  1.00  0.00     0.029 A 
ATOM     49  C   UNL A   1      40.497  27.530  28.757  1.00  0.00     0.049 A 
ATOM     50  H   UNL A   1      42.557  27.422  29.047  1.00  0.00     0.167 HD
ATOM     51  C   UNL A   1      46.876  27.108  29.540  1.00  0.00     0.031 A 
ATOM     52  C   UNL A   1      40.112  28.777  29.091  1.00  0.00     0.031 A 
ATOM     53  C   UNL A   1      46.568  28.476  29.862  1.00  0.00     0.049 A 
ATOM     54  C   UNL A   1      41.147  29.773  29.535  1.00  0.00     0.074 A 
ATOM     55  C   UNL A   1      47.434  29.492  30.231  1.00  0.00     0.029 A 
ATOM     56  N   UNL A   1      45.294  29.021  29.856  1.00  0.00    -0.354 N 
ATOM     57  N   UNL A   1      42.444  29.625  29.647  1.00  0.00    -0.248 NA
ATOM     58  C   UNL A   1      40.660  31.116  29.883  1.00  0.00     0.031 C 
ATOM     59  C   UNL A   1      46.678  30.641  30.491  1.00  0.00     0.029 A 
ATOM     60  C   UNL A   1      45.347  30.354  30.232  1.00  0.00     0.049 A 
ATOM     61  H   UNL A   1      44.471  28.533  29.620  1.00  0.00     0.167 HD
ATOM     62  C   UNL A   1      42.931  30.862  30.050  1.00  0.00     0.074 A 
ATOM     63  C   UNL A   1      41.794  31.753  30.141  1.00  0.00     0.031 C 
ATOM     64  C   UNL A   1      44.208  31.228  30.321  1.00  0.00     0.031 A 
BRANCH  51  65
ATOM     65  C   UNL A   1      48.310  26.664  29.633  1.00  0.00    -0.014 A 
ATOM     66  C   UNL A   1      48.803  26.050  30.797  1.00  0.00     0.009 A 
ATOM     67  C   UNL A   1      49.166  26.815  28.532  1.00  0.00     0.009 A 
ATOM     68  C   UNL A   1      50.131  25.625  30.866  1.00  0.00     0.001 A 
ATOM     69  C   UNL A   1      50.487  26.364  28.594  1.00  0.00     0.001 A 
ATOM     70  C   UNL A   1      50.971  25.778  29.763  1.00  0.00     0.000 A 
ENDBRANCH  51  65
BRANCH  52  71
ATOM     71  C   UNL A   1      38.682  29.172  28.994  1.00  0.00    -0.014 A 
ATOM     72  C   UNL A   1      37.840  29.076  30.112  1.00  0.00     0.009 A 
ATOM     73  C   UNL A   1      38.145  29.620  27.777  1.00  0.00     0.009 A 
ATOM     74  C   UNL A   1      36.482  29.386  30.007  1.00  0.00     0.001 A 
ATOM     75  C   UNL A   1      36.793  29.960  27.682  1.00  0.00     0.001 A 
ATOM     76  C   UNL A   1      35.961  29.831  28.792  1.00  0.00     0.000 A 
ENDBRANCH  52  71
BRANCH  64  77
ATOM     77  C   UNL A   1      44.441  32.661  30.705  1.00  0.00    -0.014 A 
ATOM     78  C   UNL A   1      44.453  33.063  32.050  1.00  0.00     0.009 A 
ATOM     79  C   UNL A   1      44.667  33.622  29.706  1.00  0.00     0.009 A 
ATOM     80  C   UNL A   1      44.645  34.406  32.384  1.00  0.00     0.001 A 
ATOM     81  C   UNL A   1      44.887  34.957  30.045  1.00  0.00     0.001 A 
ATOM     82  C   UNL A   1      44.865  35.350  31.382  1.00  0.00     0.000 A 
ENDBRANCH  64  77
ENDBRANCH  38  39
ENDBRANCH  30  33
ENDBRANCH  28  29
ENDBRANCH  27  28
ENDBRANCH  26  27
ENDBRANCH   1  26
TORSDOF 16
ENDMDL
MODEL 3
REMARK VINA RESULT:     -10.8      3.717      8.635
REMARK SMILES C[C@H](c1ccccc1F)N(C)c1cccc(F)c1C(=O)NCCCCCCNC(=O)c1ccc(-c2c3nc(c(-c4ccccc4)c4ccc([nH]4)c(-c4ccccc4)c4nc(c(-c5ccccc5)c5ccc2[nH]5)C=C4)C=C3)cc1
REMARK SMILES IDX 24 1 23 2 22 3 21 4 19 5 20 6 18 8 12 9 13 10 14 11 16 12
REMARK SMILES IDX 15 13 17 14 10 15 11 16 2 17 1 18 3 19 4 20 8 21 5 22 7 23
REMARK SMILES IDX 9 24 6 25 25 26 26 27 27 28 28 29 29 30 30 32 31 33 32 34
REMARK SMILES IDX 78 35 33 36 77 37 34 38 35 39 36 40 71 41 37 42 76 43 70 44
REMARK SMILES IDX 72 45 38 46 75 47 69 48 68 49 39 51 61 52 46 53 60 54 47 55
REMARK SMILES IDX 50 56 59 57 73 58 48 59 49 60 58 62 74 63 51 64 40 65 41 66
REMARK SMILES IDX 45 67 42 68 44 69 43 70 62 71 63 72 67 73 64 74 66 75 65 76
REMARK SMILES IDX 52 77 53 78 57 79 54 80 56 81 55 82
REMARK H PARENT 21 7 28 31 72 50 50 61
REMARK Flexibility Score: inf
ROOT
ATOM      1  C   UNL A   1      36.892  21.739  24.371  1.00  0.00     0.002 C 
ENDROOT
BRANCH   1   2
ATOM      2  C   UNL A   1      36.954  22.839  25.434  1.00  0.00     0.021 C 
BRANCH   2   3
ATOM      3  C   UNL A   1      35.799  23.836  25.482  1.00  0.00     0.116 C 
BRANCH   3   4
ATOM      4  N   UNL A   1      34.836  23.604  26.544  1.00  0.00    -0.352 N 
ATOM      5  C   UNL A   1      33.638  22.910  26.530  1.00  0.00     0.256 C 
ATOM      6  O   UNL A   1      33.099  22.701  27.615  1.00  0.00    -0.269 OA
ATOM      7  H   UNL A   1      35.072  24.004  27.412  1.00  0.00     0.163 HD
BRANCH   5   8
ATOM      8  C   UNL A   1      33.002  22.469  25.256  1.00  0.00     0.098 A 
ATOM      9  C   UNL A   1      32.229  23.336  24.443  1.00  0.00     0.053 A 
ATOM     10  C   UNL A   1      31.835  22.857  23.174  1.00  0.00     0.027 A 
ATOM     11  C   UNL A   1      32.072  21.547  22.762  1.00  0.00     0.005 A 
ATOM     12  C   UNL A   1      33.136  21.128  24.870  1.00  0.00     0.138 A 
ATOM     13  C   UNL A   1      32.691  20.669  23.632  1.00  0.00     0.040 A 
ATOM     14  F   UNL A   1      33.694  20.225  25.691  1.00  0.00    -0.206 F 
BRANCH   9  15
ATOM     15  N   UNL A   1      31.791  24.608  24.794  1.00  0.00    -0.367 N 
ATOM     16  C   UNL A   1      30.638  24.733  25.672  1.00  0.00     0.144 C 
BRANCH  15  17
ATOM     17  C   UNL A   1      32.320  25.825  24.129  1.00  0.00     0.112 C 
ATOM     18  C   UNL A   1      33.581  25.548  23.299  1.00  0.00     0.036 C 
BRANCH  17  19
ATOM     19  C   UNL A   1      32.492  26.984  25.103  1.00  0.00     0.010 A 
ATOM     20  C   UNL A   1      33.539  27.045  26.042  1.00  0.00     0.009 A 
ATOM     21  C   UNL A   1      31.582  28.047  25.077  1.00  0.00     0.128 A 
ATOM     22  C   UNL A   1      33.662  28.131  26.914  1.00  0.00     0.001 A 
ATOM     23  C   UNL A   1      31.704  29.136  25.940  1.00  0.00     0.039 A 
ATOM     24  F   UNL A   1      30.570  28.044  24.197  1.00  0.00    -0.207 F 
ATOM     25  C   UNL A   1      32.747  29.179  26.862  1.00  0.00     0.003 A 
ENDBRANCH  17  19
ENDBRANCH  15  17
ENDBRANCH   9  15
ENDBRANCH   5   8
ENDBRANCH   3   4
ENDBRANCH   2   3
ENDBRANCH   1   2
BRANCH   1  26
ATOM     26  C   UNL A   1      36.798  20.293  24.861  1.00  0.00     0.002 C 
BRANCH  26  27
ATOM     27  C   UNL A   1      38.089  19.472  24.859  1.00  0.00     0.021 C 
BRANCH  27  28
ATOM     28  C   UNL A   1      39.076  19.744  25.992  1.00  0.00     0.116 C 
BRANCH  28  29
ATOM     29  N   UNL A   1      40.362  19.098  25.804  1.00  0.00    -0.352 N 
ATOM     30  C   UNL A   1      41.635  19.586  25.966  1.00  0.00     0.251 C 
ATOM     31  H   UNL A   1      40.315  18.158  25.514  1.00  0.00     0.163 HD
ATOM     32  O   UNL A   1      42.594  18.888  25.647  1.00  0.00    -0.269 OA
BRANCH  30  33
ATOM     33  C   UNL A   1      41.878  20.953  26.490  1.00  0.00     0.039 A 
ATOM     34  C   UNL A   1      41.787  21.156  27.872  1.00  0.00     0.014 A 
ATOM     35  C   UNL A   1      42.143  22.039  25.651  1.00  0.00     0.014 A 
ATOM     36  C   UNL A   1      42.013  22.426  28.411  1.00  0.00     0.010 A 
ATOM     37  C   UNL A   1      42.436  23.293  26.196  1.00  0.00     0.010 A 
ATOM     38  C   UNL A   1      42.369  23.501  27.581  1.00  0.00    -0.014 A 
BRANCH  38  39
ATOM     39  C   UNL A   1      42.674  24.835  28.163  1.00  0.00     0.031 A 
ATOM     40  C   UNL A   1      44.081  25.199  28.558  1.00  0.00     0.074 A 
ATOM     41  C   UNL A   1      41.677  25.722  28.351  1.00  0.00     0.049 A 
ATOM     42  N   UNL A   1      44.533  26.325  29.054  1.00  0.00    -0.248 NA
ATOM     43  C   UNL A   1      45.111  24.162  28.390  1.00  0.00     0.031 C 
ATOM     44  C   UNL A   1      40.263  25.486  28.047  1.00  0.00     0.029 A 
ATOM     45  N   UNL A   1      41.700  27.007  28.836  1.00  0.00    -0.354 N 
ATOM     46  C   UNL A   1      45.893  26.131  29.259  1.00  0.00     0.074 A 
ATOM     47  C   UNL A   1      46.184  24.763  28.885  1.00  0.00     0.031 C 
ATOM     48  C   UNL A   1      39.564  26.600  28.314  1.00  0.00     0.029 A 
ATOM     49  C   UNL A   1      40.469  27.617  28.838  1.00  0.00     0.049 A 
ATOM     50  H   UNL A   1      42.522  27.449  29.153  1.00  0.00     0.167 HD
ATOM     51  C   UNL A   1      46.823  27.014  29.696  1.00  0.00     0.031 A 
ATOM     52  C   UNL A   1      40.108  28.860  29.213  1.00  0.00     0.031 A 
ATOM     53  C   UNL A   1      46.542  28.375  30.066  1.00  0.00     0.049 A 
ATOM     54  C   UNL A   1      41.159  29.813  29.710  1.00  0.00     0.074 A 
ATOM     55  C   UNL A   1      47.427  29.356  30.486  1.00  0.00     0.029 A 
ATOM     56  N   UNL A   1      45.282  28.950  30.063  1.00  0.00    -0.354 N 
ATOM     57  N   UNL A   1      42.451  29.630  29.835  1.00  0.00    -0.248 NA
ATOM     58  C   UNL A   1      40.699  31.153  30.102  1.00  0.00     0.031 C 
ATOM     59  C   UNL A   1      46.693  30.511  30.779  1.00  0.00     0.029 A 
ATOM     60  C   UNL A   1      45.361  30.266  30.489  1.00  0.00     0.049 A 
ATOM     61  H   UNL A   1      44.452  28.492  29.796  1.00  0.00     0.167 HD
ATOM     62  C   UNL A   1      42.960  30.839  30.292  1.00  0.00     0.074 A 
ATOM     63  C   UNL A   1      41.843  31.752  30.401  1.00  0.00     0.031 C 
ATOM     64  C   UNL A   1      44.241  31.164  30.595  1.00  0.00     0.031 A 
BRANCH  51  65
ATOM     65  C   UNL A   1      48.246  26.532  29.793  1.00  0.00    -0.014 A 
ATOM     66  C   UNL A   1      49.147  26.721  28.733  1.00  0.00     0.009 A 
ATOM     67  C   UNL A   1      48.703  25.925  30.973  1.00  0.00     0.009 A 
ATOM     68  C   UNL A   1      50.470  26.286  28.842  1.00  0.00     0.001 A 
ATOM     69  C   UNL A   1      50.033  25.515  31.089  1.00  0.00     0.001 A 
ATOM     70  C   UNL A   1      50.913  25.688  30.020  1.00  0.00     0.000 A 
ENDBRANCH  51  65
BRANCH  52  71
ATOM     71  C   UNL A   1      38.690  29.292  29.111  1.00  0.00    -0.014 A 
ATOM     72  C   UNL A   1      37.838  29.208  30.223  1.00  0.00     0.009 A 
ATOM     73  C   UNL A   1      38.172  29.764  27.895  1.00  0.00     0.009 A 
ATOM     74  C   UNL A   1      36.489  29.554  30.111  1.00  0.00     0.001 A 
ATOM     75  C   UNL A   1      36.830  30.139  27.794  1.00  0.00     0.001 A 
ATOM     76  C   UNL A   1      35.988  30.022  28.898  1.00  0.00     0.000 A 
ENDBRANCH  52  71
BRANCH  64  77
ATOM     77  C   UNL A   1      44.501  32.575  31.038  1.00  0.00    -0.014 A 
ATOM     78  C   UNL A   1      44.789  33.589  30.111  1.00  0.00     0.009 A 
ATOM     79  C   UNL A   1      44.442  32.899  32.403  1.00  0.00     0.009 A 
ATOM     80  C   UNL A   1      45.055  34.889  30.547  1.00  0.00     0.001 A 
ATOM     81  C   UNL A   1      44.678  34.205  32.832  1.00  0.00     0.001 A 
ATOM     82  C   UNL A   1      44.996  35.196  31.906  1.00  0.00     0.000 A 
ENDBRANCH  64  77
ENDBRANCH  38  39
ENDBRANCH  30  33
ENDBRANCH  28  29
ENDBRANCH  27  28
ENDBRANCH  26  27
ENDBRANCH   1  26
TORSDOF 16
ENDMDL
