MODEL 1
REMARK VINA RESULT:     -12.2      0.000      0.000
REMARK SMILES O=C(NCCCCCCNC(=O)c1ccc(-c2c3nc(c(-c4ccccc4)c4ccc([nH]4)c(-c4ccccc4)c4nc(c(-c5ccccc5)c5ccc2[nH]5)C=C4)C=C3)cc1)C1=Cc2cc(S(F)(F)(F)(F)F)cc(Br)c2O[C@@H]1C(F)(F)F
REMARK SMILES IDX 7 1 6 2 5 3 4 4 3 5 1 6 2 7 61 9 62 10 77 11 63 12 76 13
REMARK SMILES IDX 64 14 75 15 65 16 73 17 72 18 74 19 78 20 79 21 80 22 81 23
REMARK SMILES IDX 66 24 67 25 68 26 69 27 70 28 71 29 8 30 9 31 10 32 11 33
REMARK SMILES IDX 12 35 13 36 14 37 60 38 15 39 59 40 16 41 17 42 18 43 53 44
REMARK SMILES IDX 19 45 58 46 52 47 54 48 20 49 57 50 51 51 50 52 21 54 43 55
REMARK SMILES IDX 28 56 42 57 29 58 32 59 41 60 55 61 30 62 31 63 40 65 56 66
REMARK SMILES IDX 33 67 22 68 23 69 27 70 24 71 26 72 25 73 44 74 45 75 49 76
REMARK SMILES IDX 46 77 48 78 47 79 34 80 35 81 39 82 36 83 38 84 37 85
REMARK H PARENT 3 8 10 34 54 53 32 64
REMARK Flexibility Score: inf
ROOT
ATOM      1  C   UNL A   1      37.982  21.459  25.040  1.00  0.00     0.002 C 
ENDROOT
BRANCH   1   2
ATOM      2  C   UNL A   1      38.717  22.279  26.088  1.00  0.00     0.002 C 
BRANCH   2   3
ATOM      3  C   UNL A   1      38.081  23.655  26.189  1.00  0.00     0.021 C 
BRANCH   3   4
ATOM      4  C   UNL A   1      36.616  23.567  25.794  1.00  0.00     0.116 C 
BRANCH   4   5
ATOM      5  N   UNL A   1      36.497  23.660  24.331  1.00  0.00    -0.352 N 
ATOM      6  O   UNL A   1      35.208  23.194  22.391  1.00  0.00    -0.270 OA
ATOM      7  C   UNL A   1      35.311  23.114  23.655  1.00  0.00     0.251 C 
ATOM      8  H   UNL A   1      37.211  24.087  23.805  1.00  0.00     0.163 HD
BRANCH   7   9
ATOM      9  C   UNL A   1      34.208  22.454  24.467  1.00  0.00     0.067 C 
ATOM     10  C   UNL A   1      33.280  23.220  25.102  1.00  0.00     0.025 C 
ATOM     11  C   UNL A   1      34.142  20.939  24.568  1.00  0.00     0.314 C 
ATOM     12  C   UNL A   1      33.347  24.736  25.000  1.00  0.00     0.020 A 
ATOM     13  O   UNL A   1      33.999  24.547  22.722  1.00  0.00    -0.474 OA
ATOM     14  C   UNL A   1      33.071  25.478  26.136  1.00  0.00     0.036 A 
ATOM     15  C   UNL A   1      33.563  25.323  23.829  1.00  0.00     0.142 A 
ATOM     16  C   UNL A   1      32.759  26.832  25.874  1.00  0.00     0.109 A 
ATOM     17  C   UNL A   1      33.369  26.675  23.677  1.00  0.00     0.062 A 
ATOM     18  C   UNL A   1      33.038  27.461  24.746  1.00  0.00     0.044 A 
ATOM     19  Br  UNL A   1      33.569  27.487  21.905  1.00  0.00    -0.047 Br
BRANCH  11  20
ATOM     20  C   UNL A   1      32.816  20.452  24.008  1.00  0.00     0.429 C 
ATOM     21  F   UNL A   1      31.878  20.543  24.946  1.00  0.00    -0.167 F 
ATOM     22  F   UNL A   1      32.473  21.202  22.964  1.00  0.00    -0.167 F 
ATOM     23  F   UNL A   1      32.937  19.185  23.622  1.00  0.00    -0.167 F 
ENDBRANCH  11  20
BRANCH  16  24
ATOM     24  S   UNL A   1      31.919  27.770  27.174  1.00  0.00     0.310 S 
ATOM     25  F   UNL A   1      31.596  28.969  26.187  1.00  0.00    -0.094 F 
ATOM     26  F   UNL A   1      33.284  28.490  27.493  1.00  0.00    -0.094 F 
ATOM     27  F   UNL A   1      31.200  28.579  28.292  1.00  0.00    -0.094 F 
ATOM     28  F   UNL A   1      30.533  27.143  26.748  1.00  0.00    -0.094 F 
ATOM     29  F   UNL A   1      32.611  27.027  25.964  1.00  0.00    -0.094 F 
ENDBRANCH  16  24
ENDBRANCH   7   9
ENDBRANCH   4   5
ENDBRANCH   3   4
ENDBRANCH   2   3
ENDBRANCH   1   2
BRANCH   1  30
ATOM     30  C   UNL A   1      38.472  20.021  25.087  1.00  0.00     0.021 C 
BRANCH  30  31
ATOM     31  C   UNL A   1      39.420  19.846  26.263  1.00  0.00     0.116 C 
BRANCH  31  32
ATOM     32  N   UNL A   1      40.431  18.832  25.932  1.00  0.00    -0.352 N 
ATOM     33  C   UNL A   1      41.860  19.171  25.995  1.00  0.00     0.251 C 
ATOM     34  H   UNL A   1      40.151  17.926  25.667  1.00  0.00     0.163 HD
ATOM     35  O   UNL A   1      42.734  18.294  25.708  1.00  0.00    -0.269 OA
BRANCH  33  36
ATOM     36  C   UNL A   1      42.291  20.570  26.402  1.00  0.00     0.039 A 
ATOM     37  C   UNL A   1      42.428  20.874  27.747  1.00  0.00     0.014 A 
ATOM     38  C   UNL A   1      42.530  21.478  25.463  1.00  0.00     0.014 A 
ATOM     39  C   UNL A   1      42.543  22.260  28.013  1.00  0.00     0.010 A 
ATOM     40  C   UNL A   1      42.770  22.788  25.801  1.00  0.00     0.010 A 
ATOM     41  C   UNL A   1      42.859  23.171  27.110  1.00  0.00    -0.014 A 
BRANCH  41  42
ATOM     42  C   UNL A   1      43.298  24.571  27.507  1.00  0.00     0.031 A 
ATOM     43  C   UNL A   1      44.664  24.856  27.502  1.00  0.00     0.074 A 
ATOM     44  C   UNL A   1      42.319  25.487  27.854  1.00  0.00     0.049 A 
ATOM     45  N   UNL A   1      45.255  26.019  27.782  1.00  0.00    -0.248 NA
ATOM     46  C   UNL A   1      45.708  23.876  27.167  1.00  0.00     0.031 C 
ATOM     47  C   UNL A   1      40.937  25.211  27.854  1.00  0.00     0.029 A 
ATOM     48  N   UNL A   1      42.487  26.795  28.252  1.00  0.00    -0.354 N 
ATOM     49  C   UNL A   1      46.579  25.907  27.649  1.00  0.00     0.074 A 
ATOM     50  C   UNL A   1      46.890  24.526  27.258  1.00  0.00     0.031 C 
ATOM     51  C   UNL A   1      40.284  26.332  28.258  1.00  0.00     0.029 A 
ATOM     52  C   UNL A   1      41.245  27.327  28.515  1.00  0.00     0.049 A 
ATOM     53  H   UNL A   1      43.347  27.267  28.334  1.00  0.00     0.167 HD
ATOM     54  C   UNL A   1      47.538  26.903  27.838  1.00  0.00     0.031 A 
ATOM     55  C   UNL A   1      40.946  28.606  28.957  1.00  0.00     0.031 A 
ATOM     56  C   UNL A   1      47.236  28.195  28.238  1.00  0.00     0.049 A 
ATOM     57  C   UNL A   1      41.910  29.587  29.203  1.00  0.00     0.074 A 
ATOM     58  C   UNL A   1      48.189  29.214  28.425  1.00  0.00     0.029 A 
ATOM     59  N   UNL A   1      45.995  28.721  28.526  1.00  0.00    -0.354 N 
ATOM     60  N   UNL A   1      43.230  29.487  29.032  1.00  0.00    -0.248 NA
ATOM     61  C   UNL A   1      41.609  30.935  29.702  1.00  0.00     0.031 C 
ATOM     62  C   UNL A   1      47.535  30.336  28.829  1.00  0.00     0.029 A 
ATOM     63  C   UNL A   1      46.162  30.036  28.901  1.00  0.00     0.049 A 
ATOM     64  H   UNL A   1      45.138  28.240  28.472  1.00  0.00     0.167 HD
ATOM     65  C   UNL A   1      43.823  30.638  29.353  1.00  0.00     0.074 A 
ATOM     66  C   UNL A   1      42.790  31.584  29.795  1.00  0.00     0.031 C 
ATOM     67  C   UNL A   1      45.185  30.940  29.291  1.00  0.00     0.031 A 
BRANCH  54  68
ATOM     68  C   UNL A   1      48.995  26.552  27.589  1.00  0.00    -0.014 A 
ATOM     69  C   UNL A   1      49.475  26.703  26.298  1.00  0.00     0.009 A 
ATOM     70  C   UNL A   1      49.767  26.077  28.559  1.00  0.00     0.009 A 
ATOM     71  C   UNL A   1      50.706  26.047  26.064  1.00  0.00     0.001 A 
ATOM     72  C   UNL A   1      51.015  25.576  28.278  1.00  0.00     0.001 A 
ATOM     73  C   UNL A   1      51.529  25.637  27.013  1.00  0.00     0.000 A 
ENDBRANCH  54  68
BRANCH  55  74
ATOM     74  C   UNL A   1      39.486  28.962  29.189  1.00  0.00    -0.014 A 
ATOM     75  C   UNL A   1      38.873  28.756  30.414  1.00  0.00     0.009 A 
ATOM     76  C   UNL A   1      38.831  29.510  28.173  1.00  0.00     0.009 A 
ATOM     77  C   UNL A   1      37.465  28.901  30.381  1.00  0.00     0.001 A 
ATOM     78  C   UNL A   1      37.480  29.749  28.260  1.00  0.00     0.001 A 
ATOM     79  C   UNL A   1      36.798  29.515  29.420  1.00  0.00     0.000 A 
ENDBRANCH  55  74
BRANCH  67  80
ATOM     80  C   UNL A   1      45.623  32.343  29.672  1.00  0.00    -0.014 A 
ATOM     81  C   UNL A   1      45.964  32.616  30.987  1.00  0.00     0.009 A 
ATOM     82  C   UNL A   1      45.674  33.286  28.738  1.00  0.00     0.009 A 
ATOM     83  C   UNL A   1      46.070  33.996  31.278  1.00  0.00     0.001 A 
ATOM     84  C   UNL A   1      45.916  34.596  29.078  1.00  0.00     0.001 A 
ATOM     85  C   UNL A   1      46.202  34.946  30.369  1.00  0.00     0.000 A 
ENDBRANCH  67  80
ENDBRANCH  41  42
ENDBRANCH  33  36
ENDBRANCH  31  32
ENDBRANCH  30  31
ENDBRANCH   1  30
TORSDOF 15
ENDMDL
MODEL 2
REMARK VINA RESULT:     -12.2      4.489      9.106
REMARK SMILES O=C(NCCCCCCNC(=O)c1ccc(-c2c3nc(c(-c4ccccc4)c4ccc([nH]4)c(-c4ccccc4)c4nc(c(-c5ccccc5)c5ccc2[nH]5)C=C4)C=C3)cc1)C1=Cc2cc(S(F)(F)(F)(F)F)cc(Br)c2O[C@@H]1C(F)(F)F
REMARK SMILES IDX 7 1 6 2 5 3 4 4 3 5 1 6 2 7 61 9 62 10 77 11 63 12 76 13
REMARK SMILES IDX 64 14 75 15 65 16 73 17 72 18 74 19 78 20 79 21 80 22 81 23
REMARK SMILES IDX 66 24 67 25 68 26 69 27 70 28 71 29 8 30 9 31 10 32 11 33
REMARK SMILES IDX 12 35 13 36 14 37 60 38 15 39 59 40 16 41 17 42 18 43 53 44
REMARK SMILES IDX 19 45 58 46 52 47 54 48 20 49 57 50 51 51 50 52 21 54 43 55
REMARK SMILES IDX 28 56 42 57 29 58 32 59 41 60 55 61 30 62 31 63 40 65 56 66
REMARK SMILES IDX 33 67 22 68 23 69 27 70 24 71 26 72 25 73 44 74 45 75 49 76
REMARK SMILES IDX 46 77 48 78 47 79 34 80 35 81 39 82 36 83 38 84 37 85
REMARK H PARENT 3 8 10 34 54 53 32 64
REMARK Flexibility Score: inf
ROOT
ATOM      1  C   UNL A   1      31.761  30.924  26.188  1.00  0.00     0.002 C 
ENDROOT
BRANCH   1   2
ATOM      2  C   UNL A   1      32.715  30.289  27.186  1.00  0.00     0.002 C 
BRANCH   2   3
ATOM      3  C   UNL A   1      33.965  29.818  26.462  1.00  0.00     0.021 C 
BRANCH   3   4
ATOM      4  C   UNL A   1      33.898  28.313  26.263  1.00  0.00     0.116 C 
BRANCH   4   5
ATOM      5  N   UNL A   1      32.804  27.759  27.074  1.00  0.00    -0.352 N 
ATOM      6  O   UNL A   1      30.647  26.767  27.121  1.00  0.00    -0.270 OA
ATOM      7  C   UNL A   1      31.592  27.245  26.420  1.00  0.00     0.251 C 
ATOM      8  H   UNL A   1      32.883  27.734  28.055  1.00  0.00     0.163 HD
BRANCH   7   9
ATOM      9  C   UNL A   1      31.470  27.285  24.905  1.00  0.00     0.067 C 
ATOM     10  C   UNL A   1      32.169  26.399  24.143  1.00  0.00     0.025 C 
ATOM     11  C   UNL A   1      30.569  28.313  24.242  1.00  0.00     0.314 C 
ATOM     12  C   UNL A   1      33.070  25.371  24.807  1.00  0.00     0.020 A 
ATOM     13  O   UNL A   1      31.470  25.097  26.542  1.00  0.00    -0.474 OA
ATOM     14  C   UNL A   1      34.292  25.097  24.215  1.00  0.00     0.036 A 
ATOM     15  C   UNL A   1      32.648  24.687  25.864  1.00  0.00     0.142 A 
ATOM     16  C   UNL A   1      34.874  23.880  24.639  1.00  0.00     0.109 A 
ATOM     17  C   UNL A   1      33.341  23.586  26.308  1.00  0.00     0.062 A 
ATOM     18  C   UNL A   1      34.526  23.223  25.731  1.00  0.00     0.044 A 
ATOM     19  Br  UNL A   1      32.620  22.523  27.787  1.00  0.00    -0.047 Br
BRANCH  11  20
ATOM     20  C   UNL A   1      29.498  27.600  23.432  1.00  0.00     0.429 C 
ATOM     21  F   UNL A   1      29.102  26.510  24.084  1.00  0.00    -0.167 F 
ATOM     22  F   UNL A   1      28.460  28.413  23.257  1.00  0.00    -0.167 F 
ATOM     23  F   UNL A   1      29.995  27.254  22.248  1.00  0.00    -0.167 F 
ENDBRANCH  11  20
BRANCH  16  24
ATOM     24  S   UNL A   1      36.188  23.172  23.615  1.00  0.00     0.310 S 
ATOM     25  F   UNL A   1      36.070  21.761  24.330  1.00  0.00    -0.094 F 
ATOM     26  F   UNL A   1      37.229  23.573  24.728  1.00  0.00    -0.094 F 
ATOM     27  F   UNL A   1      37.319  22.564  22.737  1.00  0.00    -0.094 F 
ATOM     28  F   UNL A   1      35.116  22.654  22.577  1.00  0.00    -0.094 F 
ATOM     29  F   UNL A   1      35.018  23.684  24.546  1.00  0.00    -0.094 F 
ENDBRANCH  16  24
ENDBRANCH   7   9
ENDBRANCH   4   5
ENDBRANCH   3   4
ENDBRANCH   2   3
ENDBRANCH   1   2
BRANCH   1  30
ATOM     30  C   UNL A   1      31.378  32.315  26.666  1.00  0.00     0.021 C 
BRANCH  30  31
ATOM     31  C   UNL A   1      32.604  33.011  27.235  1.00  0.00     0.116 C 
BRANCH  31  32
ATOM     32  N   UNL A   1      32.206  34.291  27.838  1.00  0.00    -0.352 N 
ATOM     33  C   UNL A   1      33.070  34.931  28.841  1.00  0.00     0.251 C 
ATOM     34  H   UNL A   1      31.361  34.719  27.571  1.00  0.00     0.163 HD
ATOM     35  O   UNL A   1      32.725  36.038  29.362  1.00  0.00    -0.269 OA
BRANCH  33  36
ATOM     36  C   UNL A   1      34.374  34.269  29.253  1.00  0.00     0.039 A 
ATOM     37  C   UNL A   1      35.524  34.520  28.523  1.00  0.00     0.014 A 
ATOM     38  C   UNL A   1      34.390  33.461  30.306  1.00  0.00     0.014 A 
ATOM     39  C   UNL A   1      36.591  33.637  28.812  1.00  0.00     0.010 A 
ATOM     40  C   UNL A   1      35.512  32.730  30.611  1.00  0.00     0.010 A 
ATOM     41  C   UNL A   1      36.667  32.883  29.894  1.00  0.00    -0.014 A 
BRANCH  41  42
ATOM     42  C   UNL A   1      37.968  32.222  30.320  1.00  0.00     0.031 A 
ATOM     43  C   UNL A   1      38.299  30.996  29.743  1.00  0.00     0.074 A 
ATOM     44  C   UNL A   1      38.752  32.873  31.257  1.00  0.00     0.049 A 
ATOM     45  N   UNL A   1      39.399  30.269  29.950  1.00  0.00    -0.248 NA
ATOM     46  C   UNL A   1      37.452  30.286  28.773  1.00  0.00     0.031 C 
ATOM     47  C   UNL A   1      38.429  34.116  31.838  1.00  0.00     0.029 A 
ATOM     48  N   UNL A   1      39.952  32.459  31.790  1.00  0.00    -0.354 N 
ATOM     49  C   UNL A   1      39.368  29.163  29.203  1.00  0.00     0.074 A 
ATOM     50  C   UNL A   1      38.113  29.155  28.440  1.00  0.00     0.031 C 
ATOM     51  C   UNL A   1      39.414  34.439  32.717  1.00  0.00     0.029 A 
ATOM     52  C   UNL A   1      40.369  33.405  32.699  1.00  0.00     0.049 A 
ATOM     53  H   UNL A   1      40.429  31.629  31.561  1.00  0.00     0.167 HD
ATOM     54  C   UNL A   1      40.339  28.163  29.127  1.00  0.00     0.031 A 
ATOM     55  C   UNL A   1      41.515  33.386  33.479  1.00  0.00     0.031 A 
ATOM     56  C   UNL A   1      41.505  28.165  29.875  1.00  0.00     0.049 A 
ATOM     57  C   UNL A   1      42.458  32.356  33.447  1.00  0.00     0.074 A 
ATOM     58  C   UNL A   1      42.498  27.169  29.805  1.00  0.00     0.029 A 
ATOM     59  N   UNL A   1      41.910  29.100  30.802  1.00  0.00    -0.354 N 
ATOM     60  N   UNL A   1      42.447  31.271  32.671  1.00  0.00    -0.248 NA
ATOM     61  C   UNL A   1      43.658  32.309  34.292  1.00  0.00     0.031 C 
ATOM     62  C   UNL A   1      43.483  27.493  30.684  1.00  0.00     0.029 A 
ATOM     63  C   UNL A   1      43.122  28.696  31.318  1.00  0.00     0.049 A 
ATOM     64  H   UNL A   1      41.419  29.915  31.053  1.00  0.00     0.167 HD
ATOM     65  C   UNL A   1      43.526  30.525  32.909  1.00  0.00     0.074 A 
ATOM     66  C   UNL A   1      44.318  31.177  33.960  1.00  0.00     0.031 C 
ATOM     67  C   UNL A   1      43.886  29.326  32.289  1.00  0.00     0.031 A 
BRANCH  54  68
ATOM     68  C   UNL A   1      40.103  27.007  28.169  1.00  0.00    -0.014 A 
ATOM     69  C   UNL A   1      39.456  25.888  28.667  1.00  0.00     0.009 A 
ATOM     70  C   UNL A   1      40.540  27.048  26.916  1.00  0.00     0.009 A 
ATOM     71  C   UNL A   1      39.574  24.744  27.845  1.00  0.00     0.001 A 
ATOM     72  C   UNL A   1      40.501  25.926  26.124  1.00  0.00     0.001 A 
ATOM     73  C   UNL A   1      39.929  24.768  26.573  1.00  0.00     0.000 A 
ENDBRANCH  54  68
BRANCH  55  74
ATOM     74  C   UNL A   1      41.758  34.551  34.425  1.00  0.00    -0.014 A 
ATOM     75  C   UNL A   1      41.310  34.531  35.735  1.00  0.00     0.009 A 
ATOM     76  C   UNL A   1      42.448  35.580  33.948  1.00  0.00     0.009 A 
ATOM     77  C   UNL A   1      41.395  35.782  36.390  1.00  0.00     0.001 A 
ATOM     78  C   UNL A   1      42.607  36.722  34.696  1.00  0.00     0.001 A 
ATOM     79  C   UNL A   1      42.139  36.793  35.979  1.00  0.00     0.000 A 
ENDBRANCH  55  74
BRANCH  67  80
ATOM     80  C   UNL A   1      45.194  28.673  32.702  1.00  0.00    -0.014 A 
ATOM     81  C   UNL A   1      45.199  27.758  33.743  1.00  0.00     0.009 A 
ATOM     82  C   UNL A   1      46.312  28.989  32.059  1.00  0.00     0.009 A 
ATOM     83  C   UNL A   1      46.491  27.444  34.225  1.00  0.00     0.001 A 
ATOM     84  C   UNL A   1      47.530  28.535  32.507  1.00  0.00     0.001 A 
ATOM     85  C   UNL A   1      47.613  27.676  33.567  1.00  0.00     0.000 A 
ENDBRANCH  67  80
ENDBRANCH  41  42
ENDBRANCH  33  36
ENDBRANCH  31  32
ENDBRANCH  30  31
ENDBRANCH   1  30
TORSDOF 15
ENDMDL
MODEL 3
REMARK VINA RESULT:     -12.2      4.806      9.584
REMARK SMILES O=C(NCCCCCCNC(=O)c1ccc(-c2c3nc(c(-c4ccccc4)c4ccc([nH]4)c(-c4ccccc4)c4nc(c(-c5ccccc5)c5ccc2[nH]5)C=C4)C=C3)cc1)C1=Cc2cc(S(F)(F)(F)(F)F)cc(Br)c2O[C@@H]1C(F)(F)F
REMARK SMILES IDX 7 1 6 2 5 3 4 4 3 5 1 6 2 7 61 9 62 10 77 11 63 12 76 13
REMARK SMILES IDX 64 14 75 15 65 16 73 17 72 18 74 19 78 20 79 21 80 22 81 23
REMARK SMILES IDX 66 24 67 25 68 26 69 27 70 28 71 29 8 30 9 31 10 32 11 33
REMARK SMILES IDX 12 35 13 36 14 37 60 38 15 39 59 40 16 41 17 42 18 43 53 44
REMARK SMILES IDX 19 45 58 46 52 47 54 48 20 49 57 50 51 51 50 52 21 54 43 55
REMARK SMILES IDX 28 56 42 57 29 58 32 59 41 60 55 61 30 62 31 63 40 65 56 66
REMARK SMILES IDX 33 67 22 68 23 69 27 70 24 71 26 72 25 73 44 74 45 75 49 76
REMARK SMILES IDX 46 77 48 78 47 79 34 80 35 81 39 82 36 83 38 84 37 85
REMARK H PARENT 3 8 10 34 54 53 32 64
REMARK Flexibility Score: inf
ROOT
ATOM      1  C   UNL A   1      31.756  30.831  26.222  1.00  0.00     0.002 C 
ENDROOT
BRANCH   1   2
ATOM      2  C   UNL A   1      32.802  30.297  27.187  1.00  0.00     0.002 C 
BRANCH   2   3
ATOM      3  C   UNL A   1      34.014  29.819  26.405  1.00  0.00     0.021 C 
BRANCH   3   4
ATOM      4  C   UNL A   1      33.950  28.310  26.242  1.00  0.00     0.116 C 
BRANCH   4   5
ATOM      5  N   UNL A   1      32.850  27.775  27.057  1.00  0.00    -0.352 N 
ATOM      6  O   UNL A   1      30.681  26.809  27.111  1.00  0.00    -0.270 OA
ATOM      7  C   UNL A   1      31.632  27.271  26.407  1.00  0.00     0.251 C 
ATOM      8  H   UNL A   1      32.929  27.755  28.038  1.00  0.00     0.163 HD
BRANCH   7   9
ATOM      9  C   UNL A   1      31.510  27.302  24.891  1.00  0.00     0.067 C 
ATOM     10  C   UNL A   1      32.199  26.405  24.135  1.00  0.00     0.025 C 
ATOM     11  C   UNL A   1      30.617  28.334  24.222  1.00  0.00     0.314 C 
ATOM     12  C   UNL A   1      33.092  25.373  24.805  1.00  0.00     0.020 A 
ATOM     13  O   UNL A   1      31.489  25.125  26.542  1.00  0.00    -0.474 OA
ATOM     14  C   UNL A   1      34.311  25.084  24.215  1.00  0.00     0.036 A 
ATOM     15  C   UNL A   1      32.664  24.700  25.867  1.00  0.00     0.142 A 
ATOM     16  C   UNL A   1      34.882  23.865  24.647  1.00  0.00     0.109 A 
ATOM     17  C   UNL A   1      33.347  23.596  26.317  1.00  0.00     0.062 A 
ATOM     18  C   UNL A   1      34.528  23.218  25.743  1.00  0.00     0.044 A 
ATOM     19  Br  UNL A   1      32.616  22.548  27.804  1.00  0.00    -0.047 Br
BRANCH  11  20
ATOM     20  C   UNL A   1      29.540  27.625  23.417  1.00  0.00     0.429 C 
ATOM     21  F   UNL A   1      28.633  28.512  23.015  1.00  0.00    -0.167 F 
ATOM     22  F   UNL A   1      30.090  27.042  22.356  1.00  0.00    -0.167 F 
ATOM     23  F   UNL A   1      28.954  26.703  24.175  1.00  0.00    -0.167 F 
ENDBRANCH  11  20
BRANCH  16  24
ATOM     24  S   UNL A   1      36.189  23.138  23.627  1.00  0.00     0.310 S 
ATOM     25  F   UNL A   1      35.993  21.709  24.284  1.00  0.00    -0.094 F 
ATOM     26  F   UNL A   1      37.218  23.452  24.778  1.00  0.00    -0.094 F 
ATOM     27  F   UNL A   1      37.314  22.513  22.753  1.00  0.00    -0.094 F 
ATOM     28  F   UNL A   1      35.122  22.706  22.545  1.00  0.00    -0.094 F 
ATOM     29  F   UNL A   1      35.020  23.666  24.549  1.00  0.00    -0.094 F 
ENDBRANCH  16  24
ENDBRANCH   7   9
ENDBRANCH   4   5
ENDBRANCH   3   4
ENDBRANCH   2   3
ENDBRANCH   1   2
BRANCH   1  30
ATOM     30  C   UNL A   1      31.379  32.250  26.618  1.00  0.00     0.021 C 
BRANCH  30  31
ATOM     31  C   UNL A   1      32.578  32.933  27.258  1.00  0.00     0.116 C 
BRANCH  31  32
ATOM     32  N   UNL A   1      32.188  34.270  27.726  1.00  0.00    -0.352 N 
ATOM     33  C   UNL A   1      33.028  34.982  28.700  1.00  0.00     0.251 C 
ATOM     34  H   UNL A   1      31.364  34.689  27.387  1.00  0.00     0.163 HD
ATOM     35  O   UNL A   1      32.690  36.139  29.105  1.00  0.00    -0.269 OA
BRANCH  33  36
ATOM     36  C   UNL A   1      34.299  34.334  29.223  1.00  0.00     0.039 A 
ATOM     37  C   UNL A   1      35.494  34.547  28.556  1.00  0.00     0.014 A 
ATOM     38  C   UNL A   1      34.243  33.574  30.311  1.00  0.00     0.014 A 
ATOM     39  C   UNL A   1      36.535  33.673  28.952  1.00  0.00     0.010 A 
ATOM     40  C   UNL A   1      35.339  32.853  30.718  1.00  0.00     0.010 A 
ATOM     41  C   UNL A   1      36.537  32.969  30.069  1.00  0.00    -0.014 A 
BRANCH  41  42
ATOM     42  C   UNL A   1      37.804  32.323  30.606  1.00  0.00     0.031 A 
ATOM     43  C   UNL A   1      38.465  32.953  31.661  1.00  0.00     0.074 A 
ATOM     44  C   UNL A   1      38.233  31.146  30.017  1.00  0.00     0.049 A 
ATOM     45  N   UNL A   1      39.564  32.541  32.295  1.00  0.00    -0.248 NA
ATOM     46  C   UNL A   1      38.030  34.221  32.266  1.00  0.00     0.031 C 
ATOM     47  C   UNL A   1      37.568  30.499  28.956  1.00  0.00     0.029 A 
ATOM     48  N   UNL A   1      39.348  30.401  30.331  1.00  0.00    -0.354 N 
ATOM     49  C   UNL A   1      39.886  33.400  33.266  1.00  0.00     0.074 A 
ATOM     50  C   UNL A   1      38.907  34.496  33.257  1.00  0.00     0.031 C 
ATOM     51  C   UNL A   1      38.278  29.387  28.629  1.00  0.00     0.029 A 
ATOM     52  C   UNL A   1      39.398  29.320  29.479  1.00  0.00     0.049 A 
ATOM     53  H   UNL A   1      39.998  30.606  31.041  1.00  0.00     0.167 HD
ATOM     54  C   UNL A   1      40.956  33.311  34.157  1.00  0.00     0.031 A 
ATOM     55  C   UNL A   1      40.358  28.321  29.430  1.00  0.00     0.031 A 
ATOM     56  C   UNL A   1      41.892  32.289  34.136  1.00  0.00     0.049 A 
ATOM     57  C   UNL A   1      41.461  28.263  30.284  1.00  0.00     0.074 A 
ATOM     58  C   UNL A   1      42.971  32.179  35.033  1.00  0.00     0.029 A 
ATOM     59  N   UNL A   1      41.954  31.221  33.268  1.00  0.00    -0.354 N 
ATOM     60  N   UNL A   1      41.760  29.100  31.280  1.00  0.00    -0.248 NA
ATOM     61  C   UNL A   1      42.501  27.229  30.220  1.00  0.00     0.031 C 
ATOM     62  C   UNL A   1      43.681  31.067  34.706  1.00  0.00     0.029 A 
ATOM     63  C   UNL A   1      43.057  30.463  33.598  1.00  0.00     0.049 A 
ATOM     64  H   UNL A   1      41.321  31.032  32.539  1.00  0.00     0.167 HD
ATOM     65  C   UNL A   1      42.882  28.710  31.886  1.00  0.00     0.074 A 
ATOM     66  C   UNL A   1      43.380  27.505  31.209  1.00  0.00     0.031 C 
ATOM     67  C   UNL A   1      43.511  29.308  32.980  1.00  0.00     0.031 A 
BRANCH  54  68
ATOM     68  C   UNL A   1      41.102  34.395  35.212  1.00  0.00    -0.014 A 
ATOM     69  C   UNL A   1      40.453  34.200  36.420  1.00  0.00     0.009 A 
ATOM     70  C   UNL A   1      41.787  35.507  34.971  1.00  0.00     0.009 A 
ATOM     71  C   UNL A   1      40.343  35.369  37.208  1.00  0.00     0.001 A 
ATOM     72  C   UNL A   1      41.743  36.561  35.851  1.00  0.00     0.001 A 
ATOM     73  C   UNL A   1      41.071  36.458  37.038  1.00  0.00     0.000 A 
ENDBRANCH  54  68
BRANCH  55  74
ATOM     74  C   UNL A   1      40.201  27.228  28.386  1.00  0.00    -0.014 A 
ATOM     75  C   UNL A   1      39.516  26.055  28.657  1.00  0.00     0.009 A 
ATOM     76  C   UNL A   1      40.723  27.459  27.187  1.00  0.00     0.009 A 
ATOM     77  C   UNL A   1      39.683  25.052  27.673  1.00  0.00     0.001 A 
ATOM     78  C   UNL A   1      40.731  26.476  26.227  1.00  0.00     0.001 A 
ATOM     79  C   UNL A   1      40.124  25.272  26.447  1.00  0.00     0.000 A 
ENDBRANCH  55  74
BRANCH  67  80
ATOM     80  C   UNL A   1      44.769  28.654  33.526  1.00  0.00    -0.014 A 
ATOM     81  C   UNL A   1      44.657  27.675  34.499  1.00  0.00     0.009 A 
ATOM     82  C   UNL A   1      45.954  29.031  33.062  1.00  0.00     0.009 A 
ATOM     83  C   UNL A   1      45.880  27.353  35.133  1.00  0.00     0.001 A 
ATOM     84  C   UNL A   1      47.112  28.572  33.643  1.00  0.00     0.001 A 
ATOM     85  C   UNL A   1      47.074  27.647  34.650  1.00  0.00     0.000 A 
ENDBRANCH  67  80
ENDBRANCH  41  42
ENDBRANCH  33  36
ENDBRANCH  31  32
ENDBRANCH  30  31
ENDBRANCH   1  30
TORSDOF 15
ENDMDL
