MODEL 1
REMARK VINA RESULT:     -13.3      0.000      0.000
REMARK SMILES Cc1ccc(-c2cnnc(-n3nc(C)c4c3NC(=O)C[C@@H]4c3ccc(C(=O)NCCCCCCNC(=O)c4ccc(-c5c6nc(c(-c7ccccc7)c7ccc([nH]7)c(-c7ccccc7)c7nc(c(-c8ccccc8)c8ccc5[nH]8)C=C7)C=C6)cc4)cc3)n2)cc1
REMARK SMILES IDX 31 1 30 2 29 3 28 4 26 5 27 6 25 8 22 9 23 10 87 11 24 12
REMARK SMILES IDX 86 13 21 14 11 15 12 16 16 17 13 18 15 19 17 20 14 21 18 22
REMARK SMILES IDX 20 24 19 25 10 26 6 27 7 28 88 29 8 30 9 31 5 32 1 33 2 34
REMARK SMILES IDX 3 35 90 36 4 37 89 38 32 39 33 40 34 41 35 42 36 43 37 45
REMARK SMILES IDX 38 46 39 47 85 48 40 49 84 50 41 51 42 52 43 53 78 54 44 55
REMARK SMILES IDX 83 56 77 57 79 58 45 59 82 60 76 61 75 62 46 64 68 65 53 66
REMARK SMILES IDX 67 67 54 68 57 69 66 70 80 71 55 72 56 73 65 75 81 76 58 77
REMARK SMILES IDX 47 78 48 79 52 80 49 81 51 82 50 83 69 84 70 85 74 86 71 87
REMARK SMILES IDX 73 88 72 89 59 90 60 91 64 92 61 93 63 94 62 95
REMARK H PARENT 28 7 17 23 35 44 79 63 57 74
REMARK Flexibility Score: inf
ROOT
ATOM      1  C   UNL A   1      31.684  29.044  25.755  1.00  0.00     0.002 C 
ENDROOT
BRANCH   1   2
ATOM      2  C   UNL A   1      32.359  29.244  24.390  1.00  0.00     0.021 C 
BRANCH   2   3
ATOM      3  C   UNL A   1      31.979  28.192  23.348  1.00  0.00     0.116 C 
BRANCH   3   4
ATOM      4  N   UNL A   1      30.534  28.047  23.250  1.00  0.00    -0.352 N 
ATOM      5  C   UNL A   1      29.699  27.021  23.617  1.00  0.00     0.251 C 
ATOM      6  O   UNL A   1      28.483  27.182  23.572  1.00  0.00    -0.269 OA
ATOM      7  H   UNL A   1      30.075  28.821  22.850  1.00  0.00     0.163 HD
BRANCH   5   8
ATOM      8  C   UNL A   1      30.242  25.747  24.137  1.00  0.00     0.039 A 
ATOM      9  C   UNL A   1      31.636  23.559  25.205  1.00  0.00    -0.040 A 
ATOM     10  C   UNL A   1      30.984  24.476  26.051  1.00  0.00     0.005 A 
ATOM     11  C   UNL A   1      31.401  23.654  23.826  1.00  0.00     0.005 A 
ATOM     12  C   UNL A   1      30.285  25.561  25.521  1.00  0.00     0.014 A 
ATOM     13  C   UNL A   1      30.719  24.746  23.296  1.00  0.00     0.014 A 
BRANCH   9  14
ATOM     14  C   UNL A   1      32.586  22.565  25.839  1.00  0.00     0.064 C 
ATOM     15  N   UNL A   1      36.051  22.447  24.809  1.00  0.00    -0.180 N 
ATOM     16  N   UNL A   1      36.032  23.792  25.025  1.00  0.00    -0.168 NA
ATOM     17  C   UNL A   1      34.748  22.008  24.650  1.00  0.00     0.143 A 
ATOM     18  C   UNL A   1      34.819  24.024  25.536  1.00  0.00     0.066 A 
ATOM     19  C   UNL A   1      33.994  22.867  25.433  1.00  0.00     0.026 A 
ATOM     20  N   UNL A   1      34.131  21.020  23.905  1.00  0.00    -0.310 N 
ATOM     21  C   UNL A   1      34.503  25.411  25.959  1.00  0.00     0.069 C 
ATOM     22  C   UNL A   1      32.734  20.762  24.139  1.00  0.00     0.226 C 
ATOM     23  H   UNL A   1      34.634  20.506  23.233  1.00  0.00     0.171 HD
ATOM     24  C   UNL A   1      32.232  21.114  25.519  1.00  0.00     0.113 C 
ATOM     25  O   UNL A   1      32.103  20.209  23.271  1.00  0.00    -0.275 OA
BRANCH  15  26
ATOM     26  C   UNL A   1      37.186  21.676  25.208  1.00  0.00     0.272 A 
ATOM     27  C   UNL A   1      39.369  21.403  25.821  1.00  0.00     0.095 A 
ATOM     28  C   UNL A   1      39.269  20.051  25.539  1.00  0.00     0.164 A 
ATOM     29  N   UNL A   1      38.334  22.268  25.605  1.00  0.00    -0.208 NA
ATOM     30  N   UNL A   1      38.119  19.519  25.111  1.00  0.00    -0.153 NA
ATOM     31  N   UNL A   1      37.057  20.339  24.989  1.00  0.00    -0.109 NA
BRANCH  27  32
ATOM     32  C   UNL A   1      40.566  21.929  26.489  1.00  0.00     0.002 A 
ATOM     33  C   UNL A   1      44.065  23.320  28.629  1.00  0.00     0.044 C 
ATOM     34  C   UNL A   1      42.850  22.817  27.906  1.00  0.00    -0.051 A 
ATOM     35  C   UNL A   1      42.990  22.104  26.711  1.00  0.00     0.004 A 
ATOM     36  C   UNL A   1      41.567  23.070  28.399  1.00  0.00     0.004 A 
ATOM     37  C   UNL A   1      41.861  21.662  26.013  1.00  0.00     0.011 A 
ATOM     38  C   UNL A   1      40.441  22.634  27.696  1.00  0.00     0.011 A 
ENDBRANCH  27  32
ENDBRANCH  15  26
ENDBRANCH   9  14
ENDBRANCH   5   8
ENDBRANCH   3   4
ENDBRANCH   2   3
ENDBRANCH   1   2
BRANCH   1  39
ATOM     39  C   UNL A   1      32.626  28.715  26.923  1.00  0.00     0.002 C 
BRANCH  39  40
ATOM     40  C   UNL A   1      34.117  28.856  26.623  1.00  0.00     0.021 C 
BRANCH  40  41
ATOM     41  C   UNL A   1      34.767  30.018  27.348  1.00  0.00     0.116 C 
BRANCH  41  42
ATOM     42  N   UNL A   1      34.005  31.254  27.253  1.00  0.00    -0.352 N 
ATOM     43  C   UNL A   1      34.012  32.385  28.043  1.00  0.00     0.251 C 
ATOM     44  H   UNL A   1      33.377  31.288  26.496  1.00  0.00     0.163 HD
ATOM     45  O   UNL A   1      33.141  33.234  27.862  1.00  0.00    -0.269 OA
BRANCH  43  46
ATOM     46  C   UNL A   1      35.160  32.697  28.937  1.00  0.00     0.039 A 
ATOM     47  C   UNL A   1      36.254  33.343  28.336  1.00  0.00     0.014 A 
ATOM     48  C   UNL A   1      35.345  31.985  30.111  1.00  0.00     0.014 A 
ATOM     49  C   UNL A   1      37.540  32.981  28.705  1.00  0.00     0.010 A 
ATOM     50  C   UNL A   1      36.583  31.461  30.340  1.00  0.00     0.010 A 
ATOM     51  C   UNL A   1      37.666  31.933  29.604  1.00  0.00    -0.014 A 
BRANCH  51  52
ATOM     52  C   UNL A   1      38.901  31.298  29.978  1.00  0.00     0.031 A 
ATOM     53  C   UNL A   1      39.199  30.028  29.299  1.00  0.00     0.074 A 
ATOM     54  C   UNL A   1      39.770  31.994  30.739  1.00  0.00     0.049 A 
ATOM     55  N   UNL A   1      39.974  29.127  29.776  1.00  0.00    -0.248 NA
ATOM     56  C   UNL A   1      38.575  29.628  28.031  1.00  0.00     0.031 C 
ATOM     57  C   UNL A   1      41.197  31.773  30.928  1.00  0.00     0.029 A 
ATOM     58  N   UNL A   1      39.485  33.006  31.641  1.00  0.00    -0.354 N 
ATOM     59  C   UNL A   1      40.237  28.250  28.748  1.00  0.00     0.074 A 
ATOM     60  C   UNL A   1      39.236  28.503  27.746  1.00  0.00     0.031 C 
ATOM     61  C   UNL A   1      41.601  32.422  32.038  1.00  0.00     0.029 A 
ATOM     62  C   UNL A   1      40.414  32.966  32.683  1.00  0.00     0.049 A 
ATOM     63  H   UNL A   1      38.746  33.650  31.560  1.00  0.00     0.167 HD
ATOM     64  C   UNL A   1      41.405  27.560  28.778  1.00  0.00     0.031 A 
ATOM     65  C   UNL A   1      40.012  32.636  33.952  1.00  0.00     0.031 A 
ATOM     66  C   UNL A   1      42.159  27.913  29.975  1.00  0.00     0.049 A 
ATOM     67  C   UNL A   1      40.553  31.287  34.376  1.00  0.00     0.074 A 
ATOM     68  C   UNL A   1      43.170  28.838  30.176  1.00  0.00     0.029 A 
ATOM     69  N   UNL A   1      41.636  27.605  31.220  1.00  0.00    -0.354 N 
ATOM     70  N   UNL A   1      40.833  30.324  33.538  1.00  0.00    -0.248 NA
ATOM     71  C   UNL A   1      40.868  30.937  35.758  1.00  0.00     0.031 C 
ATOM     72  C   UNL A   1      43.220  29.123  31.563  1.00  0.00     0.029 A 
ATOM     73  C   UNL A   1      42.255  28.358  32.195  1.00  0.00     0.049 A 
ATOM     74  H   UNL A   1      40.926  26.944  31.386  1.00  0.00     0.167 HD
ATOM     75  C   UNL A   1      41.408  29.285  34.221  1.00  0.00     0.074 A 
ATOM     76  C   UNL A   1      41.379  29.701  35.612  1.00  0.00     0.031 C 
ATOM     77  C   UNL A   1      41.904  28.180  33.593  1.00  0.00     0.031 A 
BRANCH  64  78
ATOM     78  C   UNL A   1      42.027  26.836  27.618  1.00  0.00    -0.014 A 
ATOM     79  C   UNL A   1      43.433  26.833  27.513  1.00  0.00     0.009 A 
ATOM     80  C   UNL A   1      41.329  26.165  26.602  1.00  0.00     0.009 A 
ATOM     81  C   UNL A   1      44.103  26.245  26.438  1.00  0.00     0.001 A 
ATOM     82  C   UNL A   1      41.994  25.584  25.512  1.00  0.00     0.001 A 
ATOM     83  C   UNL A   1      43.381  25.628  25.429  1.00  0.00     0.000 A 
ENDBRANCH  64  78
BRANCH  65  84
ATOM     84  C   UNL A   1      38.641  33.149  34.262  1.00  0.00    -0.014 A 
ATOM     85  C   UNL A   1      38.369  34.497  33.944  1.00  0.00     0.009 A 
ATOM     86  C   UNL A   1      37.562  32.256  34.364  1.00  0.00     0.009 A 
ATOM     87  C   UNL A   1      37.089  34.888  33.542  1.00  0.00     0.001 A 
ATOM     88  C   UNL A   1      36.279  32.661  33.972  1.00  0.00     0.001 A 
ATOM     89  C   UNL A   1      36.056  33.957  33.508  1.00  0.00     0.000 A 
ENDBRANCH  65  84
BRANCH  77  90
ATOM     90  C   UNL A   1      42.215  26.849  34.232  1.00  0.00    -0.014 A 
ATOM     91  C   UNL A   1      41.340  26.160  35.076  1.00  0.00     0.009 A 
ATOM     92  C   UNL A   1      43.397  26.163  33.855  1.00  0.00     0.009 A 
ATOM     93  C   UNL A   1      41.655  24.884  35.563  1.00  0.00     0.001 A 
ATOM     94  C   UNL A   1      43.682  24.868  34.282  1.00  0.00     0.001 A 
ATOM     95  C   UNL A   1      42.817  24.235  35.157  1.00  0.00     0.000 A 
ENDBRANCH  77  90
ENDBRANCH  51  52
ENDBRANCH  43  46
ENDBRANCH  41  42
ENDBRANCH  40  41
ENDBRANCH  39  40
ENDBRANCH   1  39
TORSDOF 16
ENDMDL
MODEL 2
REMARK VINA RESULT:     -13.3      2.618      9.456
REMARK SMILES Cc1ccc(-c2cnnc(-n3nc(C)c4c3NC(=O)C[C@@H]4c3ccc(C(=O)NCCCCCCNC(=O)c4ccc(-c5c6nc(c(-c7ccccc7)c7ccc([nH]7)c(-c7ccccc7)c7nc(c(-c8ccccc8)c8ccc5[nH]8)C=C7)C=C6)cc4)cc3)n2)cc1
REMARK SMILES IDX 31 1 30 2 29 3 28 4 26 5 27 6 25 8 22 9 23 10 87 11 24 12
REMARK SMILES IDX 86 13 21 14 11 15 12 16 16 17 13 18 15 19 17 20 14 21 18 22
REMARK SMILES IDX 20 24 19 25 10 26 6 27 7 28 88 29 8 30 9 31 5 32 1 33 2 34
REMARK SMILES IDX 3 35 90 36 4 37 89 38 32 39 33 40 34 41 35 42 36 43 37 45
REMARK SMILES IDX 38 46 39 47 85 48 40 49 84 50 41 51 42 52 43 53 78 54 44 55
REMARK SMILES IDX 83 56 77 57 79 58 45 59 82 60 76 61 75 62 46 64 68 65 53 66
REMARK SMILES IDX 67 67 54 68 57 69 66 70 80 71 55 72 56 73 65 75 81 76 58 77
REMARK SMILES IDX 47 78 48 79 52 80 49 81 51 82 50 83 69 84 70 85 74 86 71 87
REMARK SMILES IDX 73 88 72 89 59 90 60 91 64 92 61 93 63 94 62 95
REMARK H PARENT 28 7 17 23 35 44 79 63 57 74
REMARK Flexibility Score: inf
ROOT
ATOM      1  C   UNL A   1      35.028  21.853  25.141  1.00  0.00     0.002 C 
ENDROOT
BRANCH   1   2
ATOM      2  C   UNL A   1      34.006  22.790  25.798  1.00  0.00     0.021 C 
BRANCH   2   3
ATOM      3  C   UNL A   1      32.572  22.258  25.782  1.00  0.00     0.116 C 
BRANCH   3   4
ATOM      4  N   UNL A   1      32.255  21.641  24.502  1.00  0.00    -0.352 N 
ATOM      5  C   UNL A   1      32.127  22.178  23.244  1.00  0.00     0.251 C 
ATOM      6  O   UNL A   1      31.997  21.434  22.277  1.00  0.00    -0.269 OA
ATOM      7  H   UNL A   1      32.105  20.670  24.546  1.00  0.00     0.163 HD
BRANCH   5   8
ATOM      8  C   UNL A   1      32.220  23.638  23.027  1.00  0.00     0.039 A 
ATOM      9  C   UNL A   1      32.651  26.410  22.970  1.00  0.00    -0.040 A 
ATOM     10  C   UNL A   1      33.593  25.526  22.408  1.00  0.00     0.005 A 
ATOM     11  C   UNL A   1      31.414  25.886  23.370  1.00  0.00     0.005 A 
ATOM     12  C   UNL A   1      33.375  24.148  22.431  1.00  0.00     0.014 A 
ATOM     13  C   UNL A   1      31.204  24.510  23.409  1.00  0.00     0.014 A 
BRANCH   9  14
ATOM     14  C   UNL A   1      33.060  27.857  23.148  1.00  0.00     0.064 C 
ATOM     15  N   UNL A   1      32.366  29.574  26.255  1.00  0.00    -0.180 N 
ATOM     16  N   UNL A   1      32.955  28.494  26.839  1.00  0.00    -0.168 NA
ATOM     17  C   UNL A   1      31.967  29.220  24.977  1.00  0.00     0.143 A 
ATOM     18  C   UNL A   1      33.395  27.764  25.810  1.00  0.00     0.066 A 
ATOM     19  C   UNL A   1      32.890  28.267  24.577  1.00  0.00     0.026 A 
ATOM     20  N   UNL A   1      30.917  29.567  24.147  1.00  0.00    -0.310 N 
ATOM     21  C   UNL A   1      34.166  26.533  26.117  1.00  0.00     0.069 C 
ATOM     22  C   UNL A   1      30.936  29.092  22.789  1.00  0.00     0.226 C 
ATOM     23  H   UNL A   1      30.175  30.125  24.477  1.00  0.00     0.171 HD
ATOM     24  C   UNL A   1      32.306  28.808  22.220  1.00  0.00     0.113 C 
ATOM     25  O   UNL A   1      29.891  29.047  22.186  1.00  0.00    -0.275 OA
BRANCH  15  26
ATOM     26  C   UNL A   1      32.631  30.888  26.751  1.00  0.00     0.272 A 
ATOM     27  C   UNL A   1      33.701  32.399  28.087  1.00  0.00     0.095 A 
ATOM     28  C   UNL A   1      32.699  33.320  27.831  1.00  0.00     0.164 A 
ATOM     29  N   UNL A   1      33.661  31.126  27.593  1.00  0.00    -0.208 NA
ATOM     30  N   UNL A   1      31.679  33.022  27.019  1.00  0.00    -0.153 NA
ATOM     31  N   UNL A   1      31.675  31.804  26.441  1.00  0.00    -0.109 NA
BRANCH  27  32
ATOM     32  C   UNL A   1      34.915  32.812  28.802  1.00  0.00     0.002 A 
ATOM     33  C   UNL A   1      38.517  34.209  30.761  1.00  0.00     0.044 C 
ATOM     34  C   UNL A   1      37.269  33.748  30.066  1.00  0.00    -0.051 A 
ATOM     35  C   UNL A   1      36.025  33.899  30.685  1.00  0.00     0.004 A 
ATOM     36  C   UNL A   1      37.332  33.145  28.807  1.00  0.00     0.004 A 
ATOM     37  C   UNL A   1      34.861  33.440  30.059  1.00  0.00     0.011 A 
ATOM     38  C   UNL A   1      36.169  32.680  28.186  1.00  0.00     0.011 A 
ENDBRANCH  27  32
ENDBRANCH  15  26
ENDBRANCH   9  14
ENDBRANCH   5   8
ENDBRANCH   3   4
ENDBRANCH   2   3
ENDBRANCH   1   2
BRANCH   1  39
ATOM     39  C   UNL A   1      36.299  22.526  24.601  1.00  0.00     0.002 C 
BRANCH  39  40
ATOM     40  C   UNL A   1      36.830  23.690  25.435  1.00  0.00     0.021 C 
BRANCH  40  41
ATOM     41  C   UNL A   1      38.138  23.379  26.134  1.00  0.00     0.116 C 
BRANCH  41  42
ATOM     42  N   UNL A   1      38.493  21.969  26.092  1.00  0.00    -0.352 N 
ATOM     43  C   UNL A   1      39.722  21.342  26.119  1.00  0.00     0.251 C 
ATOM     44  H   UNL A   1      37.724  21.358  26.031  1.00  0.00     0.163 HD
ATOM     45  O   UNL A   1      39.772  20.136  25.888  1.00  0.00    -0.269 OA
BRANCH  43  46
ATOM     46  C   UNL A   1      40.933  22.038  26.633  1.00  0.00     0.039 A 
ATOM     47  C   UNL A   1      41.137  21.978  28.022  1.00  0.00     0.014 A 
ATOM     48  C   UNL A   1      41.521  23.054  25.897  1.00  0.00     0.014 A 
ATOM     49  C   UNL A   1      41.609  23.100  28.685  1.00  0.00     0.010 A 
ATOM     50  C   UNL A   1      41.781  24.227  26.541  1.00  0.00     0.010 A 
ATOM     51  C   UNL A   1      41.781  24.251  27.933  1.00  0.00    -0.014 A 
BRANCH  51  52
ATOM     52  C   UNL A   1      42.094  25.554  28.457  1.00  0.00     0.031 A 
ATOM     53  C   UNL A   1      40.952  26.462  28.637  1.00  0.00     0.074 A 
ATOM     54  C   UNL A   1      43.338  25.766  28.934  1.00  0.00     0.049 A 
ATOM     55  N   UNL A   1      41.052  27.740  28.665  1.00  0.00    -0.248 NA
ATOM     56  C   UNL A   1      39.561  25.999  28.727  1.00  0.00     0.031 C 
ATOM     57  C   UNL A   1      43.800  26.803  29.846  1.00  0.00     0.029 A 
ATOM     58  N   UNL A   1      44.510  25.133  28.555  1.00  0.00    -0.354 N 
ATOM     59  C   UNL A   1      39.851  28.217  29.141  1.00  0.00     0.074 A 
ATOM     60  C   UNL A   1      38.915  27.133  29.014  1.00  0.00     0.031 C 
ATOM     61  C   UNL A   1      45.141  26.901  29.758  1.00  0.00     0.029 A 
ATOM     62  C   UNL A   1      45.575  26.028  28.676  1.00  0.00     0.049 A 
ATOM     63  H   UNL A   1      44.580  24.200  28.250  1.00  0.00     0.167 HD
ATOM     64  C   UNL A   1      39.849  29.411  29.786  1.00  0.00     0.031 A 
ATOM     65  C   UNL A   1      46.239  26.463  27.558  1.00  0.00     0.031 A 
ATOM     66  C   UNL A   1      41.199  29.959  29.819  1.00  0.00     0.049 A 
ATOM     67  C   UNL A   1      45.974  27.929  27.288  1.00  0.00     0.074 A 
ATOM     68  C   UNL A   1      42.186  29.897  30.789  1.00  0.00     0.029 A 
ATOM     69  N   UNL A   1      41.820  30.302  28.629  1.00  0.00    -0.354 N 
ATOM     70  N   UNL A   1      44.877  28.544  27.643  1.00  0.00    -0.248 NA
ATOM     71  C   UNL A   1      46.935  28.823  26.648  1.00  0.00     0.031 C 
ATOM     72  C   UNL A   1      43.425  30.161  30.156  1.00  0.00     0.029 A 
ATOM     73  C   UNL A   1      43.182  30.401  28.815  1.00  0.00     0.049 A 
ATOM     74  H   UNL A   1      41.356  30.455  27.775  1.00  0.00     0.167 HD
ATOM     75  C   UNL A   1      44.996  29.879  27.359  1.00  0.00     0.074 A 
ATOM     76  C   UNL A   1      46.287  30.000  26.707  1.00  0.00     0.031 C 
ATOM     77  C   UNL A   1      44.046  30.792  27.716  1.00  0.00     0.031 A 
BRANCH  64  78
ATOM     78  C   UNL A   1      38.745  29.933  30.661  1.00  0.00    -0.014 A 
ATOM     79  C   UNL A   1      39.099  30.605  31.848  1.00  0.00     0.009 A 
ATOM     80  C   UNL A   1      37.370  29.799  30.412  1.00  0.00     0.009 A 
ATOM     81  C   UNL A   1      38.148  31.069  32.759  1.00  0.00     0.001 A 
ATOM     82  C   UNL A   1      36.408  30.250  31.328  1.00  0.00     0.001 A 
ATOM     83  C   UNL A   1      36.798  30.882  32.504  1.00  0.00     0.000 A 
ENDBRANCH  64  78
BRANCH  65  84
ATOM     84  C   UNL A   1      46.340  25.400  26.511  1.00  0.00    -0.014 A 
ATOM     85  C   UNL A   1      46.798  24.130  26.923  1.00  0.00     0.009 A 
ATOM     86  C   UNL A   1      45.561  25.484  25.346  1.00  0.00     0.009 A 
ATOM     87  C   UNL A   1      46.323  22.968  26.308  1.00  0.00     0.001 A 
ATOM     88  C   UNL A   1      45.099  24.313  24.727  1.00  0.00     0.001 A 
ATOM     89  C   UNL A   1      45.433  23.061  25.242  1.00  0.00     0.000 A 
ENDBRANCH  65  84
BRANCH  77  90
ATOM     90  C   UNL A   1      43.886  32.184  27.156  1.00  0.00    -0.014 A 
ATOM     91  C   UNL A   1      43.760  33.335  27.940  1.00  0.00     0.009 A 
ATOM     92  C   UNL A   1      44.015  32.385  25.760  1.00  0.00     0.009 A 
ATOM     93  C   UNL A   1      43.707  34.608  27.358  1.00  0.00     0.001 A 
ATOM     94  C   UNL A   1      44.031  33.653  25.182  1.00  0.00     0.001 A 
ATOM     95  C   UNL A   1      43.855  34.768  25.983  1.00  0.00     0.000 A 
ENDBRANCH  77  90
ENDBRANCH  51  52
ENDBRANCH  43  46
ENDBRANCH  41  42
ENDBRANCH  40  41
ENDBRANCH  39  40
ENDBRANCH   1  39
TORSDOF 16
ENDMDL
MODEL 3
REMARK VINA RESULT:     -11.4      2.157      5.716
REMARK SMILES Cc1ccc(-c2cnnc(-n3nc(C)c4c3NC(=O)C[C@@H]4c3ccc(C(=O)NCCCCCCNC(=O)c4ccc(-c5c6nc(c(-c7ccccc7)c7ccc([nH]7)c(-c7ccccc7)c7nc(c(-c8ccccc8)c8ccc5[nH]8)C=C7)C=C6)cc4)cc3)n2)cc1
REMARK SMILES IDX 31 1 30 2 29 3 28 4 26 5 27 6 25 8 22 9 23 10 87 11 24 12
REMARK SMILES IDX 86 13 21 14 11 15 12 16 16 17 13 18 15 19 17 20 14 21 18 22
REMARK SMILES IDX 20 24 19 25 10 26 6 27 7 28 88 29 8 30 9 31 5 32 1 33 2 34
REMARK SMILES IDX 3 35 90 36 4 37 89 38 32 39 33 40 34 41 35 42 36 43 37 45
REMARK SMILES IDX 38 46 39 47 85 48 40 49 84 50 41 51 42 52 43 53 78 54 44 55
REMARK SMILES IDX 83 56 77 57 79 58 45 59 82 60 76 61 75 62 46 64 68 65 53 66
REMARK SMILES IDX 67 67 54 68 57 69 66 70 80 71 55 72 56 73 65 75 81 76 58 77
REMARK SMILES IDX 47 78 48 79 52 80 49 81 51 82 50 83 69 84 70 85 74 86 71 87
REMARK SMILES IDX 73 88 72 89 59 90 60 91 64 92 61 93 63 94 62 95
REMARK H PARENT 28 7 17 23 35 44 79 63 57 74
REMARK Flexibility Score: inf
ROOT
ATOM      1  C   UNL A   1      33.943  28.682  25.046  1.00  0.00     0.002 C 
ENDROOT
BRANCH   1   2
ATOM      2  C   UNL A   1      32.796  29.124  24.127  1.00  0.00     0.021 C 
BRANCH   2   3
ATOM      3  C   UNL A   1      31.572  29.661  24.872  1.00  0.00     0.116 C 
BRANCH   3   4
ATOM      4  N   UNL A   1      30.424  29.774  23.984  1.00  0.00    -0.352 N 
ATOM      5  C   UNL A   1      29.734  28.825  23.269  1.00  0.00     0.251 C 
ATOM      6  O   UNL A   1      28.695  29.136  22.695  1.00  0.00    -0.269 OA
ATOM      7  H   UNL A   1      30.083  30.691  23.876  1.00  0.00     0.163 HD
BRANCH   5   8
ATOM      8  C   UNL A   1      30.184  27.416  23.243  1.00  0.00     0.039 A 
ATOM      9  C   UNL A   1      31.325  24.866  23.497  1.00  0.00    -0.040 A 
ATOM     10  C   UNL A   1      30.329  25.299  24.394  1.00  0.00     0.005 A 
ATOM     11  C   UNL A   1      31.580  25.655  22.366  1.00  0.00     0.005 A 
ATOM     12  C   UNL A   1      29.757  26.565  24.264  1.00  0.00     0.014 A 
ATOM     13  C   UNL A   1      31.023  26.925  22.246  1.00  0.00     0.014 A 
BRANCH   9  14
ATOM     14  C   UNL A   1      32.086  23.603  23.842  1.00  0.00     0.064 C 
ATOM     15  N   UNL A   1      35.565  23.782  24.812  1.00  0.00    -0.180 N 
ATOM     16  N   UNL A   1      35.143  24.732  25.691  1.00  0.00    -0.168 NA
ATOM     17  C   UNL A   1      34.614  23.652  23.814  1.00  0.00     0.143 A 
ATOM     18  C   UNL A   1      33.813  24.734  25.558  1.00  0.00     0.066 A 
ATOM     19  C   UNL A   1      33.413  23.949  24.438  1.00  0.00     0.026 A 
ATOM     20  N   UNL A   1      34.645  23.361  22.462  1.00  0.00    -0.310 N 
ATOM     21  C   UNL A   1      33.031  25.625  26.451  1.00  0.00     0.069 C 
ATOM     22  C   UNL A   1      33.395  23.152  21.782  1.00  0.00     0.226 C 
ATOM     23  H   UNL A   1      35.501  23.299  21.979  1.00  0.00     0.171 HD
ATOM     24  C   UNL A   1      32.257  22.665  22.648  1.00  0.00     0.113 C 
ATOM     25  O   UNL A   1      33.370  23.284  20.582  1.00  0.00    -0.275 OA
BRANCH  15  26
ATOM     26  C   UNL A   1      36.541  22.819  25.215  1.00  0.00     0.272 A 
ATOM     27  C   UNL A   1      38.579  22.176  26.019  1.00  0.00     0.095 A 
ATOM     28  C   UNL A   1      38.358  20.899  25.530  1.00  0.00     0.164 A 
ATOM     29  N   UNL A   1      37.690  23.194  25.820  1.00  0.00    -0.208 NA
ATOM     30  N   UNL A   1      37.218  20.588  24.903  1.00  0.00    -0.153 NA
ATOM     31  N   UNL A   1      36.284  21.553  24.787  1.00  0.00    -0.109 NA
BRANCH  27  32
ATOM     32  C   UNL A   1      39.733  22.442  26.886  1.00  0.00     0.002 A 
ATOM     33  C   UNL A   1      43.279  23.198  29.257  1.00  0.00     0.044 C 
ATOM     34  C   UNL A   1      42.066  22.935  28.413  1.00  0.00    -0.051 A 
ATOM     35  C   UNL A   1      41.193  23.980  28.095  1.00  0.00     0.004 A 
ATOM     36  C   UNL A   1      41.780  21.648  27.950  1.00  0.00     0.004 A 
ATOM     37  C   UNL A   1      40.041  23.737  27.339  1.00  0.00     0.011 A 
ATOM     38  C   UNL A   1      40.626  21.406  27.200  1.00  0.00     0.011 A 
ENDBRANCH  27  32
ENDBRANCH  15  26
ENDBRANCH   9  14
ENDBRANCH   5   8
ENDBRANCH   3   4
ENDBRANCH   2   3
ENDBRANCH   1   2
BRANCH   1  39
ATOM     39  C   UNL A   1      33.749  28.973  26.542  1.00  0.00     0.002 C 
BRANCH  39  40
ATOM     40  C   UNL A   1      35.024  28.966  27.383  1.00  0.00     0.021 C 
BRANCH  40  41
ATOM     41  C   UNL A   1      35.540  30.356  27.698  1.00  0.00     0.116 C 
BRANCH  41  42
ATOM     42  N   UNL A   1      34.598  31.411  27.361  1.00  0.00    -0.352 N 
ATOM     43  C   UNL A   1      34.263  32.574  28.026  1.00  0.00     0.251 C 
ATOM     44  H   UNL A   1      34.115  31.271  26.516  1.00  0.00     0.163 HD
ATOM     45  O   UNL A   1      33.299  33.222  27.626  1.00  0.00    -0.269 OA
BRANCH  43  46
ATOM     46  C   UNL A   1      35.163  33.162  29.055  1.00  0.00     0.039 A 
ATOM     47  C   UNL A   1      36.529  33.210  28.726  1.00  0.00     0.014 A 
ATOM     48  C   UNL A   1      34.777  33.198  30.384  1.00  0.00     0.014 A 
ATOM     49  C   UNL A   1      37.470  32.935  29.705  1.00  0.00     0.010 A 
ATOM     50  C   UNL A   1      35.658  32.719  31.308  1.00  0.00     0.010 A 
ATOM     51  C   UNL A   1      36.992  32.551  30.949  1.00  0.00    -0.014 A 
BRANCH  51  52
ATOM     52  C   UNL A   1      37.795  32.062  32.038  1.00  0.00     0.031 A 
ATOM     53  C   UNL A   1      38.321  33.084  32.955  1.00  0.00     0.074 A 
ATOM     54  C   UNL A   1      37.826  30.731  32.257  1.00  0.00     0.049 A 
ATOM     55  N   UNL A   1      39.362  32.921  33.685  1.00  0.00    -0.248 NA
ATOM     56  C   UNL A   1      37.749  34.431  33.072  1.00  0.00     0.031 C 
ATOM     57  C   UNL A   1      38.207  30.015  33.467  1.00  0.00     0.029 A 
ATOM     58  N   UNL A   1      37.641  29.716  31.334  1.00  0.00    -0.354 N 
ATOM     59  C   UNL A   1      39.361  33.948  34.602  1.00  0.00     0.074 A 
ATOM     60  C   UNL A   1      38.449  34.936  34.092  1.00  0.00     0.031 C 
ATOM     61  C   UNL A   1      38.475  28.732  33.154  1.00  0.00     0.029 A 
ATOM     62  C   UNL A   1      38.415  28.613  31.703  1.00  0.00     0.049 A 
ATOM     63  H   UNL A   1      37.056  29.763  30.544  1.00  0.00     0.167 HD
ATOM     64  C   UNL A   1      39.974  33.740  35.795  1.00  0.00     0.031 A 
ATOM     65  C   UNL A   1      39.470  28.219  30.922  1.00  0.00     0.031 A 
ATOM     66  C   UNL A   1      40.543  32.398  35.833  1.00  0.00     0.049 A 
ATOM     67  C   UNL A   1      40.797  28.474  31.606  1.00  0.00     0.074 A 
ATOM     68  C   UNL A   1      40.045  31.210  36.342  1.00  0.00     0.029 A 
ATOM     69  N   UNL A   1      41.559  32.068  34.951  1.00  0.00    -0.354 N 
ATOM     70  N   UNL A   1      40.988  29.424  32.483  1.00  0.00    -0.248 NA
ATOM     71  C   UNL A   1      41.988  27.656  31.397  1.00  0.00     0.031 C 
ATOM     72  C   UNL A   1      40.745  30.150  35.716  1.00  0.00     0.029 A 
ATOM     73  C   UNL A   1      41.673  30.698  34.849  1.00  0.00     0.049 A 
ATOM     74  H   UNL A   1      42.119  32.717  34.468  1.00  0.00     0.167 HD
ATOM     75  C   UNL A   1      42.254  29.316  32.996  1.00  0.00     0.074 A 
ATOM     76  C   UNL A   1      42.853  28.216  32.262  1.00  0.00     0.031 C 
ATOM     77  C   UNL A   1      42.703  30.108  34.012  1.00  0.00     0.031 A 
BRANCH  64  78
ATOM     78  C   UNL A   1      39.795  34.575  37.031  1.00  0.00    -0.014 A 
ATOM     79  C   UNL A   1      39.245  33.961  38.174  1.00  0.00     0.009 A 
ATOM     80  C   UNL A   1      40.114  35.936  37.152  1.00  0.00     0.009 A 
ATOM     81  C   UNL A   1      38.979  34.667  39.349  1.00  0.00     0.001 A 
ATOM     82  C   UNL A   1      39.837  36.656  38.325  1.00  0.00     0.001 A 
ATOM     83  C   UNL A   1      39.266  36.021  39.422  1.00  0.00     0.000 A 
ENDBRANCH  64  78
BRANCH  65  84
ATOM     84  C   UNL A   1      39.201  28.423  29.464  1.00  0.00    -0.014 A 
ATOM     85  C   UNL A   1      39.477  29.700  28.930  1.00  0.00     0.009 A 
ATOM     86  C   UNL A   1      39.181  27.323  28.591  1.00  0.00     0.009 A 
ATOM     87  C   UNL A   1      39.920  29.839  27.611  1.00  0.00     0.001 A 
ATOM     88  C   UNL A   1      39.613  27.474  27.266  1.00  0.00     0.001 A 
ATOM     89  C   UNL A   1      40.035  28.718  26.795  1.00  0.00     0.000 A 
ENDBRANCH  65  84
BRANCH  77  90
ATOM     90  C   UNL A   1      44.143  30.335  34.403  1.00  0.00    -0.014 A 
ATOM     91  C   UNL A   1      45.128  30.807  33.531  1.00  0.00     0.009 A 
ATOM     92  C   UNL A   1      44.513  30.212  35.765  1.00  0.00     0.009 A 
ATOM     93  C   UNL A   1      46.425  31.082  33.982  1.00  0.00     0.001 A 
ATOM     94  C   UNL A   1      45.783  30.551  36.231  1.00  0.00     0.001 A 
ATOM     95  C   UNL A   1      46.748  30.967  35.331  1.00  0.00     0.000 A 
ENDBRANCH  77  90
ENDBRANCH  51  52
ENDBRANCH  43  46
ENDBRANCH  41  42
ENDBRANCH  40  41
ENDBRANCH  39  40
ENDBRANCH   1  39
TORSDOF 16
ENDMDL
