MODEL 1
REMARK VINA RESULT:     -10.2      0.000      0.000
REMARK SMILES C[C@@H]1[C@H](C(=O)NCCCCCCNC(=O)c2ccc(-c3c4nc(c(-c5ccccc5)c5ccc([nH]5)c(-c5ccccc5)c5nc(c(-c6ccccc6)c6ccc3[nH]6)C=C5)C=C4)cc2)CC[N@@H+]1CCOc1c(Cl)cccc1Cl
REMARK SMILES IDX 8 1 7 2 6 3 4 4 5 5 3 7 1 8 2 9 66 10 64 11 65 12 67 14
REMARK SMILES IDX 68 15 69 16 70 17 71 18 76 19 72 20 73 21 75 22 77 23 74 24
REMARK SMILES IDX 9 25 10 26 11 27 12 28 13 29 14 30 15 32 16 33 17 34 63 35
REMARK SMILES IDX 18 36 62 37 19 38 20 39 21 40 56 41 22 42 61 43 55 44 57 45
REMARK SMILES IDX 23 46 60 47 54 48 53 49 24 51 46 52 31 53 45 54 32 55 35 56
REMARK SMILES IDX 44 57 58 58 33 59 34 60 43 62 59 63 36 64 25 65 26 66 30 67
REMARK SMILES IDX 27 68 29 69 28 70 47 71 48 72 52 73 49 74 51 75 50 76 37 77
REMARK SMILES IDX 38 78 42 79 39 80 41 81 40 82
REMARK H PARENT 6 6 66 13 13 31 57 50 35 61
REMARK Flexibility Score: inf
ROOT
ATOM      1  C   UNL A   1      34.949  24.583  25.378  1.00  0.00     0.021 C 
ENDROOT
BRANCH   1   2
ATOM      2  C   UNL A   1      35.268  23.685  24.185  1.00  0.00     0.116 C 
BRANCH   2   3
ATOM      3  N   UNL A   1      36.129  22.596  24.569  1.00  0.00    -0.356 N 
ATOM      4  C   UNL A   1      35.855  21.392  25.123  1.00  0.00     0.229 C 
ATOM      5  O   UNL A   1      36.840  20.730  25.474  1.00  0.00    -0.275 OA
ATOM      6  H   UNL A   1      37.086  22.757  24.399  1.00  0.00     0.163 HD
BRANCH   4   7
ATOM      7  C   UNL A   1      34.463  20.779  25.246  1.00  0.00     0.142 C 
ATOM      8  C   UNL A   1      33.776  22.119  27.429  1.00  0.00     0.076 C 
ATOM      9  C   UNL A   1      33.472  21.047  26.401  1.00  0.00     0.193 C 
ATOM     10  N   UNL A   1      32.121  21.017  25.796  1.00  0.00    -0.329 N 
ATOM     11  C   UNL A   1      33.615  20.867  23.987  1.00  0.00     0.081 C 
ATOM     12  C   UNL A   1      32.264  20.391  24.489  1.00  0.00     0.263 C 
ATOM     13  H   UNL A   1      31.559  20.476  26.453  1.00  0.00     0.348 HD
BRANCH  10  14
ATOM     14  C   UNL A   1      31.179  22.144  25.879  1.00  0.00     0.304 C 
BRANCH  14  15
ATOM     15  C   UNL A   1      31.490  23.505  25.205  1.00  0.00     0.291 C 
BRANCH  15  16
ATOM     16  O   UNL A   1      30.976  23.641  23.865  1.00  0.00    -0.485 OA
BRANCH  16  17
ATOM     17  C   UNL A   1      31.285  24.825  23.238  1.00  0.00     0.156 A 
ATOM     18  C   UNL A   1      30.662  26.052  23.511  1.00  0.00     0.084 A 
ATOM     19  C   UNL A   1      32.289  24.794  22.257  1.00  0.00     0.084 A 
ATOM     20  Cl  UNL A   1      29.214  26.174  24.453  1.00  0.00    -0.080 Cl
ATOM     21  C   UNL A   1      31.181  27.240  22.980  1.00  0.00     0.024 A 
ATOM     22  C   UNL A   1      32.810  25.980  21.733  1.00  0.00     0.024 A 
ATOM     23  Cl  UNL A   1      32.962  23.299  21.701  1.00  0.00    -0.080 Cl
ATOM     24  C   UNL A   1      32.282  27.207  22.125  1.00  0.00     0.003 A 
ENDBRANCH  16  17
ENDBRANCH  15  16
ENDBRANCH  14  15
ENDBRANCH  10  14
ENDBRANCH   4   7
ENDBRANCH   2   3
ENDBRANCH   1   2
BRANCH   1  25
ATOM     25  C   UNL A   1      34.401  25.960  25.005  1.00  0.00     0.002 C 
BRANCH  25  26
ATOM     26  C   UNL A   1      33.356  26.524  25.969  1.00  0.00     0.002 C 
BRANCH  26  27
ATOM     27  C   UNL A   1      33.351  28.047  26.130  1.00  0.00     0.021 C 
BRANCH  27  28
ATOM     28  C   UNL A   1      33.439  28.564  27.564  1.00  0.00     0.116 C 
BRANCH  28  29
ATOM     29  N   UNL A   1      33.445  30.014  27.637  1.00  0.00    -0.352 N 
ATOM     30  C   UNL A   1      34.429  30.866  28.058  1.00  0.00     0.251 C 
ATOM     31  H   UNL A   1      32.614  30.450  27.341  1.00  0.00     0.163 HD
ATOM     32  O   UNL A   1      34.185  32.068  28.187  1.00  0.00    -0.269 OA
BRANCH  30  33
ATOM     33  C   UNL A   1      35.779  30.359  28.376  1.00  0.00     0.039 A 
ATOM     34  C   UNL A   1      36.749  30.370  27.371  1.00  0.00     0.014 A 
ATOM     35  C   UNL A   1      36.082  29.838  29.639  1.00  0.00     0.014 A 
ATOM     36  C   UNL A   1      38.034  29.897  27.642  1.00  0.00     0.010 A 
ATOM     37  C   UNL A   1      37.382  29.424  29.925  1.00  0.00     0.010 A 
ATOM     38  C   UNL A   1      38.366  29.438  28.926  1.00  0.00    -0.014 A 
BRANCH  38  39
ATOM     39  C   UNL A   1      39.736  28.950  29.223  1.00  0.00     0.031 A 
ATOM     40  C   UNL A   1      40.708  29.825  29.965  1.00  0.00     0.074 A 
ATOM     41  C   UNL A   1      40.113  27.728  28.801  1.00  0.00     0.049 A 
ATOM     42  N   UNL A   1      41.943  29.572  30.316  1.00  0.00    -0.248 NA
ATOM     43  C   UNL A   1      40.239  31.167  30.345  1.00  0.00     0.031 C 
ATOM     44  C   UNL A   1      39.276  26.798  28.040  1.00  0.00     0.029 A 
ATOM     45  N   UNL A   1      41.300  27.059  28.955  1.00  0.00    -0.354 N 
ATOM     46  C   UNL A   1      42.401  30.722  30.944  1.00  0.00     0.074 A 
ATOM     47  C   UNL A   1      41.329  31.692  30.885  1.00  0.00     0.031 C 
ATOM     48  C   UNL A   1      39.966  25.667  27.822  1.00  0.00     0.029 A 
ATOM     49  C   UNL A   1      41.300  25.803  28.399  1.00  0.00     0.049 A 
ATOM     50  H   UNL A   1      42.079  27.441  29.421  1.00  0.00     0.167 HD
ATOM     51  C   UNL A   1      43.599  30.947  31.536  1.00  0.00     0.031 A 
ATOM     52  C   UNL A   1      42.265  24.865  28.361  1.00  0.00     0.031 A 
ATOM     53  C   UNL A   1      44.661  29.981  31.609  1.00  0.00     0.049 A 
ATOM     54  C   UNL A   1      43.586  25.140  29.020  1.00  0.00     0.074 A 
ATOM     55  C   UNL A   1      45.890  30.095  32.235  1.00  0.00     0.029 A 
ATOM     56  N   UNL A   1      44.621  28.722  31.031  1.00  0.00    -0.354 N 
ATOM     57  N   UNL A   1      43.977  26.209  29.672  1.00  0.00    -0.248 NA
ATOM     58  C   UNL A   1      44.594  24.073  28.951  1.00  0.00     0.031 C 
ATOM     59  C   UNL A   1      46.612  28.919  32.000  1.00  0.00     0.029 A 
ATOM     60  C   UNL A   1      45.812  28.057  31.267  1.00  0.00     0.049 A 
ATOM     61  H   UNL A   1      43.858  28.355  30.527  1.00  0.00     0.167 HD
ATOM     62  C   UNL A   1      45.267  25.935  30.107  1.00  0.00     0.074 A 
ATOM     63  C   UNL A   1      45.584  24.594  29.663  1.00  0.00     0.031 C 
ATOM     64  C   UNL A   1      46.112  26.725  30.813  1.00  0.00     0.031 A 
BRANCH  51  65
ATOM     65  C   UNL A   1      43.820  32.301  32.153  1.00  0.00    -0.014 A 
ATOM     66  C   UNL A   1      43.490  32.551  33.494  1.00  0.00     0.009 A 
ATOM     67  C   UNL A   1      44.393  33.331  31.391  1.00  0.00     0.009 A 
ATOM     68  C   UNL A   1      43.696  33.815  34.050  1.00  0.00     0.001 A 
ATOM     69  C   UNL A   1      44.623  34.586  31.956  1.00  0.00     0.001 A 
ATOM     70  C   UNL A   1      44.266  34.831  33.282  1.00  0.00     0.000 A 
ENDBRANCH  51  65
BRANCH  52  71
ATOM     71  C   UNL A   1      42.009  23.563  27.692  1.00  0.00    -0.014 A 
ATOM     72  C   UNL A   1      41.374  22.521  28.384  1.00  0.00     0.009 A 
ATOM     73  C   UNL A   1      42.403  23.354  26.361  1.00  0.00     0.009 A 
ATOM     74  C   UNL A   1      41.161  21.287  27.766  1.00  0.00     0.001 A 
ATOM     75  C   UNL A   1      42.165  22.128  25.737  1.00  0.00     0.001 A 
ATOM     76  C   UNL A   1      41.554  21.093  26.442  1.00  0.00     0.000 A 
ENDBRANCH  52  71
BRANCH  64  77
ATOM     77  C   UNL A   1      47.453  26.145  31.166  1.00  0.00    -0.014 A 
ATOM     78  C   UNL A   1      48.513  26.155  30.248  1.00  0.00     0.009 A 
ATOM     79  C   UNL A   1      47.664  25.612  32.447  1.00  0.00     0.009 A 
ATOM     80  C   UNL A   1      49.752  25.613  30.595  1.00  0.00     0.001 A 
ATOM     81  C   UNL A   1      48.911  25.094  32.801  1.00  0.00     0.001 A 
ATOM     82  C   UNL A   1      49.950  25.088  31.871  1.00  0.00     0.000 A 
ENDBRANCH  64  77
ENDBRANCH  38  39
ENDBRANCH  30  33
ENDBRANCH  28  29
ENDBRANCH  27  28
ENDBRANCH  26  27
ENDBRANCH  25  26
ENDBRANCH   1  25
TORSDOF 17
ENDMDL
MODEL 2
REMARK VINA RESULT:     -10.0      1.630      3.709
REMARK SMILES C[C@@H]1[C@H](C(=O)NCCCCCCNC(=O)c2ccc(-c3c4nc(c(-c5ccccc5)c5ccc([nH]5)c(-c5ccccc5)c5nc(c(-c6ccccc6)c6ccc3[nH]6)C=C5)C=C4)cc2)CC[N@@H+]1CCOc1c(Cl)cccc1Cl
REMARK SMILES IDX 8 1 7 2 6 3 4 4 5 5 3 7 1 8 2 9 66 10 64 11 65 12 67 14
REMARK SMILES IDX 68 15 69 16 70 17 71 18 76 19 72 20 73 21 75 22 77 23 74 24
REMARK SMILES IDX 9 25 10 26 11 27 12 28 13 29 14 30 15 32 16 33 17 34 63 35
REMARK SMILES IDX 18 36 62 37 19 38 20 39 21 40 56 41 22 42 61 43 55 44 57 45
REMARK SMILES IDX 23 46 60 47 54 48 53 49 24 51 46 52 31 53 45 54 32 55 35 56
REMARK SMILES IDX 44 57 58 58 33 59 34 60 43 62 59 63 36 64 25 65 26 66 30 67
REMARK SMILES IDX 27 68 29 69 28 70 47 71 48 72 52 73 49 74 51 75 50 76 37 77
REMARK SMILES IDX 38 78 42 79 39 80 41 81 40 82
REMARK H PARENT 6 6 66 13 13 31 57 50 35 61
REMARK Flexibility Score: inf
ROOT
ATOM      1  C   UNL A   1      31.392  28.825  23.075  1.00  0.00     0.021 C 
ENDROOT
BRANCH   1   2
ATOM      2  C   UNL A   1      30.709  27.595  22.483  1.00  0.00     0.116 C 
BRANCH   2   3
ATOM      3  N   UNL A   1      31.586  26.900  21.575  1.00  0.00    -0.356 N 
ATOM      4  C   UNL A   1      32.601  26.034  21.800  1.00  0.00     0.229 C 
ATOM      5  O   UNL A   1      33.266  25.721  20.805  1.00  0.00    -0.275 OA
ATOM      6  H   UNL A   1      31.417  27.089  20.624  1.00  0.00     0.163 HD
BRANCH   4   7
ATOM      7  C   UNL A   1      32.906  25.366  23.138  1.00  0.00     0.142 C 
ATOM      8  C   UNL A   1      33.195  22.921  22.154  1.00  0.00     0.076 C 
ATOM      9  C   UNL A   1      33.110  23.849  23.349  1.00  0.00     0.193 C 
ATOM     10  N   UNL A   1      34.130  23.718  24.415  1.00  0.00    -0.329 N 
ATOM     11  C   UNL A   1      34.028  26.016  23.933  1.00  0.00     0.081 C 
ATOM     12  C   UNL A   1      34.229  25.020  25.060  1.00  0.00     0.263 C 
ATOM     13  H   UNL A   1      33.771  22.983  25.023  1.00  0.00     0.348 HD
BRANCH  10  14
ATOM     14  C   UNL A   1      35.392  22.984  24.232  1.00  0.00     0.304 C 
BRANCH  14  15
ATOM     15  C   UNL A   1      35.795  21.827  25.181  1.00  0.00     0.291 C 
BRANCH  15  16
ATOM     16  O   UNL A   1      34.684  21.108  25.755  1.00  0.00    -0.485 OA
BRANCH  16  17
ATOM     17  C   UNL A   1      34.332  19.954  25.098  1.00  0.00     0.156 A 
ATOM     18  C   UNL A   1      35.233  18.937  24.744  1.00  0.00     0.084 A 
ATOM     19  C   UNL A   1      32.980  19.791  24.757  1.00  0.00     0.084 A 
ATOM     20  Cl  UNL A   1      36.950  19.146  24.817  1.00  0.00    -0.080 Cl
ATOM     21  C   UNL A   1      34.758  17.709  24.267  1.00  0.00     0.024 A 
ATOM     22  C   UNL A   1      32.506  18.562  24.288  1.00  0.00     0.024 A 
ATOM     23  Cl  UNL A   1      31.837  21.076  24.958  1.00  0.00    -0.080 Cl
ATOM     24  C   UNL A   1      33.391  17.507  24.080  1.00  0.00     0.003 A 
ENDBRANCH  16  17
ENDBRANCH  15  16
ENDBRANCH  14  15
ENDBRANCH  10  14
ENDBRANCH   4   7
ENDBRANCH   2   3
ENDBRANCH   1   2
BRANCH   1  25
ATOM     25  C   UNL A   1      30.880  29.227  24.459  1.00  0.00     0.002 C 
BRANCH  25  26
ATOM     26  C   UNL A   1      31.968  29.577  25.475  1.00  0.00     0.002 C 
BRANCH  26  27
ATOM     27  C   UNL A   1      32.817  28.403  25.973  1.00  0.00     0.021 C 
BRANCH  27  28
ATOM     28  C   UNL A   1      33.673  28.680  27.206  1.00  0.00     0.116 C 
BRANCH  28  29
ATOM     29  N   UNL A   1      33.584  30.059  27.652  1.00  0.00    -0.352 N 
ATOM     30  C   UNL A   1      34.501  30.826  28.316  1.00  0.00     0.251 C 
ATOM     31  H   UNL A   1      32.733  30.510  27.446  1.00  0.00     0.163 HD
ATOM     32  O   UNL A   1      34.177  31.938  28.742  1.00  0.00    -0.269 OA
BRANCH  30  33
ATOM     33  C   UNL A   1      35.872  30.331  28.546  1.00  0.00     0.039 A 
ATOM     34  C   UNL A   1      36.757  30.294  27.465  1.00  0.00     0.014 A 
ATOM     35  C   UNL A   1      36.279  29.867  29.802  1.00  0.00     0.014 A 
ATOM     36  C   UNL A   1      38.060  29.830  27.650  1.00  0.00     0.010 A 
ATOM     37  C   UNL A   1      37.599  29.463  29.999  1.00  0.00     0.010 A 
ATOM     38  C   UNL A   1      38.497  29.429  28.922  1.00  0.00    -0.014 A 
BRANCH  38  39
ATOM     39  C   UNL A   1      39.887  28.952  29.128  1.00  0.00     0.031 A 
ATOM     40  C   UNL A   1      40.912  29.851  29.761  1.00  0.00     0.074 A 
ATOM     41  C   UNL A   1      40.234  27.716  28.719  1.00  0.00     0.049 A 
ATOM     42  N   UNL A   1      42.172  29.610  30.023  1.00  0.00    -0.248 NA
ATOM     43  C   UNL A   1      40.471  31.206  30.131  1.00  0.00     0.031 C 
ATOM     44  C   UNL A   1      39.343  26.761  28.058  1.00  0.00     0.029 A 
ATOM     45  N   UNL A   1      41.431  27.052  28.802  1.00  0.00    -0.354 N 
ATOM     46  C   UNL A   1      42.675  30.781  30.574  1.00  0.00     0.074 A 
ATOM     47  C   UNL A   1      41.598  31.749  30.566  1.00  0.00     0.031 C 
ATOM     48  C   UNL A   1      40.016  25.623  27.825  1.00  0.00     0.029 A 
ATOM     49  C   UNL A   1      41.391  25.779  28.291  1.00  0.00     0.049 A 
ATOM     50  H   UNL A   1      42.243  27.451  29.192  1.00  0.00     0.167 HD
ATOM     51  C   UNL A   1      43.914  31.027  31.062  1.00  0.00     0.031 A 
ATOM     52  C   UNL A   1      42.352  24.840  28.209  1.00  0.00     0.031 A 
ATOM     53  C   UNL A   1      44.981  30.063  31.085  1.00  0.00     0.049 A 
ATOM     54  C   UNL A   1      43.720  25.138  28.753  1.00  0.00     0.074 A 
ATOM     55  C   UNL A   1      46.255  30.199  31.609  1.00  0.00     0.029 A 
ATOM     56  N   UNL A   1      44.899  28.786  30.555  1.00  0.00    -0.354 N 
ATOM     57  N   UNL A   1      44.158  26.228  29.336  1.00  0.00    -0.248 NA
ATOM     58  C   UNL A   1      44.723  24.069  28.642  1.00  0.00     0.031 C 
ATOM     59  C   UNL A   1      46.959  29.016  31.358  1.00  0.00     0.029 A 
ATOM     60  C   UNL A   1      46.107  28.129  30.720  1.00  0.00     0.049 A 
ATOM     61  H   UNL A   1      44.101  28.402  30.125  1.00  0.00     0.167 HD
ATOM     62  C   UNL A   1      45.479  25.969  29.678  1.00  0.00     0.074 A 
ATOM     63  C   UNL A   1      45.764  24.613  29.256  1.00  0.00     0.031 C 
ATOM     64  C   UNL A   1      46.375  26.782  30.289  1.00  0.00     0.031 A 
BRANCH  51  65
ATOM     65  C   UNL A   1      44.179  32.400  31.614  1.00  0.00    -0.014 A 
ATOM     66  C   UNL A   1      43.973  32.691  32.971  1.00  0.00     0.009 A 
ATOM     67  C   UNL A   1      44.669  33.410  30.771  1.00  0.00     0.009 A 
ATOM     68  C   UNL A   1      44.218  33.973  33.467  1.00  0.00     0.001 A 
ATOM     69  C   UNL A   1      44.939  34.683  31.273  1.00  0.00     0.001 A 
ATOM     70  C   UNL A   1      44.704  34.968  32.618  1.00  0.00     0.000 A 
ENDBRANCH  51  65
BRANCH  52  71
ATOM     71  C   UNL A   1      42.049  23.516  27.607  1.00  0.00    -0.014 A 
ATOM     72  C   UNL A   1      42.390  23.247  26.273  1.00  0.00     0.009 A 
ATOM     73  C   UNL A   1      41.414  22.516  28.361  1.00  0.00     0.009 A 
ATOM     74  C   UNL A   1      42.078  22.014  25.697  1.00  0.00     0.001 A 
ATOM     75  C   UNL A   1      41.126  21.275  27.790  1.00  0.00     0.001 A 
ATOM     76  C   UNL A   1      41.450  21.028  26.457  1.00  0.00     0.000 A 
ENDBRANCH  52  71
BRANCH  64  77
ATOM     77  C   UNL A   1      47.740  26.215  30.555  1.00  0.00    -0.014 A 
ATOM     78  C   UNL A   1      48.092  25.735  31.826  1.00  0.00     0.009 A 
ATOM     79  C   UNL A   1      48.673  26.129  29.510  1.00  0.00     0.009 A 
ATOM     80  C   UNL A   1      49.365  25.210  32.054  1.00  0.00     0.001 A 
ATOM     81  C   UNL A   1      49.937  25.580  29.734  1.00  0.00     0.001 A 
ATOM     82  C   UNL A   1      50.284  25.129  31.007  1.00  0.00     0.000 A 
ENDBRANCH  64  77
ENDBRANCH  38  39
ENDBRANCH  30  33
ENDBRANCH  28  29
ENDBRANCH  27  28
ENDBRANCH  26  27
ENDBRANCH  25  26
ENDBRANCH   1  25
TORSDOF 17
ENDMDL
MODEL 3
REMARK VINA RESULT:     -10.0      1.799      7.048
REMARK SMILES C[C@@H]1[C@H](C(=O)NCCCCCCNC(=O)c2ccc(-c3c4nc(c(-c5ccccc5)c5ccc([nH]5)c(-c5ccccc5)c5nc(c(-c6ccccc6)c6ccc3[nH]6)C=C5)C=C4)cc2)CC[N@@H+]1CCOc1c(Cl)cccc1Cl
REMARK SMILES IDX 8 1 7 2 6 3 4 4 5 5 3 7 1 8 2 9 66 10 64 11 65 12 67 14
REMARK SMILES IDX 68 15 69 16 70 17 71 18 76 19 72 20 73 21 75 22 77 23 74 24
REMARK SMILES IDX 9 25 10 26 11 27 12 28 13 29 14 30 15 32 16 33 17 34 63 35
REMARK SMILES IDX 18 36 62 37 19 38 20 39 21 40 56 41 22 42 61 43 55 44 57 45
REMARK SMILES IDX 23 46 60 47 54 48 53 49 24 51 46 52 31 53 45 54 32 55 35 56
REMARK SMILES IDX 44 57 58 58 33 59 34 60 43 62 59 63 36 64 25 65 26 66 30 67
REMARK SMILES IDX 27 68 29 69 28 70 47 71 48 72 52 73 49 74 51 75 50 76 37 77
REMARK SMILES IDX 38 78 42 79 39 80 41 81 40 82
REMARK H PARENT 6 6 66 13 13 31 57 50 35 61
REMARK Flexibility Score: inf
ROOT
ATOM      1  C   UNL A   1      35.517  22.354  25.396  1.00  0.00     0.021 C 
ENDROOT
BRANCH   1   2
ATOM      2  C   UNL A   1      34.329  22.480  24.445  1.00  0.00     0.116 C 
BRANCH   2   3
ATOM      3  N   UNL A   1      33.493  21.309  24.499  1.00  0.00    -0.356 N 
ATOM      4  C   UNL A   1      32.268  21.109  25.038  1.00  0.00     0.229 C 
ATOM      5  O   UNL A   1      31.874  19.936  25.050  1.00  0.00    -0.275 OA
ATOM      6  H   UNL A   1      33.882  20.513  24.069  1.00  0.00     0.163 HD
BRANCH   4   7
ATOM      7  C   UNL A   1      31.331  22.212  25.523  1.00  0.00     0.142 C 
ATOM      8  C   UNL A   1      32.733  22.815  27.692  1.00  0.00     0.076 C 
ATOM      9  C   UNL A   1      31.486  22.992  26.848  1.00  0.00     0.193 C 
ATOM     10  N   UNL A   1      31.016  24.369  26.570  1.00  0.00    -0.329 N 
ATOM     11  C   UNL A   1      31.015  23.280  24.487  1.00  0.00     0.081 C 
ATOM     12  C   UNL A   1      30.273  24.310  25.319  1.00  0.00     0.263 C 
ATOM     13  H   UNL A   1      30.442  24.610  27.378  1.00  0.00     0.348 HD
BRANCH  10  14
ATOM     14  C   UNL A   1      31.853  25.560  26.776  1.00  0.00     0.304 C 
BRANCH  14  15
ATOM     15  C   UNL A   1      31.376  26.966  26.331  1.00  0.00     0.291 C 
BRANCH  15  16
ATOM     16  O   UNL A   1      32.214  27.598  25.343  1.00  0.00    -0.485 OA
BRANCH  16  17
ATOM     17  C   UNL A   1      32.255  26.968  24.122  1.00  0.00     0.156 A 
ATOM     18  C   UNL A   1      31.249  27.058  23.149  1.00  0.00     0.084 A 
ATOM     19  C   UNL A   1      33.381  26.179  23.841  1.00  0.00     0.084 A 
ATOM     20  Cl  UNL A   1      29.687  27.727  23.483  1.00  0.00    -0.080 Cl
ATOM     21  C   UNL A   1      31.467  26.558  21.859  1.00  0.00     0.024 A 
ATOM     22  C   UNL A   1      33.602  25.685  22.551  1.00  0.00     0.024 A 
ATOM     23  Cl  UNL A   1      34.569  25.833  25.053  1.00  0.00    -0.080 Cl
ATOM     24  C   UNL A   1      32.662  25.910  21.549  1.00  0.00     0.003 A 
ENDBRANCH  16  17
ENDBRANCH  15  16
ENDBRANCH  14  15
ENDBRANCH  10  14
ENDBRANCH   4   7
ENDBRANCH   2   3
ENDBRANCH   1   2
BRANCH   1  25
ATOM     25  C   UNL A   1      36.715  21.601  24.816  1.00  0.00     0.002 C 
BRANCH  25  26
ATOM     26  C   UNL A   1      36.618  20.076  24.892  1.00  0.00     0.002 C 
BRANCH  26  27
ATOM     27  C   UNL A   1      37.952  19.324  24.901  1.00  0.00     0.021 C 
BRANCH  27  28
ATOM     28  C   UNL A   1      39.064  19.955  25.736  1.00  0.00     0.116 C 
BRANCH  28  29
ATOM     29  N   UNL A   1      40.278  19.158  25.746  1.00  0.00    -0.352 N 
ATOM     30  C   UNL A   1      41.560  19.518  26.056  1.00  0.00     0.251 C 
ATOM     31  H   UNL A   1      40.159  18.215  25.490  1.00  0.00     0.163 HD
ATOM     32  O   UNL A   1      42.484  18.726  25.858  1.00  0.00    -0.269 OA
BRANCH  30  33
ATOM     33  C   UNL A   1      41.854  20.854  26.611  1.00  0.00     0.039 A 
ATOM     34  C   UNL A   1      42.242  21.870  25.732  1.00  0.00     0.014 A 
ATOM     35  C   UNL A   1      41.791  21.103  27.986  1.00  0.00     0.014 A 
ATOM     36  C   UNL A   1      42.527  23.143  26.227  1.00  0.00     0.010 A 
ATOM     37  C   UNL A   1      42.016  22.391  28.470  1.00  0.00     0.010 A 
ATOM     38  C   UNL A   1      42.398  23.419  27.597  1.00  0.00    -0.014 A 
BRANCH  38  39
ATOM     39  C   UNL A   1      42.683  24.776  28.124  1.00  0.00     0.031 A 
ATOM     40  C   UNL A   1      44.085  25.162  28.507  1.00  0.00     0.074 A 
ATOM     41  C   UNL A   1      41.674  25.654  28.284  1.00  0.00     0.049 A 
ATOM     42  N   UNL A   1      44.527  26.298  28.983  1.00  0.00    -0.248 NA
ATOM     43  C   UNL A   1      45.124  24.130  28.355  1.00  0.00     0.031 C 
ATOM     44  C   UNL A   1      40.265  25.390  27.985  1.00  0.00     0.029 A 
ATOM     45  N   UNL A   1      41.682  26.948  28.737  1.00  0.00    -0.354 N 
ATOM     46  C   UNL A   1      45.887  26.116  29.198  1.00  0.00     0.074 A 
ATOM     47  C   UNL A   1      46.190  24.745  28.846  1.00  0.00     0.031 C 
ATOM     48  C   UNL A   1      39.550  26.498  28.233  1.00  0.00     0.029 A 
ATOM     49  C   UNL A   1      40.442  27.539  28.736  1.00  0.00     0.049 A 
ATOM     50  H   UNL A   1      42.499  27.411  29.035  1.00  0.00     0.167 HD
ATOM     51  C   UNL A   1      46.807  27.011  29.630  1.00  0.00     0.031 A 
ATOM     52  C   UNL A   1      40.066  28.780  29.096  1.00  0.00     0.031 A 
ATOM     53  C   UNL A   1      46.511  28.377  29.967  1.00  0.00     0.049 A 
ATOM     54  C   UNL A   1      41.104  29.754  29.576  1.00  0.00     0.074 A 
ATOM     55  C   UNL A   1      47.384  29.377  30.360  1.00  0.00     0.029 A 
ATOM     56  N   UNL A   1      45.243  28.934  29.953  1.00  0.00    -0.354 N 
ATOM     57  N   UNL A   1      42.398  29.584  29.706  1.00  0.00    -0.248 NA
ATOM     58  C   UNL A   1      40.630  31.095  29.946  1.00  0.00     0.031 C 
ATOM     59  C   UNL A   1      46.636  30.530  30.627  1.00  0.00     0.029 A 
ATOM     60  C   UNL A   1      45.305  30.259  30.353  1.00  0.00     0.049 A 
ATOM     61  H   UNL A   1      44.419  28.459  29.698  1.00  0.00     0.167 HD
ATOM     62  C   UNL A   1      42.895  30.802  30.152  1.00  0.00     0.074 A 
ATOM     63  C   UNL A   1      41.767  31.705  30.251  1.00  0.00     0.031 C 
ATOM     64  C   UNL A   1      44.172  31.141  30.451  1.00  0.00     0.031 A 
BRANCH  51  65
ATOM     65  C   UNL A   1      48.226  26.533  29.762  1.00  0.00    -0.014 A 
ATOM     66  C   UNL A   1      48.683  25.929  30.944  1.00  0.00     0.009 A 
ATOM     67  C   UNL A   1      49.111  26.662  28.680  1.00  0.00     0.009 A 
ATOM     68  C   UNL A   1      50.006  25.496  31.053  1.00  0.00     0.001 A 
ATOM     69  C   UNL A   1      50.425  26.204  28.782  1.00  0.00     0.001 A 
ATOM     70  C   UNL A   1      50.875  25.630  29.970  1.00  0.00     0.000 A 
ENDBRANCH  51  65
BRANCH  52  71
ATOM     71  C   UNL A   1      38.639  29.184  28.993  1.00  0.00    -0.014 A 
ATOM     72  C   UNL A   1      37.791  29.085  30.107  1.00  0.00     0.009 A 
ATOM     73  C   UNL A   1      38.118  29.665  27.782  1.00  0.00     0.009 A 
ATOM     74  C   UNL A   1      36.443  29.434  30.003  1.00  0.00     0.001 A 
ATOM     75  C   UNL A   1      36.776  30.039  27.688  1.00  0.00     0.001 A 
ATOM     76  C   UNL A   1      35.938  29.915  28.795  1.00  0.00     0.000 A 
ENDBRANCH  52  71
BRANCH  64  77
ATOM     77  C   UNL A   1      44.417  32.556  30.893  1.00  0.00    -0.014 A 
ATOM     78  C   UNL A   1      44.390  32.908  32.250  1.00  0.00     0.009 A 
ATOM     79  C   UNL A   1      44.713  33.541  29.938  1.00  0.00     0.009 A 
ATOM     80  C   UNL A   1      44.621  34.229  32.641  1.00  0.00     0.001 A 
ATOM     81  C   UNL A   1      44.969  34.855  30.333  1.00  0.00     0.001 A 
ATOM     82  C   UNL A   1      44.915  35.198  31.683  1.00  0.00     0.000 A 
ENDBRANCH  64  77
ENDBRANCH  38  39
ENDBRANCH  30  33
ENDBRANCH  28  29
ENDBRANCH  27  28
ENDBRANCH  26  27
ENDBRANCH  25  26
ENDBRANCH   1  25
TORSDOF 17
ENDMDL
