MODEL 1
REMARK VINA RESULT:     -10.5      0.000      0.000
REMARK SMILES CCc1[nH]nc(-n2cccc2)c1C(=O)NCCCCCCNC(=O)c1ccc(-c2c3nc(c(-c4ccccc4)c4ccc([nH]4)c(-c4ccccc4)c4nc(c(-c5ccccc5)c5ccc2[nH]5)C=C4)C=C3)cc1
REMARK SMILES IDX 19 1 18 2 17 3 16 4 15 5 13 6 14 7 12 9 3 10 4 11 5 12 6 14
REMARK SMILES IDX 2 15 1 16 7 17 8 18 11 19 9 20 10 21 20 22 21 23 22 24 23 25
REMARK SMILES IDX 24 27 25 28 26 29 72 30 27 31 71 32 28 33 29 34 30 35 65 36
REMARK SMILES IDX 31 37 70 38 64 39 66 40 32 41 69 42 63 43 62 44 33 46 55 47
REMARK SMILES IDX 40 48 54 49 41 50 44 51 53 52 67 53 42 54 43 55 52 57 68 58
REMARK SMILES IDX 45 59 34 60 35 61 39 62 36 63 38 64 37 65 56 66 57 67 61 68
REMARK SMILES IDX 58 69 60 70 59 71 46 72 47 73 51 74 48 75 50 76 49 77
REMARK H PARENT 15 8 4 13 22 26 66 45 44 56
REMARK Flexibility Score: inf
ROOT
ATOM      1  C   UNL A   1      36.537  20.276  24.966  1.00  0.00     0.002 C 
ENDROOT
BRANCH   1   2
ATOM      2  C   UNL A   1      36.682  21.666  25.603  1.00  0.00     0.002 C 
BRANCH   2   3
ATOM      3  C   UNL A   1      36.287  22.817  24.676  1.00  0.00     0.021 C 
BRANCH   3   4
ATOM      4  C   UNL A   1      35.672  23.980  25.447  1.00  0.00     0.116 C 
BRANCH   4   5
ATOM      5  N   UNL A   1      35.037  24.893  24.553  1.00  0.00    -0.352 N 
ATOM      6  C   UNL A   1      33.862  25.571  24.551  1.00  0.00     0.256 C 
ATOM      7  O   UNL A   1      33.825  26.383  23.621  1.00  0.00    -0.269 OA
ATOM      8  H   UNL A   1      35.577  25.071  23.750  1.00  0.00     0.163 HD
BRANCH   6   9
ATOM      9  C   UNL A   1      32.763  25.454  25.521  1.00  0.00     0.105 A 
ATOM     10  C   UNL A   1      32.076  26.335  26.380  1.00  0.00     0.050 A 
ATOM     11  N   UNL A   1      31.050  25.598  26.926  1.00  0.00    -0.280 N 
ATOM     12  N   UNL A   1      30.948  24.356  26.469  1.00  0.00    -0.156 NA
ATOM     13  H   UNL A   1      30.439  25.965  27.606  1.00  0.00     0.190 HD
ATOM     14  C   UNL A   1      32.033  24.226  25.704  1.00  0.00     0.171 A 
BRANCH  10  15
ATOM     15  C   UNL A   1      32.180  27.787  26.746  1.00  0.00     0.053 C 
ATOM     16  C   UNL A   1      33.578  28.366  26.917  1.00  0.00     0.011 C 
ENDBRANCH  10  15
BRANCH  14  17
ATOM     17  N   UNL A   1      32.272  22.933  25.140  1.00  0.00    -0.307 N 
ATOM     18  C   UNL A   1      32.156  22.554  23.817  1.00  0.00     0.093 A 
ATOM     19  C   UNL A   1      32.706  21.823  25.844  1.00  0.00     0.093 A 
ATOM     20  C   UNL A   1      32.378  21.200  23.713  1.00  0.00     0.020 A 
ATOM     21  C   UNL A   1      32.708  20.732  25.002  1.00  0.00     0.020 A 
ENDBRANCH  14  17
ENDBRANCH   6   9
ENDBRANCH   4   5
ENDBRANCH   3   4
ENDBRANCH   2   3
ENDBRANCH   1   2
BRANCH   1  22
ATOM     22  C   UNL A   1      37.824  19.436  24.960  1.00  0.00     0.021 C 
BRANCH  22  23
ATOM     23  C   UNL A   1      38.985  20.175  25.608  1.00  0.00     0.116 C 
BRANCH  23  24
ATOM     24  N   UNL A   1      40.050  19.233  25.899  1.00  0.00    -0.352 N 
ATOM     25  C   UNL A   1      41.387  19.434  26.085  1.00  0.00     0.251 C 
ATOM     26  H   UNL A   1      39.761  18.295  25.976  1.00  0.00     0.163 HD
ATOM     27  O   UNL A   1      42.164  18.497  25.975  1.00  0.00    -0.269 OA
BRANCH  25  28
ATOM     28  C   UNL A   1      41.896  20.770  26.428  1.00  0.00     0.039 A 
ATOM     29  C   UNL A   1      42.315  21.598  25.381  1.00  0.00     0.014 A 
ATOM     30  C   UNL A   1      42.060  21.155  27.763  1.00  0.00     0.014 A 
ATOM     31  C   UNL A   1      42.882  22.826  25.675  1.00  0.00     0.010 A 
ATOM     32  C   UNL A   1      42.578  22.400  28.062  1.00  0.00     0.010 A 
ATOM     33  C   UNL A   1      43.000  23.220  27.015  1.00  0.00    -0.014 A 
BRANCH  33  34
ATOM     34  C   UNL A   1      43.422  24.594  27.315  1.00  0.00     0.031 A 
ATOM     35  C   UNL A   1      42.182  25.508  27.428  1.00  0.00     0.074 A 
ATOM     36  C   UNL A   1      44.777  24.792  27.410  1.00  0.00     0.049 A 
ATOM     37  N   UNL A   1      42.072  26.776  27.203  1.00  0.00    -0.248 NA
ATOM     38  C   UNL A   1      40.850  24.928  27.783  1.00  0.00     0.031 C 
ATOM     39  C   UNL A   1      45.806  23.719  27.346  1.00  0.00     0.029 A 
ATOM     40  N   UNL A   1      45.582  25.899  27.585  1.00  0.00    -0.354 N 
ATOM     41  C   UNL A   1      40.766  27.179  27.566  1.00  0.00     0.074 A 
ATOM     42  C   UNL A   1      40.025  25.981  27.801  1.00  0.00     0.031 C 
ATOM     43  C   UNL A   1      47.060  24.230  27.379  1.00  0.00     0.029 A 
ATOM     44  C   UNL A   1      46.986  25.673  27.475  1.00  0.00     0.049 A 
ATOM     45  H   UNL A   1      45.209  26.790  27.774  1.00  0.00     0.167 HD
ATOM     46  C   UNL A   1      40.451  28.487  27.816  1.00  0.00     0.031 A 
ATOM     47  C   UNL A   1      48.001  26.595  27.423  1.00  0.00     0.031 A 
ATOM     48  C   UNL A   1      41.587  29.304  27.551  1.00  0.00     0.049 A 
ATOM     49  C   UNL A   1      47.352  27.872  27.727  1.00  0.00     0.074 A 
ATOM     50  C   UNL A   1      42.250  29.596  26.387  1.00  0.00     0.029 A 
ATOM     51  N   UNL A   1      42.427  29.508  28.623  1.00  0.00    -0.354 N 
ATOM     52  N   UNL A   1      46.955  28.228  28.908  1.00  0.00    -0.248 NA
ATOM     53  C   UNL A   1      47.066  28.805  26.631  1.00  0.00     0.031 C 
ATOM     54  C   UNL A   1      43.595  29.395  26.758  1.00  0.00     0.029 A 
ATOM     55  C   UNL A   1      43.701  29.345  28.153  1.00  0.00     0.049 A 
ATOM     56  H   UNL A   1      42.163  29.728  29.545  1.00  0.00     0.167 HD
ATOM     57  C   UNL A   1      46.011  29.171  28.607  1.00  0.00     0.074 A 
ATOM     58  C   UNL A   1      46.374  29.717  27.311  1.00  0.00     0.031 C 
ATOM     59  C   UNL A   1      44.746  29.010  29.084  1.00  0.00     0.031 A 
BRANCH  46  60
ATOM     60  C   UNL A   1      39.328  29.130  28.581  1.00  0.00    -0.014 A 
ATOM     61  C   UNL A   1      39.179  28.749  29.940  1.00  0.00     0.009 A 
ATOM     62  C   UNL A   1      38.241  29.758  27.969  1.00  0.00     0.009 A 
ATOM     63  C   UNL A   1      37.957  28.854  30.606  1.00  0.00     0.001 A 
ATOM     64  C   UNL A   1      37.024  29.903  28.654  1.00  0.00     0.001 A 
ATOM     65  C   UNL A   1      36.871  29.415  29.953  1.00  0.00     0.000 A 
ENDBRANCH  46  60
BRANCH  47  66
ATOM     66  C   UNL A   1      49.477  26.724  27.112  1.00  0.00    -0.014 A 
ATOM     67  C   UNL A   1      50.518  26.899  28.025  1.00  0.00     0.009 A 
ATOM     68  C   UNL A   1      49.888  26.531  25.757  1.00  0.00     0.009 A 
ATOM     69  C   UNL A   1      51.870  26.776  27.614  1.00  0.00     0.001 A 
ATOM     70  C   UNL A   1      51.212  26.348  25.356  1.00  0.00     0.001 A 
ATOM     71  C   UNL A   1      52.213  26.456  26.296  1.00  0.00     0.000 A 
ENDBRANCH  47  66
BRANCH  59  72
ATOM     72  C   UNL A   1      44.607  28.124  30.326  1.00  0.00    -0.014 A 
ATOM     73  C   UNL A   1      44.097  26.818  30.198  1.00  0.00     0.009 A 
ATOM     74  C   UNL A   1      44.845  28.575  31.637  1.00  0.00     0.009 A 
ATOM     75  C   UNL A   1      43.799  26.021  31.314  1.00  0.00     0.001 A 
ATOM     76  C   UNL A   1      44.552  27.779  32.761  1.00  0.00     0.001 A 
ATOM     77  C   UNL A   1      44.024  26.502  32.598  1.00  0.00     0.000 A 
ENDBRANCH  59  72
ENDBRANCH  33  34
ENDBRANCH  25  28
ENDBRANCH  23  24
ENDBRANCH  22  23
ENDBRANCH   1  22
TORSDOF 15
ENDMDL
MODEL 2
REMARK VINA RESULT:     -10.4      0.712      2.231
REMARK SMILES CCc1[nH]nc(-n2cccc2)c1C(=O)NCCCCCCNC(=O)c1ccc(-c2c3nc(c(-c4ccccc4)c4ccc([nH]4)c(-c4ccccc4)c4nc(c(-c5ccccc5)c5ccc2[nH]5)C=C4)C=C3)cc1
REMARK SMILES IDX 19 1 18 2 17 3 16 4 15 5 13 6 14 7 12 9 3 10 4 11 5 12 6 14
REMARK SMILES IDX 2 15 1 16 7 17 8 18 11 19 9 20 10 21 20 22 21 23 22 24 23 25
REMARK SMILES IDX 24 27 25 28 26 29 72 30 27 31 71 32 28 33 29 34 30 35 65 36
REMARK SMILES IDX 31 37 70 38 64 39 66 40 32 41 69 42 63 43 62 44 33 46 55 47
REMARK SMILES IDX 40 48 54 49 41 50 44 51 53 52 67 53 42 54 43 55 52 57 68 58
REMARK SMILES IDX 45 59 34 60 35 61 39 62 36 63 38 64 37 65 56 66 57 67 61 68
REMARK SMILES IDX 58 69 60 70 59 71 46 72 47 73 51 74 48 75 50 76 49 77
REMARK H PARENT 15 8 4 13 22 26 66 45 44 56
REMARK Flexibility Score: inf
ROOT
ATOM      1  C   UNL A   1      36.699  20.274  24.814  1.00  0.00     0.002 C 
ENDROOT
BRANCH   1   2
ATOM      2  C   UNL A   1      36.927  21.756  25.145  1.00  0.00     0.002 C 
BRANCH   2   3
ATOM      3  C   UNL A   1      36.574  22.709  24.001  1.00  0.00     0.021 C 
BRANCH   3   4
ATOM      4  C   UNL A   1      35.668  23.844  24.466  1.00  0.00     0.116 C 
BRANCH   4   5
ATOM      5  N   UNL A   1      34.499  23.917  23.653  1.00  0.00    -0.352 N 
ATOM      6  C   UNL A   1      33.168  23.775  23.872  1.00  0.00     0.256 C 
ATOM      7  O   UNL A   1      32.520  24.096  22.871  1.00  0.00    -0.269 OA
ATOM      8  H   UNL A   1      34.707  24.115  22.711  1.00  0.00     0.163 HD
BRANCH   6   9
ATOM      9  C   UNL A   1      32.510  23.357  25.119  1.00  0.00     0.105 A 
ATOM     10  C   UNL A   1      32.177  22.127  25.723  1.00  0.00     0.050 A 
ATOM     11  N   UNL A   1      31.687  22.444  26.969  1.00  0.00    -0.280 N 
ATOM     12  N   UNL A   1      31.725  23.736  27.273  1.00  0.00    -0.156 NA
ATOM     13  H   UNL A   1      31.333  21.764  27.587  1.00  0.00     0.190 HD
ATOM     14  C   UNL A   1      32.120  24.304  26.132  1.00  0.00     0.171 A 
BRANCH  10  15
ATOM     15  C   UNL A   1      32.290  20.677  25.353  1.00  0.00     0.053 C 
ATOM     16  C   UNL A   1      32.894  20.348  23.993  1.00  0.00     0.011 C 
ENDBRANCH  10  15
BRANCH  14  17
ATOM     17  N   UNL A   1      32.156  25.733  26.104  1.00  0.00    -0.307 N 
ATOM     18  C   UNL A   1      31.084  26.605  26.099  1.00  0.00     0.093 A 
ATOM     19  C   UNL A   1      33.306  26.503  26.112  1.00  0.00     0.093 A 
ATOM     20  C   UNL A   1      31.549  27.894  25.966  1.00  0.00     0.020 A 
ATOM     21  C   UNL A   1      32.959  27.827  25.955  1.00  0.00     0.020 A 
ENDBRANCH  14  17
ENDBRANCH   6   9
ENDBRANCH   4   5
ENDBRANCH   3   4
ENDBRANCH   2   3
ENDBRANCH   1   2
BRANCH   1  22
ATOM     22  C   UNL A   1      37.934  19.378  25.000  1.00  0.00     0.021 C 
BRANCH  22  23
ATOM     23  C   UNL A   1      39.048  20.099  25.743  1.00  0.00     0.116 C 
BRANCH  23  24
ATOM     24  N   UNL A   1      40.145  19.175  25.974  1.00  0.00    -0.352 N 
ATOM     25  C   UNL A   1      41.484  19.403  26.105  1.00  0.00     0.251 C 
ATOM     26  H   UNL A   1      39.879  18.230  26.048  1.00  0.00     0.163 HD
ATOM     27  O   UNL A   1      42.275  18.484  25.947  1.00  0.00    -0.269 OA
BRANCH  25  28
ATOM     28  C   UNL A   1      41.979  20.745  26.445  1.00  0.00     0.039 A 
ATOM     29  C   UNL A   1      42.395  21.573  25.397  1.00  0.00     0.014 A 
ATOM     30  C   UNL A   1      42.134  21.135  27.780  1.00  0.00     0.014 A 
ATOM     31  C   UNL A   1      42.950  22.807  25.690  1.00  0.00     0.010 A 
ATOM     32  C   UNL A   1      42.639  22.386  28.077  1.00  0.00     0.010 A 
ATOM     33  C   UNL A   1      43.058  23.206  27.030  1.00  0.00    -0.014 A 
BRANCH  33  34
ATOM     34  C   UNL A   1      43.467  24.585  27.328  1.00  0.00     0.031 A 
ATOM     35  C   UNL A   1      42.216  25.478  27.480  1.00  0.00     0.074 A 
ATOM     36  C   UNL A   1      44.821  24.804  27.386  1.00  0.00     0.049 A 
ATOM     37  N   UNL A   1      42.079  26.745  27.266  1.00  0.00    -0.248 NA
ATOM     38  C   UNL A   1      40.903  24.875  27.867  1.00  0.00     0.031 C 
ATOM     39  C   UNL A   1      45.864  23.748  27.287  1.00  0.00     0.029 A 
ATOM     40  N   UNL A   1      45.612  25.922  27.547  1.00  0.00    -0.354 N 
ATOM     41  C   UNL A   1      40.777  27.126  27.667  1.00  0.00     0.074 A 
ATOM     42  C   UNL A   1      40.062  25.914  27.914  1.00  0.00     0.031 C 
ATOM     43  C   UNL A   1      47.110  24.279  27.290  1.00  0.00     0.029 A 
ATOM     44  C   UNL A   1      47.016  25.720  27.398  1.00  0.00     0.049 A 
ATOM     45  H   UNL A   1      45.230  26.806  27.752  1.00  0.00     0.167 HD
ATOM     46  C   UNL A   1      40.449  28.427  27.934  1.00  0.00     0.031 A 
ATOM     47  C   UNL A   1      48.015  26.659  27.324  1.00  0.00     0.031 A 
ATOM     48  C   UNL A   1      41.565  29.264  27.644  1.00  0.00     0.049 A 
ATOM     49  C   UNL A   1      47.353  27.923  27.654  1.00  0.00     0.074 A 
ATOM     50  C   UNL A   1      42.190  29.573  26.464  1.00  0.00     0.029 A 
ATOM     51  N   UNL A   1      42.430  29.475  28.694  1.00  0.00    -0.354 N 
ATOM     52  N   UNL A   1      46.983  28.265  28.847  1.00  0.00    -0.248 NA
ATOM     53  C   UNL A   1      47.024  28.857  26.573  1.00  0.00     0.031 C 
ATOM     54  C   UNL A   1      43.548  29.392  26.797  1.00  0.00     0.029 A 
ATOM     55  C   UNL A   1      43.693  29.334  28.188  1.00  0.00     0.049 A 
ATOM     56  H   UNL A   1      42.187  29.685  29.624  1.00  0.00     0.167 HD
ATOM     57  C   UNL A   1      46.016  29.195  28.579  1.00  0.00     0.074 A 
ATOM     58  C   UNL A   1      46.336  29.755  27.277  1.00  0.00     0.031 C 
ATOM     59  C   UNL A   1      44.768  29.011  29.089  1.00  0.00     0.031 A 
BRANCH  46  60
ATOM     60  C   UNL A   1      39.337  29.047  28.733  1.00  0.00    -0.014 A 
ATOM     61  C   UNL A   1      39.205  28.625  30.081  1.00  0.00     0.009 A 
ATOM     62  C   UNL A   1      38.243  29.695  28.156  1.00  0.00     0.009 A 
ATOM     63  C   UNL A   1      37.993  28.710  30.767  1.00  0.00     0.001 A 
ATOM     64  C   UNL A   1      37.036  29.820  28.861  1.00  0.00     0.001 A 
ATOM     65  C   UNL A   1      36.899  29.292  30.145  1.00  0.00     0.000 A 
ENDBRANCH  46  60
BRANCH  47  66
ATOM     66  C   UNL A   1      49.479  26.813  26.975  1.00  0.00    -0.014 A 
ATOM     67  C   UNL A   1      50.081  26.576  25.739  1.00  0.00     0.009 A 
ATOM     68  C   UNL A   1      50.341  27.375  27.968  1.00  0.00     0.009 A 
ATOM     69  C   UNL A   1      51.418  26.980  25.494  1.00  0.00     0.001 A 
ATOM     70  C   UNL A   1      51.636  27.831  27.717  1.00  0.00     0.001 A 
ATOM     71  C   UNL A   1      52.175  27.645  26.463  1.00  0.00     0.000 A 
ENDBRANCH  47  66
BRANCH  59  72
ATOM     72  C   UNL A   1      44.677  28.115  30.328  1.00  0.00    -0.014 A 
ATOM     73  C   UNL A   1      44.147  26.815  30.212  1.00  0.00     0.009 A 
ATOM     74  C   UNL A   1      44.980  28.552  31.631  1.00  0.00     0.009 A 
ATOM     75  C   UNL A   1      43.893  26.012  31.334  1.00  0.00     0.001 A 
ATOM     76  C   UNL A   1      44.731  27.748  32.760  1.00  0.00     0.001 A 
ATOM     77  C   UNL A   1      44.181  26.478  32.611  1.00  0.00     0.000 A 
ENDBRANCH  59  72
ENDBRANCH  33  34
ENDBRANCH  25  28
ENDBRANCH  23  24
ENDBRANCH  22  23
ENDBRANCH   1  22
TORSDOF 15
ENDMDL
MODEL 3
REMARK VINA RESULT:     -10.4      5.336     10.474
REMARK SMILES CCc1[nH]nc(-n2cccc2)c1C(=O)NCCCCCCNC(=O)c1ccc(-c2c3nc(c(-c4ccccc4)c4ccc([nH]4)c(-c4ccccc4)c4nc(c(-c5ccccc5)c5ccc2[nH]5)C=C4)C=C3)cc1
REMARK SMILES IDX 19 1 18 2 17 3 16 4 15 5 13 6 14 7 12 9 3 10 4 11 5 12 6 14
REMARK SMILES IDX 2 15 1 16 7 17 8 18 11 19 9 20 10 21 20 22 21 23 22 24 23 25
REMARK SMILES IDX 24 27 25 28 26 29 72 30 27 31 71 32 28 33 29 34 30 35 65 36
REMARK SMILES IDX 31 37 70 38 64 39 66 40 32 41 69 42 63 43 62 44 33 46 55 47
REMARK SMILES IDX 40 48 54 49 41 50 44 51 53 52 67 53 42 54 43 55 52 57 68 58
REMARK SMILES IDX 45 59 34 60 35 61 39 62 36 63 38 64 37 65 56 66 57 67 61 68
REMARK SMILES IDX 58 69 60 70 59 71 46 72 47 73 51 74 48 75 50 76 49 77
REMARK H PARENT 15 8 4 13 22 26 66 45 44 56
REMARK Flexibility Score: inf
ROOT
ATOM      1  C   UNL A   1      31.255  31.035  26.258  1.00  0.00     0.002 C 
ENDROOT
BRANCH   1   2
ATOM      2  C   UNL A   1      32.478  30.245  26.745  1.00  0.00     0.002 C 
BRANCH   2   3
ATOM      3  C   UNL A   1      32.937  29.152  25.778  1.00  0.00     0.021 C 
BRANCH   3   4
ATOM      4  C   UNL A   1      31.757  28.434  25.132  1.00  0.00     0.116 C 
BRANCH   4   5
ATOM      5  N   UNL A   1      31.665  28.766  23.748  1.00  0.00    -0.352 N 
ATOM      6  C   UNL A   1      30.657  28.832  22.843  1.00  0.00     0.256 C 
ATOM      7  O   UNL A   1      31.047  29.335  21.785  1.00  0.00    -0.269 OA
ATOM      8  H   UNL A   1      32.538  29.001  23.358  1.00  0.00     0.163 HD
BRANCH   6   9
ATOM      9  C   UNL A   1      29.255  28.433  23.040  1.00  0.00     0.105 A 
ATOM     10  C   UNL A   1      28.590  27.309  23.572  1.00  0.00     0.050 A 
ATOM     11  N   UNL A   1      27.254  27.637  23.581  1.00  0.00    -0.280 N 
ATOM     12  N   UNL A   1      26.978  28.872  23.180  1.00  0.00    -0.156 NA
ATOM     13  H   UNL A   1      26.555  27.003  23.863  1.00  0.00     0.190 HD
ATOM     14  C   UNL A   1      28.159  29.323  22.754  1.00  0.00     0.171 A 
BRANCH  10  15
ATOM     15  C   UNL A   1      28.998  25.979  24.133  1.00  0.00     0.053 C 
ATOM     16  C   UNL A   1      30.202  25.291  23.500  1.00  0.00     0.011 C 
ENDBRANCH  10  15
BRANCH  14  17
ATOM     17  N   UNL A   1      28.174  30.618  22.148  1.00  0.00    -0.307 N 
ATOM     18  C   UNL A   1      28.436  31.831  22.755  1.00  0.00     0.093 A 
ATOM     19  C   UNL A   1      27.955  30.874  20.806  1.00  0.00     0.093 A 
ATOM     20  C   UNL A   1      28.249  32.844  21.842  1.00  0.00     0.020 A 
ATOM     21  C   UNL A   1      27.925  32.237  20.610  1.00  0.00     0.020 A 
ENDBRANCH  14  17
ENDBRANCH   6   9
ENDBRANCH   4   5
ENDBRANCH   3   4
ENDBRANCH   2   3
ENDBRANCH   1   2
BRANCH   1  22
ATOM     22  C   UNL A   1      31.262  32.526  26.631  1.00  0.00     0.021 C 
BRANCH  22  23
ATOM     23  C   UNL A   1      32.633  32.981  27.108  1.00  0.00     0.116 C 
BRANCH  23  24
ATOM     24  N   UNL A   1      32.520  34.305  27.696  1.00  0.00    -0.352 N 
ATOM     25  C   UNL A   1      33.096  34.831  28.816  1.00  0.00     0.251 C 
ATOM     26  H   UNL A   1      31.932  34.924  27.206  1.00  0.00     0.163 HD
ATOM     27  O   UNL A   1      32.617  35.829  29.333  1.00  0.00    -0.269 OA
BRANCH  25  28
ATOM     28  C   UNL A   1      34.296  34.210  29.395  1.00  0.00     0.039 A 
ATOM     29  C   UNL A   1      34.148  33.484  30.582  1.00  0.00     0.014 A 
ATOM     30  C   UNL A   1      35.560  34.433  28.837  1.00  0.00     0.014 A 
ATOM     31  C   UNL A   1      35.271  32.963  31.200  1.00  0.00     0.010 A 
ATOM     32  C   UNL A   1      36.678  33.872  29.421  1.00  0.00     0.010 A 
ATOM     33  C   UNL A   1      36.528  33.154  30.608  1.00  0.00    -0.014 A 
BRANCH  33  34
ATOM     34  C   UNL A   1      37.687  32.443  31.160  1.00  0.00     0.031 A 
ATOM     35  C   UNL A   1      37.885  31.108  30.407  1.00  0.00     0.074 A 
ATOM     36  C   UNL A   1      38.324  33.064  32.205  1.00  0.00     0.049 A 
ATOM     37  N   UNL A   1      38.415  30.003  30.819  1.00  0.00    -0.248 NA
ATOM     38  C   UNL A   1      37.370  30.946  29.013  1.00  0.00     0.031 C 
ATOM     39  C   UNL A   1      37.999  34.421  32.721  1.00  0.00     0.029 A 
ATOM     40  N   UNL A   1      39.364  32.721  33.044  1.00  0.00    -0.354 N 
ATOM     41  C   UNL A   1      38.483  29.109  29.725  1.00  0.00     0.074 A 
ATOM     42  C   UNL A   1      37.717  29.700  28.674  1.00  0.00     0.031 C 
ATOM     43  C   UNL A   1      38.738  34.728  33.813  1.00  0.00     0.029 A 
ATOM     44  C   UNL A   1      39.620  33.621  34.121  1.00  0.00     0.049 A 
ATOM     45  H   UNL A   1      39.895  31.903  32.908  1.00  0.00     0.167 HD
ATOM     46  C   UNL A   1      39.320  28.027  29.720  1.00  0.00     0.031 A 
ATOM     47  C   UNL A   1      40.454  33.454  35.198  1.00  0.00     0.031 A 
ATOM     48  C   UNL A   1      39.976  27.933  30.981  1.00  0.00     0.049 A 
ATOM     49  C   UNL A   1      41.202  32.232  34.895  1.00  0.00     0.074 A 
ATOM     50  C   UNL A   1      39.499  27.666  32.239  1.00  0.00     0.029 A 
ATOM     51  N   UNL A   1      41.172  28.608  31.074  1.00  0.00    -0.354 N 
ATOM     52  N   UNL A   1      42.154  32.155  34.020  1.00  0.00    -0.248 NA
ATOM     53  C   UNL A   1      40.831  30.984  35.571  1.00  0.00     0.031 C 
ATOM     54  C   UNL A   1      40.108  28.683  33.003  1.00  0.00     0.029 A 
ATOM     55  C   UNL A   1      41.153  29.265  32.274  1.00  0.00     0.049 A 
ATOM     56  H   UNL A   1      41.897  28.617  30.409  1.00  0.00     0.167 HD
ATOM     57  C   UNL A   1      42.161  30.816  33.739  1.00  0.00     0.074 A 
ATOM     58  C   UNL A   1      41.634  30.147  34.916  1.00  0.00     0.031 C 
ATOM     59  C   UNL A   1      42.001  30.414  32.449  1.00  0.00     0.031 A 
BRANCH  46  60
ATOM     60  C   UNL A   1      39.887  27.190  28.607  1.00  0.00    -0.014 A 
ATOM     61  C   UNL A   1      39.769  25.783  28.740  1.00  0.00     0.009 A 
ATOM     62  C   UNL A   1      40.815  27.670  27.679  1.00  0.00     0.009 A 
ATOM     63  C   UNL A   1      40.637  24.904  28.092  1.00  0.00     0.001 A 
ATOM     64  C   UNL A   1      41.660  26.783  26.994  1.00  0.00     0.001 A 
ATOM     65  C   UNL A   1      41.599  25.409  27.231  1.00  0.00     0.000 A 
ENDBRANCH  46  60
BRANCH  47  66
ATOM     66  C   UNL A   1      40.790  34.053  36.546  1.00  0.00    -0.014 A 
ATOM     67  C   UNL A   1      42.062  34.299  37.066  1.00  0.00     0.009 A 
ATOM     68  C   UNL A   1      39.708  34.538  37.344  1.00  0.00     0.009 A 
ATOM     69  C   UNL A   1      42.226  35.072  38.243  1.00  0.00     0.001 A 
ATOM     70  C   UNL A   1      39.863  35.351  38.468  1.00  0.00     0.001 A 
ATOM     71  C   UNL A   1      41.135  35.633  38.914  1.00  0.00     0.000 A 
ENDBRANCH  47  66
BRANCH  59  72
ATOM     72  C   UNL A   1      42.365  31.446  31.377  1.00  0.00    -0.014 A 
ATOM     73  C   UNL A   1      43.717  31.763  31.143  1.00  0.00     0.009 A 
ATOM     74  C   UNL A   1      41.415  32.209  30.674  1.00  0.00     0.009 A 
ATOM     75  C   UNL A   1      44.100  32.810  30.291  1.00  0.00     0.001 A 
ATOM     76  C   UNL A   1      41.793  33.258  29.814  1.00  0.00     0.001 A 
ATOM     77  C   UNL A   1      43.138  33.562  29.627  1.00  0.00     0.000 A 
ENDBRANCH  59  72
ENDBRANCH  33  34
ENDBRANCH  25  28
ENDBRANCH  23  24
ENDBRANCH  22  23
ENDBRANCH   1  22
TORSDOF 15
ENDMDL
