MODEL 1
REMARK VINA RESULT:     -10.7      0.000      0.000
REMARK SMILES CN1C(=O)CC[C@H]([NH2+]Cc2ccc(C(=O)NCCCCCCNC(=O)c3ccc(-c4c5nc(c(-c6ccccc6)c6ccc([nH]6)c(-c6ccccc6)c6nc(c(-c7ccccc7)c7ccc4[nH]7)C=C6)C=C5)cc3)cn2)C1=O
REMARK SMILES IDX 19 1 18 2 17 3 16 4 14 5 15 6 13 8 10 9 11 10 75 11 12 12
REMARK SMILES IDX 74 13 9 14 8 15 7 18 1 19 2 20 3 21 76 22 4 23 5 24 77 25
REMARK SMILES IDX 6 26 20 27 21 28 22 29 23 30 24 31 25 33 26 34 27 35 73 36
REMARK SMILES IDX 28 37 72 38 29 39 30 40 31 41 66 42 32 43 71 44 65 45 67 46
REMARK SMILES IDX 33 47 70 48 64 49 63 50 34 52 56 53 41 54 55 55 42 56 45 57
REMARK SMILES IDX 54 58 68 59 43 60 44 61 53 63 69 64 46 65 35 66 36 67 40 68
REMARK SMILES IDX 37 69 39 70 38 71 57 72 58 73 62 74 59 75 61 76 60 77 47 78
REMARK SMILES IDX 48 79 52 80 49 81 51 82 50 83
REMARK H PARENT 16 7 8 16 8 17 23 32 67 51 45 62
REMARK Flexibility Score: inf
ROOT
ATOM      1  C   UNL A   1      37.422  23.234  25.482  1.00  0.00     0.002 C 
ENDROOT
BRANCH   1   2
ATOM      2  C   UNL A   1      36.862  22.574  24.215  1.00  0.00     0.021 C 
BRANCH   2   3
ATOM      3  C   UNL A   1      35.414  22.102  24.364  1.00  0.00     0.116 C 
BRANCH   3   4
ATOM      4  N   UNL A   1      35.176  21.621  25.712  1.00  0.00    -0.352 N 
ATOM      5  C   UNL A   1      34.354  22.066  26.715  1.00  0.00     0.252 C 
ATOM      6  O   UNL A   1      34.323  21.423  27.764  1.00  0.00    -0.269 OA
ATOM      7  H   UNL A   1      35.704  20.825  25.951  1.00  0.00     0.163 HD
BRANCH   5   8
ATOM      8  C   UNL A   1      33.469  23.244  26.573  1.00  0.00     0.058 A 
ATOM      9  C   UNL A   1      31.581  25.246  26.287  1.00  0.00     0.094 A 
ATOM     10  C   UNL A   1      32.911  25.509  25.964  1.00  0.00     0.030 A 
ATOM     11  N   UNL A   1      31.183  24.054  26.798  1.00  0.00    -0.255 NA
ATOM     12  C   UNL A   1      33.864  24.504  26.133  1.00  0.00     0.017 A 
ATOM     13  C   UNL A   1      32.132  23.090  26.932  1.00  0.00     0.125 A 
BRANCH   9  14
ATOM     14  C   UNL A   1      30.512  26.297  26.037  1.00  0.00     0.318 C 
BRANCH  14  15
ATOM     15  N   UNL A   1      29.560  25.867  25.009  1.00  0.00    -0.331 N 
ATOM     16  H   UNL A   1      29.290  24.906  25.212  1.00  0.00     0.347 HD
ATOM     17  H   UNL A   1      28.787  26.532  25.051  1.00  0.00     0.347 HD
BRANCH  15  18
ATOM     18  C   UNL A   1      30.059  25.915  23.613  1.00  0.00     0.274 C 
ATOM     19  C   UNL A   1      32.857  23.775  22.081  1.00  0.00     0.156 C 
ATOM     20  N   UNL A   1      32.080  24.943  22.460  1.00  0.00    -0.281 N 
ATOM     21  C   UNL A   1      32.516  26.182  22.005  1.00  0.00     0.229 C 
ATOM     22  C   UNL A   1      30.910  24.696  23.180  1.00  0.00     0.287 C 
ATOM     23  O   UNL A   1      33.571  26.354  21.395  1.00  0.00    -0.274 OA
ATOM     24  C   UNL A   1      31.565  27.332  22.207  1.00  0.00     0.107 C 
ATOM     25  O   UNL A   1      30.525  23.538  23.376  1.00  0.00    -0.267 OA
ATOM     26  C   UNL A   1      30.850  27.217  23.531  1.00  0.00     0.085 C 
ENDBRANCH  15  18
ENDBRANCH  14  15
ENDBRANCH   9  14
ENDBRANCH   5   8
ENDBRANCH   3   4
ENDBRANCH   2   3
ENDBRANCH   1   2
BRANCH   1  27
ATOM     27  C   UNL A   1      38.625  22.516  26.107  1.00  0.00     0.002 C 
BRANCH  27  28
ATOM     28  C   UNL A   1      38.969  21.161  25.480  1.00  0.00     0.021 C 
BRANCH  28  29
ATOM     29  C   UNL A   1      39.423  20.100  26.480  1.00  0.00     0.116 C 
BRANCH  29  30
ATOM     30  N   UNL A   1      40.606  19.394  26.016  1.00  0.00    -0.352 N 
ATOM     31  C   UNL A   1      41.888  19.855  25.847  1.00  0.00     0.251 C 
ATOM     32  H   UNL A   1      40.467  18.446  25.789  1.00  0.00     0.163 HD
ATOM     33  O   UNL A   1      42.709  19.192  25.225  1.00  0.00    -0.269 OA
BRANCH  31  34
ATOM     34  C   UNL A   1      42.275  21.165  26.411  1.00  0.00     0.039 A 
ATOM     35  C   UNL A   1      42.667  22.187  25.543  1.00  0.00     0.014 A 
ATOM     36  C   UNL A   1      42.264  21.377  27.792  1.00  0.00     0.014 A 
ATOM     37  C   UNL A   1      42.982  23.446  26.057  1.00  0.00     0.010 A 
ATOM     38  C   UNL A   1      42.518  22.648  28.299  1.00  0.00     0.010 A 
ATOM     39  C   UNL A   1      42.874  23.695  27.436  1.00  0.00    -0.014 A 
BRANCH  39  40
ATOM     40  C   UNL A   1      43.098  25.052  27.991  1.00  0.00     0.031 A 
ATOM     41  C   UNL A   1      44.466  25.474  28.444  1.00  0.00     0.074 A 
ATOM     42  C   UNL A   1      42.047  25.877  28.155  1.00  0.00     0.049 A 
ATOM     43  N   UNL A   1      44.837  26.595  29.010  1.00  0.00    -0.248 NA
ATOM     44  C   UNL A   1      45.555  24.502  28.258  1.00  0.00     0.031 C 
ATOM     45  C   UNL A   1      40.663  25.569  27.788  1.00  0.00     0.029 A 
ATOM     46  N   UNL A   1      41.978  27.141  28.683  1.00  0.00    -0.354 N 
ATOM     47  C   UNL A   1      46.196  26.458  29.260  1.00  0.00     0.074 A 
ATOM     48  C   UNL A   1      46.574  25.130  28.827  1.00  0.00     0.031 C 
ATOM     49  C   UNL A   1      39.887  26.626  28.077  1.00  0.00     0.029 A 
ATOM     50  C   UNL A   1      40.708  27.665  28.687  1.00  0.00     0.049 A 
ATOM     51  H   UNL A   1      42.763  27.626  29.026  1.00  0.00     0.167 HD
ATOM     52  C   UNL A   1      47.055  27.363  29.788  1.00  0.00     0.031 A 
ATOM     53  C   UNL A   1      40.253  28.847  29.141  1.00  0.00     0.031 A 
ATOM     54  C   UNL A   1      46.677  28.682  30.220  1.00  0.00     0.049 A 
ATOM     55  C   UNL A   1      41.218  29.818  29.758  1.00  0.00     0.074 A 
ATOM     56  C   UNL A   1      47.485  29.695  30.706  1.00  0.00     0.029 A 
ATOM     57  N   UNL A   1      45.379  29.168  30.227  1.00  0.00    -0.354 N 
ATOM     58  N   UNL A   1      42.514  29.703  29.920  1.00  0.00    -0.248 NA
ATOM     59  C   UNL A   1      40.656  31.082  30.254  1.00  0.00     0.031 C 
ATOM     60  C   UNL A   1      46.667  30.774  31.061  1.00  0.00     0.029 A 
ATOM     61  C   UNL A   1      45.356  30.452  30.748  1.00  0.00     0.049 A 
ATOM     62  H   UNL A   1      44.589  28.673  29.910  1.00  0.00     0.167 HD
ATOM     63  C   UNL A   1      42.926  30.883  30.524  1.00  0.00     0.074 A 
ATOM     64  C   UNL A   1      41.745  31.709  30.680  1.00  0.00     0.031 C 
ATOM     65  C   UNL A   1      44.170  31.250  30.915  1.00  0.00     0.031 A 
BRANCH  52  66
ATOM     66  C   UNL A   1      48.490  26.940  29.943  1.00  0.00    -0.014 A 
ATOM     67  C   UNL A   1      48.939  26.297  31.109  1.00  0.00     0.009 A 
ATOM     68  C   UNL A   1      49.402  27.167  28.901  1.00  0.00     0.009 A 
ATOM     69  C   UNL A   1      50.280  25.932  31.245  1.00  0.00     0.001 A 
ATOM     70  C   UNL A   1      50.736  26.775  29.028  1.00  0.00     0.001 A 
ATOM     71  C   UNL A   1      51.176  26.169  30.204  1.00  0.00     0.000 A 
ENDBRANCH  52  66
BRANCH  53  72
ATOM     72  C   UNL A   1      38.812  29.180  29.017  1.00  0.00    -0.014 A 
ATOM     73  C   UNL A   1      37.946  28.998  30.106  1.00  0.00     0.009 A 
ATOM     74  C   UNL A   1      38.296  29.698  27.818  1.00  0.00     0.009 A 
ATOM     75  C   UNL A   1      36.591  29.314  29.993  1.00  0.00     0.001 A 
ATOM     76  C   UNL A   1      36.946  30.037  27.716  1.00  0.00     0.001 A 
ATOM     77  C   UNL A   1      36.093  29.838  28.800  1.00  0.00     0.000 A 
ENDBRANCH  53  72
BRANCH  65  78
ATOM     78  C   UNL A   1      44.315  32.605  31.548  1.00  0.00    -0.014 A 
ATOM     79  C   UNL A   1      44.530  33.749  30.765  1.00  0.00     0.009 A 
ATOM     80  C   UNL A   1      44.199  32.742  32.940  1.00  0.00     0.009 A 
ATOM     81  C   UNL A   1      44.657  35.002  31.368  1.00  0.00     0.001 A 
ATOM     82  C   UNL A   1      44.299  34.000  33.536  1.00  0.00     0.001 A 
ATOM     83  C   UNL A   1      44.537  35.128  32.751  1.00  0.00     0.000 A 
ENDBRANCH  65  78
ENDBRANCH  39  40
ENDBRANCH  31  34
ENDBRANCH  29  30
ENDBRANCH  28  29
ENDBRANCH  27  28
ENDBRANCH   1  27
TORSDOF 16
ENDMDL
MODEL 2
REMARK VINA RESULT:     -10.7      5.022     10.065
REMARK SMILES CN1C(=O)CC[C@H]([NH2+]Cc2ccc(C(=O)NCCCCCCNC(=O)c3ccc(-c4c5nc(c(-c6ccccc6)c6ccc([nH]6)c(-c6ccccc6)c6nc(c(-c7ccccc7)c7ccc4[nH]7)C=C6)C=C5)cc3)cn2)C1=O
REMARK SMILES IDX 19 1 18 2 17 3 16 4 14 5 15 6 13 8 10 9 11 10 75 11 12 12
REMARK SMILES IDX 74 13 9 14 8 15 7 18 1 19 2 20 3 21 76 22 4 23 5 24 77 25
REMARK SMILES IDX 6 26 20 27 21 28 22 29 23 30 24 31 25 33 26 34 27 35 73 36
REMARK SMILES IDX 28 37 72 38 29 39 30 40 31 41 66 42 32 43 71 44 65 45 67 46
REMARK SMILES IDX 33 47 70 48 64 49 63 50 34 52 56 53 41 54 55 55 42 56 45 57
REMARK SMILES IDX 54 58 68 59 43 60 44 61 53 63 69 64 46 65 35 66 36 67 40 68
REMARK SMILES IDX 37 69 39 70 38 71 57 72 58 73 62 74 59 75 61 76 60 77 47 78
REMARK SMILES IDX 48 79 52 80 49 81 51 82 50 83
REMARK H PARENT 16 7 8 16 8 17 23 32 67 51 45 62
REMARK Flexibility Score: inf
ROOT
ATOM      1  C   UNL A   1      34.564  32.575  29.064  1.00  0.00     0.002 C 
ENDROOT
BRANCH   1   2
ATOM      2  C   UNL A   1      35.051  31.599  27.984  1.00  0.00     0.021 C 
BRANCH   2   3
ATOM      3  C   UNL A   1      34.012  30.540  27.607  1.00  0.00     0.116 C 
BRANCH   3   4
ATOM      4  N   UNL A   1      32.843  31.167  27.019  1.00  0.00    -0.352 N 
ATOM      5  C   UNL A   1      31.845  30.680  26.214  1.00  0.00     0.252 C 
ATOM      6  O   UNL A   1      30.936  31.445  25.894  1.00  0.00    -0.269 OA
ATOM      7  H   UNL A   1      32.748  32.122  27.240  1.00  0.00     0.163 HD
BRANCH   5   8
ATOM      8  C   UNL A   1      31.786  29.271  25.762  1.00  0.00     0.058 A 
ATOM      9  C   UNL A   1      31.654  26.750  24.632  1.00  0.00     0.094 A 
ATOM     10  C   UNL A   1      31.295  26.920  25.968  1.00  0.00     0.030 A 
ATOM     11  N   UNL A   1      32.128  27.771  23.874  1.00  0.00    -0.255 NA
ATOM     12  C   UNL A   1      31.386  28.189  26.541  1.00  0.00     0.017 A 
ATOM     13  C   UNL A   1      32.186  28.998  24.456  1.00  0.00     0.125 A 
BRANCH   9  14
ATOM     14  C   UNL A   1      31.488  25.395  23.962  1.00  0.00     0.318 C 
BRANCH  14  15
ATOM     15  N   UNL A   1      30.522  24.554  24.673  1.00  0.00    -0.331 N 
ATOM     16  H   UNL A   1      30.268  25.029  25.538  1.00  0.00     0.347 HD
ATOM     17  H   UNL A   1      29.742  24.421  24.029  1.00  0.00     0.347 HD
BRANCH  15  18
ATOM     18  C   UNL A   1      30.993  23.192  25.023  1.00  0.00     0.274 C 
ATOM     19  C   UNL A   1      33.391  22.231  27.867  1.00  0.00     0.156 C 
ATOM     20  N   UNL A   1      32.814  22.322  26.536  1.00  0.00    -0.281 N 
ATOM     21  C   UNL A   1      33.429  21.604  25.516  1.00  0.00     0.229 C 
ATOM     22  C   UNL A   1      31.635  23.061  26.426  1.00  0.00     0.287 C 
ATOM     23  O   UNL A   1      34.485  20.988  25.655  1.00  0.00    -0.274 OA
ATOM     24  C   UNL A   1      32.673  21.524  24.216  1.00  0.00     0.107 C 
ATOM     25  O   UNL A   1      31.077  23.509  27.434  1.00  0.00    -0.267 OA
ATOM     26  C   UNL A   1      31.977  22.829  23.914  1.00  0.00     0.085 C 
ENDBRANCH  15  18
ENDBRANCH  14  15
ENDBRANCH   9  14
ENDBRANCH   5   8
ENDBRANCH   3   4
ENDBRANCH   2   3
ENDBRANCH   1   2
BRANCH   1  27
ATOM     27  C   UNL A   1      34.617  34.056  28.667  1.00  0.00     0.002 C 
BRANCH  27  28
ATOM     28  C   UNL A   1      33.310  34.829  28.873  1.00  0.00     0.021 C 
BRANCH  28  29
ATOM     29  C   UNL A   1      33.473  36.157  29.608  1.00  0.00     0.116 C 
BRANCH  29  30
ATOM     30  N   UNL A   1      32.525  36.286  30.704  1.00  0.00    -0.352 N 
ATOM     31  C   UNL A   1      32.532  35.685  31.939  1.00  0.00     0.251 C 
ATOM     32  H   UNL A   1      31.768  36.892  30.536  1.00  0.00     0.163 HD
ATOM     33  O   UNL A   1      31.536  35.720  32.651  1.00  0.00    -0.269 OA
BRANCH  31  34
ATOM     34  C   UNL A   1      33.747  34.984  32.405  1.00  0.00     0.039 A 
ATOM     35  C   UNL A   1      33.629  33.683  32.901  1.00  0.00     0.014 A 
ATOM     36  C   UNL A   1      34.993  35.614  32.364  1.00  0.00     0.014 A 
ATOM     37  C   UNL A   1      34.774  32.988  33.294  1.00  0.00     0.010 A 
ATOM     38  C   UNL A   1      36.140  34.900  32.697  1.00  0.00     0.010 A 
ATOM     39  C   UNL A   1      36.041  33.580  33.160  1.00  0.00    -0.014 A 
BRANCH  39  40
ATOM     40  C   UNL A   1      37.279  32.822  33.467  1.00  0.00     0.031 A 
ATOM     41  C   UNL A   1      38.031  33.075  34.742  1.00  0.00     0.074 A 
ATOM     42  C   UNL A   1      37.763  31.956  32.557  1.00  0.00     0.049 A 
ATOM     43  N   UNL A   1      39.161  32.554  35.149  1.00  0.00    -0.248 NA
ATOM     44  C   UNL A   1      37.451  34.058  35.669  1.00  0.00     0.031 C 
ATOM     45  C   UNL A   1      37.143  31.650  31.265  1.00  0.00     0.029 A 
ATOM     46  N   UNL A   1      38.895  31.182  32.575  1.00  0.00    -0.354 N 
ATOM     47  C   UNL A   1      39.434  33.155  36.371  1.00  0.00     0.074 A 
ATOM     48  C   UNL A   1      38.376  34.112  36.616  1.00  0.00     0.031 C 
ATOM     49  C   UNL A   1      37.889  30.734  30.628  1.00  0.00     0.029 A 
ATOM     50  C   UNL A   1      39.058  30.421  31.442  1.00  0.00     0.049 A 
ATOM     51  H   UNL A   1      39.531  31.174  33.327  1.00  0.00     0.167 HD
ATOM     52  C   UNL A   1      40.464  32.920  37.219  1.00  0.00     0.031 A 
ATOM     53  C   UNL A   1      40.043  29.573  31.094  1.00  0.00     0.031 A 
ATOM     54  C   UNL A   1      41.514  31.969  36.973  1.00  0.00     0.049 A 
ATOM     55  C   UNL A   1      41.194  29.358  32.034  1.00  0.00     0.074 A 
ATOM     56  C   UNL A   1      42.564  31.610  37.800  1.00  0.00     0.029 A 
ATOM     57  N   UNL A   1      41.655  31.233  35.806  1.00  0.00    -0.354 N 
ATOM     58  N   UNL A   1      41.399  29.880  33.220  1.00  0.00    -0.248 NA
ATOM     59  C   UNL A   1      42.247  28.437  31.588  1.00  0.00     0.031 C 
ATOM     60  C   UNL A   1      43.373  30.699  37.109  1.00  0.00     0.029 A 
ATOM     61  C   UNL A   1      42.797  30.452  35.874  1.00  0.00     0.049 A 
ATOM     62  H   UNL A   1      41.035  31.262  35.042  1.00  0.00     0.167 HD
ATOM     63  C   UNL A   1      42.598  29.340  33.667  1.00  0.00     0.074 A 
ATOM     64  C   UNL A   1      43.062  28.436  32.634  1.00  0.00     0.031 C 
ATOM     65  C   UNL A   1      43.255  29.574  34.829  1.00  0.00     0.031 A 
BRANCH  52  66
ATOM     66  C   UNL A   1      40.506  33.725  38.489  1.00  0.00    -0.014 A 
ATOM     67  C   UNL A   1      41.204  34.942  38.557  1.00  0.00     0.009 A 
ATOM     68  C   UNL A   1      39.822  33.271  39.627  1.00  0.00     0.009 A 
ATOM     69  C   UNL A   1      41.251  35.665  39.751  1.00  0.00     0.001 A 
ATOM     70  C   UNL A   1      39.848  34.011  40.811  1.00  0.00     0.001 A 
ATOM     71  C   UNL A   1      40.572  35.200  40.876  1.00  0.00     0.000 A 
ENDBRANCH  52  66
BRANCH  53  72
ATOM     72  C   UNL A   1      39.975  28.856  29.797  1.00  0.00    -0.014 A 
ATOM     73  C   UNL A   1      39.481  27.544  29.736  1.00  0.00     0.009 A 
ATOM     74  C   UNL A   1      40.384  29.484  28.609  1.00  0.00     0.009 A 
ATOM     75  C   UNL A   1      39.412  26.870  28.516  1.00  0.00     0.001 A 
ATOM     76  C   UNL A   1      40.290  28.816  27.387  1.00  0.00     0.001 A 
ATOM     77  C   UNL A   1      39.811  27.508  27.342  1.00  0.00     0.000 A 
ENDBRANCH  53  72
BRANCH  65  78
ATOM     78  C   UNL A   1      44.547  28.837  35.042  1.00  0.00    -0.014 A 
ATOM     79  C   UNL A   1      44.564  27.562  35.628  1.00  0.00     0.009 A 
ATOM     80  C   UNL A   1      45.757  29.410  34.619  1.00  0.00     0.009 A 
ATOM     81  C   UNL A   1      45.772  26.888  35.814  1.00  0.00     0.001 A 
ATOM     82  C   UNL A   1      46.959  28.721  34.782  1.00  0.00     0.001 A 
ATOM     83  C   UNL A   1      46.967  27.465  35.387  1.00  0.00     0.000 A 
ENDBRANCH  65  78
ENDBRANCH  39  40
ENDBRANCH  31  34
ENDBRANCH  29  30
ENDBRANCH  28  29
ENDBRANCH  27  28
ENDBRANCH   1  27
TORSDOF 16
ENDMDL
MODEL 3
REMARK VINA RESULT:     -10.6      1.817      7.552
REMARK SMILES CN1C(=O)CC[C@H]([NH2+]Cc2ccc(C(=O)NCCCCCCNC(=O)c3ccc(-c4c5nc(c(-c6ccccc6)c6ccc([nH]6)c(-c6ccccc6)c6nc(c(-c7ccccc7)c7ccc4[nH]7)C=C6)C=C5)cc3)cn2)C1=O
REMARK SMILES IDX 19 1 18 2 17 3 16 4 14 5 15 6 13 8 10 9 11 10 75 11 12 12
REMARK SMILES IDX 74 13 9 14 8 15 7 18 1 19 2 20 3 21 76 22 4 23 5 24 77 25
REMARK SMILES IDX 6 26 20 27 21 28 22 29 23 30 24 31 25 33 26 34 27 35 73 36
REMARK SMILES IDX 28 37 72 38 29 39 30 40 31 41 66 42 32 43 71 44 65 45 67 46
REMARK SMILES IDX 33 47 70 48 64 49 63 50 34 52 56 53 41 54 55 55 42 56 45 57
REMARK SMILES IDX 54 58 68 59 43 60 44 61 53 63 69 64 46 65 35 66 36 67 40 68
REMARK SMILES IDX 37 69 39 70 38 71 57 72 58 73 62 74 59 75 61 76 60 77 47 78
REMARK SMILES IDX 48 79 52 80 49 81 51 82 50 83
REMARK H PARENT 16 7 8 16 8 17 23 32 67 51 45 62
REMARK Flexibility Score: inf
ROOT
ATOM      1  C   UNL A   1      31.039  26.745  25.918  1.00  0.00     0.002 C 
ENDROOT
BRANCH   1   2
ATOM      2  C   UNL A   1      30.561  27.037  24.489  1.00  0.00     0.021 C 
BRANCH   2   3
ATOM      3  C   UNL A   1      30.789  25.874  23.521  1.00  0.00     0.116 C 
BRANCH   3   4
ATOM      4  N   UNL A   1      31.659  26.284  22.435  1.00  0.00    -0.352 N 
ATOM      5  C   UNL A   1      32.991  26.065  22.192  1.00  0.00     0.252 C 
ATOM      6  O   UNL A   1      33.467  26.506  21.146  1.00  0.00    -0.269 OA
ATOM      7  H   UNL A   1      31.209  26.820  21.743  1.00  0.00     0.163 HD
BRANCH   5   8
ATOM      8  C   UNL A   1      33.861  25.281  23.098  1.00  0.00     0.058 A 
ATOM      9  C   UNL A   1      35.424  23.574  24.612  1.00  0.00     0.094 A 
ATOM     10  C   UNL A   1      34.930  24.742  25.190  1.00  0.00     0.030 A 
ATOM     11  N   UNL A   1      35.218  23.269  23.306  1.00  0.00    -0.255 NA
ATOM     12  C   UNL A   1      34.162  25.612  24.416  1.00  0.00     0.017 A 
ATOM     13  C   UNL A   1      34.449  24.129  22.585  1.00  0.00     0.125 A 
BRANCH   9  14
ATOM     14  C   UNL A   1      36.195  22.571  25.455  1.00  0.00     0.318 C 
BRANCH  14  15
ATOM     15  N   UNL A   1      35.552  21.254  25.454  1.00  0.00    -0.331 N 
ATOM     16  H   UNL A   1      35.396  20.982  24.485  1.00  0.00     0.347 HD
ATOM     17  H   UNL A   1      36.184  20.636  25.962  1.00  0.00     0.347 HD
BRANCH  15  18
ATOM     18  C   UNL A   1      34.253  21.176  26.164  1.00  0.00     0.274 C 
ATOM     19  C   UNL A   1      30.887  22.616  24.998  1.00  0.00     0.156 C 
ATOM     20  N   UNL A   1      32.030  22.326  25.847  1.00  0.00    -0.281 N 
ATOM     21  C   UNL A   1      32.010  22.819  27.147  1.00  0.00     0.229 C 
ATOM     22  C   UNL A   1      33.012  21.500  25.296  1.00  0.00     0.287 C 
ATOM     23  O   UNL A   1      31.134  23.568  27.580  1.00  0.00    -0.274 OA
ATOM     24  C   UNL A   1      33.084  22.302  28.067  1.00  0.00     0.107 C 
ATOM     25  O   UNL A   1      32.841  20.971  24.192  1.00  0.00    -0.267 OA
ATOM     26  C   UNL A   1      34.394  22.145  27.335  1.00  0.00     0.085 C 
ENDBRANCH  15  18
ENDBRANCH  14  15
ENDBRANCH   9  14
ENDBRANCH   5   8
ENDBRANCH   3   4
ENDBRANCH   2   3
ENDBRANCH   1   2
BRANCH   1  27
ATOM     27  C   UNL A   1      31.501  27.975  26.709  1.00  0.00     0.002 C 
BRANCH  27  28
ATOM     28  C   UNL A   1      32.958  27.934  27.178  1.00  0.00     0.021 C 
BRANCH  28  29
ATOM     29  C   UNL A   1      33.868  28.956  26.499  1.00  0.00     0.116 C 
BRANCH  29  30
ATOM     30  N   UNL A   1      33.787  30.258  27.140  1.00  0.00    -0.352 N 
ATOM     31  C   UNL A   1      34.629  30.832  28.061  1.00  0.00     0.251 C 
ATOM     32  H   UNL A   1      33.016  30.810  26.875  1.00  0.00     0.163 HD
ATOM     33  O   UNL A   1      34.286  31.837  28.672  1.00  0.00    -0.269 OA
BRANCH  31  34
ATOM     34  C   UNL A   1      35.952  30.227  28.321  1.00  0.00     0.039 A 
ATOM     35  C   UNL A   1      36.928  30.278  27.324  1.00  0.00     0.014 A 
ATOM     36  C   UNL A   1      36.220  29.601  29.541  1.00  0.00     0.014 A 
ATOM     37  C   UNL A   1      38.199  29.759  27.575  1.00  0.00     0.010 A 
ATOM     38  C   UNL A   1      37.505  29.140  29.814  1.00  0.00     0.010 A 
ATOM     39  C   UNL A   1      38.507  29.220  28.835  1.00  0.00    -0.014 A 
BRANCH  39  40
ATOM     40  C   UNL A   1      39.880  28.764  29.161  1.00  0.00     0.031 A 
ATOM     41  C   UNL A   1      40.843  29.682  29.858  1.00  0.00     0.074 A 
ATOM     42  C   UNL A   1      40.281  27.544  28.759  1.00  0.00     0.049 A 
ATOM     43  N   UNL A   1      42.099  29.478  30.165  1.00  0.00    -0.248 NA
ATOM     44  C   UNL A   1      40.336  31.010  30.236  1.00  0.00     0.031 C 
ATOM     45  C   UNL A   1      39.450  26.573  28.042  1.00  0.00     0.029 A 
ATOM     46  N   UNL A   1      41.493  26.915  28.887  1.00  0.00    -0.354 N 
ATOM     47  C   UNL A   1      42.536  30.655  30.761  1.00  0.00     0.074 A 
ATOM     48  C   UNL A   1      41.426  31.582  30.729  1.00  0.00     0.031 C 
ATOM     49  C   UNL A   1      40.169  25.462  27.818  1.00  0.00     0.029 A 
ATOM     50  C   UNL A   1      41.519  25.657  28.334  1.00  0.00     0.049 A 
ATOM     51  H   UNL A   1      42.269  27.325  29.331  1.00  0.00     0.167 HD
ATOM     52  C   UNL A   1      43.748  30.932  31.300  1.00  0.00     0.031 A 
ATOM     53  C   UNL A   1      42.521  24.763  28.245  1.00  0.00     0.031 A 
ATOM     54  C   UNL A   1      44.851  30.009  31.330  1.00  0.00     0.049 A 
ATOM     55  C   UNL A   1      43.866  25.108  28.815  1.00  0.00     0.074 A 
ATOM     56  C   UNL A   1      46.096  30.171  31.912  1.00  0.00     0.029 A 
ATOM     57  N   UNL A   1      44.845  28.753  30.742  1.00  0.00    -0.354 N 
ATOM     58  N   UNL A   1      44.242  26.198  29.441  1.00  0.00    -0.248 NA
ATOM     59  C   UNL A   1      44.924  24.100  28.667  1.00  0.00     0.031 C 
ATOM     60  C   UNL A   1      46.863  29.036  31.626  1.00  0.00     0.029 A 
ATOM     61  C   UNL A   1      46.078  28.145  30.912  1.00  0.00     0.049 A 
ATOM     62  H   UNL A   1      44.077  28.353  30.273  1.00  0.00     0.167 HD
ATOM     63  C   UNL A   1      45.576  26.001  29.773  1.00  0.00     0.074 A 
ATOM     64  C   UNL A   1      45.936  24.680  29.298  1.00  0.00     0.031 C 
ATOM     65  C   UNL A   1      46.426  26.840  30.414  1.00  0.00     0.031 A 
BRANCH  52  66
ATOM     66  C   UNL A   1      43.942  32.303  31.886  1.00  0.00    -0.014 A 
ATOM     67  C   UNL A   1      44.446  33.362  31.113  1.00  0.00     0.009 A 
ATOM     68  C   UNL A   1      43.597  32.546  33.225  1.00  0.00     0.009 A 
ATOM     69  C   UNL A   1      44.642  34.623  31.680  1.00  0.00     0.001 A 
ATOM     70  C   UNL A   1      43.767  33.816  33.781  1.00  0.00     0.001 A 
ATOM     71  C   UNL A   1      44.300  34.849  33.012  1.00  0.00     0.000 A 
ENDBRANCH  52  66
BRANCH  53  72
ATOM     72  C   UNL A   1      42.283  23.450  27.596  1.00  0.00    -0.014 A 
ATOM     73  C   UNL A   1      41.750  22.381  28.333  1.00  0.00     0.009 A 
ATOM     74  C   UNL A   1      42.567  23.261  26.234  1.00  0.00     0.009 A 
ATOM     75  C   UNL A   1      41.521  21.147  27.724  1.00  0.00     0.001 A 
ATOM     76  C   UNL A   1      42.313  22.033  25.621  1.00  0.00     0.001 A 
ATOM     77  C   UNL A   1      41.797  20.975  26.368  1.00  0.00     0.000 A 
ENDBRANCH  53  72
BRANCH  65  78
ATOM     78  C   UNL A   1      47.828  26.350  30.638  1.00  0.00    -0.014 A 
ATOM     79  C   UNL A   1      48.190  25.715  31.836  1.00  0.00     0.009 A 
ATOM     80  C   UNL A   1      48.789  26.493  29.625  1.00  0.00     0.009 A 
ATOM     81  C   UNL A   1      49.496  25.261  32.027  1.00  0.00     0.001 A 
ATOM     82  C   UNL A   1      50.086  26.013  29.809  1.00  0.00     0.001 A 
ATOM     83  C   UNL A   1      50.441  25.405  31.012  1.00  0.00     0.000 A 
ENDBRANCH  65  78
ENDBRANCH  39  40
ENDBRANCH  31  34
ENDBRANCH  29  30
ENDBRANCH  28  29
ENDBRANCH  27  28
ENDBRANCH   1  27
TORSDOF 16
ENDMDL
