MODEL 1
REMARK VINA RESULT:     -11.4      0.000      0.000
REMARK SMILES O=C(NCCCCCCNC(=O)c1ccc(-c2c3nc(c(-c4ccccc4)c4ccc([nH]4)c(-c4ccccc4)c4nc(c(-c5ccccc5)c5ccc2[nH]5)C=C4)C=C3)cc1)C1=Cc2ccc(Cl)c(Cl)c2O[C@@H]1C(F)(F)F
REMARK SMILES IDX 7 1 6 2 5 3 4 4 3 5 1 6 2 7 61 9 62 10 72 11 63 12 71 13
REMARK SMILES IDX 64 14 70 15 65 16 68 17 66 18 69 19 67 20 73 21 74 22 75 23
REMARK SMILES IDX 76 24 8 25 9 26 10 27 11 28 12 30 13 31 14 32 60 33 15 34
REMARK SMILES IDX 59 35 16 36 17 37 18 38 53 39 19 40 58 41 52 42 54 43 20 44
REMARK SMILES IDX 57 45 51 46 50 47 21 49 43 50 28 51 42 52 29 53 32 54 41 55
REMARK SMILES IDX 55 56 30 57 31 58 40 60 56 61 33 62 22 63 23 64 27 65 24 66
REMARK SMILES IDX 26 67 25 68 44 69 45 70 49 71 46 72 48 73 47 74 34 75 35 76
REMARK SMILES IDX 39 77 36 78 38 79 37 80
REMARK H PARENT 3 8 10 29 54 48 32 59
REMARK Flexibility Score: inf
ROOT
ATOM      1  C   UNL A   1      32.681  29.522  24.891  1.00  0.00     0.002 C 
ENDROOT
BRANCH   1   2
ATOM      2  C   UNL A   1      31.192  29.186  24.745  1.00  0.00     0.002 C 
BRANCH   2   3
ATOM      3  C   UNL A   1      30.594  29.283  23.342  1.00  0.00     0.021 C 
BRANCH   3   4
ATOM      4  C   UNL A   1      30.328  27.965  22.621  1.00  0.00     0.116 C 
BRANCH   4   5
ATOM      5  N   UNL A   1      31.508  27.306  22.082  1.00  0.00    -0.352 N 
ATOM      6  O   UNL A   1      32.954  25.628  21.686  1.00  0.00    -0.270 OA
ATOM      7  C   UNL A   1      32.038  26.075  22.373  1.00  0.00     0.251 C 
ATOM      8  H   UNL A   1      32.002  27.823  21.405  1.00  0.00     0.163 HD
BRANCH   7   9
ATOM      9  C   UNL A   1      31.458  25.203  23.438  1.00  0.00     0.067 C 
ATOM     10  C   UNL A   1      31.147  23.926  23.177  1.00  0.00     0.025 C 
ATOM     11  C   UNL A   1      31.903  25.586  24.826  1.00  0.00     0.314 C 
ATOM     12  C   UNL A   1      31.968  22.947  23.906  1.00  0.00     0.019 A 
ATOM     13  O   UNL A   1      32.906  24.675  25.342  1.00  0.00    -0.474 OA
ATOM     14  C   UNL A   1      32.030  21.643  23.402  1.00  0.00     0.013 A 
ATOM     15  C   UNL A   1      32.900  23.384  24.863  1.00  0.00     0.148 A 
ATOM     16  C   UNL A   1      33.072  20.803  23.791  1.00  0.00     0.023 A 
ATOM     17  C   UNL A   1      33.941  22.531  25.262  1.00  0.00     0.102 A 
ATOM     18  C   UNL A   1      34.038  21.250  24.699  1.00  0.00     0.063 A 
ATOM     19  Cl  UNL A   1      35.146  23.118  26.362  1.00  0.00    -0.079 Cl
ATOM     20  Cl  UNL A   1      35.368  20.193  25.019  1.00  0.00    -0.083 Cl
BRANCH  11  21
ATOM     21  C   UNL A   1      30.697  25.698  25.779  1.00  0.00     0.429 C 
ATOM     22  F   UNL A   1      30.873  26.687  26.686  1.00  0.00    -0.167 F 
ATOM     23  F   UNL A   1      29.552  25.973  25.111  1.00  0.00    -0.167 F 
ATOM     24  F   UNL A   1      30.484  24.552  26.473  1.00  0.00    -0.167 F 
ENDBRANCH  11  21
ENDBRANCH   7   9
ENDBRANCH   4   5
ENDBRANCH   3   4
ENDBRANCH   2   3
ENDBRANCH   1   2
BRANCH   1  25
ATOM     25  C   UNL A   1      33.567  28.501  25.613  1.00  0.00     0.021 C 
BRANCH  25  26
ATOM     26  C   UNL A   1      33.641  28.611  27.135  1.00  0.00     0.116 C 
BRANCH  26  27
ATOM     27  N   UNL A   1      33.579  29.978  27.617  1.00  0.00    -0.352 N 
ATOM     28  C   UNL A   1      34.519  30.735  28.273  1.00  0.00     0.251 C 
ATOM     29  H   UNL A   1      32.725  30.437  27.448  1.00  0.00     0.163 HD
ATOM     30  O   UNL A   1      34.212  31.849  28.688  1.00  0.00    -0.269 OA
BRANCH  28  31
ATOM     31  C   UNL A   1      35.892  30.228  28.509  1.00  0.00     0.039 A 
ATOM     32  C   UNL A   1      36.806  30.270  27.450  1.00  0.00     0.014 A 
ATOM     33  C   UNL A   1      36.276  29.659  29.728  1.00  0.00     0.014 A 
ATOM     34  C   UNL A   1      38.108  29.793  27.623  1.00  0.00     0.010 A 
ATOM     35  C   UNL A   1      37.595  29.238  29.920  1.00  0.00     0.010 A 
ATOM     36  C   UNL A   1      38.522  29.296  28.867  1.00  0.00    -0.014 A 
BRANCH  36  37
ATOM     37  C   UNL A   1      39.917  28.828  29.077  1.00  0.00     0.031 A 
ATOM     38  C   UNL A   1      40.955  29.751  29.657  1.00  0.00     0.074 A 
ATOM     39  C   UNL A   1      40.267  27.582  28.702  1.00  0.00     0.049 A 
ATOM     40  N   UNL A   1      42.229  29.533  29.870  1.00  0.00    -0.248 NA
ATOM     41  C   UNL A   1      40.507  31.101  30.027  1.00  0.00     0.031 C 
ATOM     42  C   UNL A   1      39.370  26.595  28.098  1.00  0.00     0.029 A 
ATOM     43  N   UNL A   1      41.477  26.934  28.771  1.00  0.00    -0.354 N 
ATOM     44  C   UNL A   1      42.735  30.719  30.387  1.00  0.00     0.074 A 
ATOM     45  C   UNL A   1      41.642  31.667  30.409  1.00  0.00     0.031 C 
ATOM     46  C   UNL A   1      40.055  25.463  27.867  1.00  0.00     0.029 A 
ATOM     47  C   UNL A   1      41.444  25.654  28.273  1.00  0.00     0.049 A 
ATOM     48  H   UNL A   1      42.290  27.349  29.141  1.00  0.00     0.167 HD
ATOM     49  C   UNL A   1      43.989  30.991  30.820  1.00  0.00     0.031 A 
ATOM     50  C   UNL A   1      42.422  24.738  28.150  1.00  0.00     0.031 A 
ATOM     51  C   UNL A   1      45.079  30.051  30.803  1.00  0.00     0.049 A 
ATOM     52  C   UNL A   1      43.810  25.066  28.624  1.00  0.00     0.074 A 
ATOM     53  C   UNL A   1      46.374  30.222  31.261  1.00  0.00     0.029 A 
ATOM     54  N   UNL A   1      45.001  28.762  30.299  1.00  0.00    -0.354 N 
ATOM     55  N   UNL A   1      44.256  26.175  29.161  1.00  0.00    -0.248 NA
ATOM     56  C   UNL A   1      44.824  24.011  28.484  1.00  0.00     0.031 C 
ATOM     57  C   UNL A   1      47.093  29.052  30.991  1.00  0.00     0.029 A 
ATOM     58  C   UNL A   1      46.230  28.134  30.414  1.00  0.00     0.049 A 
ATOM     59  H   UNL A   1      44.191  28.353  29.915  1.00  0.00     0.167 HD
ATOM     60  C   UNL A   1      45.597  25.944  29.445  1.00  0.00     0.074 A 
ATOM     61  C   UNL A   1      45.885  24.585  29.036  1.00  0.00     0.031 C 
ATOM     62  C   UNL A   1      46.506  26.784  29.997  1.00  0.00     0.031 A 
BRANCH  49  63
ATOM     63  C   UNL A   1      44.250  32.377  31.345  1.00  0.00    -0.014 A 
ATOM     64  C   UNL A   1      43.992  32.706  32.685  1.00  0.00     0.009 A 
ATOM     65  C   UNL A   1      44.785  33.358  30.496  1.00  0.00     0.009 A 
ATOM     66  C   UNL A   1      44.225  34.001  33.154  1.00  0.00     0.001 A 
ATOM     67  C   UNL A   1      45.044  34.644  30.975  1.00  0.00     0.001 A 
ATOM     68  C   UNL A   1      44.753  34.967  32.300  1.00  0.00     0.000 A 
ENDBRANCH  49  63
BRANCH  50  69
ATOM     69  C   UNL A   1      42.118  23.409  27.556  1.00  0.00    -0.014 A 
ATOM     70  C   UNL A   1      41.557  22.389  28.338  1.00  0.00     0.009 A 
ATOM     71  C   UNL A   1      42.383  23.159  26.201  1.00  0.00     0.009 A 
ATOM     72  C   UNL A   1      41.289  21.137  27.781  1.00  0.00     0.001 A 
ATOM     73  C   UNL A   1      42.088  21.914  25.639  1.00  0.00     0.001 A 
ATOM     74  C   UNL A   1      41.549  20.903  26.432  1.00  0.00     0.000 A 
ENDBRANCH  50  69
BRANCH  62  75
ATOM     75  C   UNL A   1      47.893  26.247  30.214  1.00  0.00    -0.014 A 
ATOM     76  C   UNL A   1      48.839  26.234  29.178  1.00  0.00     0.009 A 
ATOM     77  C   UNL A   1      48.268  25.783  31.485  1.00  0.00     0.009 A 
ATOM     78  C   UNL A   1      50.124  25.737  29.403  1.00  0.00     0.001 A 
ATOM     79  C   UNL A   1      49.561  25.311  31.713  1.00  0.00     0.001 A 
ATOM     80  C   UNL A   1      50.485  25.280  30.670  1.00  0.00     0.000 A 
ENDBRANCH  62  75
ENDBRANCH  36  37
ENDBRANCH  28  31
ENDBRANCH  26  27
ENDBRANCH  25  26
ENDBRANCH   1  25
TORSDOF 14
ENDMDL
MODEL 2
REMARK VINA RESULT:     -11.3      1.555      2.379
REMARK SMILES O=C(NCCCCCCNC(=O)c1ccc(-c2c3nc(c(-c4ccccc4)c4ccc([nH]4)c(-c4ccccc4)c4nc(c(-c5ccccc5)c5ccc2[nH]5)C=C4)C=C3)cc1)C1=Cc2ccc(Cl)c(Cl)c2O[C@@H]1C(F)(F)F
REMARK SMILES IDX 7 1 6 2 5 3 4 4 3 5 1 6 2 7 61 9 62 10 72 11 63 12 71 13
REMARK SMILES IDX 64 14 70 15 65 16 68 17 66 18 69 19 67 20 73 21 74 22 75 23
REMARK SMILES IDX 76 24 8 25 9 26 10 27 11 28 12 30 13 31 14 32 60 33 15 34
REMARK SMILES IDX 59 35 16 36 17 37 18 38 53 39 19 40 58 41 52 42 54 43 20 44
REMARK SMILES IDX 57 45 51 46 50 47 21 49 43 50 28 51 42 52 29 53 32 54 41 55
REMARK SMILES IDX 55 56 30 57 31 58 40 60 56 61 33 62 22 63 23 64 27 65 24 66
REMARK SMILES IDX 26 67 25 68 44 69 45 70 49 71 46 72 48 73 47 74 34 75 35 76
REMARK SMILES IDX 39 77 36 78 38 79 37 80
REMARK H PARENT 3 8 10 29 54 48 32 59
REMARK Flexibility Score: inf
ROOT
ATOM      1  C   UNL A   1      32.238  28.415  24.984  1.00  0.00     0.002 C 
ENDROOT
BRANCH   1   2
ATOM      2  C   UNL A   1      31.175  27.321  24.829  1.00  0.00     0.002 C 
BRANCH   2   3
ATOM      3  C   UNL A   1      30.560  26.765  26.113  1.00  0.00     0.021 C 
BRANCH   3   4
ATOM      4  C   UNL A   1      29.974  25.359  26.035  1.00  0.00     0.116 C 
BRANCH   4   5
ATOM      5  N   UNL A   1      30.626  24.369  26.880  1.00  0.00    -0.352 N 
ATOM      6  O   UNL A   1      32.239  22.958  27.564  1.00  0.00    -0.270 OA
ATOM      7  C   UNL A   1      31.754  23.624  26.652  1.00  0.00     0.251 C 
ATOM      8  H   UNL A   1      30.190  24.210  27.748  1.00  0.00     0.163 HD
BRANCH   7   9
ATOM      9  C   UNL A   1      32.485  23.684  25.350  1.00  0.00     0.067 C 
ATOM     10  C   UNL A   1      33.579  24.446  25.219  1.00  0.00     0.025 C 
ATOM     11  C   UNL A   1      32.365  22.417  24.544  1.00  0.00     0.314 C 
ATOM     12  C   UNL A   1      34.817  23.684  24.991  1.00  0.00     0.019 A 
ATOM     13  O   UNL A   1      33.578  21.624  24.602  1.00  0.00    -0.474 OA
ATOM     14  C   UNL A   1      36.033  24.316  25.270  1.00  0.00     0.013 A 
ATOM     15  C   UNL A   1      34.763  22.289  24.822  1.00  0.00     0.148 A 
ATOM     16  C   UNL A   1      37.181  23.549  25.462  1.00  0.00     0.023 A 
ATOM     17  C   UNL A   1      35.923  21.521  25.003  1.00  0.00     0.102 A 
ATOM     18  C   UNL A   1      37.125  22.155  25.351  1.00  0.00     0.063 A 
ATOM     19  Cl  UNL A   1      35.823  19.792  24.897  1.00  0.00    -0.079 Cl
ATOM     20  Cl  UNL A   1      38.561  21.276  25.740  1.00  0.00    -0.083 Cl
BRANCH  11  21
ATOM     21  C   UNL A   1      31.961  22.726  23.090  1.00  0.00     0.429 C 
ATOM     22  F   UNL A   1      30.895  23.560  23.038  1.00  0.00    -0.167 F 
ATOM     23  F   UNL A   1      32.965  23.324  22.405  1.00  0.00    -0.167 F 
ATOM     24  F   UNL A   1      31.626  21.607  22.401  1.00  0.00    -0.167 F 
ENDBRANCH  11  21
ENDBRANCH   7   9
ENDBRANCH   4   5
ENDBRANCH   3   4
ENDBRANCH   2   3
ENDBRANCH   1   2
BRANCH   1  25
ATOM     25  C   UNL A   1      33.540  28.038  25.699  1.00  0.00     0.021 C 
BRANCH  25  26
ATOM     26  C   UNL A   1      33.616  28.343  27.193  1.00  0.00     0.116 C 
BRANCH  26  27
ATOM     27  N   UNL A   1      33.559  29.761  27.495  1.00  0.00    -0.352 N 
ATOM     28  C   UNL A   1      34.500  30.594  28.050  1.00  0.00     0.251 C 
ATOM     29  H   UNL A   1      32.707  30.198  27.265  1.00  0.00     0.163 HD
ATOM     30  O   UNL A   1      34.196  31.753  28.317  1.00  0.00    -0.269 OA
BRANCH  28  31
ATOM     31  C   UNL A   1      35.871  30.116  28.353  1.00  0.00     0.039 A 
ATOM     32  C   UNL A   1      36.825  30.149  27.330  1.00  0.00     0.014 A 
ATOM     33  C   UNL A   1      36.215  29.585  29.600  1.00  0.00     0.014 A 
ATOM     34  C   UNL A   1      38.127  29.699  27.567  1.00  0.00     0.010 A 
ATOM     35  C   UNL A   1      37.531  29.191  29.855  1.00  0.00     0.010 A 
ATOM     36  C   UNL A   1      38.500  29.240  28.839  1.00  0.00    -0.014 A 
BRANCH  36  37
ATOM     37  C   UNL A   1      39.892  28.801  29.116  1.00  0.00     0.031 A 
ATOM     38  C   UNL A   1      40.871  29.734  29.777  1.00  0.00     0.074 A 
ATOM     39  C   UNL A   1      40.296  27.575  28.730  1.00  0.00     0.049 A 
ATOM     40  N   UNL A   1      42.136  29.542  30.056  1.00  0.00    -0.248 NA
ATOM     41  C   UNL A   1      40.367  31.062  30.155  1.00  0.00     0.031 C 
ATOM     42  C   UNL A   1      39.460  26.583  28.051  1.00  0.00     0.029 A 
ATOM     43  N   UNL A   1      41.516  26.956  28.851  1.00  0.00    -0.354 N 
ATOM     44  C   UNL A   1      42.581  30.726  30.631  1.00  0.00     0.074 A 
ATOM     45  C   UNL A   1      41.464  31.646  30.616  1.00  0.00     0.031 C 
ATOM     46  C   UNL A   1      40.187  25.475  27.830  1.00  0.00     0.029 A 
ATOM     47  C   UNL A   1      41.546  25.689  28.320  1.00  0.00     0.049 A 
ATOM     48  H   UNL A   1      42.296  27.381  29.277  1.00  0.00     0.167 HD
ATOM     49  C   UNL A   1      43.801  31.018  31.142  1.00  0.00     0.031 A 
ATOM     50  C   UNL A   1      42.553  24.801  28.229  1.00  0.00     0.031 A 
ATOM     51  C   UNL A   1      44.914  30.106  31.163  1.00  0.00     0.049 A 
ATOM     52  C   UNL A   1      43.902  25.152  28.790  1.00  0.00     0.074 A 
ATOM     53  C   UNL A   1      46.177  30.298  31.698  1.00  0.00     0.029 A 
ATOM     54  N   UNL A   1      44.899  28.830  30.622  1.00  0.00    -0.354 N 
ATOM     55  N   UNL A   1      44.289  26.257  29.379  1.00  0.00    -0.248 NA
ATOM     56  C   UNL A   1      44.951  24.127  28.681  1.00  0.00     0.031 C 
ATOM     57  C   UNL A   1      46.940  29.154  31.440  1.00  0.00     0.029 A 
ATOM     58  C   UNL A   1      46.136  28.230  30.792  1.00  0.00     0.049 A 
ATOM     59  H   UNL A   1      44.124  28.412  30.183  1.00  0.00     0.167 HD
ATOM     60  C   UNL A   1      45.617  26.052  29.733  1.00  0.00     0.074 A 
ATOM     61  C   UNL A   1      45.963  24.712  29.307  1.00  0.00     0.031 C 
ATOM     62  C   UNL A   1      46.471  26.899  30.357  1.00  0.00     0.031 A 
BRANCH  49  63
ATOM     63  C   UNL A   1      43.995  32.396  31.716  1.00  0.00    -0.014 A 
ATOM     64  C   UNL A   1      43.745  32.659  33.072  1.00  0.00     0.009 A 
ATOM     65  C   UNL A   1      44.459  33.436  30.897  1.00  0.00     0.009 A 
ATOM     66  C   UNL A   1      43.914  33.946  33.586  1.00  0.00     0.001 A 
ATOM     67  C   UNL A   1      44.656  34.716  31.421  1.00  0.00     0.001 A 
ATOM     68  C   UNL A   1      44.373  34.972  32.762  1.00  0.00     0.000 A 
ENDBRANCH  49  63
BRANCH  50  69
ATOM     69  C   UNL A   1      42.318  23.482  27.586  1.00  0.00    -0.014 A 
ATOM     70  C   UNL A   1      42.551  23.306  26.214  1.00  0.00     0.009 A 
ATOM     71  C   UNL A   1      41.866  22.391  28.344  1.00  0.00     0.009 A 
ATOM     72  C   UNL A   1      42.314  22.069  25.610  1.00  0.00     0.001 A 
ATOM     73  C   UNL A   1      41.657  21.148  27.742  1.00  0.00     0.001 A 
ATOM     74  C   UNL A   1      41.873  20.991  26.375  1.00  0.00     0.000 A 
ENDBRANCH  50  69
BRANCH  62  75
ATOM     75  C   UNL A   1      47.857  26.392  30.639  1.00  0.00    -0.014 A 
ATOM     76  C   UNL A   1      48.170  25.764  31.853  1.00  0.00     0.009 A 
ATOM     77  C   UNL A   1      48.854  26.514  29.657  1.00  0.00     0.009 A 
ATOM     78  C   UNL A   1      49.464  25.294  32.091  1.00  0.00     0.001 A 
ATOM     79  C   UNL A   1      50.138  26.020  29.889  1.00  0.00     0.001 A 
ATOM     80  C   UNL A   1      50.445  25.419  31.108  1.00  0.00     0.000 A 
ENDBRANCH  62  75
ENDBRANCH  36  37
ENDBRANCH  28  31
ENDBRANCH  26  27
ENDBRANCH  25  26
ENDBRANCH   1  25
TORSDOF 14
ENDMDL
MODEL 3
REMARK VINA RESULT:     -11.1      2.947      7.859
REMARK SMILES O=C(NCCCCCCNC(=O)c1ccc(-c2c3nc(c(-c4ccccc4)c4ccc([nH]4)c(-c4ccccc4)c4nc(c(-c5ccccc5)c5ccc2[nH]5)C=C4)C=C3)cc1)C1=Cc2ccc(Cl)c(Cl)c2O[C@@H]1C(F)(F)F
REMARK SMILES IDX 7 1 6 2 5 3 4 4 3 5 1 6 2 7 61 9 62 10 72 11 63 12 71 13
REMARK SMILES IDX 64 14 70 15 65 16 68 17 66 18 69 19 67 20 73 21 74 22 75 23
REMARK SMILES IDX 76 24 8 25 9 26 10 27 11 28 12 30 13 31 14 32 60 33 15 34
REMARK SMILES IDX 59 35 16 36 17 37 18 38 53 39 19 40 58 41 52 42 54 43 20 44
REMARK SMILES IDX 57 45 51 46 50 47 21 49 43 50 28 51 42 52 29 53 32 54 41 55
REMARK SMILES IDX 55 56 30 57 31 58 40 60 56 61 33 62 22 63 23 64 27 65 24 66
REMARK SMILES IDX 26 67 25 68 44 69 45 70 49 71 46 72 48 73 47 74 34 75 35 76
REMARK SMILES IDX 39 77 36 78 38 79 37 80
REMARK H PARENT 3 8 10 29 54 48 32 59
REMARK Flexibility Score: inf
ROOT
ATOM      1  C   UNL A   1      35.708  21.599  25.914  1.00  0.00     0.002 C 
ENDROOT
BRANCH   1   2
ATOM      2  C   UNL A   1      34.288  21.075  26.159  1.00  0.00     0.002 C 
BRANCH   2   3
ATOM      3  C   UNL A   1      33.668  20.212  25.062  1.00  0.00     0.021 C 
BRANCH   3   4
ATOM      4  C   UNL A   1      32.194  20.454  24.754  1.00  0.00     0.116 C 
BRANCH   4   5
ATOM      5  N   UNL A   1      31.513  21.362  25.664  1.00  0.00    -0.352 N 
ATOM      6  O   UNL A   1      30.412  23.212  26.319  1.00  0.00    -0.270 OA
ATOM      7  C   UNL A   1      31.126  22.665  25.481  1.00  0.00     0.251 C 
ATOM      8  H   UNL A   1      31.298  20.984  26.547  1.00  0.00     0.163 HD
BRANCH   7   9
ATOM      9  C   UNL A   1      31.453  23.413  24.230  1.00  0.00     0.067 C 
ATOM     10  C   UNL A   1      30.538  24.199  23.648  1.00  0.00     0.025 C 
ATOM     11  C   UNL A   1      32.913  23.770  24.117  1.00  0.00     0.314 C 
ATOM     12  C   UNL A   1      30.876  25.631  23.669  1.00  0.00     0.019 A 
ATOM     13  O   UNL A   1      33.150  25.170  24.407  1.00  0.00    -0.474 OA
ATOM     14  C   UNL A   1      29.835  26.549  23.494  1.00  0.00     0.013 A 
ATOM     15  C   UNL A   1      32.120  26.052  24.169  1.00  0.00     0.148 A 
ATOM     16  C   UNL A   1      30.008  27.872  23.896  1.00  0.00     0.023 A 
ATOM     17  C   UNL A   1      32.295  27.388  24.561  1.00  0.00     0.102 A 
ATOM     18  C   UNL A   1      31.225  28.288  24.449  1.00  0.00     0.063 A 
ATOM     19  Cl  UNL A   1      33.800  27.873  25.276  1.00  0.00    -0.079 Cl
ATOM     20  Cl  UNL A   1      31.306  29.908  25.046  1.00  0.00    -0.083 Cl
BRANCH  11  21
ATOM     21  C   UNL A   1      33.471  23.376  22.736  1.00  0.00     0.429 C 
ATOM     22  F   UNL A   1      33.499  24.434  21.892  1.00  0.00    -0.167 F 
ATOM     23  F   UNL A   1      34.738  22.903  22.821  1.00  0.00    -0.167 F 
ATOM     24  F   UNL A   1      32.729  22.409  22.140  1.00  0.00    -0.167 F 
ENDBRANCH  11  21
ENDBRANCH   7   9
ENDBRANCH   4   5
ENDBRANCH   3   4
ENDBRANCH   2   3
ENDBRANCH   1   2
BRANCH   1  25
ATOM     25  C   UNL A   1      35.918  23.117  25.961  1.00  0.00     0.021 C 
BRANCH  25  26
ATOM     26  C   UNL A   1      37.192  23.654  25.313  1.00  0.00     0.116 C 
BRANCH  26  27
ATOM     27  N   UNL A   1      38.340  22.786  25.496  1.00  0.00    -0.352 N 
ATOM     28  C   UNL A   1      39.550  23.022  26.104  1.00  0.00     0.251 C 
ATOM     29  H   UNL A   1      38.237  21.881  25.123  1.00  0.00     0.163 HD
ATOM     30  O   UNL A   1      40.428  22.167  26.049  1.00  0.00    -0.269 OA
BRANCH  28  31
ATOM     31  C   UNL A   1      39.824  24.298  26.808  1.00  0.00     0.039 A 
ATOM     32  C   UNL A   1      39.301  24.469  28.096  1.00  0.00     0.014 A 
ATOM     33  C   UNL A   1      40.528  25.344  26.206  1.00  0.00     0.014 A 
ATOM     34  C   UNL A   1      39.525  25.660  28.793  1.00  0.00     0.010 A 
ATOM     35  C   UNL A   1      40.803  26.510  26.925  1.00  0.00     0.010 A 
ATOM     36  C   UNL A   1      40.300  26.681  28.225  1.00  0.00    -0.014 A 
BRANCH  36  37
ATOM     37  C   UNL A   1      40.583  27.933  28.975  1.00  0.00     0.031 A 
ATOM     38  C   UNL A   1      41.877  28.100  29.724  1.00  0.00     0.074 A 
ATOM     39  C   UNL A   1      39.654  28.908  29.022  1.00  0.00     0.049 A 
ATOM     40  N   UNL A   1      42.279  29.100  30.469  1.00  0.00    -0.248 NA
ATOM     41  C   UNL A   1      42.837  26.989  29.643  1.00  0.00     0.031 C 
ATOM     42  C   UNL A   1      38.345  28.863  28.369  1.00  0.00     0.029 A 
ATOM     43  N   UNL A   1      39.669  30.127  29.655  1.00  0.00    -0.354 N 
ATOM     44  C   UNL A   1      43.529  28.735  30.952  1.00  0.00     0.074 A 
ATOM     45  C   UNL A   1      43.798  27.402  30.456  1.00  0.00     0.031 C 
ATOM     46  C   UNL A   1      37.690  30.009  28.621  1.00  0.00     0.029 A 
ATOM     47  C   UNL A   1      38.516  30.852  29.479  1.00  0.00     0.049 A 
ATOM     48  H   UNL A   1      40.434  30.450  30.185  1.00  0.00     0.167 HD
ATOM     49  C   UNL A   1      44.384  29.448  31.722  1.00  0.00     0.031 A 
ATOM     50  C   UNL A   1      38.158  32.058  29.958  1.00  0.00     0.031 A 
ATOM     51  C   UNL A   1      44.124  30.775  32.215  1.00  0.00     0.049 A 
ATOM     52  C   UNL A   1      39.117  32.825  30.824  1.00  0.00     0.074 A 
ATOM     53  C   UNL A   1      44.948  31.594  32.968  1.00  0.00     0.029 A 
ATOM     54  N   UNL A   1      42.947  31.477  32.007  1.00  0.00    -0.354 N 
ATOM     55  N   UNL A   1      40.318  32.487  31.225  1.00  0.00    -0.248 NA
ATOM     56  C   UNL A   1      38.674  34.147  31.293  1.00  0.00     0.031 C 
ATOM     57  C   UNL A   1      44.252  32.774  33.253  1.00  0.00     0.029 A 
ATOM     58  C   UNL A   1      43.014  32.710  32.634  1.00  0.00     0.049 A 
ATOM     59  H   UNL A   1      42.176  31.147  31.489  1.00  0.00     0.167 HD
ATOM     60  C   UNL A   1      40.783  33.561  31.973  1.00  0.00     0.074 A 
ATOM     61  C   UNL A   1      39.743  34.568  31.956  1.00  0.00     0.031 C 
ATOM     62  C   UNL A   1      41.969  33.701  32.615  1.00  0.00     0.031 A 
BRANCH  49  63
ATOM     63  C   UNL A   1      45.689  28.795  32.088  1.00  0.00    -0.014 A 
ATOM     64  C   UNL A   1      46.827  28.941  31.278  1.00  0.00     0.009 A 
ATOM     65  C   UNL A   1      45.790  28.045  33.270  1.00  0.00     0.009 A 
ATOM     66  C   UNL A   1      48.027  28.315  31.623  1.00  0.00     0.001 A 
ATOM     67  C   UNL A   1      47.000  27.444  33.627  1.00  0.00     0.001 A 
ATOM     68  C   UNL A   1      48.113  27.571  32.798  1.00  0.00     0.000 A 
ENDBRANCH  49  63
BRANCH  50  69
ATOM     69  C   UNL A   1      36.824  32.621  29.621  1.00  0.00    -0.014 A 
ATOM     70  C   UNL A   1      36.633  33.341  28.432  1.00  0.00     0.009 A 
ATOM     71  C   UNL A   1      35.734  32.434  30.485  1.00  0.00     0.009 A 
ATOM     72  C   UNL A   1      35.383  33.882  28.127  1.00  0.00     0.001 A 
ATOM     73  C   UNL A   1      34.478  32.953  30.163  1.00  0.00     0.001 A 
ATOM     74  C   UNL A   1      34.306  33.683  28.989  1.00  0.00     0.000 A 
ENDBRANCH  50  69
BRANCH  62  75
ATOM     75  C   UNL A   1      42.214  34.999  33.331  1.00  0.00    -0.014 A 
ATOM     76  C   UNL A   1      41.695  35.232  34.614  1.00  0.00     0.009 A 
ATOM     77  C   UNL A   1      43.006  35.988  32.727  1.00  0.00     0.009 A 
ATOM     78  C   UNL A   1      41.940  36.443  35.264  1.00  0.00     0.001 A 
ATOM     79  C   UNL A   1      43.270  37.186  33.390  1.00  0.00     0.001 A 
ATOM     80  C   UNL A   1      42.730  37.416  34.654  1.00  0.00     0.000 A 
ENDBRANCH  62  75
ENDBRANCH  36  37
ENDBRANCH  28  31
ENDBRANCH  26  27
ENDBRANCH  25  26
ENDBRANCH   1  25
TORSDOF 14
ENDMDL
