MODEL 1
REMARK VINA RESULT:     -11.7      0.000      0.000
REMARK SMILES O=C(NCCCCCCNC(=O)c1ccc2nc(-c3c[nH]nc3-c3ccc(F)cc3F)[nH]c2c1)c1ccc(-c2c3nc(c(-c4ccccc4)c4ccc([nH]4)c(-c4ccccc4)c4nc(c(-c5ccccc5)c5ccc2[nH]5)C=C4)C=C3)cc1
REMARK SMILES IDX 6 1 5 2 4 3 3 4 1 5 2 6 35 8 36 9 82 10 37 11 81 12 38 13
REMARK SMILES IDX 39 14 40 15 75 16 41 17 80 18 74 19 76 20 42 21 79 22 73 23
REMARK SMILES IDX 72 24 43 26 65 27 50 28 64 29 51 30 54 31 63 32 77 33 52 34
REMARK SMILES IDX 53 35 62 37 78 38 55 39 44 40 45 41 49 42 46 43 48 44 47 45
REMARK SMILES IDX 66 46 67 47 71 48 68 49 70 50 69 51 56 52 57 53 61 54 58 55
REMARK SMILES IDX 60 56 59 57 7 58 8 59 9 60 10 61 11 62 12 64 13 65 14 66
REMARK SMILES IDX 34 67 15 68 33 69 16 70 32 71 17 72 18 73 19 75 20 76 23 77
REMARK SMILES IDX 21 78 22 79 24 81 25 82 30 83 26 84 29 85 31 86 27 87 28 88
REMARK H PARENT 3 7 76 25 54 36 10 63 32 74 21 80
REMARK Flexibility Score: inf
ROOT
ATOM      1  C   UNL A   1      32.428  29.041  27.376  1.00  0.00     0.002 C 
ENDROOT
BRANCH   1   2
ATOM      2  C   UNL A   1      33.928  29.207  27.614  1.00  0.00     0.021 C 
BRANCH   2   3
ATOM      3  C   UNL A   1      34.432  30.635  27.466  1.00  0.00     0.116 C 
BRANCH   3   4
ATOM      4  N   UNL A   1      34.320  31.385  28.706  1.00  0.00    -0.352 N 
ATOM      5  O   UNL A   1      34.866  31.951  30.825  1.00  0.00    -0.269 OA
ATOM      6  C   UNL A   1      35.189  31.419  29.765  1.00  0.00     0.251 C 
ATOM      7  H   UNL A   1      33.514  31.943  28.797  1.00  0.00     0.163 HD
BRANCH   6   8
ATOM      8  C   UNL A   1      36.522  30.799  29.624  1.00  0.00     0.039 A 
ATOM      9  C   UNL A   1      37.288  31.033  28.477  1.00  0.00     0.014 A 
ATOM     10  C   UNL A   1      37.015  29.994  30.653  1.00  0.00     0.014 A 
ATOM     11  C   UNL A   1      38.504  30.383  28.314  1.00  0.00     0.010 A 
ATOM     12  C   UNL A   1      38.277  29.409  30.524  1.00  0.00     0.010 A 
ATOM     13  C   UNL A   1      39.028  29.598  29.354  1.00  0.00    -0.014 A 
BRANCH  13  14
ATOM     14  C   UNL A   1      40.423  29.110  29.258  1.00  0.00     0.031 A 
ATOM     15  C   UNL A   1      41.593  30.020  29.494  1.00  0.00     0.074 A 
ATOM     16  C   UNL A   1      40.616  27.818  28.926  1.00  0.00     0.049 A 
ATOM     17  N   UNL A   1      42.870  29.748  29.404  1.00  0.00    -0.248 NA
ATOM     18  C   UNL A   1      41.300  31.411  29.871  1.00  0.00     0.031 C 
ATOM     19  C   UNL A   1      39.548  26.846  28.663  1.00  0.00     0.029 A 
ATOM     20  N   UNL A   1      41.768  27.096  28.750  1.00  0.00    -0.354 N 
ATOM     21  C   UNL A   1      43.533  30.934  29.688  1.00  0.00     0.074 A 
ATOM     22  C   UNL A   1      42.518  31.933  29.945  1.00  0.00     0.031 C 
ATOM     23  C   UNL A   1      40.095  25.655  28.385  1.00  0.00     0.029 A 
ATOM     24  C   UNL A   1      41.544  25.793  28.371  1.00  0.00     0.049 A 
ATOM     25  H   UNL A   1      42.667  27.473  28.882  1.00  0.00     0.167 HD
ATOM     26  C   UNL A   1      44.868  31.162  29.722  1.00  0.00     0.031 A 
ATOM     27  C   UNL A   1      42.406  24.827  28.009  1.00  0.00     0.031 A 
ATOM     28  C   UNL A   1      45.867  30.157  29.465  1.00  0.00     0.049 A 
ATOM     29  C   UNL A   1      43.874  25.133  28.006  1.00  0.00     0.074 A 
ATOM     30  C   UNL A   1      47.245  30.276  29.545  1.00  0.00     0.029 A 
ATOM     31  N   UNL A   1      45.600  28.858  29.060  1.00  0.00    -0.354 N 
ATOM     32  N   UNL A   1      44.487  26.236  28.359  1.00  0.00    -0.248 NA
ATOM     33  C   UNL A   1      44.771  24.063  27.549  1.00  0.00     0.031 C 
ATOM     34  C   UNL A   1      47.811  29.074  29.113  1.00  0.00     0.029 A 
ATOM     35  C   UNL A   1      46.788  28.183  28.831  1.00  0.00     0.049 A 
ATOM     36  H   UNL A   1      44.700  28.474  28.950  1.00  0.00     0.167 HD
ATOM     37  C   UNL A   1      45.840  25.990  28.178  1.00  0.00     0.074 A 
ATOM     38  C   UNL A   1      45.960  24.622  27.717  1.00  0.00     0.031 C 
ATOM     39  C   UNL A   1      46.889  26.825  28.367  1.00  0.00     0.031 A 
BRANCH  26  40
ATOM     40  C   UNL A   1      45.346  32.557  30.012  1.00  0.00    -0.014 A 
ATOM     41  C   UNL A   1      45.560  33.490  28.985  1.00  0.00     0.009 A 
ATOM     42  C   UNL A   1      45.484  32.975  31.347  1.00  0.00     0.009 A 
ATOM     43  C   UNL A   1      45.915  34.807  29.291  1.00  0.00     0.001 A 
ATOM     44  C   UNL A   1      45.814  34.296  31.650  1.00  0.00     0.001 A 
ATOM     45  C   UNL A   1      46.032  35.210  30.621  1.00  0.00     0.000 A 
ENDBRANCH  26  40
BRANCH  27  46
ATOM     46  C   UNL A   1      41.897  23.506  27.554  1.00  0.00    -0.014 A 
ATOM     47  C   UNL A   1      41.594  22.494  28.476  1.00  0.00     0.009 A 
ATOM     48  C   UNL A   1      41.734  23.245  26.183  1.00  0.00     0.009 A 
ATOM     49  C   UNL A   1      41.174  21.238  28.033  1.00  0.00     0.001 A 
ATOM     50  C   UNL A   1      41.277  22.001  25.745  1.00  0.00     0.001 A 
ATOM     51  C   UNL A   1      41.012  20.994  26.669  1.00  0.00     0.000 A 
ENDBRANCH  27  46
BRANCH  39  52
ATOM     52  C   UNL A   1      48.258  26.275  28.090  1.00  0.00    -0.014 A 
ATOM     53  C   UNL A   1      48.970  25.574  29.076  1.00  0.00     0.009 A 
ATOM     54  C   UNL A   1      48.822  26.418  26.813  1.00  0.00     0.009 A 
ATOM     55  C   UNL A   1      50.233  25.050  28.795  1.00  0.00     0.001 A 
ATOM     56  C   UNL A   1      50.070  25.866  26.526  1.00  0.00     0.001 A 
ATOM     57  C   UNL A   1      50.778  25.189  27.519  1.00  0.00     0.000 A 
ENDBRANCH  39  52
ENDBRANCH  13  14
ENDBRANCH   6   8
ENDBRANCH   3   4
ENDBRANCH   2   3
ENDBRANCH   1   2
BRANCH   1  58
ATOM     58  C   UNL A   1      32.039  28.655  25.946  1.00  0.00     0.002 C 
BRANCH  58  59
ATOM     59  C   UNL A   1      33.215  28.347  25.013  1.00  0.00     0.021 C 
BRANCH  59  60
ATOM     60  C   UNL A   1      33.095  28.958  23.620  1.00  0.00     0.116 C 
BRANCH  60  61
ATOM     61  N   UNL A   1      31.713  29.002  23.178  1.00  0.00    -0.352 N 
ATOM     62  C   UNL A   1      31.004  28.041  22.509  1.00  0.00     0.251 C 
ATOM     63  H   UNL A   1      31.224  29.830  23.384  1.00  0.00     0.163 HD
ATOM     64  O   UNL A   1      29.913  28.293  22.009  1.00  0.00    -0.269 OA
BRANCH  62  65
ATOM     65  C   UNL A   1      31.575  26.688  22.386  1.00  0.00     0.042 A 
ATOM     66  C   UNL A   1      32.350  26.360  21.264  1.00  0.00     0.016 A 
ATOM     67  C   UNL A   1      31.328  25.771  23.418  1.00  0.00     0.042 A 
ATOM     68  C   UNL A   1      32.907  25.086  21.139  1.00  0.00     0.031 A 
ATOM     69  C   UNL A   1      31.879  24.501  23.248  1.00  0.00     0.067 A 
ATOM     70  C   UNL A   1      32.682  24.158  22.166  1.00  0.00     0.089 A 
ATOM     71  N   UNL A   1      31.814  23.351  23.996  1.00  0.00    -0.338 N 
ATOM     72  N   UNL A   1      33.179  22.895  22.311  1.00  0.00    -0.228 NA
ATOM     73  C   UNL A   1      32.648  22.429  23.421  1.00  0.00     0.142 A 
ATOM     74  H   UNL A   1      31.265  23.214  24.801  1.00  0.00     0.168 HD
BRANCH  73  75
ATOM     75  C   UNL A   1      32.977  21.105  23.986  1.00  0.00     0.063 A 
ATOM     76  C   UNL A   1      32.168  19.996  24.017  1.00  0.00     0.117 A 
ATOM     77  C   UNL A   1      34.188  20.725  24.627  1.00  0.00     0.106 A 
ATOM     78  N   UNL A   1      32.938  19.010  24.565  1.00  0.00    -0.284 N 
ATOM     79  N   UNL A   1      34.138  19.432  24.992  1.00  0.00    -0.175 NA
ATOM     80  H   UNL A   1      32.640  18.075  24.638  1.00  0.00     0.189 HD
BRANCH  77  81
ATOM     81  C   UNL A   1      35.288  21.595  25.024  1.00  0.00     0.039 A 
ATOM     82  C   UNL A   1      36.584  21.327  24.545  1.00  0.00     0.016 A 
ATOM     83  C   UNL A   1      35.094  22.681  25.880  1.00  0.00     0.135 A 
ATOM     84  C   UNL A   1      37.659  22.129  24.931  1.00  0.00     0.040 A 
ATOM     85  C   UNL A   1      36.164  23.488  26.263  1.00  0.00     0.079 A 
ATOM     86  F   UNL A   1      33.878  22.961  26.374  1.00  0.00    -0.206 F 
ATOM     87  C   UNL A   1      37.438  23.201  25.786  1.00  0.00     0.126 A 
ATOM     88  F   UNL A   1      38.471  23.969  26.156  1.00  0.00    -0.207 F 
ENDBRANCH  77  81
ENDBRANCH  73  75
ENDBRANCH  62  65
ENDBRANCH  60  61
ENDBRANCH  59  60
ENDBRANCH  58  59
ENDBRANCH   1  58
TORSDOF 15
ENDMDL
MODEL 2
REMARK VINA RESULT:     -11.2      5.508     11.309
REMARK SMILES O=C(NCCCCCCNC(=O)c1ccc2nc(-c3c[nH]nc3-c3ccc(F)cc3F)[nH]c2c1)c1ccc(-c2c3nc(c(-c4ccccc4)c4ccc([nH]4)c(-c4ccccc4)c4nc(c(-c5ccccc5)c5ccc2[nH]5)C=C4)C=C3)cc1
REMARK SMILES IDX 6 1 5 2 4 3 3 4 1 5 2 6 35 8 36 9 82 10 37 11 81 12 38 13
REMARK SMILES IDX 39 14 40 15 75 16 41 17 80 18 74 19 76 20 42 21 79 22 73 23
REMARK SMILES IDX 72 24 43 26 65 27 50 28 64 29 51 30 54 31 63 32 77 33 52 34
REMARK SMILES IDX 53 35 62 37 78 38 55 39 44 40 45 41 49 42 46 43 48 44 47 45
REMARK SMILES IDX 66 46 67 47 71 48 68 49 70 50 69 51 56 52 57 53 61 54 58 55
REMARK SMILES IDX 60 56 59 57 7 58 8 59 9 60 10 61 11 62 12 64 13 65 14 66
REMARK SMILES IDX 34 67 15 68 33 69 16 70 32 71 17 72 18 73 19 75 20 76 23 77
REMARK SMILES IDX 21 78 22 79 24 81 25 82 30 83 26 84 29 85 31 86 27 87 28 88
REMARK H PARENT 3 7 76 25 54 36 10 63 32 74 21 80
REMARK Flexibility Score: inf
ROOT
ATOM      1  C   UNL A   1      42.082  20.988  26.261  1.00  0.00     0.002 C 
ENDROOT
BRANCH   1   2
ATOM      2  C   UNL A   1      42.341  22.070  27.309  1.00  0.00     0.021 C 
BRANCH   2   3
ATOM      3  C   UNL A   1      41.924  23.469  26.882  1.00  0.00     0.116 C 
BRANCH   3   4
ATOM      4  N   UNL A   1      40.665  23.467  26.156  1.00  0.00    -0.352 N 
ATOM      5  O   UNL A   1      38.502  24.008  25.788  1.00  0.00    -0.269 OA
ATOM      6  C   UNL A   1      39.562  24.256  26.356  1.00  0.00     0.251 C 
ATOM      7  H   UNL A   1      40.594  22.812  25.424  1.00  0.00     0.163 HD
BRANCH   6   8
ATOM      8  C   UNL A   1      39.658  25.410  27.272  1.00  0.00     0.039 A 
ATOM      9  C   UNL A   1      39.043  25.364  28.527  1.00  0.00     0.014 A 
ATOM     10  C   UNL A   1      40.383  26.537  26.880  1.00  0.00     0.014 A 
ATOM     11  C   UNL A   1      39.067  26.482  29.350  1.00  0.00     0.010 A 
ATOM     12  C   UNL A   1      40.479  27.630  27.745  1.00  0.00     0.010 A 
ATOM     13  C   UNL A   1      39.820  27.610  28.984  1.00  0.00    -0.014 A 
BRANCH  13  14
ATOM     14  C   UNL A   1      40.028  28.692  29.974  1.00  0.00     0.031 A 
ATOM     15  C   UNL A   1      41.135  28.632  30.984  1.00  0.00     0.074 A 
ATOM     16  C   UNL A   1      39.171  29.733  29.957  1.00  0.00     0.049 A 
ATOM     17  N   UNL A   1      41.417  29.481  31.940  1.00  0.00    -0.248 NA
ATOM     18  C   UNL A   1      42.041  27.473  30.925  1.00  0.00     0.031 C 
ATOM     19  C   UNL A   1      38.050  29.887  29.023  1.00  0.00     0.029 A 
ATOM     20  N   UNL A   1      39.103  30.854  30.742  1.00  0.00    -0.354 N 
ATOM     21  C   UNL A   1      42.511  28.951  32.611  1.00  0.00     0.074 A 
ATOM     22  C   UNL A   1      42.840  27.702  31.960  1.00  0.00     0.031 C 
ATOM     23  C   UNL A   1      37.423  31.045  29.274  1.00  0.00     0.029 A 
ATOM     24  C   UNL A   1      38.044  31.675  30.430  1.00  0.00     0.049 A 
ATOM     25  H   UNL A   1      39.748  31.053  31.459  1.00  0.00     0.167 HD
ATOM     26  C   UNL A   1      43.171  29.466  33.676  1.00  0.00     0.031 A 
ATOM     27  C   UNL A   1      37.594  32.789  31.034  1.00  0.00     0.031 A 
ATOM     28  C   UNL A   1      42.832  30.712  34.313  1.00  0.00     0.049 A 
ATOM     29  C   UNL A   1      38.318  33.297  32.245  1.00  0.00     0.074 A 
ATOM     30  C   UNL A   1      43.486  31.349  35.355  1.00  0.00     0.029 A 
ATOM     31  N   UNL A   1      41.739  31.499  33.985  1.00  0.00    -0.354 N 
ATOM     32  N   UNL A   1      39.401  32.829  32.814  1.00  0.00    -0.248 NA
ATOM     33  C   UNL A   1      37.754  34.485  32.901  1.00  0.00     0.031 C 
ATOM     34  C   UNL A   1      42.745  32.480  35.708  1.00  0.00     0.029 A 
ATOM     35  C   UNL A   1      41.669  32.586  34.841  1.00  0.00     0.049 A 
ATOM     36  H   UNL A   1      41.108  31.314  33.253  1.00  0.00     0.167 HD
ATOM     37  C   UNL A   1      39.656  33.670  33.888  1.00  0.00     0.074 A 
ATOM     38  C   UNL A   1      38.633  34.696  33.870  1.00  0.00     0.031 C 
ATOM     39  C   UNL A   1      40.642  33.594  34.813  1.00  0.00     0.031 A 
BRANCH  26  40
ATOM     40  C   UNL A   1      44.308  28.674  34.260  1.00  0.00    -0.014 A 
ATOM     41  C   UNL A   1      44.092  27.677  35.223  1.00  0.00     0.009 A 
ATOM     42  C   UNL A   1      45.606  28.862  33.757  1.00  0.00     0.009 A 
ATOM     43  C   UNL A   1      45.157  26.894  35.679  1.00  0.00     0.001 A 
ATOM     44  C   UNL A   1      46.663  28.063  34.196  1.00  0.00     0.001 A 
ATOM     45  C   UNL A   1      46.437  27.082  35.160  1.00  0.00     0.000 A 
ENDBRANCH  26  40
BRANCH  27  46
ATOM     46  C   UNL A   1      36.359  33.456  30.543  1.00  0.00    -0.014 A 
ATOM     47  C   UNL A   1      35.201  33.500  31.333  1.00  0.00     0.009 A 
ATOM     48  C   UNL A   1      36.330  34.036  29.264  1.00  0.00     0.009 A 
ATOM     49  C   UNL A   1      34.030  34.078  30.837  1.00  0.00     0.001 A 
ATOM     50  C   UNL A   1      35.170  34.647  28.785  1.00  0.00     0.001 A 
ATOM     51  C   UNL A   1      34.017  34.654  29.566  1.00  0.00     0.000 A 
ENDBRANCH  27  46
BRANCH  39  52
ATOM     52  C   UNL A   1      40.670  34.659  35.871  1.00  0.00    -0.014 A 
ATOM     53  C   UNL A   1      41.438  35.823  35.707  1.00  0.00     0.009 A 
ATOM     54  C   UNL A   1      39.882  34.518  37.023  1.00  0.00     0.009 A 
ATOM     55  C   UNL A   1      41.436  36.813  36.690  1.00  0.00     0.001 A 
ATOM     56  C   UNL A   1      39.857  35.524  37.989  1.00  0.00     0.001 A 
ATOM     57  C   UNL A   1      40.639  36.667  37.825  1.00  0.00     0.000 A 
ENDBRANCH  39  52
ENDBRANCH  13  14
ENDBRANCH   6   8
ENDBRANCH   3   4
ENDBRANCH   2   3
ENDBRANCH   1   2
BRANCH   1  58
ATOM     58  C   UNL A   1      41.816  19.590  26.828  1.00  0.00     0.002 C 
BRANCH  58  59
ATOM     59  C   UNL A   1      42.965  18.591  26.662  1.00  0.00     0.021 C 
BRANCH  59  60
ATOM     60  C   UNL A   1      43.646  18.631  25.296  1.00  0.00     0.116 C 
BRANCH  60  61
ATOM     61  N   UNL A   1      45.087  18.512  25.419  1.00  0.00    -0.352 N 
ATOM     62  C   UNL A   1      46.043  19.460  25.166  1.00  0.00     0.251 C 
ATOM     63  H   UNL A   1      45.421  17.638  25.721  1.00  0.00     0.163 HD
ATOM     64  O   UNL A   1      47.230  19.160  25.105  1.00  0.00    -0.269 OA
BRANCH  62  65
ATOM     65  C   UNL A   1      45.624  20.858  24.958  1.00  0.00     0.042 A 
ATOM     66  C   UNL A   1      44.926  21.208  23.794  1.00  0.00     0.016 A 
ATOM     67  C   UNL A   1      45.935  21.795  25.955  1.00  0.00     0.042 A 
ATOM     68  C   UNL A   1      44.513  22.526  23.587  1.00  0.00     0.031 A 
ATOM     69  C   UNL A   1      45.530  23.106  25.703  1.00  0.00     0.067 A 
ATOM     70  C   UNL A   1      44.803  23.476  24.577  1.00  0.00     0.089 A 
ATOM     71  N   UNL A   1      45.693  24.280  26.398  1.00  0.00    -0.338 N 
ATOM     72  N   UNL A   1      44.441  24.791  24.643  1.00  0.00    -0.228 NA
ATOM     73  C   UNL A   1      44.982  25.254  25.749  1.00  0.00     0.142 A 
ATOM     74  H   UNL A   1      46.228  24.399  27.215  1.00  0.00     0.168 HD
BRANCH  73  75
ATOM     75  C   UNL A   1      44.779  26.633  26.237  1.00  0.00     0.063 A 
ATOM     76  C   UNL A   1      44.800  27.785  25.490  1.00  0.00     0.117 A 
ATOM     77  C   UNL A   1      44.543  27.039  27.579  1.00  0.00     0.106 A 
ATOM     78  N   UNL A   1      44.488  28.782  26.369  1.00  0.00    -0.284 N 
ATOM     79  N   UNL A   1      44.383  28.372  27.643  1.00  0.00    -0.175 NA
ATOM     80  H   UNL A   1      44.353  29.717  26.094  1.00  0.00     0.189 HD
BRANCH  77  81
ATOM     81  C   UNL A   1      44.628  26.215  28.779  1.00  0.00     0.039 A 
ATOM     82  C   UNL A   1      43.669  25.206  28.989  1.00  0.00     0.016 A 
ATOM     83  C   UNL A   1      45.627  26.409  29.735  1.00  0.00     0.135 A 
ATOM     84  C   UNL A   1      43.712  24.421  30.142  1.00  0.00     0.040 A 
ATOM     85  C   UNL A   1      45.676  25.623  30.885  1.00  0.00     0.079 A 
ATOM     86  F   UNL A   1      46.549  27.372  29.584  1.00  0.00    -0.206 F 
ATOM     87  C   UNL A   1      44.715  24.638  31.078  1.00  0.00     0.126 A 
ATOM     88  F   UNL A   1      44.754  23.884  32.184  1.00  0.00    -0.207 F 
ENDBRANCH  77  81
ENDBRANCH  73  75
ENDBRANCH  62  65
ENDBRANCH  60  61
ENDBRANCH  59  60
ENDBRANCH  58  59
ENDBRANCH   1  58
TORSDOF 15
ENDMDL
MODEL 3
REMARK VINA RESULT:     -11.2      2.670      5.984
REMARK SMILES O=C(NCCCCCCNC(=O)c1ccc2nc(-c3c[nH]nc3-c3ccc(F)cc3F)[nH]c2c1)c1ccc(-c2c3nc(c(-c4ccccc4)c4ccc([nH]4)c(-c4ccccc4)c4nc(c(-c5ccccc5)c5ccc2[nH]5)C=C4)C=C3)cc1
REMARK SMILES IDX 6 1 5 2 4 3 3 4 1 5 2 6 35 8 36 9 82 10 37 11 81 12 38 13
REMARK SMILES IDX 39 14 40 15 75 16 41 17 80 18 74 19 76 20 42 21 79 22 73 23
REMARK SMILES IDX 72 24 43 26 65 27 50 28 64 29 51 30 54 31 63 32 77 33 52 34
REMARK SMILES IDX 53 35 62 37 78 38 55 39 44 40 45 41 49 42 46 43 48 44 47 45
REMARK SMILES IDX 66 46 67 47 71 48 68 49 70 50 69 51 56 52 57 53 61 54 58 55
REMARK SMILES IDX 60 56 59 57 7 58 8 59 9 60 10 61 11 62 12 64 13 65 14 66
REMARK SMILES IDX 34 67 15 68 33 69 16 70 32 71 17 72 18 73 19 75 20 76 23 77
REMARK SMILES IDX 21 78 22 79 24 81 25 82 30 83 26 84 29 85 31 86 27 87 28 88
REMARK H PARENT 3 7 76 25 54 36 10 63 32 74 21 80
REMARK Flexibility Score: inf
ROOT
ATOM      1  C   UNL A   1      33.595  28.754  26.987  1.00  0.00     0.002 C 
ENDROOT
BRANCH   1   2
ATOM      2  C   UNL A   1      33.196  30.164  27.422  1.00  0.00     0.021 C 
BRANCH   2   3
ATOM      3  C   UNL A   1      34.366  31.118  27.604  1.00  0.00     0.116 C 
BRANCH   3   4
ATOM      4  N   UNL A   1      34.137  32.067  28.681  1.00  0.00    -0.352 N 
ATOM      5  O   UNL A   1      34.399  32.929  30.754  1.00  0.00    -0.269 OA
ATOM      6  C   UNL A   1      34.830  32.210  29.855  1.00  0.00     0.251 C 
ATOM      7  H   UNL A   1      33.384  32.688  28.551  1.00  0.00     0.163 HD
BRANCH   6   8
ATOM      8  C   UNL A   1      36.102  31.482  30.035  1.00  0.00     0.039 A 
ATOM      9  C   UNL A   1      37.280  31.977  29.467  1.00  0.00     0.014 A 
ATOM     10  C   UNL A   1      36.118  30.308  30.790  1.00  0.00     0.014 A 
ATOM     11  C   UNL A   1      38.456  31.245  29.570  1.00  0.00     0.010 A 
ATOM     12  C   UNL A   1      37.320  29.619  30.965  1.00  0.00     0.010 A 
ATOM     13  C   UNL A   1      38.496  30.082  30.354  1.00  0.00    -0.014 A 
BRANCH  13  14
ATOM     14  C   UNL A   1      39.804  29.451  30.646  1.00  0.00     0.031 A 
ATOM     15  C   UNL A   1      40.309  28.283  29.851  1.00  0.00     0.074 A 
ATOM     16  C   UNL A   1      40.526  29.945  31.672  1.00  0.00     0.049 A 
ATOM     17  N   UNL A   1      41.412  27.598  30.016  1.00  0.00    -0.248 NA
ATOM     18  C   UNL A   1      39.472  27.814  28.735  1.00  0.00     0.031 C 
ATOM     19  C   UNL A   1      40.124  31.072  32.520  1.00  0.00     0.029 A 
ATOM     20  N   UNL A   1      41.742  29.568  32.181  1.00  0.00    -0.354 N 
ATOM     21  C   UNL A   1      41.394  26.606  29.045  1.00  0.00     0.074 A 
ATOM     22  C   UNL A   1      40.165  26.770  28.298  1.00  0.00     0.031 C 
ATOM     23  C   UNL A   1      41.084  31.309  33.424  1.00  0.00     0.029 A 
ATOM     24  C   UNL A   1      42.129  30.307  33.273  1.00  0.00     0.049 A 
ATOM     25  H   UNL A   1      42.284  28.839  31.801  1.00  0.00     0.167 HD
ATOM     26  C   UNL A   1      42.320  25.646  28.809  1.00  0.00     0.031 A 
ATOM     27  C   UNL A   1      43.186  30.169  34.093  1.00  0.00     0.031 A 
ATOM     28  C   UNL A   1      43.539  25.496  29.560  1.00  0.00     0.049 A 
ATOM     29  C   UNL A   1      44.161  29.059  33.833  1.00  0.00     0.074 A 
ATOM     30  C   UNL A   1      44.571  24.596  29.350  1.00  0.00     0.029 A 
ATOM     31  N   UNL A   1      43.882  26.247  30.673  1.00  0.00    -0.354 N 
ATOM     32  N   UNL A   1      44.171  28.182  32.859  1.00  0.00    -0.248 NA
ATOM     33  C   UNL A   1      45.268  28.915  34.788  1.00  0.00     0.031 C 
ATOM     34  C   UNL A   1      45.501  24.752  30.382  1.00  0.00     0.029 A 
ATOM     35  C   UNL A   1      45.084  25.793  31.194  1.00  0.00     0.049 A 
ATOM     36  H   UNL A   1      43.352  26.991  31.039  1.00  0.00     0.167 HD
ATOM     37  C   UNL A   1      45.289  27.390  33.077  1.00  0.00     0.074 A 
ATOM     38  C   UNL A   1      45.950  27.912  34.256  1.00  0.00     0.031 C 
ATOM     39  C   UNL A   1      45.724  26.320  32.370  1.00  0.00     0.031 A 
BRANCH  26  40
ATOM     40  C   UNL A   1      42.049  24.647  27.718  1.00  0.00    -0.014 A 
ATOM     41  C   UNL A   1      42.648  24.757  26.454  1.00  0.00     0.009 A 
ATOM     42  C   UNL A   1      41.260  23.519  27.999  1.00  0.00     0.009 A 
ATOM     43  C   UNL A   1      42.451  23.764  25.491  1.00  0.00     0.001 A 
ATOM     44  C   UNL A   1      41.085  22.516  27.044  1.00  0.00     0.001 A 
ATOM     45  C   UNL A   1      41.678  22.642  25.789  1.00  0.00     0.000 A 
ENDBRANCH  26  40
BRANCH  27  46
ATOM     46  C   UNL A   1      43.338  31.061  35.273  1.00  0.00    -0.014 A 
ATOM     47  C   UNL A   1      44.073  32.251  35.186  1.00  0.00     0.009 A 
ATOM     48  C   UNL A   1      42.759  30.709  36.504  1.00  0.00     0.009 A 
ATOM     49  C   UNL A   1      44.258  33.051  36.317  1.00  0.00     0.001 A 
ATOM     50  C   UNL A   1      42.913  31.529  37.623  1.00  0.00     0.001 A 
ATOM     51  C   UNL A   1      43.674  32.691  37.532  1.00  0.00     0.000 A 
ENDBRANCH  27  46
BRANCH  39  52
ATOM     52  C   UNL A   1      46.982  25.653  32.846  1.00  0.00    -0.014 A 
ATOM     53  C   UNL A   1      48.235  26.015  32.325  1.00  0.00     0.009 A 
ATOM     54  C   UNL A   1      46.919  24.686  33.861  1.00  0.00     0.009 A 
ATOM     55  C   UNL A   1      49.397  25.401  32.794  1.00  0.00     0.001 A 
ATOM     56  C   UNL A   1      48.085  24.098  34.350  1.00  0.00     0.001 A 
ATOM     57  C   UNL A   1      49.322  24.449  33.811  1.00  0.00     0.000 A 
ENDBRANCH  39  52
ENDBRANCH  13  14
ENDBRANCH   6   8
ENDBRANCH   3   4
ENDBRANCH   2   3
ENDBRANCH   1   2
BRANCH   1  58
ATOM     58  C   UNL A   1      34.050  28.633  25.530  1.00  0.00     0.002 C 
BRANCH  58  59
ATOM     59  C   UNL A   1      32.947  28.829  24.485  1.00  0.00     0.021 C 
BRANCH  59  60
ATOM     60  C   UNL A   1      31.534  28.566  25.000  1.00  0.00     0.116 C 
BRANCH  60  61
ATOM     61  N   UNL A   1      30.550  28.711  23.943  1.00  0.00    -0.352 N 
ATOM     62  C   UNL A   1      30.416  27.971  22.798  1.00  0.00     0.251 C 
ATOM     63  H   UNL A   1      29.895  29.436  24.063  1.00  0.00     0.163 HD
ATOM     64  O   UNL A   1      29.676  28.337  21.892  1.00  0.00    -0.269 OA
BRANCH  62  65
ATOM     65  C   UNL A   1      31.186  26.722  22.662  1.00  0.00     0.042 A 
ATOM     66  C   UNL A   1      32.175  26.619  21.675  1.00  0.00     0.016 A 
ATOM     67  C   UNL A   1      30.901  25.672  23.549  1.00  0.00     0.042 A 
ATOM     68  C   UNL A   1      32.920  25.446  21.540  1.00  0.00     0.031 A 
ATOM     69  C   UNL A   1      31.647  24.506  23.369  1.00  0.00     0.067 A 
ATOM     70  C   UNL A   1      32.660  24.389  22.424  1.00  0.00     0.089 A 
ATOM     71  N   UNL A   1      31.622  23.282  23.989  1.00  0.00    -0.338 N 
ATOM     72  N   UNL A   1      33.299  23.188  22.545  1.00  0.00    -0.228 NA
ATOM     73  C   UNL A   1      32.662  22.539  23.496  1.00  0.00     0.142 A 
ATOM     74  H   UNL A   1      30.970  22.989  24.667  1.00  0.00     0.168 HD
BRANCH  73  75
ATOM     75  C   UNL A   1      33.076  21.212  23.992  1.00  0.00     0.063 A 
ATOM     76  C   UNL A   1      32.325  20.062  23.997  1.00  0.00     0.117 A 
ATOM     77  C   UNL A   1      34.324  20.869  24.580  1.00  0.00     0.106 A 
ATOM     78  N   UNL A   1      33.161  19.096  24.479  1.00  0.00    -0.284 N 
ATOM     79  N   UNL A   1      34.351  19.562  24.890  1.00  0.00    -0.175 NA
ATOM     80  H   UNL A   1      32.914  18.144  24.520  1.00  0.00     0.189 HD
BRANCH  77  81
ATOM     81  C   UNL A   1      35.390  21.778  24.983  1.00  0.00     0.039 A 
ATOM     82  C   UNL A   1      36.679  21.608  24.445  1.00  0.00     0.016 A 
ATOM     83  C   UNL A   1      35.170  22.807  25.900  1.00  0.00     0.135 A 
ATOM     84  C   UNL A   1      37.723  22.447  24.833  1.00  0.00     0.040 A 
ATOM     85  C   UNL A   1      36.209  23.652  26.287  1.00  0.00     0.079 A 
ATOM     86  F   UNL A   1      33.961  22.994  26.452  1.00  0.00    -0.206 F 
ATOM     87  C   UNL A   1      37.478  23.461  25.751  1.00  0.00     0.126 A 
ATOM     88  F   UNL A   1      38.481  24.266  26.124  1.00  0.00    -0.207 F 
ENDBRANCH  77  81
ENDBRANCH  73  75
ENDBRANCH  62  65
ENDBRANCH  60  61
ENDBRANCH  59  60
ENDBRANCH  58  59
ENDBRANCH   1  58
TORSDOF 15
ENDMDL
