MODEL 1
REMARK VINA RESULT:     -12.0      0.000      0.000
REMARK SMILES Cc1ccc2cc(C[N@H+]3CC[NH2+][C@H](C(=O)NCCCCCCNC(=O)c4ccc(-c5c6nc(c(-c7ccccc7)c7ccc([nH]7)c(-c7ccccc7)c7nc(c(-c8ccccc8)c8ccc5[nH]8)C=C7)C=C6)cc4)C3)c(N3CCOCC3)nc2c1
REMARK SMILES IDX 19 1 18 2 17 3 16 4 14 5 15 6 13 8 9 9 10 10 74 11 11 13
REMARK SMILES IDX 12 14 8 17 7 18 1 19 2 20 3 21 84 22 4 23 83 24 5 25 82 26
REMARK SMILES IDX 6 27 75 28 76 29 77 30 81 31 78 32 80 33 79 34 20 35 21 36
REMARK SMILES IDX 22 37 23 38 24 39 25 41 26 42 27 43 73 44 28 45 72 46 29 47
REMARK SMILES IDX 30 48 31 49 66 50 32 51 71 52 65 53 67 54 33 55 70 56 64 57
REMARK SMILES IDX 63 58 34 60 56 61 41 62 55 63 42 64 45 65 54 66 68 67 43 68
REMARK SMILES IDX 44 69 53 71 69 72 46 73 35 74 36 75 40 76 37 77 39 78 38 79
REMARK SMILES IDX 57 80 58 81 62 82 59 83 61 84 60 85 47 86 48 87 52 88 49 89
REMARK SMILES IDX 51 90 50 91
REMARK H PARENT 16 7 9 12 12 15 12 16 23 40 67 59 45 70
REMARK Flexibility Score: inf
ROOT
ATOM      1  C   UNL A   1      32.955  29.278  27.191  1.00  0.00     0.002 C 
ENDROOT
BRANCH   1   2
ATOM      2  C   UNL A   1      34.095  28.754  26.313  1.00  0.00     0.021 C 
BRANCH   2   3
ATOM      3  C   UNL A   1      33.743  27.640  25.322  1.00  0.00     0.116 C 
BRANCH   3   4
ATOM      4  N   UNL A   1      33.990  27.961  23.910  1.00  0.00    -0.351 N 
ATOM      5  C   UNL A   1      33.740  27.181  22.783  1.00  0.00     0.284 C 
ATOM      6  O   UNL A   1      33.995  27.629  21.665  1.00  0.00    -0.268 OA
ATOM      7  H   UNL A   1      34.386  28.846  23.736  1.00  0.00     0.163 HD
BRANCH   5   8
ATOM      8  C   UNL A   1      33.085  25.802  22.983  1.00  0.00     0.328 C 
ATOM      9  N   UNL A   1      33.105  23.352  22.751  1.00  0.00    -0.321 N 
ATOM     10  C   UNL A   1      31.644  23.290  22.745  1.00  0.00     0.324 C 
ATOM     11  C   UNL A   1      33.588  24.623  22.163  1.00  0.00     0.339 C 
ATOM     12  H   UNL A   1      33.440  22.632  22.111  1.00  0.00     0.348 HD
ATOM     13  C   UNL A   1      30.910  24.587  23.183  1.00  0.00     0.323 C 
ATOM     14  N   UNL A   1      31.594  25.898  23.010  1.00  0.00    -0.327 N 
ATOM     15  H   UNL A   1      31.325  26.506  23.784  1.00  0.00     0.347 HD
ATOM     16  H   UNL A   1      31.304  26.268  22.104  1.00  0.00     0.347 HD
BRANCH   9  17
ATOM     17  C   UNL A   1      33.776  22.848  23.975  1.00  0.00     0.303 C 
BRANCH  17  18
ATOM     18  C   UNL A   1      33.524  21.479  24.614  1.00  0.00     0.049 A 
ATOM     19  C   UNL A   1      32.892  15.006  25.384  1.00  0.00     0.044 C 
ATOM     20  C   UNL A   1      33.265  16.442  25.174  1.00  0.00    -0.049 A 
ATOM     21  C   UNL A   1      34.331  16.704  24.319  1.00  0.00     0.004 A 
ATOM     22  C   UNL A   1      32.540  17.521  25.751  1.00  0.00     0.032 A 
ATOM     23  C   UNL A   1      34.653  18.012  24.046  1.00  0.00     0.010 A 
ATOM     24  C   UNL A   1      32.837  18.872  25.479  1.00  0.00     0.073 A 
ATOM     25  C   UNL A   1      33.894  19.050  24.607  1.00  0.00     0.001 A 
ATOM     26  N   UNL A   1      32.194  19.971  25.987  1.00  0.00    -0.230 NA
ATOM     27  C   UNL A   1      34.210  20.337  24.240  1.00  0.00     0.023 A 
ATOM     28  C   UNL A   1      32.521  21.242  25.563  1.00  0.00     0.138 A 
BRANCH  28  29
ATOM     29  N   UNL A   1      31.963  22.302  26.234  1.00  0.00    -0.352 N 
ATOM     30  C   UNL A   1      30.532  22.517  26.418  1.00  0.00     0.146 C 
ATOM     31  C   UNL A   1      32.847  23.192  26.979  1.00  0.00     0.146 C 
ATOM     32  C   UNL A   1      30.199  24.017  26.235  1.00  0.00     0.181 C 
ATOM     33  C   UNL A   1      32.446  24.639  26.653  1.00  0.00     0.181 C 
ATOM     34  O   UNL A   1      31.067  24.878  26.993  1.00  0.00    -0.378 OA
ENDBRANCH  28  29
ENDBRANCH  17  18
ENDBRANCH   9  17
ENDBRANCH   5   8
ENDBRANCH   3   4
ENDBRANCH   2   3
ENDBRANCH   1   2
BRANCH   1  35
ATOM     35  C   UNL A   1      31.764  29.928  26.475  1.00  0.00     0.002 C 
BRANCH  35  36
ATOM     36  C   UNL A   1      31.578  31.442  26.626  1.00  0.00     0.021 C 
BRANCH  36  37
ATOM     37  C   UNL A   1      32.791  32.262  27.070  1.00  0.00     0.116 C 
BRANCH  37  38
ATOM     38  N   UNL A   1      32.470  33.580  27.598  1.00  0.00    -0.352 N 
ATOM     39  C   UNL A   1      33.164  34.385  28.474  1.00  0.00     0.251 C 
ATOM     40  H   UNL A   1      31.618  33.956  27.280  1.00  0.00     0.163 HD
ATOM     41  O   UNL A   1      32.681  35.462  28.820  1.00  0.00    -0.269 OA
BRANCH  39  42
ATOM     42  C   UNL A   1      34.463  33.956  29.050  1.00  0.00     0.039 A 
ATOM     43  C   UNL A   1      35.680  34.377  28.515  1.00  0.00     0.014 A 
ATOM     44  C   UNL A   1      34.457  33.107  30.164  1.00  0.00     0.014 A 
ATOM     45  C   UNL A   1      36.873  33.814  28.971  1.00  0.00     0.010 A 
ATOM     46  C   UNL A   1      35.661  32.599  30.669  1.00  0.00     0.010 A 
ATOM     47  C   UNL A   1      36.877  32.902  30.040  1.00  0.00    -0.014 A 
BRANCH  47  48
ATOM     48  C   UNL A   1      38.152  32.255  30.459  1.00  0.00     0.031 A 
ATOM     49  C   UNL A   1      38.963  32.824  31.596  1.00  0.00     0.074 A 
ATOM     50  C   UNL A   1      38.551  31.114  29.861  1.00  0.00     0.049 A 
ATOM     51  N   UNL A   1      40.074  32.371  32.122  1.00  0.00    -0.248 NA
ATOM     52  C   UNL A   1      38.464  34.055  32.231  1.00  0.00     0.031 C 
ATOM     53  C   UNL A   1      37.843  30.441  28.771  1.00  0.00     0.029 A 
ATOM     54  N   UNL A   1      39.630  30.301  30.108  1.00  0.00    -0.354 N 
ATOM     55  C   UNL A   1      40.412  33.265  33.132  1.00  0.00     0.074 A 
ATOM     56  C   UNL A   1      39.405  34.301  33.133  1.00  0.00     0.031 C 
ATOM     57  C   UNL A   1      38.470  29.289  28.486  1.00  0.00     0.029 A 
ATOM     58  C   UNL A   1      39.659  29.170  29.326  1.00  0.00     0.049 A 
ATOM     59  H   UNL A   1      40.319  30.508  30.780  1.00  0.00     0.167 HD
ATOM     60  C   UNL A   1      41.458  33.218  33.991  1.00  0.00     0.031 A 
ATOM     61  C   UNL A   1      40.541  28.152  29.282  1.00  0.00     0.031 A 
ATOM     62  C   UNL A   1      42.449  32.175  34.010  1.00  0.00     0.049 A 
ATOM     63  C   UNL A   1      41.727  28.162  30.205  1.00  0.00     0.074 A 
ATOM     64  C   UNL A   1      43.531  32.039  34.864  1.00  0.00     0.029 A 
ATOM     65  N   UNL A   1      42.480  31.092  33.148  1.00  0.00    -0.354 N 
ATOM     66  N   UNL A   1      42.022  29.011  31.158  1.00  0.00    -0.248 NA
ATOM     67  C   UNL A   1      42.706  27.075  30.043  1.00  0.00     0.031 C 
ATOM     68  C   UNL A   1      44.248  30.905  34.482  1.00  0.00     0.029 A 
ATOM     69  C   UNL A   1      43.578  30.298  33.433  1.00  0.00     0.049 A 
ATOM     70  H   UNL A   1      41.820  30.913  32.439  1.00  0.00     0.167 HD
ATOM     71  C   UNL A   1      43.204  28.550  31.723  1.00  0.00     0.074 A 
ATOM     72  C   UNL A   1      43.565  27.338  31.020  1.00  0.00     0.031 C 
ATOM     73  C   UNL A   1      43.924  29.088  32.736  1.00  0.00     0.031 A 
BRANCH  60  74
ATOM     74  C   UNL A   1      41.609  34.323  34.998  1.00  0.00    -0.014 A 
ATOM     75  C   UNL A   1      40.976  34.215  36.247  1.00  0.00     0.009 A 
ATOM     76  C   UNL A   1      42.253  35.523  34.664  1.00  0.00     0.009 A 
ATOM     77  C   UNL A   1      40.964  35.296  37.133  1.00  0.00     0.001 A 
ATOM     78  C   UNL A   1      42.261  36.594  35.561  1.00  0.00     0.001 A 
ATOM     79  C   UNL A   1      41.606  36.483  36.788  1.00  0.00     0.000 A 
ENDBRANCH  60  74
BRANCH  61  80
ATOM     80  C   UNL A   1      40.328  27.028  28.330  1.00  0.00    -0.014 A 
ATOM     81  C   UNL A   1      40.873  27.070  27.037  1.00  0.00     0.009 A 
ATOM     82  C   UNL A   1      39.564  25.912  28.706  1.00  0.00     0.009 A 
ATOM     83  C   UNL A   1      40.640  26.031  26.133  1.00  0.00     0.001 A 
ATOM     84  C   UNL A   1      39.361  24.859  27.811  1.00  0.00     0.001 A 
ATOM     85  C   UNL A   1      39.891  24.923  26.524  1.00  0.00     0.000 A 
ENDBRANCH  61  80
BRANCH  73  86
ATOM     86  C   UNL A   1      45.169  28.372  33.178  1.00  0.00    -0.014 A 
ATOM     87  C   UNL A   1      46.392  28.648  32.546  1.00  0.00     0.009 A 
ATOM     88  C   UNL A   1      45.112  27.347  34.134  1.00  0.00     0.009 A 
ATOM     89  C   UNL A   1      47.531  27.903  32.850  1.00  0.00     0.001 A 
ATOM     90  C   UNL A   1      46.261  26.622  34.458  1.00  0.00     0.001 A 
ATOM     91  C   UNL A   1      47.466  26.893  33.809  1.00  0.00     0.000 A 
ENDBRANCH  73  86
ENDBRANCH  47  48
ENDBRANCH  39  42
ENDBRANCH  37  38
ENDBRANCH  36  37
ENDBRANCH  35  36
ENDBRANCH   1  35
TORSDOF 16
ENDMDL
MODEL 2
REMARK VINA RESULT:     -11.9      1.703      2.308
REMARK SMILES Cc1ccc2cc(C[N@H+]3CC[NH2+][C@H](C(=O)NCCCCCCNC(=O)c4ccc(-c5c6nc(c(-c7ccccc7)c7ccc([nH]7)c(-c7ccccc7)c7nc(c(-c8ccccc8)c8ccc5[nH]8)C=C7)C=C6)cc4)C3)c(N3CCOCC3)nc2c1
REMARK SMILES IDX 19 1 18 2 17 3 16 4 14 5 15 6 13 8 9 9 10 10 74 11 11 13
REMARK SMILES IDX 12 14 8 17 7 18 1 19 2 20 3 21 84 22 4 23 83 24 5 25 82 26
REMARK SMILES IDX 6 27 75 28 76 29 77 30 81 31 78 32 80 33 79 34 20 35 21 36
REMARK SMILES IDX 22 37 23 38 24 39 25 41 26 42 27 43 73 44 28 45 72 46 29 47
REMARK SMILES IDX 30 48 31 49 66 50 32 51 71 52 65 53 67 54 33 55 70 56 64 57
REMARK SMILES IDX 63 58 34 60 56 61 41 62 55 63 42 64 45 65 54 66 68 67 43 68
REMARK SMILES IDX 44 69 53 71 69 72 46 73 35 74 36 75 40 76 37 77 39 78 38 79
REMARK SMILES IDX 57 80 58 81 62 82 59 83 61 84 60 85 47 86 48 87 52 88 49 89
REMARK SMILES IDX 51 90 50 91
REMARK H PARENT 16 7 9 12 12 15 12 16 23 40 67 59 45 70
REMARK Flexibility Score: inf
ROOT
ATOM      1  C   UNL A   1      33.717  29.538  26.848  1.00  0.00     0.002 C 
ENDROOT
BRANCH   1   2
ATOM      2  C   UNL A   1      33.073  29.732  25.472  1.00  0.00     0.021 C 
BRANCH   2   3
ATOM      3  C   UNL A   1      31.565  29.481  25.377  1.00  0.00     0.116 C 
BRANCH   3   4
ATOM      4  N   UNL A   1      30.938  29.917  24.123  1.00  0.00    -0.351 N 
ATOM      5  C   UNL A   1      30.996  29.320  22.866  1.00  0.00     0.284 C 
ATOM      6  O   UNL A   1      30.382  29.822  21.925  1.00  0.00    -0.268 OA
ATOM      7  H   UNL A   1      30.404  30.743  24.177  1.00  0.00     0.163 HD
BRANCH   5   8
ATOM      8  C   UNL A   1      31.782  28.004  22.722  1.00  0.00     0.328 C 
ATOM      9  N   UNL A   1      33.871  26.712  22.875  1.00  0.00    -0.321 N 
ATOM     10  C   UNL A   1      33.419  25.762  21.860  1.00  0.00     0.324 C 
ATOM     11  C   UNL A   1      33.301  28.059  22.639  1.00  0.00     0.339 C 
ATOM     12  H   UNL A   1      34.876  26.836  22.746  1.00  0.00     0.348 HD
ATOM     13  C   UNL A   1      31.910  25.829  21.496  1.00  0.00     0.323 C 
ATOM     14  N   UNL A   1      31.176  27.111  21.688  1.00  0.00    -0.327 N 
ATOM     15  H   UNL A   1      30.220  26.894  21.971  1.00  0.00     0.347 HD
ATOM     16  H   UNL A   1      31.216  27.612  20.800  1.00  0.00     0.347 HD
BRANCH   9  17
ATOM     17  C   UNL A   1      33.918  26.206  24.269  1.00  0.00     0.303 C 
BRANCH  17  18
ATOM     18  C   UNL A   1      34.242  24.764  24.670  1.00  0.00     0.049 A 
ATOM     19  C   UNL A   1      37.116  18.884  24.919  1.00  0.00     0.044 C 
ATOM     20  C   UNL A   1      36.661  20.311  24.950  1.00  0.00    -0.049 A 
ATOM     21  C   UNL A   1      37.630  21.293  24.766  1.00  0.00     0.004 A 
ATOM     22  C   UNL A   1      35.295  20.684  25.086  1.00  0.00     0.032 A 
ATOM     23  C   UNL A   1      37.237  22.608  24.716  1.00  0.00     0.010 A 
ATOM     24  C   UNL A   1      34.859  22.023  25.024  1.00  0.00     0.073 A 
ATOM     25  C   UNL A   1      35.877  22.936  24.821  1.00  0.00     0.001 A 
ATOM     26  N   UNL A   1      33.569  22.473  25.144  1.00  0.00    -0.230 NA
ATOM     27  C   UNL A   1      35.531  24.260  24.686  1.00  0.00     0.023 A 
ATOM     28  C   UNL A   1      33.265  23.805  24.966  1.00  0.00     0.138 A 
BRANCH  28  29
ATOM     29  N   UNL A   1      31.988  24.214  25.269  1.00  0.00    -0.352 N 
ATOM     30  C   UNL A   1      30.827  24.046  24.403  1.00  0.00     0.146 C 
ATOM     31  C   UNL A   1      31.719  24.689  26.622  1.00  0.00     0.146 C 
ATOM     32  C   UNL A   1      29.950  25.320  24.448  1.00  0.00     0.181 C 
ATOM     33  C   UNL A   1      30.901  25.986  26.513  1.00  0.00     0.181 C 
ATOM     34  O   UNL A   1      29.676  25.761  25.790  1.00  0.00    -0.378 OA
ENDBRANCH  28  29
ENDBRANCH  17  18
ENDBRANCH   9  17
ENDBRANCH   5   8
ENDBRANCH   3   4
ENDBRANCH   2   3
ENDBRANCH   1   2
BRANCH   1  35
ATOM     35  C   UNL A   1      34.209  30.798  27.572  1.00  0.00     0.002 C 
BRANCH  35  36
ATOM     36  C   UNL A   1      33.160  31.821  28.022  1.00  0.00     0.021 C 
BRANCH  36  37
ATOM     37  C   UNL A   1      32.803  32.942  27.047  1.00  0.00     0.116 C 
BRANCH  37  38
ATOM     38  N   UNL A   1      32.406  34.192  27.680  1.00  0.00    -0.352 N 
ATOM     39  C   UNL A   1      33.019  34.924  28.672  1.00  0.00     0.251 C 
ATOM     40  H   UNL A   1      31.562  34.574  27.348  1.00  0.00     0.163 HD
ATOM     41  O   UNL A   1      32.480  35.948  29.091  1.00  0.00    -0.269 OA
BRANCH  39  42
ATOM     42  C   UNL A   1      34.295  34.477  29.285  1.00  0.00     0.039 A 
ATOM     43  C   UNL A   1      35.514  34.598  28.618  1.00  0.00     0.014 A 
ATOM     44  C   UNL A   1      34.265  33.920  30.570  1.00  0.00     0.014 A 
ATOM     45  C   UNL A   1      36.660  34.006  29.150  1.00  0.00     0.010 A 
ATOM     46  C   UNL A   1      35.432  33.392  31.137  1.00  0.00     0.010 A 
ATOM     47  C   UNL A   1      36.630  33.378  30.407  1.00  0.00    -0.014 A 
BRANCH  47  48
ATOM     48  C   UNL A   1      37.845  32.686  30.920  1.00  0.00     0.031 A 
ATOM     49  C   UNL A   1      38.513  33.150  32.191  1.00  0.00     0.074 A 
ATOM     50  C   UNL A   1      38.314  31.595  30.282  1.00  0.00     0.049 A 
ATOM     51  N   UNL A   1      39.552  32.645  32.806  1.00  0.00    -0.248 NA
ATOM     52  C   UNL A   1      37.940  34.330  32.862  1.00  0.00     0.031 C 
ATOM     53  C   UNL A   1      37.743  31.022  29.063  1.00  0.00     0.029 A 
ATOM     54  N   UNL A   1      39.356  30.754  30.588  1.00  0.00    -0.354 N 
ATOM     55  C   UNL A   1      39.765  33.449  33.921  1.00  0.00     0.074 A 
ATOM     56  C   UNL A   1      38.765  34.491  33.888  1.00  0.00     0.031 C 
ATOM     57  C   UNL A   1      38.400  29.891  28.759  1.00  0.00     0.029 A 
ATOM     58  C   UNL A   1      39.479  29.692  29.724  1.00  0.00     0.049 A 
ATOM     59  H   UNL A   1      39.958  30.898  31.353  1.00  0.00     0.167 HD
ATOM     60  C   UNL A   1      40.700  33.320  34.893  1.00  0.00     0.031 A 
ATOM     61  C   UNL A   1      40.360  28.672  29.701  1.00  0.00     0.031 A 
ATOM     62  C   UNL A   1      41.682  32.269  34.944  1.00  0.00     0.049 A 
ATOM     63  C   UNL A   1      41.427  28.594  30.758  1.00  0.00     0.074 A 
ATOM     64  C   UNL A   1      42.653  32.053  35.908  1.00  0.00     0.029 A 
ATOM     65  N   UNL A   1      41.817  31.261  34.004  1.00  0.00    -0.354 N 
ATOM     66  N   UNL A   1      41.604  29.358  31.806  1.00  0.00    -0.248 NA
ATOM     67  C   UNL A   1      42.418  27.514  30.624  1.00  0.00     0.031 C 
ATOM     68  C   UNL A   1      43.411  30.947  35.522  1.00  0.00     0.029 A 
ATOM     69  C   UNL A   1      42.873  30.437  34.352  1.00  0.00     0.049 A 
ATOM     70  H   UNL A   1      41.247  31.148  33.209  1.00  0.00     0.167 HD
ATOM     71  C   UNL A   1      42.708  28.840  32.470  1.00  0.00     0.074 A 
ATOM     72  C   UNL A   1      43.152  27.687  31.716  1.00  0.00     0.031 C 
ATOM     73  C   UNL A   1      43.301  29.285  33.603  1.00  0.00     0.031 A 
BRANCH  60  74
ATOM     74  C   UNL A   1      40.728  34.337  36.000  1.00  0.00    -0.014 A 
ATOM     75  C   UNL A   1      39.892  34.171  37.116  1.00  0.00     0.009 A 
ATOM     76  C   UNL A   1      41.469  35.521  35.876  1.00  0.00     0.009 A 
ATOM     77  C   UNL A   1      39.778  35.180  38.074  1.00  0.00     0.001 A 
ATOM     78  C   UNL A   1      41.372  36.519  36.849  1.00  0.00     0.001 A 
ATOM     79  C   UNL A   1      40.518  36.353  37.939  1.00  0.00     0.000 A 
ENDBRANCH  60  74
BRANCH  61  80
ATOM     80  C   UNL A   1      40.264  27.633  28.640  1.00  0.00    -0.014 A 
ATOM     81  C   UNL A   1      39.550  26.445  28.862  1.00  0.00     0.009 A 
ATOM     82  C   UNL A   1      40.900  27.818  27.403  1.00  0.00     0.009 A 
ATOM     83  C   UNL A   1      39.494  25.455  27.879  1.00  0.00     0.001 A 
ATOM     84  C   UNL A   1      40.815  26.840  26.408  1.00  0.00     0.001 A 
ATOM     85  C   UNL A   1      40.120  25.657  26.650  1.00  0.00     0.000 A 
ENDBRANCH  61  80
BRANCH  73  86
ATOM     86  C   UNL A   1      44.484  28.522  34.130  1.00  0.00    -0.014 A 
ATOM     87  C   UNL A   1      45.767  28.794  33.628  1.00  0.00     0.009 A 
ATOM     88  C   UNL A   1      44.316  27.463  35.034  1.00  0.00     0.009 A 
ATOM     89  C   UNL A   1      46.856  28.011  34.007  1.00  0.00     0.001 A 
ATOM     90  C   UNL A   1      45.414  26.698  35.434  1.00  0.00     0.001 A 
ATOM     91  C   UNL A   1      46.681  26.966  34.913  1.00  0.00     0.000 A 
ENDBRANCH  73  86
ENDBRANCH  47  48
ENDBRANCH  39  42
ENDBRANCH  37  38
ENDBRANCH  36  37
ENDBRANCH  35  36
ENDBRANCH   1  35
TORSDOF 16
ENDMDL
MODEL 3
REMARK VINA RESULT:     -11.9      3.602      5.094
REMARK SMILES Cc1ccc2cc(C[N@H+]3CC[NH2+][C@H](C(=O)NCCCCCCNC(=O)c4ccc(-c5c6nc(c(-c7ccccc7)c7ccc([nH]7)c(-c7ccccc7)c7nc(c(-c8ccccc8)c8ccc5[nH]8)C=C7)C=C6)cc4)C3)c(N3CCOCC3)nc2c1
REMARK SMILES IDX 19 1 18 2 17 3 16 4 14 5 15 6 13 8 9 9 10 10 74 11 11 13
REMARK SMILES IDX 12 14 8 17 7 18 1 19 2 20 3 21 84 22 4 23 83 24 5 25 82 26
REMARK SMILES IDX 6 27 75 28 76 29 77 30 81 31 78 32 80 33 79 34 20 35 21 36
REMARK SMILES IDX 22 37 23 38 24 39 25 41 26 42 27 43 73 44 28 45 72 46 29 47
REMARK SMILES IDX 30 48 31 49 66 50 32 51 71 52 65 53 67 54 33 55 70 56 64 57
REMARK SMILES IDX 63 58 34 60 56 61 41 62 55 63 42 64 45 65 54 66 68 67 43 68
REMARK SMILES IDX 44 69 53 71 69 72 46 73 35 74 36 75 40 76 37 77 39 78 38 79
REMARK SMILES IDX 57 80 58 81 62 82 59 83 61 84 60 85 47 86 48 87 52 88 49 89
REMARK SMILES IDX 51 90 50 91
REMARK H PARENT 16 7 9 12 12 15 12 16 23 40 67 59 45 70
REMARK Flexibility Score: inf
ROOT
ATOM      1  C   UNL A   1      33.787  29.235  26.311  1.00  0.00     0.002 C 
ENDROOT
BRANCH   1   2
ATOM      2  C   UNL A   1      32.748  30.078  25.566  1.00  0.00     0.021 C 
BRANCH   2   3
ATOM      3  C   UNL A   1      31.381  29.430  25.327  1.00  0.00     0.116 C 
BRANCH   3   4
ATOM      4  N   UNL A   1      30.732  29.793  24.060  1.00  0.00    -0.351 N 
ATOM      5  C   UNL A   1      30.854  29.184  22.813  1.00  0.00     0.284 C 
ATOM      6  O   UNL A   1      30.210  29.618  21.858  1.00  0.00    -0.268 OA
ATOM      7  H   UNL A   1      30.131  30.572  24.095  1.00  0.00     0.163 HD
BRANCH   5   8
ATOM      8  C   UNL A   1      31.749  27.937  22.697  1.00  0.00     0.328 C 
ATOM      9  N   UNL A   1      33.910  26.798  22.997  1.00  0.00    -0.321 N 
ATOM     10  C   UNL A   1      33.624  25.859  21.913  1.00  0.00     0.324 C 
ATOM     11  C   UNL A   1      33.260  28.107  22.755  1.00  0.00     0.339 C 
ATOM     12  H   UNL A   1      34.909  27.001  22.965  1.00  0.00     0.348 HD
ATOM     13  C   UNL A   1      32.153  25.828  21.415  1.00  0.00     0.323 C 
ATOM     14  N   UNL A   1      31.307  27.043  21.583  1.00  0.00    -0.327 N 
ATOM     15  H   UNL A   1      30.350  26.745  21.771  1.00  0.00     0.347 HD
ATOM     16  H   UNL A   1      31.387  27.582  20.720  1.00  0.00     0.347 HD
BRANCH   9  17
ATOM     17  C   UNL A   1      33.872  26.241  24.372  1.00  0.00     0.303 C 
BRANCH  17  18
ATOM     18  C   UNL A   1      34.225  24.798  24.745  1.00  0.00     0.049 A 
ATOM     19  C   UNL A   1      37.310  19.027  25.001  1.00  0.00     0.044 C 
ATOM     20  C   UNL A   1      36.795  20.433  25.048  1.00  0.00    -0.049 A 
ATOM     21  C   UNL A   1      37.735  21.457  24.971  1.00  0.00     0.004 A 
ATOM     22  C   UNL A   1      35.409  20.749  25.096  1.00  0.00     0.032 A 
ATOM     23  C   UNL A   1      37.293  22.758  24.937  1.00  0.00     0.010 A 
ATOM     24  C   UNL A   1      34.925  22.071  25.048  1.00  0.00     0.073 A 
ATOM     25  C   UNL A   1      35.917  23.030  24.953  1.00  0.00     0.001 A 
ATOM     26  N   UNL A   1      33.613  22.467  25.088  1.00  0.00    -0.230 NA
ATOM     27  C   UNL A   1      35.529  24.343  24.839  1.00  0.00     0.023 A 
ATOM     28  C   UNL A   1      33.268  23.793  24.935  1.00  0.00     0.138 A 
BRANCH  28  29
ATOM     29  N   UNL A   1      31.958  24.141  25.157  1.00  0.00    -0.352 N 
ATOM     30  C   UNL A   1      30.868  23.953  24.206  1.00  0.00     0.146 C 
ATOM     31  C   UNL A   1      31.574  24.564  26.499  1.00  0.00     0.146 C 
ATOM     32  C   UNL A   1      29.937  25.189  24.223  1.00  0.00     0.181 C 
ATOM     33  C   UNL A   1      30.713  25.830  26.367  1.00  0.00     0.181 C 
ATOM     34  O   UNL A   1      29.552  25.578  25.553  1.00  0.00    -0.378 OA
ENDBRANCH  28  29
ENDBRANCH  17  18
ENDBRANCH   9  17
ENDBRANCH   5   8
ENDBRANCH   3   4
ENDBRANCH   2   3
ENDBRANCH   1   2
BRANCH   1  35
ATOM     35  C   UNL A   1      34.408  29.847  27.574  1.00  0.00     0.002 C 
BRANCH  35  36
ATOM     36  C   UNL A   1      33.904  31.223  28.024  1.00  0.00     0.021 C 
BRANCH  36  37
ATOM     37  C   UNL A   1      34.901  32.145  28.727  1.00  0.00     0.116 C 
BRANCH  37  38
ATOM     38  N   UNL A   1      34.895  32.047  30.179  1.00  0.00    -0.352 N 
ATOM     39  C   UNL A   1      35.784  31.439  31.037  1.00  0.00     0.251 C 
ATOM     40  H   UNL A   1      34.131  32.485  30.620  1.00  0.00     0.163 HD
ATOM     41  O   UNL A   1      35.560  31.446  32.248  1.00  0.00    -0.269 OA
BRANCH  39  42
ATOM     42  C   UNL A   1      36.983  30.728  30.528  1.00  0.00     0.039 A 
ATOM     43  C   UNL A   1      37.673  29.798  31.306  1.00  0.00     0.014 A 
ATOM     44  C   UNL A   1      37.426  31.003  29.228  1.00  0.00     0.014 A 
ATOM     45  C   UNL A   1      38.892  29.286  30.860  1.00  0.00     0.010 A 
ATOM     46  C   UNL A   1      38.613  30.430  28.752  1.00  0.00     0.010 A 
ATOM     47  C   UNL A   1      39.388  29.611  29.585  1.00  0.00    -0.014 A 
BRANCH  47  48
ATOM     48  C   UNL A   1      40.727  29.116  29.162  1.00  0.00     0.031 A 
ATOM     49  C   UNL A   1      41.946  29.996  29.292  1.00  0.00     0.074 A 
ATOM     50  C   UNL A   1      40.865  27.849  28.721  1.00  0.00     0.049 A 
ATOM     51  N   UNL A   1      43.195  29.718  29.011  1.00  0.00    -0.248 NA
ATOM     52  C   UNL A   1      41.741  31.360  29.807  1.00  0.00     0.031 C 
ATOM     53  C   UNL A   1      39.774  26.884  28.577  1.00  0.00     0.029 A 
ATOM     54  N   UNL A   1      41.982  27.145  28.344  1.00  0.00    -0.354 N 
ATOM     55  C   UNL A   1      43.917  30.871  29.300  1.00  0.00     0.074 A 
ATOM     56  C   UNL A   1      42.968  31.862  29.754  1.00  0.00     0.031 C 
ATOM     57  C   UNL A   1      40.282  25.699  28.205  1.00  0.00     0.029 A 
ATOM     58  C   UNL A   1      41.725  25.834  28.021  1.00  0.00     0.049 A 
ATOM     59  H   UNL A   1      42.882  27.542  28.308  1.00  0.00     0.167 HD
ATOM     60  C   UNL A   1      45.252  31.080  29.210  1.00  0.00     0.031 A 
ATOM     61  C   UNL A   1      42.550  24.848  27.617  1.00  0.00     0.031 A 
ATOM     62  C   UNL A   1      46.204  30.089  28.783  1.00  0.00     0.049 A 
ATOM     63  C   UNL A   1      44.019  25.130  27.465  1.00  0.00     0.074 A 
ATOM     64  C   UNL A   1      47.580  30.212  28.685  1.00  0.00     0.029 A 
ATOM     65  N   UNL A   1      45.887  28.799  28.391  1.00  0.00    -0.354 N 
ATOM     66  N   UNL A   1      44.682  26.223  27.751  1.00  0.00    -0.248 NA
ATOM     67  C   UNL A   1      44.854  24.044  26.928  1.00  0.00     0.031 C 
ATOM     68  C   UNL A   1      48.090  29.015  28.179  1.00  0.00     0.029 A 
ATOM     69  C   UNL A   1      47.039  28.126  28.025  1.00  0.00     0.049 A 
ATOM     70  H   UNL A   1      44.979  28.419  28.376  1.00  0.00     0.167 HD
ATOM     71  C   UNL A   1      46.010  25.949  27.454  1.00  0.00     0.074 A 
ATOM     72  C   UNL A   1      46.065  24.583  26.980  1.00  0.00     0.031 C 
ATOM     73  C   UNL A   1      47.087  26.763  27.564  1.00  0.00     0.031 A 
BRANCH  60  74
ATOM     74  C   UNL A   1      45.793  32.434  29.577  1.00  0.00    -0.014 A 
ATOM     75  C   UNL A   1      46.138  32.705  30.910  1.00  0.00     0.009 A 
ATOM     76  C   UNL A   1      45.825  33.477  28.640  1.00  0.00     0.009 A 
ATOM     77  C   UNL A   1      46.484  34.000  31.304  1.00  0.00     0.001 A 
ATOM     78  C   UNL A   1      46.196  34.766  29.032  1.00  0.00     0.001 A 
ATOM     79  C   UNL A   1      46.512  35.028  30.365  1.00  0.00     0.000 A 
ENDBRANCH  60  74
BRANCH  61  80
ATOM     80  C   UNL A   1      42.004  23.493  27.336  1.00  0.00    -0.014 A 
ATOM     81  C   UNL A   1      41.795  22.573  28.376  1.00  0.00     0.009 A 
ATOM     82  C   UNL A   1      41.703  23.105  26.021  1.00  0.00     0.009 A 
ATOM     83  C   UNL A   1      41.318  21.289  28.105  1.00  0.00     0.001 A 
ATOM     84  C   UNL A   1      41.195  21.831  25.756  1.00  0.00     0.001 A 
ATOM     85  C   UNL A   1      41.012  20.922  26.796  1.00  0.00     0.000 A 
ENDBRANCH  61  80
BRANCH  73  86
ATOM     86  C   UNL A   1      48.433  26.209  27.192  1.00  0.00    -0.014 A 
ATOM     87  C   UNL A   1      49.233  25.606  28.177  1.00  0.00     0.009 A 
ATOM     88  C   UNL A   1      48.957  26.384  25.903  1.00  0.00     0.009 A 
ATOM     89  C   UNL A   1      50.535  25.203  27.883  1.00  0.00     0.001 A 
ATOM     90  C   UNL A   1      50.251  25.953  25.603  1.00  0.00     0.001 A 
ATOM     91  C   UNL A   1      51.043  25.373  26.596  1.00  0.00     0.000 A 
ENDBRANCH  73  86
ENDBRANCH  47  48
ENDBRANCH  39  42
ENDBRANCH  37  38
ENDBRANCH  36  37
ENDBRANCH  35  36
ENDBRANCH   1  35
TORSDOF 16
ENDMDL
