MODEL 1
REMARK VINA RESULT:     -11.8      0.000      0.000
REMARK SMILES CCCn1nc(C(=O)NCCCCCCNC(=O)c2ccc(-c3c4nc(c(-c5ccccc5)c5ccc([nH]5)c(-c5ccccc5)c5nc(c(-c6ccccc6)c6ccc3[nH]6)C=C5)C=C4)cc2)c2c1CC[C@@H]([NH+]1CC[NH+](Cc3ccccn3)CC1)C2
REMARK SMILES IDX 12 1 11 2 10 3 9 4 7 5 8 6 6 8 4 9 5 10 68 11 67 12 69 13
REMARK SMILES IDX 85 14 70 15 71 16 3 17 2 18 1 19 72 20 73 21 84 22 74 24
REMARK SMILES IDX 83 25 75 26 76 28 77 29 78 30 82 31 79 32 81 33 80 34 13 35
REMARK SMILES IDX 14 36 15 37 16 38 17 39 18 41 19 42 20 43 66 44 21 45 65 46
REMARK SMILES IDX 22 47 23 48 24 49 59 50 25 51 64 52 58 53 60 54 26 55 63 56
REMARK SMILES IDX 57 57 56 58 27 60 49 61 34 62 48 63 35 64 38 65 47 66 61 67
REMARK SMILES IDX 36 68 37 69 46 71 62 72 39 73 28 74 29 75 33 76 30 77 32 78
REMARK SMILES IDX 31 79 50 80 51 81 55 82 52 83 54 84 53 85 40 86 41 87 45 88
REMARK SMILES IDX 42 89 44 90 43 91
REMARK H PARENT 9 7 72 23 75 27 16 40 60 59 38 70
REMARK Flexibility Score: inf
ROOT
ATOM      1  C   UNL A   1      40.138  22.043  26.251  1.00  0.00     0.002 C 
ENDROOT
BRANCH   1   2
ATOM      2  C   UNL A   1      38.871  21.306  25.827  1.00  0.00     0.021 C 
BRANCH   2   3
ATOM      3  C   UNL A   1      37.673  22.208  25.472  1.00  0.00     0.116 C 
BRANCH   3   4
ATOM      4  N   UNL A   1      36.620  22.178  26.473  1.00  0.00    -0.351 N 
ATOM      5  C   UNL A   1      35.297  21.794  26.504  1.00  0.00     0.272 C 
ATOM      6  O   UNL A   1      34.852  21.644  27.648  1.00  0.00    -0.267 OA
ATOM      7  H   UNL A   1      36.928  22.517  27.345  1.00  0.00     0.163 HD
BRANCH   5   8
ATOM      8  C   UNL A   1      34.426  21.607  25.312  1.00  0.00     0.153 A 
ATOM      9  N   UNL A   1      33.045  20.500  24.051  1.00  0.00    -0.269 N 
ATOM     10  N   UNL A   1      33.967  20.366  25.029  1.00  0.00    -0.167 NA
ATOM     11  C   UNL A   1      32.983  21.784  23.603  1.00  0.00     0.043 A 
ATOM     12  C   UNL A   1      33.833  22.521  24.402  1.00  0.00     0.012 A 
ATOM     13  C   UNL A   1      32.086  22.377  22.587  1.00  0.00     0.062 C 
ATOM     14  C   UNL A   1      33.910  23.995  24.306  1.00  0.00     0.105 C 
ATOM     15  C   UNL A   1      32.579  23.770  22.197  1.00  0.00     0.072 C 
ATOM     16  C   UNL A   1      32.869  24.676  23.399  1.00  0.00     0.189 C 
BRANCH   9  17
ATOM     17  C   UNL A   1      32.229  19.326  23.773  1.00  0.00     0.144 C 
BRANCH  17  18
ATOM     18  C   UNL A   1      32.669  18.298  22.726  1.00  0.00     0.020 C 
ATOM     19  C   UNL A   1      33.639  17.257  23.269  1.00  0.00     0.006 C 
ENDBRANCH  17  18
ENDBRANCH   9  17
BRANCH  16  20
ATOM     20  N   UNL A   1      31.719  25.210  24.131  1.00  0.00    -0.323 N 
ATOM     21  C   UNL A   1      30.388  25.226  23.548  1.00  0.00     0.324 C 
ATOM     22  C   UNL A   1      32.005  26.253  25.113  1.00  0.00     0.324 C 
ATOM     23  H   UNL A   1      31.566  24.359  24.672  1.00  0.00     0.348 HD
ATOM     24  C   UNL A   1      29.757  26.612  23.268  1.00  0.00     0.324 C 
ATOM     25  C   UNL A   1      30.889  27.302  25.313  1.00  0.00     0.324 C 
ATOM     26  N   UNL A   1      30.206  27.728  24.095  1.00  0.00    -0.321 N 
ATOM     27  H   UNL A   1      29.342  28.148  24.437  1.00  0.00     0.348 HD
BRANCH  26  28
ATOM     28  C   UNL A   1      30.747  28.902  23.395  1.00  0.00     0.319 C 
BRANCH  28  29
ATOM     29  C   UNL A   1      29.816  30.015  22.924  1.00  0.00     0.095 A 
ATOM     30  C   UNL A   1      29.520  30.166  21.568  1.00  0.00     0.030 A 
ATOM     31  N   UNL A   1      29.231  30.803  23.866  1.00  0.00    -0.255 NA
ATOM     32  C   UNL A   1      28.672  31.200  21.162  1.00  0.00     0.004 A 
ATOM     33  C   UNL A   1      28.412  31.797  23.444  1.00  0.00     0.111 A 
ATOM     34  C   UNL A   1      28.119  32.045  22.115  1.00  0.00     0.020 A 
ENDBRANCH  28  29
ENDBRANCH  26  28
ENDBRANCH  16  20
ENDBRANCH   5   8
ENDBRANCH   3   4
ENDBRANCH   2   3
ENDBRANCH   1   2
BRANCH   1  35
ATOM     35  C   UNL A   1      40.837  21.438  27.477  1.00  0.00     0.002 C 
BRANCH  35  36
ATOM     36  C   UNL A   1      41.816  20.278  27.223  1.00  0.00     0.021 C 
BRANCH  36  37
ATOM     37  C   UNL A   1      41.898  19.843  25.768  1.00  0.00     0.116 C 
BRANCH  37  38
ATOM     38  N   UNL A   1      43.276  19.614  25.324  1.00  0.00    -0.352 N 
ATOM     39  C   UNL A   1      44.261  20.525  25.017  1.00  0.00     0.251 C 
ATOM     40  H   UNL A   1      43.535  18.668  25.232  1.00  0.00     0.163 HD
ATOM     41  O   UNL A   1      45.250  20.184  24.365  1.00  0.00    -0.269 OA
BRANCH  39  42
ATOM     42  C   UNL A   1      44.128  21.916  25.475  1.00  0.00     0.039 A 
ATOM     43  C   UNL A   1      43.372  22.857  24.772  1.00  0.00     0.014 A 
ATOM     44  C   UNL A   1      44.785  22.274  26.648  1.00  0.00     0.014 A 
ATOM     45  C   UNL A   1      43.244  24.137  25.303  1.00  0.00     0.010 A 
ATOM     46  C   UNL A   1      44.477  23.445  27.278  1.00  0.00     0.010 A 
ATOM     47  C   UNL A   1      43.793  24.413  26.567  1.00  0.00    -0.014 A 
BRANCH  47  48
ATOM     48  C   UNL A   1      43.619  25.699  27.212  1.00  0.00     0.031 A 
ATOM     49  C   UNL A   1      44.650  26.697  26.857  1.00  0.00     0.074 A 
ATOM     50  C   UNL A   1      42.524  26.034  27.926  1.00  0.00     0.049 A 
ATOM     51  N   UNL A   1      45.640  27.066  27.595  1.00  0.00    -0.248 NA
ATOM     52  C   UNL A   1      44.689  27.225  25.486  1.00  0.00     0.031 C 
ATOM     53  C   UNL A   1      41.268  25.294  28.108  1.00  0.00     0.029 A 
ATOM     54  N   UNL A   1      42.277  27.197  28.580  1.00  0.00    -0.354 N 
ATOM     55  C   UNL A   1      46.320  28.030  26.866  1.00  0.00     0.074 A 
ATOM     56  C   UNL A   1      45.808  27.954  25.520  1.00  0.00     0.031 C 
ATOM     57  C   UNL A   1      40.325  26.121  28.619  1.00  0.00     0.029 A 
ATOM     58  C   UNL A   1      40.957  27.379  28.969  1.00  0.00     0.049 A 
ATOM     59  H   UNL A   1      42.980  27.860  28.764  1.00  0.00     0.167 HD
ATOM     60  C   UNL A   1      47.074  28.973  27.496  1.00  0.00     0.031 A 
ATOM     61  C   UNL A   1      40.435  28.503  29.519  1.00  0.00     0.031 A 
ATOM     62  C   UNL A   1      47.251  28.659  28.894  1.00  0.00     0.049 A 
ATOM     63  C   UNL A   1      41.566  29.273  30.092  1.00  0.00     0.074 A 
ATOM     64  C   UNL A   1      47.814  27.609  29.592  1.00  0.00     0.029 A 
ATOM     65  N   UNL A   1      46.412  29.297  29.780  1.00  0.00    -0.354 N 
ATOM     66  N   UNL A   1      42.261  28.862  31.113  1.00  0.00    -0.248 NA
ATOM     67  C   UNL A   1      42.219  30.260  29.246  1.00  0.00     0.031 C 
ATOM     68  C   UNL A   1      46.930  27.383  30.689  1.00  0.00     0.029 A 
ATOM     69  C   UNL A   1      45.927  28.354  30.649  1.00  0.00     0.049 A 
ATOM     70  H   UNL A   1      46.199  30.258  29.786  1.00  0.00     0.167 HD
ATOM     71  C   UNL A   1      43.575  29.169  30.787  1.00  0.00     0.074 A 
ATOM     72  C   UNL A   1      43.477  30.120  29.679  1.00  0.00     0.031 C 
ATOM     73  C   UNL A   1      44.612  28.409  31.249  1.00  0.00     0.031 A 
BRANCH  60  74
ATOM     74  C   UNL A   1      47.287  30.368  26.976  1.00  0.00    -0.014 A 
ATOM     75  C   UNL A   1      48.570  30.932  27.087  1.00  0.00     0.009 A 
ATOM     76  C   UNL A   1      46.232  31.240  26.651  1.00  0.00     0.009 A 
ATOM     77  C   UNL A   1      48.771  32.310  26.959  1.00  0.00     0.001 A 
ATOM     78  C   UNL A   1      46.437  32.612  26.483  1.00  0.00     0.001 A 
ATOM     79  C   UNL A   1      47.702  33.151  26.667  1.00  0.00     0.000 A 
ENDBRANCH  60  74
BRANCH  61  80
ATOM     80  C   UNL A   1      39.096  29.101  29.335  1.00  0.00    -0.014 A 
ATOM     81  C   UNL A   1      38.627  29.416  28.048  1.00  0.00     0.009 A 
ATOM     82  C   UNL A   1      38.161  29.072  30.385  1.00  0.00     0.009 A 
ATOM     83  C   UNL A   1      37.263  29.634  27.811  1.00  0.00     0.001 A 
ATOM     84  C   UNL A   1      36.798  29.291  30.148  1.00  0.00     0.001 A 
ATOM     85  C   UNL A   1      36.348  29.553  28.858  1.00  0.00     0.000 A 
ENDBRANCH  61  80
BRANCH  73  86
ATOM     86  C   UNL A   1      44.313  27.376  32.312  1.00  0.00    -0.014 A 
ATOM     87  C   UNL A   1      44.201  25.998  32.050  1.00  0.00     0.009 A 
ATOM     88  C   UNL A   1      44.283  27.801  33.648  1.00  0.00     0.009 A 
ATOM     89  C   UNL A   1      44.028  25.082  33.094  1.00  0.00     0.001 A 
ATOM     90  C   UNL A   1      44.134  26.885  34.691  1.00  0.00     0.001 A 
ATOM     91  C   UNL A   1      43.998  25.526  34.414  1.00  0.00     0.000 A 
ENDBRANCH  73  86
ENDBRANCH  47  48
ENDBRANCH  39  42
ENDBRANCH  37  38
ENDBRANCH  36  37
ENDBRANCH  35  36
ENDBRANCH   1  35
TORSDOF 18
ENDMDL
MODEL 2
REMARK VINA RESULT:     -11.3      2.438      3.559
REMARK SMILES CCCn1nc(C(=O)NCCCCCCNC(=O)c2ccc(-c3c4nc(c(-c5ccccc5)c5ccc([nH]5)c(-c5ccccc5)c5nc(c(-c6ccccc6)c6ccc3[nH]6)C=C5)C=C4)cc2)c2c1CC[C@@H]([NH+]1CC[NH+](Cc3ccccn3)CC1)C2
REMARK SMILES IDX 12 1 11 2 10 3 9 4 7 5 8 6 6 8 4 9 5 10 68 11 67 12 69 13
REMARK SMILES IDX 85 14 70 15 71 16 3 17 2 18 1 19 72 20 73 21 84 22 74 24
REMARK SMILES IDX 83 25 75 26 76 28 77 29 78 30 82 31 79 32 81 33 80 34 13 35
REMARK SMILES IDX 14 36 15 37 16 38 17 39 18 41 19 42 20 43 66 44 21 45 65 46
REMARK SMILES IDX 22 47 23 48 24 49 59 50 25 51 64 52 58 53 60 54 26 55 63 56
REMARK SMILES IDX 57 57 56 58 27 60 49 61 34 62 48 63 35 64 38 65 47 66 61 67
REMARK SMILES IDX 36 68 37 69 46 71 62 72 39 73 28 74 29 75 33 76 30 77 32 78
REMARK SMILES IDX 31 79 50 80 51 81 55 82 52 83 54 84 53 85 40 86 41 87 45 88
REMARK SMILES IDX 42 89 44 90 43 91
REMARK H PARENT 9 7 72 23 75 27 16 40 60 59 38 70
REMARK Flexibility Score: inf
ROOT
ATOM      1  C   UNL A   1      40.094  22.427  26.173  1.00  0.00     0.002 C 
ENDROOT
BRANCH   1   2
ATOM      2  C   UNL A   1      38.656  21.935  26.032  1.00  0.00     0.021 C 
BRANCH   2   3
ATOM      3  C   UNL A   1      37.632  23.010  25.619  1.00  0.00     0.116 C 
BRANCH   3   4
ATOM      4  N   UNL A   1      36.511  23.113  26.539  1.00  0.00    -0.351 N 
ATOM      5  C   UNL A   1      35.220  22.632  26.581  1.00  0.00     0.272 C 
ATOM      6  O   UNL A   1      34.703  22.703  27.702  1.00  0.00    -0.267 OA
ATOM      7  H   UNL A   1      36.728  23.662  27.327  1.00  0.00     0.163 HD
BRANCH   5   8
ATOM      8  C   UNL A   1      34.457  22.109  25.415  1.00  0.00     0.153 A 
ATOM      9  N   UNL A   1      33.166  20.686  24.399  1.00  0.00    -0.269 N 
ATOM     10  N   UNL A   1      33.990  20.840  25.458  1.00  0.00    -0.167 NA
ATOM     11  C   UNL A   1      33.182  21.786  23.597  1.00  0.00     0.043 A 
ATOM     12  C   UNL A   1      33.976  22.722  24.229  1.00  0.00     0.012 A 
ATOM     13  C   UNL A   1      32.399  22.062  22.372  1.00  0.00     0.062 C 
ATOM     14  C   UNL A   1      34.104  24.106  23.720  1.00  0.00     0.105 C 
ATOM     15  C   UNL A   1      32.966  23.283  21.648  1.00  0.00     0.072 C 
ATOM     16  C   UNL A   1      33.170  24.496  22.561  1.00  0.00     0.189 C 
BRANCH   9  17
ATOM     17  C   UNL A   1      32.346  19.483  24.394  1.00  0.00     0.144 C 
BRANCH  17  18
ATOM     18  C   UNL A   1      32.770  18.251  23.589  1.00  0.00     0.020 C 
ATOM     19  C   UNL A   1      32.327  18.296  22.133  1.00  0.00     0.006 C 
ENDBRANCH  17  18
ENDBRANCH   9  17
BRANCH  16  20
ATOM     20  N   UNL A   1      31.974  25.220  22.995  1.00  0.00    -0.323 N 
ATOM     21  C   UNL A   1      31.160  25.974  22.055  1.00  0.00     0.324 C 
ATOM     22  C   UNL A   1      31.970  25.695  24.377  1.00  0.00     0.324 C 
ATOM     23  H   UNL A   1      31.374  24.396  22.987  1.00  0.00     0.348 HD
ATOM     24  C   UNL A   1      31.103  27.510  22.244  1.00  0.00     0.324 C 
ATOM     25  C   UNL A   1      31.190  27.005  24.627  1.00  0.00     0.324 C 
ATOM     26  N   UNL A   1      31.330  28.024  23.592  1.00  0.00    -0.321 N 
ATOM     27  H   UNL A   1      30.539  28.647  23.757  1.00  0.00     0.348 HD
BRANCH  26  28
ATOM     28  C   UNL A   1      32.409  29.008  23.758  1.00  0.00     0.319 C 
BRANCH  28  29
ATOM     29  C   UNL A   1      32.957  29.325  25.145  1.00  0.00     0.095 A 
ATOM     30  C   UNL A   1      32.354  30.301  25.941  1.00  0.00     0.030 A 
ATOM     31  N   UNL A   1      33.998  28.582  25.609  1.00  0.00    -0.255 NA
ATOM     32  C   UNL A   1      32.881  30.578  27.205  1.00  0.00     0.004 A 
ATOM     33  C   UNL A   1      34.488  28.872  26.839  1.00  0.00     0.111 A 
ATOM     34  C   UNL A   1      33.981  29.864  27.659  1.00  0.00     0.020 A 
ENDBRANCH  28  29
ENDBRANCH  26  28
ENDBRANCH  16  20
ENDBRANCH   5   8
ENDBRANCH   3   4
ENDBRANCH   2   3
ENDBRANCH   1   2
BRANCH   1  35
ATOM     35  C   UNL A   1      40.561  22.597  27.625  1.00  0.00     0.002 C 
BRANCH  35  36
ATOM     36  C   UNL A   1      41.824  21.828  28.049  1.00  0.00     0.021 C 
BRANCH  36  37
ATOM     37  C   UNL A   1      43.100  22.655  27.997  1.00  0.00     0.116 C 
BRANCH  37  38
ATOM     38  N   UNL A   1      43.627  22.793  26.636  1.00  0.00    -0.352 N 
ATOM     39  C   UNL A   1      43.499  23.837  25.747  1.00  0.00     0.251 C 
ATOM     40  H   UNL A   1      44.151  22.026  26.310  1.00  0.00     0.163 HD
ATOM     41  O   UNL A   1      43.727  23.670  24.547  1.00  0.00    -0.269 OA
BRANCH  39  42
ATOM     42  C   UNL A   1      43.086  25.159  26.239  1.00  0.00     0.039 A 
ATOM     43  C   UNL A   1      41.930  25.794  25.776  1.00  0.00     0.014 A 
ATOM     44  C   UNL A   1      43.889  25.770  27.198  1.00  0.00     0.014 A 
ATOM     45  C   UNL A   1      41.574  27.017  26.336  1.00  0.00     0.010 A 
ATOM     46  C   UNL A   1      43.425  26.844  27.900  1.00  0.00     0.010 A 
ATOM     47  C   UNL A   1      42.326  27.524  27.410  1.00  0.00    -0.014 A 
BRANCH  47  48
ATOM     48  C   UNL A   1      41.954  28.748  28.092  1.00  0.00     0.031 A 
ATOM     49  C   UNL A   1      42.933  29.845  27.940  1.00  0.00     0.074 A 
ATOM     50  C   UNL A   1      40.748  28.947  28.663  1.00  0.00     0.049 A 
ATOM     51  N   UNL A   1      43.777  30.242  28.827  1.00  0.00    -0.248 NA
ATOM     52  C   UNL A   1      43.110  30.463  26.618  1.00  0.00     0.031 C 
ATOM     53  C   UNL A   1      39.548  28.099  28.627  1.00  0.00     0.029 A 
ATOM     54  N   UNL A   1      40.314  30.041  29.337  1.00  0.00    -0.354 N 
ATOM     55  C   UNL A   1      44.463  31.303  28.255  1.00  0.00     0.074 A 
ATOM     56  C   UNL A   1      44.145  31.275  26.848  1.00  0.00     0.031 C 
ATOM     57  C   UNL A   1      38.476  28.814  29.045  1.00  0.00     0.029 A 
ATOM     58  C   UNL A   1      38.943  30.093  29.546  1.00  0.00     0.049 A 
ATOM     59  H   UNL A   1      40.925  30.745  29.654  1.00  0.00     0.167 HD
ATOM     60  C   UNL A   1      45.039  32.259  29.034  1.00  0.00     0.031 A 
ATOM     61  C   UNL A   1      38.255  31.133  30.078  1.00  0.00     0.031 A 
ATOM     62  C   UNL A   1      45.053  31.869  30.423  1.00  0.00     0.049 A 
ATOM     63  C   UNL A   1      39.226  31.951  30.844  1.00  0.00     0.074 A 
ATOM     64  C   UNL A   1      45.606  30.824  31.136  1.00  0.00     0.029 A 
ATOM     65  N   UNL A   1      44.050  32.379  31.216  1.00  0.00    -0.354 N 
ATOM     66  N   UNL A   1      39.811  31.530  31.929  1.00  0.00    -0.248 NA
ATOM     67  C   UNL A   1      39.899  33.040  30.153  1.00  0.00     0.031 C 
ATOM     68  C   UNL A   1      44.605  30.457  32.085  1.00  0.00     0.029 A 
ATOM     69  C   UNL A   1      43.535  31.346  31.957  1.00  0.00     0.049 A 
ATOM     70  H   UNL A   1      43.754  33.318  31.245  1.00  0.00     0.167 HD
ATOM     71  C   UNL A   1      41.124  31.961  31.808  1.00  0.00     0.074 A 
ATOM     72  C   UNL A   1      41.094  32.972  30.750  1.00  0.00     0.031 C 
ATOM     73  C   UNL A   1      42.152  31.257  32.369  1.00  0.00     0.031 A 
BRANCH  60  74
ATOM     74  C   UNL A   1      45.197  33.698  28.625  1.00  0.00    -0.014 A 
ATOM     75  C   UNL A   1      44.056  34.518  28.621  1.00  0.00     0.009 A 
ATOM     76  C   UNL A   1      46.343  34.196  27.978  1.00  0.00     0.009 A 
ATOM     77  C   UNL A   1      44.040  35.737  27.936  1.00  0.00     0.001 A 
ATOM     78  C   UNL A   1      46.341  35.431  27.326  1.00  0.00     0.001 A 
ATOM     79  C   UNL A   1      45.180  36.189  27.280  1.00  0.00     0.000 A 
ENDBRANCH  60  74
BRANCH  61  80
ATOM     80  C   UNL A   1      36.906  31.634  29.741  1.00  0.00    -0.014 A 
ATOM     81  C   UNL A   1      35.904  31.696  30.724  1.00  0.00     0.009 A 
ATOM     82  C   UNL A   1      36.694  32.340  28.544  1.00  0.00     0.009 A 
ATOM     83  C   UNL A   1      34.759  32.484  30.538  1.00  0.00     0.001 A 
ATOM     84  C   UNL A   1      35.551  33.127  28.358  1.00  0.00     0.001 A 
ATOM     85  C   UNL A   1      34.594  33.214  29.363  1.00  0.00     0.000 A 
ENDBRANCH  61  80
BRANCH  73  86
ATOM     86  C   UNL A   1      41.804  30.136  33.322  1.00  0.00    -0.014 A 
ATOM     87  C   UNL A   1      41.521  28.821  32.909  1.00  0.00     0.009 A 
ATOM     88  C   UNL A   1      41.903  30.392  34.697  1.00  0.00     0.009 A 
ATOM     89  C   UNL A   1      41.310  27.805  33.849  1.00  0.00     0.001 A 
ATOM     90  C   UNL A   1      41.714  29.373  35.633  1.00  0.00     0.001 A 
ATOM     91  C   UNL A   1      41.411  28.082  35.210  1.00  0.00     0.000 A 
ENDBRANCH  73  86
ENDBRANCH  47  48
ENDBRANCH  39  42
ENDBRANCH  37  38
ENDBRANCH  36  37
ENDBRANCH  35  36
ENDBRANCH   1  35
TORSDOF 18
ENDMDL
MODEL 3
REMARK VINA RESULT:     -10.6      2.208      3.088
REMARK SMILES CCCn1nc(C(=O)NCCCCCCNC(=O)c2ccc(-c3c4nc(c(-c5ccccc5)c5ccc([nH]5)c(-c5ccccc5)c5nc(c(-c6ccccc6)c6ccc3[nH]6)C=C5)C=C4)cc2)c2c1CC[C@@H]([NH+]1CC[NH+](Cc3ccccn3)CC1)C2
REMARK SMILES IDX 12 1 11 2 10 3 9 4 7 5 8 6 6 8 4 9 5 10 68 11 67 12 69 13
REMARK SMILES IDX 85 14 70 15 71 16 3 17 2 18 1 19 72 20 73 21 84 22 74 24
REMARK SMILES IDX 83 25 75 26 76 28 77 29 78 30 82 31 79 32 81 33 80 34 13 35
REMARK SMILES IDX 14 36 15 37 16 38 17 39 18 41 19 42 20 43 66 44 21 45 65 46
REMARK SMILES IDX 22 47 23 48 24 49 59 50 25 51 64 52 58 53 60 54 26 55 63 56
REMARK SMILES IDX 57 57 56 58 27 60 49 61 34 62 48 63 35 64 38 65 47 66 61 67
REMARK SMILES IDX 36 68 37 69 46 71 62 72 39 73 28 74 29 75 33 76 30 77 32 78
REMARK SMILES IDX 31 79 50 80 51 81 55 82 52 83 54 84 53 85 40 86 41 87 45 88
REMARK SMILES IDX 42 89 44 90 43 91
REMARK H PARENT 9 7 72 23 75 27 16 40 60 59 38 70
REMARK Flexibility Score: inf
ROOT
ATOM      1  C   UNL A   1      40.150  21.643  26.105  1.00  0.00     0.002 C 
ENDROOT
BRANCH   1   2
ATOM      2  C   UNL A   1      38.981  22.599  26.323  1.00  0.00     0.021 C 
BRANCH   2   3
ATOM      3  C   UNL A   1      37.673  22.213  25.604  1.00  0.00     0.116 C 
BRANCH   3   4
ATOM      4  N   UNL A   1      36.507  22.276  26.469  1.00  0.00    -0.351 N 
ATOM      5  C   UNL A   1      35.141  22.216  26.291  1.00  0.00     0.272 C 
ATOM      6  O   UNL A   1      34.517  21.997  27.336  1.00  0.00    -0.267 OA
ATOM      7  H   UNL A   1      36.753  22.390  27.415  1.00  0.00     0.163 HD
BRANCH   5   8
ATOM      8  C   UNL A   1      34.429  22.430  25.002  1.00  0.00     0.153 A 
ATOM      9  N   UNL A   1      33.110  21.852  23.375  1.00  0.00    -0.269 N 
ATOM     10  N   UNL A   1      33.862  21.367  24.387  1.00  0.00    -0.167 NA
ATOM     11  C   UNL A   1      33.274  23.197  23.238  1.00  0.00     0.043 A 
ATOM     12  C   UNL A   1      34.089  23.601  24.276  1.00  0.00     0.012 A 
ATOM     13  C   UNL A   1      32.610  24.130  22.301  1.00  0.00     0.062 C 
ATOM     14  C   UNL A   1      34.365  25.031  24.539  1.00  0.00     0.105 C 
ATOM     15  C   UNL A   1      33.325  25.481  22.306  1.00  0.00     0.072 C 
ATOM     16  C   UNL A   1      33.555  26.045  23.712  1.00  0.00     0.189 C 
BRANCH   9  17
ATOM     17  C   UNL A   1      32.200  20.909  22.742  1.00  0.00     0.144 C 
BRANCH  17  18
ATOM     18  C   UNL A   1      32.254  19.418  23.089  1.00  0.00     0.020 C 
ATOM     19  C   UNL A   1      32.150  18.507  21.873  1.00  0.00     0.006 C 
ENDBRANCH  17  18
ENDBRANCH   9  17
BRANCH  16  20
ATOM     20  N   UNL A   1      32.391  26.579  24.421  1.00  0.00    -0.323 N 
ATOM     21  C   UNL A   1      31.098  25.918  24.364  1.00  0.00     0.324 C 
ATOM     22  C   UNL A   1      32.367  28.025  24.630  1.00  0.00     0.324 C 
ATOM     23  H   UNL A   1      32.654  26.177  25.321  1.00  0.00     0.348 HD
ATOM     24  C   UNL A   1      29.944  26.684  23.672  1.00  0.00     0.324 C 
ATOM     25  C   UNL A   1      30.964  28.671  24.646  1.00  0.00     0.324 C 
ATOM     26  N   UNL A   1      30.020  28.142  23.667  1.00  0.00    -0.321 N 
ATOM     27  H   UNL A   1      29.111  28.440  24.022  1.00  0.00     0.348 HD
BRANCH  26  28
ATOM     28  C   UNL A   1      29.963  28.809  22.358  1.00  0.00     0.319 C 
BRANCH  28  29
ATOM     29  C   UNL A   1      29.249  30.147  22.206  1.00  0.00     0.095 A 
ATOM     30  C   UNL A   1      29.104  31.003  23.299  1.00  0.00     0.030 A 
ATOM     31  N   UNL A   1      28.825  30.511  20.965  1.00  0.00    -0.255 NA
ATOM     32  C   UNL A   1      28.436  32.220  23.135  1.00  0.00     0.004 A 
ATOM     33  C   UNL A   1      28.183  31.697  20.835  1.00  0.00     0.111 A 
ATOM     34  C   UNL A   1      27.950  32.569  21.883  1.00  0.00     0.020 A 
ENDBRANCH  28  29
ENDBRANCH  26  28
ENDBRANCH  16  20
ENDBRANCH   5   8
ENDBRANCH   3   4
ENDBRANCH   2   3
ENDBRANCH   1   2
BRANCH   1  35
ATOM     35  C   UNL A   1      40.823  21.167  27.400  1.00  0.00     0.002 C 
BRANCH  35  36
ATOM     36  C   UNL A   1      41.639  22.207  28.188  1.00  0.00     0.021 C 
BRANCH  36  37
ATOM     37  C   UNL A   1      43.138  22.134  27.943  1.00  0.00     0.116 C 
BRANCH  37  38
ATOM     38  N   UNL A   1      43.505  22.504  26.573  1.00  0.00    -0.352 N 
ATOM     39  C   UNL A   1      43.321  23.694  25.906  1.00  0.00     0.251 C 
ATOM     40  H   UNL A   1      43.950  21.796  26.053  1.00  0.00     0.163 HD
ATOM     41  O   UNL A   1      43.397  23.742  24.677  1.00  0.00    -0.269 OA
BRANCH  39  42
ATOM     42  C   UNL A   1      43.031  24.915  26.672  1.00  0.00     0.039 A 
ATOM     43  C   UNL A   1      43.866  25.359  27.700  1.00  0.00     0.014 A 
ATOM     44  C   UNL A   1      41.885  25.630  26.336  1.00  0.00     0.014 A 
ATOM     45  C   UNL A   1      43.556  26.557  28.337  1.00  0.00     0.010 A 
ATOM     46  C   UNL A   1      41.709  26.902  26.798  1.00  0.00     0.010 A 
ATOM     47  C   UNL A   1      42.479  27.326  27.865  1.00  0.00    -0.014 A 
BRANCH  47  48
ATOM     48  C   UNL A   1      42.161  28.623  28.428  1.00  0.00     0.031 A 
ATOM     49  C   UNL A   1      43.196  29.652  28.198  1.00  0.00     0.074 A 
ATOM     50  C   UNL A   1      40.958  28.933  28.957  1.00  0.00     0.049 A 
ATOM     51  N   UNL A   1      44.048  30.084  29.063  1.00  0.00    -0.248 NA
ATOM     52  C   UNL A   1      43.424  30.139  26.830  1.00  0.00     0.031 C 
ATOM     53  C   UNL A   1      39.717  28.146  28.973  1.00  0.00     0.029 A 
ATOM     54  N   UNL A   1      40.571  30.103  29.523  1.00  0.00    -0.354 N 
ATOM     55  C   UNL A   1      44.795  31.054  28.411  1.00  0.00     0.074 A 
ATOM     56  C   UNL A   1      44.497  30.916  27.007  1.00  0.00     0.031 C 
ATOM     57  C   UNL A   1      38.677  28.948  29.306  1.00  0.00     0.029 A 
ATOM     58  C   UNL A   1      39.202  30.242  29.701  1.00  0.00     0.049 A 
ATOM     59  H   UNL A   1      41.213  30.801  29.787  1.00  0.00     0.167 HD
ATOM     60  C   UNL A   1      45.409  32.046  29.113  1.00  0.00     0.031 A 
ATOM     61  C   UNL A   1      38.561  31.358  30.124  1.00  0.00     0.031 A 
ATOM     62  C   UNL A   1      45.382  31.782  30.532  1.00  0.00     0.049 A 
ATOM     63  C   UNL A   1      39.561  32.192  30.834  1.00  0.00     0.074 A 
ATOM     64  C   UNL A   1      45.870  30.778  31.344  1.00  0.00     0.029 A 
ATOM     65  N   UNL A   1      44.395  32.411  31.257  1.00  0.00    -0.354 N 
ATOM     66  N   UNL A   1      40.108  31.842  31.962  1.00  0.00    -0.248 NA
ATOM     67  C   UNL A   1      40.300  33.180  30.061  1.00  0.00     0.031 C 
ATOM     68  C   UNL A   1      44.838  30.549  32.303  1.00  0.00     0.029 A 
ATOM     69  C   UNL A   1      43.818  31.475  32.076  1.00  0.00     0.049 A 
ATOM     70  H   UNL A   1      44.148  33.362  31.197  1.00  0.00     0.167 HD
ATOM     71  C   UNL A   1      41.444  32.194  31.828  1.00  0.00     0.074 A 
ATOM     72  C   UNL A   1      41.481  33.106  30.684  1.00  0.00     0.031 C 
ATOM     73  C   UNL A   1      42.425  31.492  32.469  1.00  0.00     0.031 A 
BRANCH  60  74
ATOM     74  C   UNL A   1      45.646  33.432  28.581  1.00  0.00    -0.014 A 
ATOM     75  C   UNL A   1      44.529  34.234  28.288  1.00  0.00     0.009 A 
ATOM     76  C   UNL A   1      46.890  33.869  28.091  1.00  0.00     0.009 A 
ATOM     77  C   UNL A   1      44.641  35.370  27.480  1.00  0.00     0.001 A 
ATOM     78  C   UNL A   1      47.011  35.026  27.317  1.00  0.00     0.001 A 
ATOM     79  C   UNL A   1      45.881  35.759  26.986  1.00  0.00     0.000 A 
ENDBRANCH  60  74
BRANCH  61  80
ATOM     80  C   UNL A   1      37.245  31.894  29.719  1.00  0.00    -0.014 A 
ATOM     81  C   UNL A   1      36.806  31.774  28.390  1.00  0.00     0.009 A 
ATOM     82  C   UNL A   1      36.292  32.238  30.695  1.00  0.00     0.009 A 
ATOM     83  C   UNL A   1      35.453  31.935  28.059  1.00  0.00     0.001 A 
ATOM     84  C   UNL A   1      34.941  32.399  30.365  1.00  0.00     0.001 A 
ATOM     85  C   UNL A   1      34.520  32.228  29.050  1.00  0.00     0.000 A 
ENDBRANCH  61  80
BRANCH  73  86
ATOM     86  C   UNL A   1      42.007  30.481  33.511  1.00  0.00    -0.014 A 
ATOM     87  C   UNL A   1      41.680  29.145  33.213  1.00  0.00     0.009 A 
ATOM     88  C   UNL A   1      42.081  30.860  34.859  1.00  0.00     0.009 A 
ATOM     89  C   UNL A   1      41.403  28.230  34.236  1.00  0.00     0.001 A 
ATOM     90  C   UNL A   1      41.826  29.942  35.879  1.00  0.00     0.001 A 
ATOM     91  C   UNL A   1      41.480  28.629  35.568  1.00  0.00     0.000 A 
ENDBRANCH  73  86
ENDBRANCH  47  48
ENDBRANCH  39  42
ENDBRANCH  37  38
ENDBRANCH  36  37
ENDBRANCH  35  36
ENDBRANCH   1  35
TORSDOF 18
ENDMDL
