MODEL 1
REMARK VINA RESULT:     -10.7      0.000      0.000
REMARK SMILES O=C(Cc1ccccc1Nc1c(F)cccc1C(F)(F)F)NCCCCCCNC(=O)c1ccc(-c2c3nc(c(-c4ccccc4)c4ccc([nH]4)c(-c4ccccc4)c4nc(c(-c5ccccc5)c5ccc2[nH]5)C=C4)C=C3)cc1
REMARK SMILES IDX 24 1 23 2 22 3 1 4 2 5 3 7 4 8 5 9 9 10 6 11 8 12 7 13 10 14
REMARK SMILES IDX 11 16 12 17 17 18 13 19 14 20 16 21 15 22 18 23 19 24 20 25
REMARK SMILES IDX 21 26 25 27 26 28 27 29 28 30 29 31 30 32 31 34 32 35 33 36
REMARK SMILES IDX 79 37 34 38 78 39 35 40 36 41 37 42 72 43 38 44 77 45 71 46
REMARK SMILES IDX 73 47 39 48 76 49 70 50 69 51 40 53 62 54 47 55 61 56 48 57
REMARK SMILES IDX 51 58 60 59 74 60 49 61 50 62 59 64 75 65 52 66 41 67 42 68
REMARK SMILES IDX 46 69 43 70 45 71 44 72 63 73 64 74 68 75 65 76 67 77 66 78
REMARK SMILES IDX 53 79 54 80 58 81 55 82 57 83 56 84
REMARK H PARENT 22 6 10 15 29 33 73 52 51 63
REMARK Flexibility Score: inf
ROOT
ATOM      1  C   UNL A   1      33.653  27.448  23.847  1.00  0.00     0.021 C 
ENDROOT
BRANCH   1   2
ATOM      2  C   UNL A   1      33.186  26.602  22.666  1.00  0.00     0.116 C 
BRANCH   2   3
ATOM      3  N   UNL A   1      32.584  25.360  23.100  1.00  0.00    -0.356 N 
ATOM      4  O   UNL A   1      33.767  23.989  21.687  1.00  0.00    -0.275 OA
ATOM      5  C   UNL A   1      32.950  24.134  22.590  1.00  0.00     0.224 C 
ATOM      6  H   UNL A   1      31.882  25.394  23.790  1.00  0.00     0.163 HD
BRANCH   5   7
ATOM      7  C   UNL A   1      32.248  22.962  23.252  1.00  0.00     0.137 C 
BRANCH   7   8
ATOM      8  C   UNL A   1      32.287  22.923  24.772  1.00  0.00    -0.015 A 
ATOM      9  C   UNL A   1      31.120  23.110  25.543  1.00  0.00     0.006 A 
ATOM     10  C   UNL A   1      33.510  22.668  25.440  1.00  0.00     0.042 A 
ATOM     11  C   UNL A   1      31.150  23.034  26.934  1.00  0.00     0.000 A 
ATOM     12  C   UNL A   1      33.518  22.633  26.844  1.00  0.00     0.026 A 
ATOM     13  C   UNL A   1      32.352  22.804  27.586  1.00  0.00     0.002 A 
BRANCH  10  14
ATOM     14  N   UNL A   1      34.685  22.397  24.701  1.00  0.00    -0.352 N 
ATOM     15  H   UNL A   1      34.809  22.961  23.904  1.00  0.00     0.167 HD
BRANCH  14  16
ATOM     16  C   UNL A   1      35.711  21.451  24.920  1.00  0.00     0.087 A 
ATOM     17  C   UNL A   1      35.379  20.093  24.733  1.00  0.00     0.147 A 
ATOM     18  C   UNL A   1      37.045  21.768  25.231  1.00  0.00     0.082 A 
ATOM     19  F   UNL A   1      34.103  19.763  24.473  1.00  0.00    -0.205 F 
ATOM     20  C   UNL A   1      36.326  19.076  24.791  1.00  0.00     0.041 A 
ATOM     21  C   UNL A   1      38.006  20.728  25.260  1.00  0.00     0.015 A 
ATOM     22  C   UNL A   1      37.652  19.397  25.037  1.00  0.00     0.004 A 
BRANCH  18  23
ATOM     23  C   UNL A   1      37.524  23.159  25.580  1.00  0.00     0.418 C 
ATOM     24  F   UNL A   1      36.770  23.713  26.582  1.00  0.00    -0.166 F 
ATOM     25  F   UNL A   1      38.799  23.170  26.062  1.00  0.00    -0.166 F 
ATOM     26  F   UNL A   1      37.475  24.071  24.573  1.00  0.00    -0.166 F 
ENDBRANCH  18  23
ENDBRANCH  14  16
ENDBRANCH  10  14
ENDBRANCH   7   8
ENDBRANCH   5   7
ENDBRANCH   2   3
ENDBRANCH   1   2
BRANCH   1  27
ATOM     27  C   UNL A   1      33.419  26.814  25.224  1.00  0.00     0.002 C 
BRANCH  27  28
ATOM     28  C   UNL A   1      32.105  27.194  25.912  1.00  0.00     0.002 C 
BRANCH  28  29
ATOM     29  C   UNL A   1      32.224  28.260  27.001  1.00  0.00     0.021 C 
BRANCH  29  30
ATOM     30  C   UNL A   1      33.625  28.829  27.196  1.00  0.00     0.116 C 
BRANCH  30  31
ATOM     31  N   UNL A   1      33.616  30.193  27.702  1.00  0.00    -0.352 N 
ATOM     32  C   UNL A   1      34.602  30.866  28.381  1.00  0.00     0.251 C 
ATOM     33  H   UNL A   1      32.791  30.703  27.534  1.00  0.00     0.163 HD
ATOM     34  O   UNL A   1      34.385  31.972  28.865  1.00  0.00    -0.269 OA
BRANCH  32  35
ATOM     35  C   UNL A   1      35.927  30.233  28.556  1.00  0.00     0.039 A 
ATOM     36  C   UNL A   1      36.834  30.252  27.493  1.00  0.00     0.014 A 
ATOM     37  C   UNL A   1      36.278  29.640  29.771  1.00  0.00     0.014 A 
ATOM     38  C   UNL A   1      38.121  29.737  27.671  1.00  0.00     0.010 A 
ATOM     39  C   UNL A   1      37.581  29.191  29.969  1.00  0.00     0.010 A 
ATOM     40  C   UNL A   1      38.515  29.234  28.921  1.00  0.00    -0.014 A 
BRANCH  40  41
ATOM     41  C   UNL A   1      39.896  28.742  29.164  1.00  0.00     0.031 A 
ATOM     42  C   UNL A   1      40.929  29.667  29.749  1.00  0.00     0.074 A 
ATOM     43  C   UNL A   1      40.244  27.496  28.783  1.00  0.00     0.049 A 
ATOM     44  N   UNL A   1      42.212  29.469  29.923  1.00  0.00    -0.248 NA
ATOM     45  C   UNL A   1      40.466  31.001  30.167  1.00  0.00     0.031 C 
ATOM     46  C   UNL A   1      39.347  26.509  28.179  1.00  0.00     0.029 A 
ATOM     47  N   UNL A   1      41.458  26.854  28.833  1.00  0.00    -0.354 N 
ATOM     48  C   UNL A   1      42.710  30.658  30.441  1.00  0.00     0.074 A 
ATOM     49  C   UNL A   1      41.602  31.584  30.521  1.00  0.00     0.031 C 
ATOM     50  C   UNL A   1      40.037  25.383  27.929  1.00  0.00     0.029 A 
ATOM     51  C   UNL A   1      41.431  25.583  28.309  1.00  0.00     0.049 A 
ATOM     52  H   UNL A   1      42.269  27.265  29.208  1.00  0.00     0.167 HD
ATOM     53  C   UNL A   1      43.974  30.949  30.827  1.00  0.00     0.031 A 
ATOM     54  C   UNL A   1      42.422  24.687  28.139  1.00  0.00     0.031 A 
ATOM     55  C   UNL A   1      45.070  30.020  30.778  1.00  0.00     0.049 A 
ATOM     56  C   UNL A   1      43.820  25.043  28.569  1.00  0.00     0.074 A 
ATOM     57  C   UNL A   1      46.371  30.202  31.213  1.00  0.00     0.029 A 
ATOM     58  N   UNL A   1      44.993  28.736  30.265  1.00  0.00    -0.354 N 
ATOM     59  N   UNL A   1      44.258  26.148  29.122  1.00  0.00    -0.248 NA
ATOM     60  C   UNL A   1      44.859  24.024  28.358  1.00  0.00     0.031 C 
ATOM     61  C   UNL A   1      47.096  29.044  30.917  1.00  0.00     0.029 A 
ATOM     62  C   UNL A   1      46.231  28.122  30.351  1.00  0.00     0.049 A 
ATOM     63  H   UNL A   1      44.181  28.322  29.894  1.00  0.00     0.167 HD
ATOM     64  C   UNL A   1      45.611  25.939  29.361  1.00  0.00     0.074 A 
ATOM     65  C   UNL A   1      45.919  24.602  28.903  1.00  0.00     0.031 C 
ATOM     66  C   UNL A   1      46.517  26.782  29.913  1.00  0.00     0.031 A 
BRANCH  53  67
ATOM     67  C   UNL A   1      44.251  32.334  31.338  1.00  0.00    -0.014 A 
ATOM     68  C   UNL A   1      44.544  33.389  30.459  1.00  0.00     0.009 A 
ATOM     69  C   UNL A   1      44.143  32.603  32.712  1.00  0.00     0.009 A 
ATOM     70  C   UNL A   1      44.747  34.681  30.950  1.00  0.00     0.001 A 
ATOM     71  C   UNL A   1      44.320  33.900  33.196  1.00  0.00     0.001 A 
ATOM     72  C   UNL A   1      44.627  34.936  32.316  1.00  0.00     0.000 A 
ENDBRANCH  53  67
BRANCH  54  73
ATOM     73  C   UNL A   1      42.145  23.358  27.530  1.00  0.00    -0.014 A 
ATOM     74  C   UNL A   1      41.628  22.311  28.308  1.00  0.00     0.009 A 
ATOM     75  C   UNL A   1      42.438  23.115  26.179  1.00  0.00     0.009 A 
ATOM     76  C   UNL A   1      41.451  21.039  27.760  1.00  0.00     0.001 A 
ATOM     77  C   UNL A   1      42.230  21.851  25.623  1.00  0.00     0.001 A 
ATOM     78  C   UNL A   1      41.751  20.810  26.418  1.00  0.00     0.000 A 
ENDBRANCH  54  73
BRANCH  66  79
ATOM     79  C   UNL A   1      47.913  26.266  30.112  1.00  0.00    -0.014 A 
ATOM     80  C   UNL A   1      48.341  25.769  31.353  1.00  0.00     0.009 A 
ATOM     81  C   UNL A   1      48.795  26.222  29.019  1.00  0.00     0.009 A 
ATOM     82  C   UNL A   1      49.634  25.264  31.500  1.00  0.00     0.001 A 
ATOM     83  C   UNL A   1      50.076  25.690  29.164  1.00  0.00     0.001 A 
ATOM     84  C   UNL A   1      50.497  25.219  30.406  1.00  0.00     0.000 A 
ENDBRANCH  66  79
ENDBRANCH  40  41
ENDBRANCH  32  35
ENDBRANCH  30  31
ENDBRANCH  29  30
ENDBRANCH  28  29
ENDBRANCH  27  28
ENDBRANCH   1  27
TORSDOF 17
ENDMDL
MODEL 2
REMARK VINA RESULT:     -10.6      2.856      8.212
REMARK SMILES O=C(Cc1ccccc1Nc1c(F)cccc1C(F)(F)F)NCCCCCCNC(=O)c1ccc(-c2c3nc(c(-c4ccccc4)c4ccc([nH]4)c(-c4ccccc4)c4nc(c(-c5ccccc5)c5ccc2[nH]5)C=C4)C=C3)cc1
REMARK SMILES IDX 24 1 23 2 22 3 1 4 2 5 3 7 4 8 5 9 9 10 6 11 8 12 7 13 10 14
REMARK SMILES IDX 11 16 12 17 17 18 13 19 14 20 16 21 15 22 18 23 19 24 20 25
REMARK SMILES IDX 21 26 25 27 26 28 27 29 28 30 29 31 30 32 31 34 32 35 33 36
REMARK SMILES IDX 79 37 34 38 78 39 35 40 36 41 37 42 72 43 38 44 77 45 71 46
REMARK SMILES IDX 73 47 39 48 76 49 70 50 69 51 40 53 62 54 47 55 61 56 48 57
REMARK SMILES IDX 51 58 60 59 74 60 49 61 50 62 59 64 75 65 52 66 41 67 42 68
REMARK SMILES IDX 46 69 43 70 45 71 44 72 63 73 64 74 68 75 65 76 67 77 66 78
REMARK SMILES IDX 53 79 54 80 58 81 55 82 57 83 56 84
REMARK H PARENT 22 6 10 15 29 33 73 52 51 63
REMARK Flexibility Score: inf
ROOT
ATOM      1  C   UNL A   1      32.312  22.695  26.375  1.00  0.00     0.021 C 
ENDROOT
BRANCH   1   2
ATOM      2  C   UNL A   1      30.824  23.027  26.309  1.00  0.00     0.116 C 
BRANCH   2   3
ATOM      3  N   UNL A   1      30.523  23.922  25.212  1.00  0.00    -0.356 N 
ATOM      4  O   UNL A   1      30.194  25.801  26.494  1.00  0.00    -0.275 OA
ATOM      5  C   UNL A   1      30.258  25.262  25.393  1.00  0.00     0.224 C 
ATOM      6  H   UNL A   1      30.506  23.557  24.298  1.00  0.00     0.163 HD
BRANCH   5   7
ATOM      7  C   UNL A   1      30.053  26.025  24.097  1.00  0.00     0.137 C 
BRANCH   7   8
ATOM      8  C   UNL A   1      31.307  26.572  23.431  1.00  0.00    -0.015 A 
ATOM      9  C   UNL A   1      31.826  25.994  22.254  1.00  0.00     0.006 A 
ATOM     10  C   UNL A   1      31.960  27.703  23.978  1.00  0.00     0.042 A 
ATOM     11  C   UNL A   1      32.951  26.520  21.622  1.00  0.00     0.000 A 
ATOM     12  C   UNL A   1      33.113  28.191  23.342  1.00  0.00     0.026 A 
ATOM     13  C   UNL A   1      33.600  27.615  22.170  1.00  0.00     0.002 A 
BRANCH  10  14
ATOM     14  N   UNL A   1      31.425  28.359  25.112  1.00  0.00    -0.352 N 
ATOM     15  H   UNL A   1      30.724  27.856  25.585  1.00  0.00     0.167 HD
BRANCH  14  16
ATOM     16  C   UNL A   1      31.734  29.616  25.677  1.00  0.00     0.087 A 
ATOM     17  C   UNL A   1      30.914  30.703  25.306  1.00  0.00     0.147 A 
ATOM     18  C   UNL A   1      32.740  29.844  26.632  1.00  0.00     0.082 A 
ATOM     19  F   UNL A   1      29.971  30.517  24.368  1.00  0.00    -0.205 F 
ATOM     20  C   UNL A   1      31.030  31.961  25.887  1.00  0.00     0.041 A 
ATOM     21  C   UNL A   1      32.832  31.121  27.237  1.00  0.00     0.015 A 
ATOM     22  C   UNL A   1      31.983  32.167  26.874  1.00  0.00     0.004 A 
BRANCH  18  23
ATOM     23  C   UNL A   1      33.772  28.815  27.035  1.00  0.00     0.418 C 
ATOM     24  F   UNL A   1      34.758  28.697  26.091  1.00  0.00    -0.166 F 
ATOM     25  F   UNL A   1      34.429  29.151  28.180  1.00  0.00    -0.166 F 
ATOM     26  F   UNL A   1      33.307  27.549  27.204  1.00  0.00    -0.166 F 
ENDBRANCH  18  23
ENDBRANCH  14  16
ENDBRANCH  10  14
ENDBRANCH   7   8
ENDBRANCH   5   7
ENDBRANCH   2   3
ENDBRANCH   1   2
BRANCH   1  27
ATOM     27  C   UNL A   1      33.157  23.299  25.246  1.00  0.00     0.002 C 
BRANCH  27  28
ATOM     28  C   UNL A   1      34.510  23.876  25.670  1.00  0.00     0.002 C 
BRANCH  28  29
ATOM     29  C   UNL A   1      35.657  22.867  25.739  1.00  0.00     0.021 C 
BRANCH  29  30
ATOM     30  C   UNL A   1      36.995  23.377  25.215  1.00  0.00     0.116 C 
BRANCH  30  31
ATOM     31  N   UNL A   1      38.099  22.479  25.518  1.00  0.00    -0.352 N 
ATOM     32  C   UNL A   1      39.294  22.762  26.134  1.00  0.00     0.251 C 
ATOM     33  H   UNL A   1      37.972  21.542  25.246  1.00  0.00     0.163 HD
ATOM     34  O   UNL A   1      40.183  21.918  26.191  1.00  0.00    -0.269 OA
BRANCH  32  35
ATOM     35  C   UNL A   1      39.517  24.107  26.706  1.00  0.00     0.039 A 
ATOM     36  C   UNL A   1      38.978  24.411  27.958  1.00  0.00     0.014 A 
ATOM     37  C   UNL A   1      40.273  25.057  26.014  1.00  0.00     0.014 A 
ATOM     38  C   UNL A   1      39.255  25.646  28.550  1.00  0.00     0.010 A 
ATOM     39  C   UNL A   1      40.605  26.259  26.634  1.00  0.00     0.010 A 
ATOM     40  C   UNL A   1      40.100  26.566  27.908  1.00  0.00    -0.014 A 
BRANCH  40  41
ATOM     41  C   UNL A   1      40.469  27.859  28.539  1.00  0.00     0.031 A 
ATOM     42  C   UNL A   1      41.838  28.035  29.140  1.00  0.00     0.074 A 
ATOM     43  C   UNL A   1      39.552  28.842  28.648  1.00  0.00     0.049 A 
ATOM     44  N   UNL A   1      42.310  29.036  29.839  1.00  0.00    -0.248 NA
ATOM     45  C   UNL A   1      42.792  26.930  28.954  1.00  0.00     0.031 C 
ATOM     46  C   UNL A   1      38.182  28.789  28.134  1.00  0.00     0.029 A 
ATOM     47  N   UNL A   1      39.634  30.075  29.247  1.00  0.00    -0.354 N 
ATOM     48  C   UNL A   1      43.600  28.668  30.199  1.00  0.00     0.074 A 
ATOM     49  C   UNL A   1      43.826  27.340  29.673  1.00  0.00     0.031 C 
ATOM     50  C   UNL A   1      37.557  29.942  28.427  1.00  0.00     0.029 A 
ATOM     51  C   UNL A   1      38.464  30.795  29.187  1.00  0.00     0.049 A 
ATOM     52  H   UNL A   1      40.451  30.412  29.678  1.00  0.00     0.167 HD
ATOM     53  C   UNL A   1      44.519  29.378  30.896  1.00  0.00     0.031 A 
ATOM     54  C   UNL A   1      38.152  32.001  29.704  1.00  0.00     0.031 A 
ATOM     55  C   UNL A   1      44.307  30.710  31.393  1.00  0.00     0.049 A 
ATOM     56  C   UNL A   1      39.191  32.761  30.482  1.00  0.00     0.074 A 
ATOM     57  C   UNL A   1      45.204  31.535  32.048  1.00  0.00     0.029 A 
ATOM     58  N   UNL A   1      43.118  31.411  31.288  1.00  0.00    -0.354 N 
ATOM     59  N   UNL A   1      40.430  32.426  30.753  1.00  0.00    -0.248 NA
ATOM     60  C   UNL A   1      38.792  34.070  31.019  1.00  0.00     0.031 C 
ATOM     61  C   UNL A   1      44.542  32.718  32.385  1.00  0.00     0.029 A 
ATOM     62  C   UNL A   1      43.251  32.652  31.888  1.00  0.00     0.049 A 
ATOM     63  H   UNL A   1      42.301  31.078  30.852  1.00  0.00     0.167 HD
ATOM     64  C   UNL A   1      40.966  33.499  31.453  1.00  0.00     0.074 A 
ATOM     65  C   UNL A   1      39.924  34.497  31.559  1.00  0.00     0.031 C 
ATOM     66  C   UNL A   1      42.212  33.644  31.964  1.00  0.00     0.031 A 
BRANCH  53  67
ATOM     67  C   UNL A   1      45.846  28.729  31.170  1.00  0.00    -0.014 A 
ATOM     68  C   UNL A   1      46.053  27.952  32.321  1.00  0.00     0.009 A 
ATOM     69  C   UNL A   1      46.880  28.835  30.226  1.00  0.00     0.009 A 
ATOM     70  C   UNL A   1      47.278  27.315  32.531  1.00  0.00     0.001 A 
ATOM     71  C   UNL A   1      48.093  28.175  30.426  1.00  0.00     0.001 A 
ATOM     72  C   UNL A   1      48.293  27.420  31.580  1.00  0.00     0.000 A 
ENDBRANCH  53  67
BRANCH  54  73
ATOM     73  C   UNL A   1      36.794  32.577  29.512  1.00  0.00    -0.014 A 
ATOM     74  C   UNL A   1      36.496  33.336  28.369  1.00  0.00     0.009 A 
ATOM     75  C   UNL A   1      35.801  32.412  30.491  1.00  0.00     0.009 A 
ATOM     76  C   UNL A   1      35.251  33.952  28.230  1.00  0.00     0.001 A 
ATOM     77  C   UNL A   1      34.545  33.002  30.335  1.00  0.00     0.001 A 
ATOM     78  C   UNL A   1      34.276  33.784  29.213  1.00  0.00     0.000 A 
ENDBRANCH  54  73
BRANCH  66  79
ATOM     79  C   UNL A   1      42.543  34.950  32.627  1.00  0.00    -0.014 A 
ATOM     80  C   UNL A   1      42.219  35.194  33.970  1.00  0.00     0.009 A 
ATOM     81  C   UNL A   1      43.246  35.931  31.906  1.00  0.00     0.009 A 
ATOM     82  C   UNL A   1      42.570  36.405  34.570  1.00  0.00     0.001 A 
ATOM     83  C   UNL A   1      43.620  37.127  32.518  1.00  0.00     0.001 A 
ATOM     84  C   UNL A   1      43.274  37.367  33.847  1.00  0.00     0.000 A 
ENDBRANCH  66  79
ENDBRANCH  40  41
ENDBRANCH  32  35
ENDBRANCH  30  31
ENDBRANCH  29  30
ENDBRANCH  28  29
ENDBRANCH  27  28
ENDBRANCH   1  27
TORSDOF 17
ENDMDL
MODEL 3
REMARK VINA RESULT:     -10.5      3.078      8.118
REMARK SMILES O=C(Cc1ccccc1Nc1c(F)cccc1C(F)(F)F)NCCCCCCNC(=O)c1ccc(-c2c3nc(c(-c4ccccc4)c4ccc([nH]4)c(-c4ccccc4)c4nc(c(-c5ccccc5)c5ccc2[nH]5)C=C4)C=C3)cc1
REMARK SMILES IDX 24 1 23 2 22 3 1 4 2 5 3 7 4 8 5 9 9 10 6 11 8 12 7 13 10 14
REMARK SMILES IDX 11 16 12 17 17 18 13 19 14 20 16 21 15 22 18 23 19 24 20 25
REMARK SMILES IDX 21 26 25 27 26 28 27 29 28 30 29 31 30 32 31 34 32 35 33 36
REMARK SMILES IDX 79 37 34 38 78 39 35 40 36 41 37 42 72 43 38 44 77 45 71 46
REMARK SMILES IDX 73 47 39 48 76 49 70 50 69 51 40 53 62 54 47 55 61 56 48 57
REMARK SMILES IDX 51 58 60 59 74 60 49 61 50 62 59 64 75 65 52 66 41 67 42 68
REMARK SMILES IDX 46 69 43 70 45 71 44 72 63 73 64 74 68 75 65 76 67 77 66 78
REMARK SMILES IDX 53 79 54 80 58 81 55 82 57 83 56 84
REMARK H PARENT 22 6 10 15 29 33 73 52 51 63
REMARK Flexibility Score: inf
ROOT
ATOM      1  C   UNL A   1      34.400  22.358  27.664  1.00  0.00     0.021 C 
ENDROOT
BRANCH   1   2
ATOM      2  C   UNL A   1      32.902  22.153  27.872  1.00  0.00     0.116 C 
BRANCH   2   3
ATOM      3  N   UNL A   1      32.168  22.261  26.629  1.00  0.00    -0.356 N 
ATOM      4  O   UNL A   1      30.414  23.486  27.468  1.00  0.00    -0.275 OA
ATOM      5  C   UNL A   1      30.983  22.955  26.519  1.00  0.00     0.224 C 
ATOM      6  H   UNL A   1      32.533  21.821  25.828  1.00  0.00     0.163 HD
BRANCH   5   7
ATOM      7  C   UNL A   1      30.434  23.007  25.105  1.00  0.00     0.137 C 
BRANCH   7   8
ATOM      8  C   UNL A   1      31.393  23.488  24.026  1.00  0.00    -0.015 A 
ATOM      9  C   UNL A   1      32.147  22.580  23.254  1.00  0.00     0.006 A 
ATOM     10  C   UNL A   1      31.520  24.874  23.763  1.00  0.00     0.042 A 
ATOM     11  C   UNL A   1      32.995  23.020  22.240  1.00  0.00     0.000 A 
ATOM     12  C   UNL A   1      32.409  25.292  22.759  1.00  0.00     0.026 A 
ATOM     13  C   UNL A   1      33.133  24.377  21.997  1.00  0.00     0.002 A 
BRANCH  10  14
ATOM     14  N   UNL A   1      30.722  25.811  24.461  1.00  0.00    -0.352 N 
ATOM     15  H   UNL A   1      29.804  25.509  24.650  1.00  0.00     0.167 HD
BRANCH  14  16
ATOM     16  C   UNL A   1      31.027  27.106  24.933  1.00  0.00     0.087 A 
ATOM     17  C   UNL A   1      31.788  27.193  26.118  1.00  0.00     0.147 A 
ATOM     18  C   UNL A   1      30.698  28.303  24.271  1.00  0.00     0.082 A 
ATOM     19  F   UNL A   1      32.083  26.067  26.787  1.00  0.00    -0.205 F 
ATOM     20  C   UNL A   1      32.264  28.402  26.616  1.00  0.00     0.041 A 
ATOM     21  C   UNL A   1      31.209  29.524  24.772  1.00  0.00     0.015 A 
ATOM     22  C   UNL A   1      31.989  29.574  25.927  1.00  0.00     0.004 A 
BRANCH  18  23
ATOM     23  C   UNL A   1      29.787  28.378  23.066  1.00  0.00     0.418 C 
ATOM     24  F   UNL A   1      29.581  29.675  22.673  1.00  0.00    -0.166 F 
ATOM     25  F   UNL A   1      30.315  27.765  21.970  1.00  0.00    -0.166 F 
ATOM     26  F   UNL A   1      28.537  27.872  23.238  1.00  0.00    -0.166 F 
ENDBRANCH  18  23
ENDBRANCH  14  16
ENDBRANCH  10  14
ENDBRANCH   7   8
ENDBRANCH   5   7
ENDBRANCH   2   3
ENDBRANCH   1   2
BRANCH   1  27
ATOM     27  C   UNL A   1      34.772  23.142  26.399  1.00  0.00     0.002 C 
BRANCH  27  28
ATOM     28  C   UNL A   1      35.197  22.293  25.197  1.00  0.00     0.002 C 
BRANCH  28  29
ATOM     29  C   UNL A   1      36.224  22.944  24.270  1.00  0.00     0.021 C 
BRANCH  29  30
ATOM     30  C   UNL A   1      37.390  23.627  24.978  1.00  0.00     0.116 C 
BRANCH  30  31
ATOM     31  N   UNL A   1      38.402  22.687  25.435  1.00  0.00    -0.352 N 
ATOM     32  C   UNL A   1      39.496  22.920  26.232  1.00  0.00     0.251 C 
ATOM     33  H   UNL A   1      38.287  21.758  25.131  1.00  0.00     0.163 HD
ATOM     34  O   UNL A   1      40.336  22.044  26.413  1.00  0.00    -0.269 OA
BRANCH  32  35
ATOM     35  C   UNL A   1      39.674  24.251  26.852  1.00  0.00     0.039 A 
ATOM     36  C   UNL A   1      39.141  24.485  28.122  1.00  0.00     0.014 A 
ATOM     37  C   UNL A   1      40.382  25.256  26.189  1.00  0.00     0.014 A 
ATOM     38  C   UNL A   1      39.377  25.707  28.757  1.00  0.00     0.010 A 
ATOM     39  C   UNL A   1      40.675  26.445  26.850  1.00  0.00     0.010 A 
ATOM     40  C   UNL A   1      40.175  26.683  28.140  1.00  0.00    -0.014 A 
BRANCH  40  41
ATOM     41  C   UNL A   1      40.502  27.966  28.816  1.00  0.00     0.031 A 
ATOM     42  C   UNL A   1      41.821  28.125  29.523  1.00  0.00     0.074 A 
ATOM     43  C   UNL A   1      39.585  28.953  28.868  1.00  0.00     0.049 A 
ATOM     44  N   UNL A   1      42.244  29.113  30.271  1.00  0.00    -0.248 NA
ATOM     45  C   UNL A   1      42.781  27.016  29.396  1.00  0.00     0.031 C 
ATOM     46  C   UNL A   1      38.258  28.916  28.250  1.00  0.00     0.029 A 
ATOM     47  N   UNL A   1      39.627  30.178  29.489  1.00  0.00    -0.354 N 
ATOM     48  C   UNL A   1      43.501  28.732  30.724  1.00  0.00     0.074 A 
ATOM     49  C   UNL A   1      43.759  27.410  30.198  1.00  0.00     0.031 C 
ATOM     50  C   UNL A   1      37.619  30.069  28.510  1.00  0.00     0.029 A 
ATOM     51  C   UNL A   1      38.469  30.906  29.350  1.00  0.00     0.049 A 
ATOM     52  H   UNL A   1      40.411  30.503  29.986  1.00  0.00     0.167 HD
ATOM     53  C   UNL A   1      44.367  29.426  31.499  1.00  0.00     0.031 A 
ATOM     54  C   UNL A   1      38.124  32.106  29.857  1.00  0.00     0.031 A 
ATOM     55  C   UNL A   1      44.125  30.752  31.996  1.00  0.00     0.049 A 
ATOM     56  C   UNL A   1      39.105  32.849  30.724  1.00  0.00     0.074 A 
ATOM     57  C   UNL A   1      44.973  31.563  32.730  1.00  0.00     0.029 A 
ATOM     58  N   UNL A   1      42.951  31.463  31.810  1.00  0.00    -0.354 N 
ATOM     59  N   UNL A   1      40.318  32.503  31.084  1.00  0.00    -0.248 NA
ATOM     60  C   UNL A   1      38.673  34.153  31.247  1.00  0.00     0.031 C 
ATOM     61  C   UNL A   1      44.293  32.746  33.032  1.00  0.00     0.029 A 
ATOM     62  C   UNL A   1      43.044  32.695  32.436  1.00  0.00     0.049 A 
ATOM     63  H   UNL A   1      42.167  31.141  31.308  1.00  0.00     0.167 HD
ATOM     64  C   UNL A   1      40.804  33.563  31.839  1.00  0.00     0.074 A 
ATOM     65  C   UNL A   1      39.762  34.566  31.878  1.00  0.00     0.031 C 
ATOM     66  C   UNL A   1      42.008  33.692  32.446  1.00  0.00     0.031 A 
BRANCH  53  67
ATOM     67  C   UNL A   1      45.665  28.765  31.865  1.00  0.00    -0.014 A 
ATOM     68  C   UNL A   1      45.780  27.976  33.020  1.00  0.00     0.009 A 
ATOM     69  C   UNL A   1      46.767  28.873  31.002  1.00  0.00     0.009 A 
ATOM     70  C   UNL A   1      46.981  27.328  33.316  1.00  0.00     0.001 A 
ATOM     71  C   UNL A   1      47.958  28.202  31.287  1.00  0.00     0.001 A 
ATOM     72  C   UNL A   1      48.066  27.435  32.445  1.00  0.00     0.000 A 
ENDBRANCH  53  67
BRANCH  54  73
ATOM     73  C   UNL A   1      36.788  32.694  29.569  1.00  0.00    -0.014 A 
ATOM     74  C   UNL A   1      35.709  32.470  30.437  1.00  0.00     0.009 A 
ATOM     75  C   UNL A   1      36.573  33.443  28.402  1.00  0.00     0.009 A 
ATOM     76  C   UNL A   1      34.434  32.945  30.123  1.00  0.00     0.001 A 
ATOM     77  C   UNL A   1      35.304  33.946  28.105  1.00  0.00     0.001 A 
ATOM     78  C   UNL A   1      34.233  33.684  28.958  1.00  0.00     0.000 A 
ENDBRANCH  54  73
BRANCH  66  79
ATOM     79  C   UNL A   1      42.294  34.988  33.151  1.00  0.00    -0.014 A 
ATOM     80  C   UNL A   1      41.836  35.229  34.454  1.00  0.00     0.009 A 
ATOM     81  C   UNL A   1      43.088  35.957  32.516  1.00  0.00     0.009 A 
ATOM     82  C   UNL A   1      42.145  36.429  35.097  1.00  0.00     0.001 A 
ATOM     83  C   UNL A   1      43.420  37.142  33.173  1.00  0.00     0.001 A 
ATOM     84  C   UNL A   1      42.941  37.380  34.460  1.00  0.00     0.000 A 
ENDBRANCH  66  79
ENDBRANCH  40  41
ENDBRANCH  32  35
ENDBRANCH  30  31
ENDBRANCH  29  30
ENDBRANCH  28  29
ENDBRANCH  27  28
ENDBRANCH   1  27
TORSDOF 17
ENDMDL
