MODEL 1
REMARK VINA RESULT:     -10.6      0.000      0.000
REMARK SMILES CS(=O)(=O)Nc1cc(NS(C)(=O)=O)cc(C(=O)NCCCCCCNC(=O)c2ccc(-c3c4nc(c(-c5ccccc5)c5ccc([nH]5)c(-c5ccccc5)c5nc(c(-c6ccccc6)c6ccc3[nH]6)C=C5)C=C4)cc2)c1
REMARK SMILES IDX 21 1 20 2 19 3 18 4 16 5 17 6 15 8 6 9 7 10 76 11 8 12 14 13
REMARK SMILES IDX 5 14 2 16 1 17 3 18 4 19 9 20 10 22 11 23 12 24 13 25 22 26
REMARK SMILES IDX 23 27 24 28 25 29 26 30 27 32 28 33 29 34 75 35 30 36 74 37
REMARK SMILES IDX 31 38 32 39 33 40 68 41 34 42 73 43 67 44 69 45 35 46 72 47
REMARK SMILES IDX 66 48 65 49 36 51 58 52 43 53 57 54 44 55 47 56 56 57 70 58
REMARK SMILES IDX 45 59 46 60 55 62 71 63 48 64 37 65 38 66 42 67 39 68 41 69
REMARK SMILES IDX 40 70 59 71 60 72 64 73 61 74 63 75 62 76 49 77 50 78 54 79
REMARK SMILES IDX 51 80 53 81 52 82
REMARK H PARENT 18 7 5 15 9 21 25 31 69 50 47 61
REMARK Flexibility Score: inf
ROOT
ATOM      1  C   UNL A   1      38.086  22.589  25.128  1.00  0.00     0.002 C 
ENDROOT
BRANCH   1   2
ATOM      2  C   UNL A   1      37.341  23.383  26.208  1.00  0.00     0.021 C 
BRANCH   2   3
ATOM      3  C   UNL A   1      35.855  23.541  25.884  1.00  0.00     0.116 C 
BRANCH   3   4
ATOM      4  N   UNL A   1      35.050  22.969  26.943  1.00  0.00    -0.352 N 
ATOM      5  C   UNL A   1      33.914  22.206  26.974  1.00  0.00     0.251 C 
ATOM      6  O   UNL A   1      33.461  21.926  28.085  1.00  0.00    -0.269 OA
ATOM      7  H   UNL A   1      35.397  23.174  27.841  1.00  0.00     0.163 HD
BRANCH   5   8
ATOM      8  C   UNL A   1      33.260  21.619  25.769  1.00  0.00     0.043 A 
ATOM      9  C   UNL A   1      32.551  21.705  23.472  1.00  0.00     0.051 A 
ATOM     10  C   UNL A   1      32.470  20.314  23.434  1.00  0.00     0.053 A 
ATOM     11  C   UNL A   1      32.796  22.347  24.679  1.00  0.00     0.040 A 
ATOM     12  C   UNL A   1      32.662  19.568  24.593  1.00  0.00     0.051 A 
ATOM     13  C   UNL A   1      33.159  20.219  25.724  1.00  0.00     0.040 A 
BRANCH   9  14
ATOM     14  N   UNL A   1      32.336  22.404  22.252  1.00  0.00    -0.284 N 
ATOM     15  H   UNL A   1      31.579  22.133  21.683  1.00  0.00     0.180 HD
BRANCH  14  16
ATOM     16  S   UNL A   1      33.308  23.666  21.733  1.00  0.00     0.229 S 
ATOM     17  C   UNL A   1      32.467  25.126  22.331  1.00  0.00     0.183 C 
ATOM     18  O   UNL A   1      33.299  23.695  20.286  1.00  0.00    -0.207 OA
ATOM     19  O   UNL A   1      34.553  23.537  22.458  1.00  0.00    -0.207 OA
ENDBRANCH  14  16
ENDBRANCH   9  14
BRANCH  12  20
ATOM     20  N   UNL A   1      32.576  18.135  24.634  1.00  0.00    -0.284 N 
ATOM     21  H   UNL A   1      31.761  17.696  24.969  1.00  0.00     0.180 HD
BRANCH  20  22
ATOM     22  S   UNL A   1      33.895  17.198  24.097  1.00  0.00     0.229 S 
ATOM     23  C   UNL A   1      33.680  15.777  25.140  1.00  0.00     0.183 C 
ATOM     24  O   UNL A   1      33.584  16.812  22.736  1.00  0.00    -0.207 OA
ATOM     25  O   UNL A   1      35.154  17.811  24.444  1.00  0.00    -0.207 OA
ENDBRANCH  20  22
ENDBRANCH  12  20
ENDBRANCH   5   8
ENDBRANCH   3   4
ENDBRANCH   2   3
ENDBRANCH   1   2
BRANCH   1  26
ATOM     26  C   UNL A   1      37.350  21.328  24.651  1.00  0.00     0.002 C 
BRANCH  26  27
ATOM     27  C   UNL A   1      38.119  20.023  24.864  1.00  0.00     0.021 C 
BRANCH  27  28
ATOM     28  C   UNL A   1      38.973  20.014  26.126  1.00  0.00     0.116 C 
BRANCH  28  29
ATOM     29  N   UNL A   1      40.185  19.231  25.937  1.00  0.00    -0.352 N 
ATOM     30  C   UNL A   1      41.492  19.641  25.944  1.00  0.00     0.251 C 
ATOM     31  H   UNL A   1      40.047  18.269  25.782  1.00  0.00     0.163 HD
ATOM     32  O   UNL A   1      42.374  18.910  25.505  1.00  0.00    -0.269 OA
BRANCH  30  33
ATOM     33  C   UNL A   1      41.833  20.971  26.484  1.00  0.00     0.039 A 
ATOM     34  C   UNL A   1      42.152  22.002  25.599  1.00  0.00     0.014 A 
ATOM     35  C   UNL A   1      41.852  21.191  27.865  1.00  0.00     0.014 A 
ATOM     36  C   UNL A   1      42.452  23.269  26.099  1.00  0.00     0.010 A 
ATOM     37  C   UNL A   1      42.068  22.472  28.356  1.00  0.00     0.010 A 
ATOM     38  C   UNL A   1      42.388  23.519  27.480  1.00  0.00    -0.014 A 
BRANCH  38  39
ATOM     39  C   UNL A   1      42.669  24.868  28.029  1.00  0.00     0.031 A 
ATOM     40  C   UNL A   1      44.063  25.226  28.464  1.00  0.00     0.074 A 
ATOM     41  C   UNL A   1      41.662  25.746  28.186  1.00  0.00     0.049 A 
ATOM     42  N   UNL A   1      44.499  26.333  29.010  1.00  0.00    -0.248 NA
ATOM     43  C   UNL A   1      45.101  24.197  28.286  1.00  0.00     0.031 C 
ATOM     44  C   UNL A   1      40.261  25.503  27.835  1.00  0.00     0.029 A 
ATOM     45  N   UNL A   1      41.662  27.024  28.686  1.00  0.00    -0.354 N 
ATOM     46  C   UNL A   1      45.850  26.127  29.254  1.00  0.00     0.074 A 
ATOM     47  C   UNL A   1      46.153  24.772  28.850  1.00  0.00     0.031 C 
ATOM     48  C   UNL A   1      39.544  26.606  28.100  1.00  0.00     0.029 A 
ATOM     49  C   UNL A   1      40.422  27.615  28.682  1.00  0.00     0.049 A 
ATOM     50  H   UNL A   1      42.473  27.474  29.014  1.00  0.00     0.167 HD
ATOM     51  C   UNL A   1      46.764  26.994  29.750  1.00  0.00     0.031 A 
ATOM     52  C   UNL A   1      40.035  28.832  29.111  1.00  0.00     0.031 A 
ATOM     53  C   UNL A   1      46.460  28.343  30.150  1.00  0.00     0.049 A 
ATOM     54  C   UNL A   1      41.064  29.766  29.687  1.00  0.00     0.074 A 
ATOM     55  C   UNL A   1      47.323  29.317  30.618  1.00  0.00     0.029 A 
ATOM     56  N   UNL A   1      45.191  28.902  30.134  1.00  0.00    -0.354 N 
ATOM     57  N   UNL A   1      42.353  29.582  29.844  1.00  0.00    -0.248 NA
ATOM     58  C   UNL A   1      40.585  31.082  30.129  1.00  0.00     0.031 C 
ATOM     59  C   UNL A   1      46.567  30.446  30.947  1.00  0.00     0.029 A 
ATOM     60  C   UNL A   1      45.244  30.201  30.612  1.00  0.00     0.049 A 
ATOM     61  H   UNL A   1      44.375  28.445  29.830  1.00  0.00     0.167 HD
ATOM     62  C   UNL A   1      42.843  30.769  30.371  1.00  0.00     0.074 A 
ATOM     63  C   UNL A   1      41.716  31.671  30.489  1.00  0.00     0.031 C 
ATOM     64  C   UNL A   1      44.113  31.087  30.722  1.00  0.00     0.031 A 
BRANCH  51  65
ATOM     65  C   UNL A   1      48.178  26.503  29.902  1.00  0.00    -0.014 A 
ATOM     66  C   UNL A   1      48.597  25.828  31.061  1.00  0.00     0.009 A 
ATOM     67  C   UNL A   1      49.097  26.688  28.858  1.00  0.00     0.009 A 
ATOM     68  C   UNL A   1      49.916  25.386  31.186  1.00  0.00     0.001 A 
ATOM     69  C   UNL A   1      50.405  26.215  28.971  1.00  0.00     0.001 A 
ATOM     70  C   UNL A   1      50.817  25.574  30.139  1.00  0.00     0.000 A 
ENDBRANCH  51  65
BRANCH  52  71
ATOM     71  C   UNL A   1      38.610  29.243  29.004  1.00  0.00    -0.014 A 
ATOM     72  C   UNL A   1      37.745  29.114  30.101  1.00  0.00     0.009 A 
ATOM     73  C   UNL A   1      38.104  29.758  27.800  1.00  0.00     0.009 A 
ATOM     74  C   UNL A   1      36.396  29.459  29.984  1.00  0.00     0.001 A 
ATOM     75  C   UNL A   1      36.763  30.133  27.696  1.00  0.00     0.001 A 
ATOM     76  C   UNL A   1      35.908  29.973  28.784  1.00  0.00     0.000 A 
ENDBRANCH  52  71
BRANCH  64  77
ATOM     77  C   UNL A   1      44.364  32.484  31.219  1.00  0.00    -0.014 A 
ATOM     78  C   UNL A   1      44.314  32.799  32.587  1.00  0.00     0.009 A 
ATOM     79  C   UNL A   1      44.695  33.494  30.302  1.00  0.00     0.009 A 
ATOM     80  C   UNL A   1      44.553  34.105  33.018  1.00  0.00     0.001 A 
ATOM     81  C   UNL A   1      44.969  34.789  30.740  1.00  0.00     0.001 A 
ATOM     82  C   UNL A   1      44.887  35.097  32.097  1.00  0.00     0.000 A 
ENDBRANCH  64  77
ENDBRANCH  38  39
ENDBRANCH  30  33
ENDBRANCH  28  29
ENDBRANCH  27  28
ENDBRANCH  26  27
ENDBRANCH   1  26
TORSDOF 17
ENDMDL
MODEL 2
REMARK VINA RESULT:     -10.1      4.575      9.631
REMARK SMILES CS(=O)(=O)Nc1cc(NS(C)(=O)=O)cc(C(=O)NCCCCCCNC(=O)c2ccc(-c3c4nc(c(-c5ccccc5)c5ccc([nH]5)c(-c5ccccc5)c5nc(c(-c6ccccc6)c6ccc3[nH]6)C=C5)C=C4)cc2)c1
REMARK SMILES IDX 21 1 20 2 19 3 18 4 16 5 17 6 15 8 6 9 7 10 76 11 8 12 14 13
REMARK SMILES IDX 5 14 2 16 1 17 3 18 4 19 9 20 10 22 11 23 12 24 13 25 22 26
REMARK SMILES IDX 23 27 24 28 25 29 26 30 27 32 28 33 29 34 75 35 30 36 74 37
REMARK SMILES IDX 31 38 32 39 33 40 68 41 34 42 73 43 67 44 69 45 35 46 72 47
REMARK SMILES IDX 66 48 65 49 36 51 58 52 43 53 57 54 44 55 47 56 56 57 70 58
REMARK SMILES IDX 45 59 46 60 55 62 71 63 48 64 37 65 38 66 42 67 39 68 41 69
REMARK SMILES IDX 40 70 59 71 60 72 64 73 61 74 63 75 62 76 49 77 50 78 54 79
REMARK SMILES IDX 51 80 53 81 52 82
REMARK H PARENT 18 7 5 15 9 21 25 31 69 50 47 61
REMARK Flexibility Score: inf
ROOT
ATOM      1  C   UNL A   1      35.001  30.321  27.661  1.00  0.00     0.002 C 
ENDROOT
BRANCH   1   2
ATOM      2  C   UNL A   1      33.721  29.975  26.891  1.00  0.00     0.021 C 
BRANCH   2   3
ATOM      3  C   UNL A   1      33.822  28.624  26.183  1.00  0.00     0.116 C 
BRANCH   3   4
ATOM      4  N   UNL A   1      34.191  28.814  24.795  1.00  0.00    -0.352 N 
ATOM      5  C   UNL A   1      33.577  28.556  23.599  1.00  0.00     0.251 C 
ATOM      6  O   UNL A   1      34.217  28.811  22.578  1.00  0.00    -0.269 OA
ATOM      7  H   UNL A   1      35.082  29.219  24.688  1.00  0.00     0.163 HD
BRANCH   5   8
ATOM      8  C   UNL A   1      32.168  28.089  23.459  1.00  0.00     0.043 A 
ATOM      9  C   UNL A   1      30.321  26.670  24.060  1.00  0.00     0.051 A 
ATOM     10  C   UNL A   1      29.426  27.580  23.501  1.00  0.00     0.053 A 
ATOM     11  C   UNL A   1      31.687  26.861  23.897  1.00  0.00     0.040 A 
ATOM     12  C   UNL A   1      29.897  28.691  22.808  1.00  0.00     0.051 A 
ATOM     13  C   UNL A   1      31.258  28.992  22.885  1.00  0.00     0.040 A 
BRANCH   9  14
ATOM     14  N   UNL A   1      29.771  25.553  24.748  1.00  0.00    -0.284 N 
ATOM     15  H   UNL A   1      29.025  25.066  24.330  1.00  0.00     0.180 HD
BRANCH  14  16
ATOM     16  S   UNL A   1      30.329  25.025  26.237  1.00  0.00     0.229 S 
ATOM     17  C   UNL A   1      31.483  23.724  25.823  1.00  0.00     0.183 C 
ATOM     18  O   UNL A   1      29.224  24.440  26.967  1.00  0.00    -0.207 OA
ATOM     19  O   UNL A   1      31.079  26.128  26.797  1.00  0.00    -0.207 OA
ENDBRANCH  14  16
ENDBRANCH   9  14
BRANCH  12  20
ATOM     20  N   UNL A   1      29.035  29.661  22.191  1.00  0.00    -0.284 N 
ATOM     21  H   UNL A   1      28.841  29.611  21.227  1.00  0.00     0.180 HD
BRANCH  20  22
ATOM     22  S   UNL A   1      28.348  30.900  23.139  1.00  0.00     0.229 S 
ATOM     23  C   UNL A   1      28.119  32.131  21.880  1.00  0.00     0.183 C 
ATOM     24  O   UNL A   1      27.043  30.418  23.544  1.00  0.00    -0.207 OA
ATOM     25  O   UNL A   1      29.295  31.420  24.095  1.00  0.00    -0.207 OA
ENDBRANCH  20  22
ENDBRANCH  12  20
ENDBRANCH   5   8
ENDBRANCH   3   4
ENDBRANCH   2   3
ENDBRANCH   1   2
BRANCH   1  26
ATOM     26  C   UNL A   1      35.200  31.823  27.912  1.00  0.00     0.002 C 
BRANCH  26  27
ATOM     27  C   UNL A   1      33.902  32.621  28.056  1.00  0.00     0.021 C 
BRANCH  27  28
ATOM     28  C   UNL A   1      34.113  34.129  28.107  1.00  0.00     0.116 C 
BRANCH  28  29
ATOM     29  N   UNL A   1      33.556  34.699  29.325  1.00  0.00    -0.352 N 
ATOM     30  C   UNL A   1      33.854  34.414  30.631  1.00  0.00     0.251 C 
ATOM     31  H   UNL A   1      32.866  35.389  29.191  1.00  0.00     0.163 HD
ATOM     32  O   UNL A   1      33.110  34.785  31.532  1.00  0.00    -0.269 OA
BRANCH  30  33
ATOM     33  C   UNL A   1      35.078  33.653  30.947  1.00  0.00     0.039 A 
ATOM     34  C   UNL A   1      34.970  32.454  31.653  1.00  0.00     0.014 A 
ATOM     35  C   UNL A   1      36.332  34.137  30.560  1.00  0.00     0.014 A 
ATOM     36  C   UNL A   1      36.119  31.716  31.935  1.00  0.00     0.010 A 
ATOM     37  C   UNL A   1      37.464  33.361  30.767  1.00  0.00     0.010 A 
ATOM     38  C   UNL A   1      37.372  32.152  31.472  1.00  0.00    -0.014 A 
BRANCH  38  39
ATOM     39  C   UNL A   1      38.602  31.365  31.731  1.00  0.00     0.031 A 
ATOM     40  C   UNL A   1      39.483  31.711  32.900  1.00  0.00     0.074 A 
ATOM     41  C   UNL A   1      38.952  30.379  30.885  1.00  0.00     0.049 A 
ATOM     42  N   UNL A   1      40.619  31.172  33.265  1.00  0.00    -0.248 NA
ATOM     43  C   UNL A   1      39.043  32.822  33.759  1.00  0.00     0.031 C 
ATOM     44  C   UNL A   1      38.199  29.973  29.696  1.00  0.00     0.029 A 
ATOM     45  N   UNL A   1      40.037  29.538  30.895  1.00  0.00    -0.354 N 
ATOM     46  C   UNL A   1      41.035  31.889  34.379  1.00  0.00     0.074 A 
ATOM     47  C   UNL A   1      40.061  32.935  34.600  1.00  0.00     0.031 C 
ATOM     48  C   UNL A   1      38.828  28.942  29.110  1.00  0.00     0.029 A 
ATOM     49  C   UNL A   1      40.048  28.645  29.851  1.00  0.00     0.049 A 
ATOM     50  H   UNL A   1      40.738  29.571  31.584  1.00  0.00     0.167 HD
ATOM     51  C   UNL A   1      42.119  31.683  35.164  1.00  0.00     0.031 A 
ATOM     52  C   UNL A   1      40.948  27.698  29.523  1.00  0.00     0.031 A 
ATOM     53  C   UNL A   1      43.086  30.640  34.943  1.00  0.00     0.049 A 
ATOM     54  C   UNL A   1      42.160  27.509  30.394  1.00  0.00     0.074 A 
ATOM     55  C   UNL A   1      44.192  30.316  35.708  1.00  0.00     0.029 A 
ATOM     56  N   UNL A   1      43.063  29.759  33.873  1.00  0.00    -0.354 N 
ATOM     57  N   UNL A   1      42.503  28.148  31.487  1.00  0.00    -0.248 NA
ATOM     58  C   UNL A   1      43.103  26.456  29.992  1.00  0.00     0.031 C 
ATOM     59  C   UNL A   1      44.876  29.279  35.066  1.00  0.00     0.029 A 
ATOM     60  C   UNL A   1      44.154  28.907  33.942  1.00  0.00     0.049 A 
ATOM     61  H   UNL A   1      42.376  29.740  33.169  1.00  0.00     0.167 HD
ATOM     62  C   UNL A   1      43.679  27.553  31.921  1.00  0.00     0.074 A 
ATOM     63  C   UNL A   1      43.981  26.491  30.983  1.00  0.00     0.031 C 
ATOM     64  C   UNL A   1      44.439  27.854  33.002  1.00  0.00     0.031 A 
BRANCH  51  65
ATOM     65  C   UNL A   1      42.323  32.616  36.327  1.00  0.00    -0.014 A 
ATOM     66  C   UNL A   1      41.787  32.332  37.594  1.00  0.00     0.009 A 
ATOM     67  C   UNL A   1      43.088  33.780  36.161  1.00  0.00     0.009 A 
ATOM     68  C   UNL A   1      41.981  33.214  38.659  1.00  0.00     0.001 A 
ATOM     69  C   UNL A   1      43.310  34.643  37.236  1.00  0.00     0.001 A 
ATOM     70  C   UNL A   1      42.747  34.366  38.481  1.00  0.00     0.000 A 
ENDBRANCH  51  65
BRANCH  52  71
ATOM     71  C   UNL A   1      40.735  26.849  28.322  1.00  0.00    -0.014 A 
ATOM     72  C   UNL A   1      41.286  27.212  27.083  1.00  0.00     0.009 A 
ATOM     73  C   UNL A   1      39.970  25.675  28.404  1.00  0.00     0.009 A 
ATOM     74  C   UNL A   1      41.047  26.435  25.947  1.00  0.00     0.001 A 
ATOM     75  C   UNL A   1      39.760  24.883  27.273  1.00  0.00     0.001 A 
ATOM     76  C   UNL A   1      40.289  25.270  26.043  1.00  0.00     0.000 A 
ENDBRANCH  52  71
BRANCH  64  77
ATOM     77  C   UNL A   1      45.646  26.993  33.259  1.00  0.00    -0.014 A 
ATOM     78  C   UNL A   1      45.560  25.813  34.016  1.00  0.00     0.009 A 
ATOM     79  C   UNL A   1      46.882  27.352  32.699  1.00  0.00     0.009 A 
ATOM     80  C   UNL A   1      46.698  25.034  34.236  1.00  0.00     0.001 A 
ATOM     81  C   UNL A   1      48.008  26.552  32.891  1.00  0.00     0.001 A 
ATOM     82  C   UNL A   1      47.918  25.399  33.668  1.00  0.00     0.000 A 
ENDBRANCH  64  77
ENDBRANCH  38  39
ENDBRANCH  30  33
ENDBRANCH  28  29
ENDBRANCH  27  28
ENDBRANCH  26  27
ENDBRANCH   1  26
TORSDOF 17
ENDMDL
MODEL 3
REMARK VINA RESULT:      -9.9      3.396      8.083
REMARK SMILES CS(=O)(=O)Nc1cc(NS(C)(=O)=O)cc(C(=O)NCCCCCCNC(=O)c2ccc(-c3c4nc(c(-c5ccccc5)c5ccc([nH]5)c(-c5ccccc5)c5nc(c(-c6ccccc6)c6ccc3[nH]6)C=C5)C=C4)cc2)c1
REMARK SMILES IDX 21 1 20 2 19 3 18 4 16 5 17 6 15 8 6 9 7 10 76 11 8 12 14 13
REMARK SMILES IDX 5 14 2 16 1 17 3 18 4 19 9 20 10 22 11 23 12 24 13 25 22 26
REMARK SMILES IDX 23 27 24 28 25 29 26 30 27 32 28 33 29 34 75 35 30 36 74 37
REMARK SMILES IDX 31 38 32 39 33 40 68 41 34 42 73 43 67 44 69 45 35 46 72 47
REMARK SMILES IDX 66 48 65 49 36 51 58 52 43 53 57 54 44 55 47 56 56 57 70 58
REMARK SMILES IDX 45 59 46 60 55 62 71 63 48 64 37 65 38 66 42 67 39 68 41 69
REMARK SMILES IDX 40 70 59 71 60 72 64 73 61 74 63 75 62 76 49 77 50 78 54 79
REMARK SMILES IDX 51 80 53 81 52 82
REMARK H PARENT 18 7 5 15 9 21 25 31 69 50 47 61
REMARK Flexibility Score: inf
ROOT
ATOM      1  C   UNL A   1      32.766  23.262  25.853  1.00  0.00     0.002 C 
ENDROOT
BRANCH   1   2
ATOM      2  C   UNL A   1      31.507  24.068  26.194  1.00  0.00     0.021 C 
BRANCH   2   3
ATOM      3  C   UNL A   1      30.761  24.528  24.943  1.00  0.00     0.116 C 
BRANCH   3   4
ATOM      4  N   UNL A   1      31.565  24.281  23.763  1.00  0.00    -0.352 N 
ATOM      5  C   UNL A   1      32.198  25.082  22.852  1.00  0.00     0.251 C 
ATOM      6  O   UNL A   1      32.772  24.519  21.918  1.00  0.00    -0.269 OA
ATOM      7  H   UNL A   1      31.681  23.322  23.574  1.00  0.00     0.163 HD
BRANCH   5   8
ATOM      8  C   UNL A   1      32.319  26.563  22.974  1.00  0.00     0.043 A 
ATOM      9  C   UNL A   1      31.549  28.807  22.577  1.00  0.00     0.051 A 
ATOM     10  C   UNL A   1      32.329  29.274  23.633  1.00  0.00     0.053 A 
ATOM     11  C   UNL A   1      31.671  27.487  22.163  1.00  0.00     0.040 A 
ATOM     12  C   UNL A   1      33.204  28.415  24.292  1.00  0.00     0.051 A 
ATOM     13  C   UNL A   1      33.114  27.047  24.027  1.00  0.00     0.040 A 
BRANCH   9  14
ATOM     14  N   UNL A   1      30.682  29.741  21.944  1.00  0.00    -0.284 N 
ATOM     15  H   UNL A   1      31.066  30.365  21.286  1.00  0.00     0.180 HD
BRANCH  14  16
ATOM     16  S   UNL A   1      29.041  29.834  22.264  1.00  0.00     0.229 S 
ATOM     17  C   UNL A   1      28.908  31.194  23.417  1.00  0.00     0.183 C 
ATOM     18  O   UNL A   1      28.630  28.621  22.939  1.00  0.00    -0.207 OA
ATOM     19  O   UNL A   1      28.413  30.235  21.024  1.00  0.00    -0.207 OA
ENDBRANCH  14  16
ENDBRANCH   9  14
BRANCH  12  20
ATOM     20  N   UNL A   1      34.051  28.829  25.376  1.00  0.00    -0.284 N 
ATOM     21  H   UNL A   1      35.024  28.689  25.327  1.00  0.00     0.180 HD
BRANCH  20  22
ATOM     22  S   UNL A   1      33.359  29.564  26.749  1.00  0.00     0.229 S 
ATOM     23  C   UNL A   1      32.282  28.250  27.266  1.00  0.00     0.183 C 
ATOM     24  O   UNL A   1      34.426  29.682  27.721  1.00  0.00    -0.207 OA
ATOM     25  O   UNL A   1      32.534  30.691  26.387  1.00  0.00    -0.207 OA
ENDBRANCH  20  22
ENDBRANCH  12  20
ENDBRANCH   5   8
ENDBRANCH   3   4
ENDBRANCH   2   3
ENDBRANCH   1   2
BRANCH   1  26
ATOM     26  C   UNL A   1      34.082  24.025  26.069  1.00  0.00     0.002 C 
BRANCH  26  27
ATOM     27  C   UNL A   1      35.284  23.140  26.401  1.00  0.00     0.021 C 
BRANCH  27  28
ATOM     28  C   UNL A   1      36.616  23.714  25.934  1.00  0.00     0.116 C 
BRANCH  28  29
ATOM     29  N   UNL A   1      37.669  22.711  25.984  1.00  0.00    -0.352 N 
ATOM     30  C   UNL A   1      39.002  22.866  26.258  1.00  0.00     0.251 C 
ATOM     31  H   UNL A   1      37.383  21.788  25.794  1.00  0.00     0.163 HD
ATOM     32  O   UNL A   1      39.798  21.970  25.997  1.00  0.00    -0.269 OA
BRANCH  30  33
ATOM     33  C   UNL A   1      39.476  24.123  26.869  1.00  0.00     0.039 A 
ATOM     34  C   UNL A   1      40.149  25.053  26.075  1.00  0.00     0.014 A 
ATOM     35  C   UNL A   1      39.270  24.371  28.229  1.00  0.00     0.014 A 
ATOM     36  C   UNL A   1      40.579  26.254  26.638  1.00  0.00     0.010 A 
ATOM     37  C   UNL A   1      39.624  25.601  28.767  1.00  0.00     0.010 A 
ATOM     38  C   UNL A   1      40.298  26.548  27.982  1.00  0.00    -0.014 A 
BRANCH  38  39
ATOM     39  C   UNL A   1      40.716  27.833  28.591  1.00  0.00     0.031 A 
ATOM     40  C   UNL A   1      39.714  28.939  28.776  1.00  0.00     0.074 A 
ATOM     41  C   UNL A   1      42.006  28.023  28.925  1.00  0.00     0.049 A 
ATOM     42  N   UNL A   1      39.896  30.148  29.245  1.00  0.00    -0.248 NA
ATOM     43  C   UNL A   1      38.331  28.660  28.357  1.00  0.00     0.031 C 
ATOM     44  C   UNL A   1      43.079  27.040  28.761  1.00  0.00     0.029 A 
ATOM     45  N   UNL A   1      42.636  29.113  29.471  1.00  0.00    -0.354 N 
ATOM     46  C   UNL A   1      38.659  30.774  29.160  1.00  0.00     0.074 A 
ATOM     47  C   UNL A   1      37.748  29.835  28.545  1.00  0.00     0.031 C 
ATOM     48  C   UNL A   1      44.226  27.560  29.225  1.00  0.00     0.029 A 
ATOM     49  C   UNL A   1      43.981  28.925  29.676  1.00  0.00     0.049 A 
ATOM     50  H   UNL A   1      42.167  29.949  29.695  1.00  0.00     0.167 HD
ATOM     51  C   UNL A   1      38.306  32.013  29.578  1.00  0.00     0.031 A 
ATOM     52  C   UNL A   1      44.914  29.765  30.162  1.00  0.00     0.031 A 
ATOM     53  C   UNL A   1      39.215  32.945  30.190  1.00  0.00     0.049 A 
ATOM     54  C   UNL A   1      44.503  31.147  30.590  1.00  0.00     0.074 A 
ATOM     55  C   UNL A   1      38.946  34.206  30.693  1.00  0.00     0.029 A 
ATOM     56  N   UNL A   1      40.570  32.718  30.377  1.00  0.00    -0.354 N 
ATOM     57  N   UNL A   1      43.314  31.700  30.571  1.00  0.00    -0.248 NA
ATOM     58  C   UNL A   1      45.562  32.015  31.121  1.00  0.00     0.031 C 
ATOM     59  C   UNL A   1      40.151  34.768  31.125  1.00  0.00     0.029 A 
ATOM     60  C   UNL A   1      41.157  33.828  30.962  1.00  0.00     0.049 A 
ATOM     61  H   UNL A   1      41.045  31.892  30.130  1.00  0.00     0.167 HD
ATOM     62  C   UNL A   1      43.476  32.966  31.118  1.00  0.00     0.074 A 
ATOM     63  C   UNL A   1      44.874  33.091  31.475  1.00  0.00     0.031 C 
ATOM     64  C   UNL A   1      42.550  33.936  31.313  1.00  0.00     0.031 A 
BRANCH  51  65
ATOM     65  C   UNL A   1      36.877  32.436  29.369  1.00  0.00    -0.014 A 
ATOM     66  C   UNL A   1      36.451  32.997  28.153  1.00  0.00     0.009 A 
ATOM     67  C   UNL A   1      35.936  32.242  30.391  1.00  0.00     0.009 A 
ATOM     68  C   UNL A   1      35.122  33.390  27.982  1.00  0.00     0.001 A 
ATOM     69  C   UNL A   1      34.600  32.604  30.204  1.00  0.00     0.001 A 
ATOM     70  C   UNL A   1      34.197  33.188  29.005  1.00  0.00     0.000 A 
ENDBRANCH  51  65
BRANCH  52  71
ATOM     71  C   UNL A   1      46.328  29.321  30.282  1.00  0.00    -0.014 A 
ATOM     72  C   UNL A   1      46.763  28.621  31.418  1.00  0.00     0.009 A 
ATOM     73  C   UNL A   1      47.254  29.604  29.266  1.00  0.00     0.009 A 
ATOM     74  C   UNL A   1      48.102  28.244  31.548  1.00  0.00     0.001 A 
ATOM     75  C   UNL A   1      48.585  29.197  29.384  1.00  0.00     0.001 A 
ATOM     76  C   UNL A   1      49.010  28.528  30.530  1.00  0.00     0.000 A 
ENDBRANCH  52  71
BRANCH  64  77
ATOM     77  C   UNL A   1      43.006  35.202  31.986  1.00  0.00    -0.014 A 
ATOM     78  C   UNL A   1      43.587  36.254  31.260  1.00  0.00     0.009 A 
ATOM     79  C   UNL A   1      42.813  35.356  33.368  1.00  0.00     0.009 A 
ATOM     80  C   UNL A   1      43.999  37.417  31.913  1.00  0.00     0.001 A 
ATOM     81  C   UNL A   1      43.193  36.533  34.011  1.00  0.00     0.001 A 
ATOM     82  C   UNL A   1      43.795  37.559  33.285  1.00  0.00     0.000 A 
ENDBRANCH  64  77
ENDBRANCH  38  39
ENDBRANCH  30  33
ENDBRANCH  28  29
ENDBRANCH  27  28
ENDBRANCH  26  27
ENDBRANCH   1  26
TORSDOF 17
ENDMDL
