MODEL 1
REMARK VINA RESULT:     -11.2      0.000      0.000
REMARK SMILES CCn1cnc(S(=O)(=O)N2CCC(C)(C(=O)NCCCCCCNC(=O)c3ccc(-c4c5nc(c(-c6ccccc6)c6ccc([nH]6)c(-c6ccccc6)c6nc(c(-c7ccccc7)c7ccc4[nH]7)C=C6)C=C5)cc3)CC2)c1
REMARK SMILES IDX 20 1 19 2 18 3 17 4 15 5 16 6 13 8 10 9 11 10 76 11 12 12
REMARK SMILES IDX 75 13 14 14 7 15 8 16 9 17 6 18 3 19 4 20 77 21 5 22 2 23
REMARK SMILES IDX 1 24 21 25 22 26 23 27 24 28 25 29 26 31 27 32 28 33 74 34
REMARK SMILES IDX 29 35 73 36 30 37 31 38 32 39 67 40 33 41 72 42 66 43 68 44
REMARK SMILES IDX 34 45 71 46 65 47 64 48 35 50 57 51 42 52 56 53 43 54 46 55
REMARK SMILES IDX 55 56 69 57 44 58 45 59 54 61 70 62 47 63 36 64 37 65 41 66
REMARK SMILES IDX 38 67 40 68 39 69 58 70 59 71 63 72 60 73 62 74 61 75 48 76
REMARK SMILES IDX 49 77 53 78 50 79 52 80 51 81
REMARK H PARENT 17 7 24 30 68 49 46 60
REMARK Flexibility Score: inf
ROOT
ATOM      1  C   UNL A   1      40.184  21.522  26.491  1.00  0.00     0.002 C 
ENDROOT
BRANCH   1   2
ATOM      2  C   UNL A   1      39.348  22.776  26.738  1.00  0.00     0.021 C 
BRANCH   2   3
ATOM      3  C   UNL A   1      38.162  22.926  25.791  1.00  0.00     0.116 C 
BRANCH   3   4
ATOM      4  N   UNL A   1      37.542  21.641  25.502  1.00  0.00    -0.356 N 
ATOM      5  C   UNL A   1      36.302  21.307  25.043  1.00  0.00     0.226 C 
ATOM      6  O   UNL A   1      36.037  20.106  24.964  1.00  0.00    -0.275 OA
ATOM      7  H   UNL A   1      38.128  20.867  25.669  1.00  0.00     0.163 HD
BRANCH   5   8
ATOM      8  C   UNL A   1      35.290  22.389  24.635  1.00  0.00     0.049 C 
ATOM      9  N   UNL A   1      32.818  22.547  26.190  1.00  0.00    -0.196 NA
ATOM     10  C   UNL A   1      34.039  22.989  26.848  1.00  0.00     0.103 C 
ATOM     11  C   UNL A   1      32.995  21.376  25.332  1.00  0.00     0.103 C 
ATOM     12  C   UNL A   1      35.106  23.377  25.827  1.00  0.00     0.033 C 
ATOM     13  C   UNL A   1      33.944  21.720  24.196  1.00  0.00     0.033 C 
ATOM     14  C   UNL A   1      35.835  23.056  23.340  1.00  0.00     0.022 C 
BRANCH   9  15
ATOM     15  S   UNL A   1      31.419  23.500  26.137  1.00  0.00     0.262 S 
ATOM     16  O   UNL A   1      30.825  23.467  27.469  1.00  0.00    -0.205 OA
ATOM     17  O   UNL A   1      30.678  23.157  24.955  1.00  0.00    -0.205 OA
BRANCH  15  18
ATOM     18  C   UNL A   1      31.826  25.196  25.923  1.00  0.00     0.188 A 
ATOM     19  N   UNL A   1      32.696  27.057  25.148  1.00  0.00    -0.336 N 
ATOM     20  C   UNL A   1      32.010  27.318  26.295  1.00  0.00     0.201 A 
ATOM     21  C   UNL A   1      32.549  25.730  24.887  1.00  0.00     0.129 A 
ATOM     22  N   UNL A   1      31.485  26.219  26.802  1.00  0.00    -0.224 NA
BRANCH  19  23
ATOM     23  C   UNL A   1      33.439  27.976  24.310  1.00  0.00     0.120 C 
ATOM     24  C   UNL A   1      33.608  27.459  22.887  1.00  0.00     0.027 C 
ENDBRANCH  19  23
ENDBRANCH  15  18
ENDBRANCH   9  15
ENDBRANCH   5   8
ENDBRANCH   3   4
ENDBRANCH   2   3
ENDBRANCH   1   2
BRANCH   1  25
ATOM     25  C   UNL A   1      41.205  21.182  27.584  1.00  0.00     0.002 C 
BRANCH  25  26
ATOM     26  C   UNL A   1      42.210  20.066  27.260  1.00  0.00     0.021 C 
BRANCH  26  27
ATOM     27  C   UNL A   1      42.244  19.659  25.796  1.00  0.00     0.116 C 
BRANCH  27  28
ATOM     28  N   UNL A   1      43.601  19.418  25.322  1.00  0.00    -0.352 N 
ATOM     29  C   UNL A   1      44.546  20.344  24.934  1.00  0.00     0.251 C 
ATOM     30  H   UNL A   1      43.879  18.476  25.271  1.00  0.00     0.163 HD
ATOM     31  O   UNL A   1      45.496  20.022  24.231  1.00  0.00    -0.269 OA
BRANCH  29  32
ATOM     32  C   UNL A   1      44.387  21.739  25.376  1.00  0.00     0.039 A 
ATOM     33  C   UNL A   1      43.449  22.578  24.774  1.00  0.00     0.014 A 
ATOM     34  C   UNL A   1      45.169  22.187  26.438  1.00  0.00     0.014 A 
ATOM     35  C   UNL A   1      43.244  23.846  25.311  1.00  0.00     0.010 A 
ATOM     36  C   UNL A   1      44.870  23.380  27.051  1.00  0.00     0.010 A 
ATOM     37  C   UNL A   1      43.942  24.234  26.468  1.00  0.00    -0.014 A 
BRANCH  37  38
ATOM     38  C   UNL A   1      43.649  25.514  27.103  1.00  0.00     0.031 A 
ATOM     39  C   UNL A   1      44.558  26.639  26.752  1.00  0.00     0.074 A 
ATOM     40  C   UNL A   1      42.546  25.758  27.839  1.00  0.00     0.049 A 
ATOM     41  N   UNL A   1      45.449  27.190  27.505  1.00  0.00    -0.248 NA
ATOM     42  C   UNL A   1      44.533  27.155  25.376  1.00  0.00     0.031 C 
ATOM     43  C   UNL A   1      41.367  24.910  28.048  1.00  0.00     0.029 A 
ATOM     44  N   UNL A   1      42.214  26.902  28.496  1.00  0.00    -0.354 N 
ATOM     45  C   UNL A   1      45.984  28.244  26.772  1.00  0.00     0.074 A 
ATOM     46  C   UNL A   1      45.489  28.087  25.425  1.00  0.00     0.031 C 
ATOM     47  C   UNL A   1      40.366  25.650  28.577  1.00  0.00     0.029 A 
ATOM     48  C   UNL A   1      40.899  26.953  28.924  1.00  0.00     0.049 A 
ATOM     49  H   UNL A   1      42.856  27.632  28.652  1.00  0.00     0.167 HD
ATOM     50  C   UNL A   1      46.618  29.287  27.378  1.00  0.00     0.031 A 
ATOM     51  C   UNL A   1      40.285  27.999  29.523  1.00  0.00     0.031 A 
ATOM     52  C   UNL A   1      46.924  28.999  28.757  1.00  0.00     0.049 A 
ATOM     53  C   UNL A   1      41.340  28.855  30.108  1.00  0.00     0.074 A 
ATOM     54  C   UNL A   1      47.676  28.048  29.416  1.00  0.00     0.029 A 
ATOM     55  N   UNL A   1      46.090  29.541  29.706  1.00  0.00    -0.354 N 
ATOM     56  N   UNL A   1      42.099  28.484  31.098  1.00  0.00    -0.248 NA
ATOM     57  C   UNL A   1      41.838  29.975  29.328  1.00  0.00     0.031 C 
ATOM     58  C   UNL A   1      46.919  27.730  30.584  1.00  0.00     0.029 A 
ATOM     59  C   UNL A   1      45.785  28.546  30.597  1.00  0.00     0.049 A 
ATOM     60  H   UNL A   1      45.772  30.472  29.740  1.00  0.00     0.167 HD
ATOM     61  C   UNL A   1      43.347  29.012  30.806  1.00  0.00     0.074 A 
ATOM     62  C   UNL A   1      43.096  30.016  29.776  1.00  0.00     0.031 C 
ATOM     63  C   UNL A   1      44.492  28.393  31.226  1.00  0.00     0.031 A 
BRANCH  50  64
ATOM     64  C   UNL A   1      46.605  30.705  26.860  1.00  0.00    -0.014 A 
ATOM     65  C   UNL A   1      47.792  31.460  26.929  1.00  0.00     0.009 A 
ATOM     66  C   UNL A   1      45.422  31.413  26.581  1.00  0.00     0.009 A 
ATOM     67  C   UNL A   1      47.779  32.855  26.806  1.00  0.00     0.001 A 
ATOM     68  C   UNL A   1      45.412  32.801  26.413  1.00  0.00     0.001 A 
ATOM     69  C   UNL A   1      46.586  33.525  26.555  1.00  0.00     0.000 A 
ENDBRANCH  50  64
BRANCH  51  70
ATOM     70  C   UNL A   1      38.882  28.432  29.397  1.00  0.00    -0.014 A 
ATOM     71  C   UNL A   1      38.075  28.586  30.533  1.00  0.00     0.009 A 
ATOM     72  C   UNL A   1      38.421  28.968  28.180  1.00  0.00     0.009 A 
ATOM     73  C   UNL A   1      36.871  29.297  30.464  1.00  0.00     0.001 A 
ATOM     74  C   UNL A   1      37.218  29.677  28.111  1.00  0.00     0.001 A 
ATOM     75  C   UNL A   1      36.452  29.857  29.258  1.00  0.00     0.000 A 
ENDBRANCH  51  70
BRANCH  63  76
ATOM     76  C   UNL A   1      44.362  27.276  32.235  1.00  0.00    -0.014 A 
ATOM     77  C   UNL A   1      44.318  25.916  31.877  1.00  0.00     0.009 A 
ATOM     78  C   UNL A   1      44.430  27.600  33.599  1.00  0.00     0.009 A 
ATOM     79  C   UNL A   1      44.307  24.916  32.857  1.00  0.00     0.001 A 
ATOM     80  C   UNL A   1      44.440  26.601  34.575  1.00  0.00     0.001 A 
ATOM     81  C   UNL A   1      44.372  25.260  34.205  1.00  0.00     0.000 A 
ENDBRANCH  63  76
ENDBRANCH  37  38
ENDBRANCH  29  32
ENDBRANCH  27  28
ENDBRANCH  26  27
ENDBRANCH  25  26
ENDBRANCH   1  25
TORSDOF 16
ENDMDL
MODEL 2
REMARK VINA RESULT:     -10.8      2.843      8.381
REMARK SMILES CCn1cnc(S(=O)(=O)N2CCC(C)(C(=O)NCCCCCCNC(=O)c3ccc(-c4c5nc(c(-c6ccccc6)c6ccc([nH]6)c(-c6ccccc6)c6nc(c(-c7ccccc7)c7ccc4[nH]7)C=C6)C=C5)cc3)CC2)c1
REMARK SMILES IDX 20 1 19 2 18 3 17 4 15 5 16 6 13 8 10 9 11 10 76 11 12 12
REMARK SMILES IDX 75 13 14 14 7 15 8 16 9 17 6 18 3 19 4 20 77 21 5 22 2 23
REMARK SMILES IDX 1 24 21 25 22 26 23 27 24 28 25 29 26 31 27 32 28 33 74 34
REMARK SMILES IDX 29 35 73 36 30 37 31 38 32 39 67 40 33 41 72 42 66 43 68 44
REMARK SMILES IDX 34 45 71 46 65 47 64 48 35 50 57 51 42 52 56 53 43 54 46 55
REMARK SMILES IDX 55 56 69 57 44 58 45 59 54 61 70 62 47 63 36 64 37 65 41 66
REMARK SMILES IDX 38 67 40 68 39 69 58 70 59 71 63 72 60 73 62 74 61 75 48 76
REMARK SMILES IDX 49 77 53 78 50 79 52 80 51 81
REMARK H PARENT 17 7 24 30 68 49 46 60
REMARK Flexibility Score: inf
ROOT
ATOM      1  C   UNL A   1      30.741  29.360  24.520  1.00  0.00     0.002 C 
ENDROOT
BRANCH   1   2
ATOM      2  C   UNL A   1      30.917  28.977  23.052  1.00  0.00     0.021 C 
BRANCH   2   3
ATOM      3  C   UNL A   1      30.643  27.506  22.758  1.00  0.00     0.116 C 
BRANCH   3   4
ATOM      4  N   UNL A   1      31.611  26.957  21.821  1.00  0.00    -0.356 N 
ATOM      5  C   UNL A   1      32.717  26.180  21.999  1.00  0.00     0.226 C 
ATOM      6  O   UNL A   1      33.394  25.929  21.000  1.00  0.00    -0.275 OA
ATOM      7  H   UNL A   1      31.435  27.192  20.880  1.00  0.00     0.163 HD
BRANCH   5   8
ATOM      8  C   UNL A   1      33.088  25.637  23.387  1.00  0.00     0.049 C 
ATOM      9  N   UNL A   1      32.236  22.911  24.017  1.00  0.00    -0.196 NA
ATOM     10  C   UNL A   1      33.312  23.056  23.047  1.00  0.00     0.103 C 
ATOM     11  C   UNL A   1      31.193  23.929  23.906  1.00  0.00     0.103 C 
ATOM     12  C   UNL A   1      34.021  24.399  23.208  1.00  0.00     0.033 C 
ATOM     13  C   UNL A   1      31.789  25.297  24.192  1.00  0.00     0.033 C 
ATOM     14  C   UNL A   1      33.741  26.809  24.175  1.00  0.00     0.022 C 
BRANCH   9  15
ATOM     15  S   UNL A   1      32.359  21.889  25.362  1.00  0.00     0.262 S 
ATOM     16  O   UNL A   1      31.009  21.453  25.697  1.00  0.00    -0.205 OA
ATOM     17  O   UNL A   1      33.230  22.506  26.324  1.00  0.00    -0.205 OA
BRANCH  15  18
ATOM     18  C   UNL A   1      33.170  20.389  24.936  1.00  0.00     0.188 A 
ATOM     19  N   UNL A   1      33.544  18.301  24.372  1.00  0.00    -0.336 N 
ATOM     20  C   UNL A   1      34.728  18.921  24.634  1.00  0.00     0.201 A 
ATOM     21  C   UNL A   1      32.563  19.231  24.521  1.00  0.00     0.129 A 
ATOM     22  N   UNL A   1      34.543  20.177  24.994  1.00  0.00    -0.224 NA
BRANCH  19  23
ATOM     23  C   UNL A   1      33.311  16.924  23.983  1.00  0.00     0.120 C 
ATOM     24  C   UNL A   1      33.235  15.986  25.181  1.00  0.00     0.027 C 
ENDBRANCH  19  23
ENDBRANCH  15  18
ENDBRANCH   9  15
ENDBRANCH   5   8
ENDBRANCH   3   4
ENDBRANCH   2   3
ENDBRANCH   1   2
BRANCH   1  25
ATOM     25  C   UNL A   1      32.008  29.846  25.233  1.00  0.00     0.002 C 
BRANCH  25  26
ATOM     26  C   UNL A   1      32.135  29.493  26.723  1.00  0.00     0.021 C 
BRANCH  26  27
ATOM     27  C   UNL A   1      33.495  29.804  27.327  1.00  0.00     0.116 C 
BRANCH  27  28
ATOM     28  N   UNL A   1      33.893  31.189  27.109  1.00  0.00    -0.352 N 
ATOM     29  C   UNL A   1      34.984  31.854  27.625  1.00  0.00     0.251 C 
ATOM     30  H   UNL A   1      33.308  31.718  26.520  1.00  0.00     0.163 HD
ATOM     31  O   UNL A   1      35.019  33.078  27.666  1.00  0.00    -0.269 OA
BRANCH  29  32
ATOM     32  C   UNL A   1      36.113  31.060  28.137  1.00  0.00     0.039 A 
ATOM     33  C   UNL A   1      36.214  29.697  27.859  1.00  0.00     0.014 A 
ATOM     34  C   UNL A   1      37.098  31.715  28.873  1.00  0.00     0.014 A 
ATOM     35  C   UNL A   1      37.362  29.017  28.255  1.00  0.00     0.010 A 
ATOM     36  C   UNL A   1      38.288  31.079  29.139  1.00  0.00     0.010 A 
ATOM     37  C   UNL A   1      38.410  29.720  28.875  1.00  0.00    -0.014 A 
BRANCH  37  38
ATOM     38  C   UNL A   1      39.662  29.041  29.188  1.00  0.00     0.031 A 
ATOM     39  C   UNL A   1      39.949  28.836  30.633  1.00  0.00     0.074 A 
ATOM     40  C   UNL A   1      40.463  28.471  28.265  1.00  0.00     0.049 A 
ATOM     41  N   UNL A   1      40.836  29.441  31.349  1.00  0.00    -0.248 NA
ATOM     42  C   UNL A   1      39.094  27.913  31.392  1.00  0.00     0.031 C 
ATOM     43  C   UNL A   1      40.226  28.266  26.832  1.00  0.00     0.029 A 
ATOM     44  N   UNL A   1      41.660  27.854  28.463  1.00  0.00    -0.354 N 
ATOM     45  C   UNL A   1      40.785  28.858  32.611  1.00  0.00     0.074 A 
ATOM     46  C   UNL A   1      39.604  28.029  32.621  1.00  0.00     0.031 C 
ATOM     47  C   UNL A   1      41.125  27.381  26.346  1.00  0.00     0.029 A 
ATOM     48  C   UNL A   1      42.110  27.121  27.378  1.00  0.00     0.049 A 
ATOM     49  H   UNL A   1      42.163  27.925  29.306  1.00  0.00     0.167 HD
ATOM     50  C   UNL A   1      41.836  28.933  33.476  1.00  0.00     0.031 A 
ATOM     51  C   UNL A   1      43.218  26.347  27.331  1.00  0.00     0.031 A 
ATOM     52  C   UNL A   1      42.805  29.913  33.056  1.00  0.00     0.049 A 
ATOM     53  C   UNL A   1      44.127  26.809  28.404  1.00  0.00     0.074 A 
ATOM     54  C   UNL A   1      42.788  31.274  32.825  1.00  0.00     0.029 A 
ATOM     55  N   UNL A   1      43.936  29.442  32.432  1.00  0.00    -0.354 N 
ATOM     56  N   UNL A   1      44.705  27.974  28.401  1.00  0.00    -0.248 NA
ATOM     57  C   UNL A   1      44.075  26.141  29.693  1.00  0.00     0.031 C 
ATOM     58  C   UNL A   1      43.619  31.459  31.679  1.00  0.00     0.029 A 
ATOM     59  C   UNL A   1      44.140  30.214  31.318  1.00  0.00     0.049 A 
ATOM     60  H   UNL A   1      44.496  28.689  32.730  1.00  0.00     0.167 HD
ATOM     61  C   UNL A   1      44.693  28.379  29.728  1.00  0.00     0.074 A 
ATOM     62  C   UNL A   1      44.407  27.164  30.486  1.00  0.00     0.031 C 
ATOM     63  C   UNL A   1      44.642  29.704  30.061  1.00  0.00     0.031 A 
BRANCH  50  64
ATOM     64  C   UNL A   1      42.192  27.858  34.474  1.00  0.00    -0.014 A 
ATOM     65  C   UNL A   1      42.806  26.680  34.008  1.00  0.00     0.009 A 
ATOM     66  C   UNL A   1      41.694  27.833  35.789  1.00  0.00     0.009 A 
ATOM     67  C   UNL A   1      42.845  25.518  34.788  1.00  0.00     0.001 A 
ATOM     68  C   UNL A   1      41.770  26.687  36.587  1.00  0.00     0.001 A 
ATOM     69  C   UNL A   1      42.318  25.521  36.076  1.00  0.00     0.000 A 
ENDBRANCH  50  64
BRANCH  51  70
ATOM     70  C   UNL A   1      43.424  25.085  26.597  1.00  0.00    -0.014 A 
ATOM     71  C   UNL A   1      42.511  24.029  26.718  1.00  0.00     0.009 A 
ATOM     72  C   UNL A   1      44.370  25.027  25.557  1.00  0.00     0.009 A 
ATOM     73  C   UNL A   1      42.512  22.975  25.797  1.00  0.00     0.001 A 
ATOM     74  C   UNL A   1      44.371  23.973  24.638  1.00  0.00     0.001 A 
ATOM     75  C   UNL A   1      43.430  22.956  24.748  1.00  0.00     0.000 A 
ENDBRANCH  51  70
BRANCH  63  76
ATOM     76  C   UNL A   1      44.867  30.719  28.965  1.00  0.00    -0.014 A 
ATOM     77  C   UNL A   1      43.852  31.144  28.090  1.00  0.00     0.009 A 
ATOM     78  C   UNL A   1      46.108  31.369  28.907  1.00  0.00     0.009 A 
ATOM     79  C   UNL A   1      44.085  32.166  27.162  1.00  0.00     0.001 A 
ATOM     80  C   UNL A   1      46.335  32.404  27.995  1.00  0.00     0.001 A 
ATOM     81  C   UNL A   1      45.326  32.797  27.119  1.00  0.00     0.000 A 
ENDBRANCH  63  76
ENDBRANCH  37  38
ENDBRANCH  29  32
ENDBRANCH  27  28
ENDBRANCH  26  27
ENDBRANCH  25  26
ENDBRANCH   1  25
TORSDOF 16
ENDMDL
MODEL 3
REMARK VINA RESULT:     -10.8      3.859      9.657
REMARK SMILES CCn1cnc(S(=O)(=O)N2CCC(C)(C(=O)NCCCCCCNC(=O)c3ccc(-c4c5nc(c(-c6ccccc6)c6ccc([nH]6)c(-c6ccccc6)c6nc(c(-c7ccccc7)c7ccc4[nH]7)C=C6)C=C5)cc3)CC2)c1
REMARK SMILES IDX 20 1 19 2 18 3 17 4 15 5 16 6 13 8 10 9 11 10 76 11 12 12
REMARK SMILES IDX 75 13 14 14 7 15 8 16 9 17 6 18 3 19 4 20 77 21 5 22 2 23
REMARK SMILES IDX 1 24 21 25 22 26 23 27 24 28 25 29 26 31 27 32 28 33 74 34
REMARK SMILES IDX 29 35 73 36 30 37 31 38 32 39 67 40 33 41 72 42 66 43 68 44
REMARK SMILES IDX 34 45 71 46 65 47 64 48 35 50 57 51 42 52 56 53 43 54 46 55
REMARK SMILES IDX 55 56 69 57 44 58 45 59 54 61 70 62 47 63 36 64 37 65 41 66
REMARK SMILES IDX 38 67 40 68 39 69 58 70 59 71 63 72 60 73 62 74 61 75 48 76
REMARK SMILES IDX 49 77 53 78 50 79 52 80 51 81
REMARK H PARENT 17 7 24 30 68 49 46 60
REMARK Flexibility Score: inf
ROOT
ATOM      1  C   UNL A   1      34.015  31.827  28.270  1.00  0.00     0.002 C 
ENDROOT
BRANCH   1   2
ATOM      2  C   UNL A   1      33.646  31.080  26.989  1.00  0.00     0.021 C 
BRANCH   2   3
ATOM      3  C   UNL A   1      32.160  30.761  26.865  1.00  0.00     0.116 C 
BRANCH   3   4
ATOM      4  N   UNL A   1      31.866  30.054  25.627  1.00  0.00    -0.356 N 
ATOM      5  C   UNL A   1      31.770  28.726  25.334  1.00  0.00     0.226 C 
ATOM      6  O   UNL A   1      31.575  28.423  24.156  1.00  0.00    -0.275 OA
ATOM      7  H   UNL A   1      31.706  30.646  24.857  1.00  0.00     0.163 HD
BRANCH   5   8
ATOM      8  C   UNL A   1      31.891  27.660  26.435  1.00  0.00     0.049 C 
ATOM      9  N   UNL A   1      32.708  24.979  25.601  1.00  0.00    -0.196 NA
ATOM     10  C   UNL A   1      33.726  26.018  25.563  1.00  0.00     0.103 C 
ATOM     11  C   UNL A   1      31.380  25.431  25.190  1.00  0.00     0.103 C 
ATOM     12  C   UNL A   1      33.371  27.172  26.498  1.00  0.00     0.033 C 
ATOM     13  C   UNL A   1      30.885  26.493  26.159  1.00  0.00     0.033 C 
ATOM     14  C   UNL A   1      31.384  28.310  27.754  1.00  0.00     0.022 C 
BRANCH   9  15
ATOM     15  S   UNL A   1      32.954  23.496  26.381  1.00  0.00     0.262 S 
ATOM     16  O   UNL A   1      31.878  23.336  27.353  1.00  0.00    -0.205 OA
ATOM     17  O   UNL A   1      34.340  23.397  26.745  1.00  0.00    -0.205 OA
BRANCH  15  18
ATOM     18  C   UNL A   1      32.695  22.156  25.273  1.00  0.00     0.188 A 
ATOM     19  N   UNL A   1      32.506  20.131  24.448  1.00  0.00    -0.336 N 
ATOM     20  C   UNL A   1      32.408  21.043  23.442  1.00  0.00     0.201 A 
ATOM     21  C   UNL A   1      32.645  20.827  25.608  1.00  0.00     0.129 A 
ATOM     22  N   UNL A   1      32.534  22.275  23.897  1.00  0.00    -0.224 NA
BRANCH  19  23
ATOM     23  C   UNL A   1      32.455  18.685  24.366  1.00  0.00     0.120 C 
ATOM     24  C   UNL A   1      33.749  18.087  23.826  1.00  0.00     0.027 C 
ENDBRANCH  19  23
ENDBRANCH  15  18
ENDBRANCH   9  15
ENDBRANCH   5   8
ENDBRANCH   3   4
ENDBRANCH   2   3
ENDBRANCH   1   2
BRANCH   1  25
ATOM     25  C   UNL A   1      34.286  33.327  28.104  1.00  0.00     0.002 C 
BRANCH  25  26
ATOM     26  C   UNL A   1      33.175  34.280  28.566  1.00  0.00     0.021 C 
BRANCH  26  27
ATOM     27  C   UNL A   1      33.677  35.568  29.199  1.00  0.00     0.116 C 
BRANCH  27  28
ATOM     28  N   UNL A   1      33.087  35.806  30.511  1.00  0.00    -0.352 N 
ATOM     29  C   UNL A   1      33.271  35.085  31.672  1.00  0.00     0.251 C 
ATOM     30  H   UNL A   1      32.480  36.577  30.577  1.00  0.00     0.163 HD
ATOM     31  O   UNL A   1      32.468  35.156  32.594  1.00  0.00    -0.269 OA
BRANCH  29  32
ATOM     32  C   UNL A   1      34.454  34.216  31.780  1.00  0.00     0.039 A 
ATOM     33  C   UNL A   1      34.325  32.827  31.776  1.00  0.00     0.014 A 
ATOM     34  C   UNL A   1      35.709  34.817  31.846  1.00  0.00     0.014 A 
ATOM     35  C   UNL A   1      35.478  32.048  31.750  1.00  0.00     0.010 A 
ATOM     36  C   UNL A   1      36.841  34.054  31.680  1.00  0.00     0.010 A 
ATOM     37  C   UNL A   1      36.737  32.669  31.677  1.00  0.00    -0.014 A 
BRANCH  37  38
ATOM     38  C   UNL A   1      37.943  31.862  31.532  1.00  0.00     0.031 A 
ATOM     39  C   UNL A   1      38.651  31.516  32.794  1.00  0.00     0.074 A 
ATOM     40  C   UNL A   1      38.343  31.302  30.372  1.00  0.00     0.049 A 
ATOM     41  N   UNL A   1      39.779  31.982  33.213  1.00  0.00    -0.248 NA
ATOM     42  C   UNL A   1      37.988  30.610  33.743  1.00  0.00     0.031 C 
ATOM     43  C   UNL A   1      37.641  31.237  29.085  1.00  0.00     0.029 A 
ATOM     44  N   UNL A   1      39.467  30.572  30.140  1.00  0.00    -0.354 N 
ATOM     45  C   UNL A   1      40.070  31.304  34.392  1.00  0.00     0.074 A 
ATOM     46  C   UNL A   1      38.871  30.581  34.744  1.00  0.00     0.031 C 
ATOM     47  C   UNL A   1      38.239  30.320  28.291  1.00  0.00     0.029 A 
ATOM     48  C   UNL A   1      39.467  29.893  28.933  1.00  0.00     0.049 A 
ATOM     49  H   UNL A   1      40.217  30.529  30.777  1.00  0.00     0.167 HD
ATOM     50  C   UNL A   1      41.343  31.218  34.872  1.00  0.00     0.031 A 
ATOM     51  C   UNL A   1      40.413  29.034  28.490  1.00  0.00     0.031 A 
ATOM     52  C   UNL A   1      42.228  32.143  34.209  1.00  0.00     0.049 A 
ATOM     53  C   UNL A   1      41.659  29.327  29.232  1.00  0.00     0.074 A 
ATOM     54  C   UNL A   1      42.284  33.514  34.064  1.00  0.00     0.029 A 
ATOM     55  N   UNL A   1      43.044  31.629  33.229  1.00  0.00    -0.354 N 
ATOM     56  N   UNL A   1      42.329  30.435  29.100  1.00  0.00    -0.248 NA
ATOM     57  C   UNL A   1      41.949  28.564  30.433  1.00  0.00     0.031 C 
ATOM     58  C   UNL A   1      42.723  33.721  32.721  1.00  0.00     0.029 A 
ATOM     59  C   UNL A   1      42.964  32.469  32.150  1.00  0.00     0.049 A 
ATOM     60  H   UNL A   1      43.585  30.810  33.292  1.00  0.00     0.167 HD
ATOM     61  C   UNL A   1      42.783  30.730  30.377  1.00  0.00     0.074 A 
ATOM     62  C   UNL A   1      42.624  29.485  31.125  1.00  0.00     0.031 C 
ATOM     63  C   UNL A   1      42.983  32.022  30.774  1.00  0.00     0.031 A 
BRANCH  50  64
ATOM     64  C   UNL A   1      41.880  30.039  35.645  1.00  0.00    -0.014 A 
ATOM     65  C   UNL A   1      42.975  30.239  36.508  1.00  0.00     0.009 A 
ATOM     66  C   UNL A   1      41.548  28.706  35.346  1.00  0.00     0.009 A 
ATOM     67  C   UNL A   1      43.742  29.165  36.977  1.00  0.00     0.001 A 
ATOM     68  C   UNL A   1      42.285  27.629  35.848  1.00  0.00     0.001 A 
ATOM     69  C   UNL A   1      43.400  27.860  36.640  1.00  0.00     0.000 A 
ENDBRANCH  50  64
BRANCH  51  70
ATOM     70  C   UNL A   1      40.238  27.823  27.667  1.00  0.00    -0.014 A 
ATOM     71  C   UNL A   1      41.019  27.616  26.522  1.00  0.00     0.009 A 
ATOM     72  C   UNL A   1      39.498  26.737  28.169  1.00  0.00     0.009 A 
ATOM     73  C   UNL A   1      41.097  26.351  25.930  1.00  0.00     0.001 A 
ATOM     74  C   UNL A   1      39.575  25.473  27.576  1.00  0.00     0.001 A 
ATOM     75  C   UNL A   1      40.390  25.277  26.466  1.00  0.00     0.000 A 
ENDBRANCH  51  70
BRANCH  63  76
ATOM     76  C   UNL A   1      42.955  33.100  29.716  1.00  0.00    -0.014 A 
ATOM     77  C   UNL A   1      41.877  33.988  29.549  1.00  0.00     0.009 A 
ATOM     78  C   UNL A   1      44.115  33.316  28.957  1.00  0.00     0.009 A 
ATOM     79  C   UNL A   1      41.947  35.037  28.626  1.00  0.00     0.001 A 
ATOM     80  C   UNL A   1      44.193  34.377  28.051  1.00  0.00     0.001 A 
ATOM     81  C   UNL A   1      43.107  35.233  27.880  1.00  0.00     0.000 A 
ENDBRANCH  63  76
ENDBRANCH  37  38
ENDBRANCH  29  32
ENDBRANCH  27  28
ENDBRANCH  26  27
ENDBRANCH  25  26
ENDBRANCH   1  25
TORSDOF 16
ENDMDL
