MODEL 1
REMARK VINA RESULT:     -11.2      0.000      0.000
REMARK SMILES COc1ccc(-c2noc(CC(=O)NCCCCCCNC(=O)c3ccc(-c4c5nc(c(-c6ccccc6)c6ccc([nH]6)c(-c6ccccc6)c6nc(c(-c7ccccc7)c7ccc4[nH]7)C=C6)C=C5)cc3)c2-c2ccc(OC)cc2)cc1
REMARK SMILES IDX 17 1 16 2 15 3 14 4 12 5 13 6 11 8 10 9 7 10 8 11 72 12 9 13
REMARK SMILES IDX 6 14 3 15 4 16 82 17 5 18 81 19 2 20 1 21 73 22 74 23 80 24
REMARK SMILES IDX 75 25 79 26 76 27 77 28 78 29 18 30 19 31 20 32 21 33 22 34
REMARK SMILES IDX 23 36 24 37 25 38 71 39 26 40 70 41 27 42 28 43 29 44 64 45
REMARK SMILES IDX 30 46 69 47 63 48 65 49 31 50 68 51 62 52 61 53 32 55 54 56
REMARK SMILES IDX 39 57 53 58 40 59 43 60 52 61 66 62 41 63 42 64 51 66 67 67
REMARK SMILES IDX 44 68 33 69 34 70 38 71 35 72 37 73 36 74 55 75 56 76 60 77
REMARK SMILES IDX 57 78 59 79 58 80 45 81 46 82 50 83 47 84 49 85 48 86
REMARK H PARENT 14 7 21 35 65 54 43 65
REMARK Flexibility Score: inf
ROOT
ATOM      1  C   UNL A   1      31.074  29.390  24.611  1.00  0.00     0.002 C 
ENDROOT
BRANCH   1   2
ATOM      2  C   UNL A   1      31.394  29.023  23.157  1.00  0.00     0.021 C 
BRANCH   2   3
ATOM      3  C   UNL A   1      30.780  27.692  22.717  1.00  0.00     0.116 C 
BRANCH   3   4
ATOM      4  N   UNL A   1      31.568  27.085  21.666  1.00  0.00    -0.356 N 
ATOM      5  C   UNL A   1      32.663  26.276  21.771  1.00  0.00     0.227 C 
ATOM      6  O   UNL A   1      33.245  25.951  20.734  1.00  0.00    -0.275 OA
ATOM      7  H   UNL A   1      31.274  27.283  20.747  1.00  0.00     0.163 HD
BRANCH   5   8
ATOM      8  C   UNL A   1      33.071  25.703  23.115  1.00  0.00     0.179 C 
BRANCH   8   9
ATOM      9  C   UNL A   1      32.686  24.280  23.280  1.00  0.00     0.154 A 
ATOM     10  C   UNL A   1      32.361  22.112  23.619  1.00  0.00     0.122 A 
ATOM     11  N   UNL A   1      31.261  22.567  23.003  1.00  0.00    -0.079 NA
ATOM     12  C   UNL A   1      33.301  23.167  23.815  1.00  0.00     0.053 A 
ATOM     13  O   UNL A   1      31.457  23.923  22.816  1.00  0.00    -0.360 OA
BRANCH  10  14
ATOM     14  C   UNL A   1      32.519  20.712  23.991  1.00  0.00     0.005 A 
ATOM     15  C   UNL A   1      32.634  18.001  24.713  1.00  0.00     0.118 A 
ATOM     16  C   UNL A   1      32.788  18.999  25.679  1.00  0.00     0.047 A 
ATOM     17  C   UNL A   1      32.420  18.359  23.384  1.00  0.00     0.047 A 
ATOM     18  C   UNL A   1      32.745  20.349  25.322  1.00  0.00     0.014 A 
ATOM     19  C   UNL A   1      32.364  19.709  23.024  1.00  0.00     0.014 A 
BRANCH  15  20
ATOM     20  O   UNL A   1      32.673  16.719  25.189  1.00  0.00    -0.497 OA
ATOM     21  C   UNL A   1      33.971  16.150  25.331  1.00  0.00     0.278 C 
ENDBRANCH  15  20
ENDBRANCH  10  14
BRANCH  12  22
ATOM     22  C   UNL A   1      34.660  23.125  24.322  1.00  0.00    -0.012 A 
ATOM     23  C   UNL A   1      35.688  22.645  23.500  1.00  0.00     0.013 A 
ATOM     24  C   UNL A   1      34.967  23.556  25.616  1.00  0.00     0.013 A 
ATOM     25  C   UNL A   1      37.005  22.622  23.961  1.00  0.00     0.047 A 
ATOM     26  C   UNL A   1      36.291  23.528  26.075  1.00  0.00     0.047 A 
ATOM     27  C   UNL A   1      37.315  23.067  25.246  1.00  0.00     0.118 A 
BRANCH  27  28
ATOM     28  O   UNL A   1      38.642  22.999  25.563  1.00  0.00    -0.497 OA
ATOM     29  C   UNL A   1      39.046  21.944  26.425  1.00  0.00     0.278 C 
ENDBRANCH  27  28
ENDBRANCH  12  22
ENDBRANCH   8   9
ENDBRANCH   5   8
ENDBRANCH   3   4
ENDBRANCH   2   3
ENDBRANCH   1   2
BRANCH   1  30
ATOM     30  C   UNL A   1      31.704  28.471  25.664  1.00  0.00     0.002 C 
BRANCH  30  31
ATOM     31  C   UNL A   1      33.225  28.321  25.568  1.00  0.00     0.021 C 
BRANCH  31  32
ATOM     32  C   UNL A   1      33.962  28.491  26.894  1.00  0.00     0.116 C 
BRANCH  32  33
ATOM     33  N   UNL A   1      33.855  29.848  27.407  1.00  0.00    -0.352 N 
ATOM     34  C   UNL A   1      34.733  30.559  28.182  1.00  0.00     0.251 C 
ATOM     35  H   UNL A   1      33.031  30.326  27.160  1.00  0.00     0.163 HD
ATOM     36  O   UNL A   1      34.386  31.624  28.692  1.00  0.00    -0.269 OA
BRANCH  34  37
ATOM     37  C   UNL A   1      36.096  30.043  28.424  1.00  0.00     0.039 A 
ATOM     38  C   UNL A   1      37.059  30.178  27.419  1.00  0.00     0.014 A 
ATOM     39  C   UNL A   1      36.420  29.411  29.628  1.00  0.00     0.014 A 
ATOM     40  C   UNL A   1      38.362  29.732  27.645  1.00  0.00     0.010 A 
ATOM     41  C   UNL A   1      37.735  29.025  29.875  1.00  0.00     0.010 A 
ATOM     42  C   UNL A   1      38.718  29.181  28.886  1.00  0.00    -0.014 A 
BRANCH  42  43
ATOM     43  C   UNL A   1      40.113  28.766  29.172  1.00  0.00     0.031 A 
ATOM     44  C   UNL A   1      41.061  29.711  29.857  1.00  0.00     0.074 A 
ATOM     45  C   UNL A   1      40.549  27.563  28.751  1.00  0.00     0.049 A 
ATOM     46  N   UNL A   1      42.332  29.555  30.126  1.00  0.00    -0.248 NA
ATOM     47  C   UNL A   1      40.512  31.012  30.275  1.00  0.00     0.031 C 
ATOM     48  C   UNL A   1      39.740  26.568  28.043  1.00  0.00     0.029 A 
ATOM     49  N   UNL A   1      41.786  26.977  28.849  1.00  0.00    -0.354 N 
ATOM     50  C   UNL A   1      42.739  30.740  30.725  1.00  0.00     0.074 A 
ATOM     51  C   UNL A   1      41.592  31.622  30.742  1.00  0.00     0.031 C 
ATOM     52  C   UNL A   1      40.496  25.488  27.790  1.00  0.00     0.029 A 
ATOM     53  C   UNL A   1      41.849  25.728  28.280  1.00  0.00     0.049 A 
ATOM     54  H   UNL A   1      42.554  27.410  29.285  1.00  0.00     0.167 HD
ATOM     55  C   UNL A   1      43.955  31.061  31.229  1.00  0.00     0.031 A 
ATOM     56  C   UNL A   1      42.883  24.876  28.158  1.00  0.00     0.031 A 
ATOM     57  C   UNL A   1      45.094  30.182  31.222  1.00  0.00     0.049 A 
ATOM     58  C   UNL A   1      44.225  25.262  28.712  1.00  0.00     0.074 A 
ATOM     59  C   UNL A   1      46.350  30.394  31.762  1.00  0.00     0.029 A 
ATOM     60  N   UNL A   1      45.115  28.924  30.641  1.00  0.00    -0.354 N 
ATOM     61  N   UNL A   1      44.578  26.360  29.333  1.00  0.00    -0.248 NA
ATOM     62  C   UNL A   1      45.311  24.284  28.553  1.00  0.00     0.031 C 
ATOM     63  C   UNL A   1      47.148  29.283  31.465  1.00  0.00     0.029 A 
ATOM     64  C   UNL A   1      46.371  28.359  30.786  1.00  0.00     0.049 A 
ATOM     65  H   UNL A   1      44.351  28.496  30.191  1.00  0.00     0.167 HD
ATOM     66  C   UNL A   1      45.917  26.198  29.661  1.00  0.00     0.074 A 
ATOM     67  C   UNL A   1      46.309  24.888  29.183  1.00  0.00     0.031 C 
ATOM     68  C   UNL A   1      46.748  27.057  30.299  1.00  0.00     0.031 A 
BRANCH  55  69
ATOM     69  C   UNL A   1      44.115  32.431  31.826  1.00  0.00    -0.014 A 
ATOM     70  C   UNL A   1      44.049  32.633  33.214  1.00  0.00     0.009 A 
ATOM     71  C   UNL A   1      44.367  33.531  30.992  1.00  0.00     0.009 A 
ATOM     72  C   UNL A   1      44.194  33.914  33.750  1.00  0.00     0.001 A 
ATOM     73  C   UNL A   1      44.540  34.806  31.533  1.00  0.00     0.001 A 
ATOM     74  C   UNL A   1      44.444  34.999  32.910  1.00  0.00     0.000 A 
ENDBRANCH  55  69
BRANCH  56  75
ATOM     75  C   UNL A   1      42.688  23.564  27.489  1.00  0.00    -0.014 A 
ATOM     76  C   UNL A   1      42.366  22.423  28.242  1.00  0.00     0.009 A 
ATOM     77  C   UNL A   1      42.824  23.443  26.098  1.00  0.00     0.009 A 
ATOM     78  C   UNL A   1      42.209  21.185  27.618  1.00  0.00     0.001 A 
ATOM     79  C   UNL A   1      42.639  22.208  25.473  1.00  0.00     0.001 A 
ATOM     80  C   UNL A   1      42.341  21.079  26.234  1.00  0.00     0.000 A 
ENDBRANCH  56  75
BRANCH  68  81
ATOM     81  C   UNL A   1      48.157  26.594  30.542  1.00  0.00    -0.014 A 
ATOM     82  C   UNL A   1      48.530  26.013  31.764  1.00  0.00     0.009 A 
ATOM     83  C   UNL A   1      49.112  26.709  29.521  1.00  0.00     0.009 A 
ATOM     84  C   UNL A   1      49.843  25.585  31.968  1.00  0.00     0.001 A 
ATOM     85  C   UNL A   1      50.417  26.254  29.719  1.00  0.00     0.001 A 
ATOM     86  C   UNL A   1      50.783  25.701  30.945  1.00  0.00     0.000 A 
ENDBRANCH  68  81
ENDBRANCH  42  43
ENDBRANCH  34  37
ENDBRANCH  32  33
ENDBRANCH  31  32
ENDBRANCH  30  31
ENDBRANCH   1  30
TORSDOF 18
ENDMDL
MODEL 2
REMARK VINA RESULT:     -11.1      1.679      2.225
REMARK SMILES COc1ccc(-c2noc(CC(=O)NCCCCCCNC(=O)c3ccc(-c4c5nc(c(-c6ccccc6)c6ccc([nH]6)c(-c6ccccc6)c6nc(c(-c7ccccc7)c7ccc4[nH]7)C=C6)C=C5)cc3)c2-c2ccc(OC)cc2)cc1
REMARK SMILES IDX 17 1 16 2 15 3 14 4 12 5 13 6 11 8 10 9 7 10 8 11 72 12 9 13
REMARK SMILES IDX 6 14 3 15 4 16 82 17 5 18 81 19 2 20 1 21 73 22 74 23 80 24
REMARK SMILES IDX 75 25 79 26 76 27 77 28 78 29 18 30 19 31 20 32 21 33 22 34
REMARK SMILES IDX 23 36 24 37 25 38 71 39 26 40 70 41 27 42 28 43 29 44 64 45
REMARK SMILES IDX 30 46 69 47 63 48 65 49 31 50 68 51 62 52 61 53 32 55 54 56
REMARK SMILES IDX 39 57 53 58 40 59 43 60 52 61 66 62 41 63 42 64 51 66 67 67
REMARK SMILES IDX 44 68 33 69 34 70 38 71 35 72 37 73 36 74 55 75 56 76 60 77
REMARK SMILES IDX 57 78 59 79 58 80 45 81 46 82 50 83 47 84 49 85 48 86
REMARK H PARENT 14 7 21 35 65 54 43 65
REMARK Flexibility Score: inf
ROOT
ATOM      1  C   UNL A   1      30.913  29.385  24.230  1.00  0.00     0.002 C 
ENDROOT
BRANCH   1   2
ATOM      2  C   UNL A   1      30.431  28.820  22.888  1.00  0.00     0.021 C 
BRANCH   2   3
ATOM      3  C   UNL A   1      30.525  27.295  22.803  1.00  0.00     0.116 C 
BRANCH   3   4
ATOM      4  N   UNL A   1      31.421  26.894  21.740  1.00  0.00    -0.356 N 
ATOM      5  C   UNL A   1      32.631  26.267  21.827  1.00  0.00     0.227 C 
ATOM      6  O   UNL A   1      33.278  26.109  20.789  1.00  0.00    -0.275 OA
ATOM      7  H   UNL A   1      31.116  27.101  20.826  1.00  0.00     0.163 HD
BRANCH   5   8
ATOM      8  C   UNL A   1      33.102  25.680  23.143  1.00  0.00     0.179 C 
BRANCH   8   9
ATOM      9  C   UNL A   1      32.681  24.271  23.334  1.00  0.00     0.154 A 
ATOM     10  C   UNL A   1      32.305  22.116  23.703  1.00  0.00     0.122 A 
ATOM     11  N   UNL A   1      31.196  22.599  23.125  1.00  0.00    -0.079 NA
ATOM     12  C   UNL A   1      33.282  23.143  23.855  1.00  0.00     0.053 A 
ATOM     13  O   UNL A   1      31.426  23.948  22.919  1.00  0.00    -0.360 OA
BRANCH  10  14
ATOM     14  C   UNL A   1      32.435  20.714  24.080  1.00  0.00     0.005 A 
ATOM     15  C   UNL A   1      32.873  18.037  24.806  1.00  0.00     0.118 A 
ATOM     16  C   UNL A   1      32.626  18.379  23.473  1.00  0.00     0.047 A 
ATOM     17  C   UNL A   1      32.902  19.036  25.777  1.00  0.00     0.047 A 
ATOM     18  C   UNL A   1      32.394  19.709  23.110  1.00  0.00     0.014 A 
ATOM     19  C   UNL A   1      32.682  20.369  25.416  1.00  0.00     0.014 A 
BRANCH  15  20
ATOM     20  O   UNL A   1      33.106  16.709  25.033  1.00  0.00    -0.497 OA
ATOM     21  C   UNL A   1      34.341  16.204  24.536  1.00  0.00     0.278 C 
ENDBRANCH  15  20
ENDBRANCH  10  14
BRANCH  12  22
ATOM     22  C   UNL A   1      34.657  23.064  24.312  1.00  0.00    -0.012 A 
ATOM     23  C   UNL A   1      34.954  23.343  25.652  1.00  0.00     0.013 A 
ATOM     24  C   UNL A   1      35.694  22.712  23.443  1.00  0.00     0.013 A 
ATOM     25  C   UNL A   1      36.266  23.247  26.117  1.00  0.00     0.047 A 
ATOM     26  C   UNL A   1      37.011  22.620  23.914  1.00  0.00     0.047 A 
ATOM     27  C   UNL A   1      37.300  22.880  25.255  1.00  0.00     0.118 A 
BRANCH  27  28
ATOM     28  O   UNL A   1      38.531  22.815  25.843  1.00  0.00    -0.497 OA
ATOM     29  C   UNL A   1      39.046  21.521  26.122  1.00  0.00     0.278 C 
ENDBRANCH  27  28
ENDBRANCH  12  22
ENDBRANCH   8   9
ENDBRANCH   5   8
ENDBRANCH   3   4
ENDBRANCH   2   3
ENDBRANCH   1   2
BRANCH   1  30
ATOM     30  C   UNL A   1      32.429  29.314  24.454  1.00  0.00     0.002 C 
BRANCH  30  31
ATOM     31  C   UNL A   1      32.871  28.421  25.617  1.00  0.00     0.021 C 
BRANCH  31  32
ATOM     32  C   UNL A   1      34.038  28.974  26.430  1.00  0.00     0.116 C 
BRANCH  32  33
ATOM     33  N   UNL A   1      33.848  30.375  26.772  1.00  0.00    -0.352 N 
ATOM     34  C   UNL A   1      34.529  31.153  27.671  1.00  0.00     0.251 C 
ATOM     35  H   UNL A   1      33.125  30.832  26.286  1.00  0.00     0.163 HD
ATOM     36  O   UNL A   1      34.100  32.265  27.978  1.00  0.00    -0.269 OA
BRANCH  34  37
ATOM     37  C   UNL A   1      35.775  30.656  28.290  1.00  0.00     0.039 A 
ATOM     38  C   UNL A   1      35.690  29.714  29.320  1.00  0.00     0.014 A 
ATOM     39  C   UNL A   1      37.022  31.129  27.872  1.00  0.00     0.014 A 
ATOM     40  C   UNL A   1      36.858  29.203  29.890  1.00  0.00     0.010 A 
ATOM     41  C   UNL A   1      38.185  30.573  28.397  1.00  0.00     0.010 A 
ATOM     42  C   UNL A   1      38.115  29.605  29.410  1.00  0.00    -0.014 A 
BRANCH  42  43
ATOM     43  C   UNL A   1      39.366  29.022  29.952  1.00  0.00     0.031 A 
ATOM     44  C   UNL A   1      40.005  29.605  31.182  1.00  0.00     0.074 A 
ATOM     45  C   UNL A   1      39.966  28.009  29.296  1.00  0.00     0.049 A 
ATOM     46  N   UNL A   1      41.133  29.277  31.760  1.00  0.00    -0.248 NA
ATOM     47  C   UNL A   1      39.295  30.718  31.833  1.00  0.00     0.031 C 
ATOM     48  C   UNL A   1      39.468  27.378  28.073  1.00  0.00     0.029 A 
ATOM     49  N   UNL A   1      41.135  27.341  29.564  1.00  0.00    -0.354 N 
ATOM     50  C   UNL A   1      41.276  30.153  32.829  1.00  0.00     0.074 A 
ATOM     51  C   UNL A   1      40.144  31.053  32.795  1.00  0.00     0.031 C 
ATOM     52  C   UNL A   1      40.313  26.400  27.708  1.00  0.00     0.029 A 
ATOM     53  C   UNL A   1      41.431  26.363  28.647  1.00  0.00     0.049 A 
ATOM     54  H   UNL A   1      41.705  27.543  30.340  1.00  0.00     0.167 HD
ATOM     55  C   UNL A   1      42.255  30.195  33.765  1.00  0.00     0.031 A 
ATOM     56  C   UNL A   1      42.487  25.535  28.563  1.00  0.00     0.031 A 
ATOM     57  C   UNL A   1      43.376  29.295  33.807  1.00  0.00     0.049 A 
ATOM     58  C   UNL A   1      43.568  25.612  29.605  1.00  0.00     0.074 A 
ATOM     59  C   UNL A   1      44.387  29.220  34.749  1.00  0.00     0.029 A 
ATOM     60  N   UNL A   1      43.637  28.316  32.862  1.00  0.00    -0.354 N 
ATOM     61  N   UNL A   1      43.656  26.402  30.646  1.00  0.00    -0.248 NA
ATOM     62  C   UNL A   1      44.691  24.676  29.461  1.00  0.00     0.031 C 
ATOM     63  C   UNL A   1      45.287  28.227  34.347  1.00  0.00     0.029 A 
ATOM     64  C   UNL A   1      44.807  27.649  33.184  1.00  0.00     0.049 A 
ATOM     65  H   UNL A   1      43.074  28.123  32.077  1.00  0.00     0.167 HD
ATOM     66  C   UNL A   1      44.829  26.044  31.296  1.00  0.00     0.074 A 
ATOM     67  C   UNL A   1      45.411  24.954  30.539  1.00  0.00     0.031 C 
ATOM     68  C   UNL A   1      45.377  26.571  32.418  1.00  0.00     0.031 A 
BRANCH  55  69
ATOM     69  C   UNL A   1      42.156  31.262  34.820  1.00  0.00    -0.014 A 
ATOM     70  C   UNL A   1      42.731  32.529  34.629  1.00  0.00     0.009 A 
ATOM     71  C   UNL A   1      41.451  31.008  36.006  1.00  0.00     0.009 A 
ATOM     72  C   UNL A   1      42.633  33.506  35.622  1.00  0.00     0.001 A 
ATOM     73  C   UNL A   1      41.332  31.997  36.985  1.00  0.00     0.001 A 
ATOM     74  C   UNL A   1      41.930  33.241  36.796  1.00  0.00     0.000 A 
ENDBRANCH  55  69
BRANCH  56  75
ATOM     75  C   UNL A   1      42.573  24.549  27.455  1.00  0.00    -0.014 A 
ATOM     76  C   UNL A   1      42.121  23.233  27.637  1.00  0.00     0.009 A 
ATOM     77  C   UNL A   1      43.108  24.917  26.210  1.00  0.00     0.009 A 
ATOM     78  C   UNL A   1      42.226  22.299  26.605  1.00  0.00     0.001 A 
ATOM     79  C   UNL A   1      43.185  23.989  25.170  1.00  0.00     0.001 A 
ATOM     80  C   UNL A   1      42.753  22.679  25.371  1.00  0.00     0.000 A 
ENDBRANCH  56  75
BRANCH  68  81
ATOM     81  C   UNL A   1      46.656  25.956  32.909  1.00  0.00    -0.014 A 
ATOM     82  C   UNL A   1      46.646  24.868  33.796  1.00  0.00     0.009 A 
ATOM     83  C   UNL A   1      47.887  26.449  32.450  1.00  0.00     0.009 A 
ATOM     84  C   UNL A   1      47.846  24.308  34.238  1.00  0.00     0.001 A 
ATOM     85  C   UNL A   1      49.084  25.868  32.871  1.00  0.00     0.001 A 
ATOM     86  C   UNL A   1      49.062  24.804  33.771  1.00  0.00     0.000 A 
ENDBRANCH  68  81
ENDBRANCH  42  43
ENDBRANCH  34  37
ENDBRANCH  32  33
ENDBRANCH  31  32
ENDBRANCH  30  31
ENDBRANCH   1  30
TORSDOF 18
ENDMDL
MODEL 3
REMARK VINA RESULT:     -11.0      2.366      6.598
REMARK SMILES COc1ccc(-c2noc(CC(=O)NCCCCCCNC(=O)c3ccc(-c4c5nc(c(-c6ccccc6)c6ccc([nH]6)c(-c6ccccc6)c6nc(c(-c7ccccc7)c7ccc4[nH]7)C=C6)C=C5)cc3)c2-c2ccc(OC)cc2)cc1
REMARK SMILES IDX 17 1 16 2 15 3 14 4 12 5 13 6 11 8 10 9 7 10 8 11 72 12 9 13
REMARK SMILES IDX 6 14 3 15 4 16 82 17 5 18 81 19 2 20 1 21 73 22 74 23 80 24
REMARK SMILES IDX 75 25 79 26 76 27 77 28 78 29 18 30 19 31 20 32 21 33 22 34
REMARK SMILES IDX 23 36 24 37 25 38 71 39 26 40 70 41 27 42 28 43 29 44 64 45
REMARK SMILES IDX 30 46 69 47 63 48 65 49 31 50 68 51 62 52 61 53 32 55 54 56
REMARK SMILES IDX 39 57 53 58 40 59 43 60 52 61 66 62 41 63 42 64 51 66 67 67
REMARK SMILES IDX 44 68 33 69 34 70 38 71 35 72 37 73 36 74 55 75 56 76 60 77
REMARK SMILES IDX 57 78 59 79 58 80 45 81 46 82 50 83 47 84 49 85 48 86
REMARK H PARENT 14 7 21 35 65 54 43 65
REMARK Flexibility Score: inf
ROOT
ATOM      1  C   UNL A   1      32.006  28.223  25.970  1.00  0.00     0.002 C 
ENDROOT
BRANCH   1   2
ATOM      2  C   UNL A   1      31.503  28.717  24.608  1.00  0.00     0.021 C 
BRANCH   2   3
ATOM      3  C   UNL A   1      30.906  27.606  23.742  1.00  0.00     0.116 C 
BRANCH   3   4
ATOM      4  N   UNL A   1      31.722  27.373  22.570  1.00  0.00    -0.356 N 
ATOM      5  C   UNL A   1      32.910  26.708  22.469  1.00  0.00     0.227 C 
ATOM      6  O   UNL A   1      33.488  26.716  21.380  1.00  0.00    -0.275 OA
ATOM      7  H   UNL A   1      31.372  27.745  21.728  1.00  0.00     0.163 HD
BRANCH   5   8
ATOM      8  C   UNL A   1      33.435  25.887  23.631  1.00  0.00     0.179 C 
BRANCH   8   9
ATOM      9  C   UNL A   1      32.921  24.495  23.637  1.00  0.00     0.154 A 
ATOM     10  C   UNL A   1      32.401  22.340  23.726  1.00  0.00     0.122 A 
ATOM     11  N   UNL A   1      31.338  22.964  23.200  1.00  0.00    -0.079 NA
ATOM     12  C   UNL A   1      33.439  23.274  24.018  1.00  0.00     0.053 A 
ATOM     13  O   UNL A   1      31.657  24.309  23.169  1.00  0.00    -0.360 OA
BRANCH  10  14
ATOM     14  C   UNL A   1      32.434  20.897  23.924  1.00  0.00     0.005 A 
ATOM     15  C   UNL A   1      32.685  18.125  24.296  1.00  0.00     0.118 A 
ATOM     16  C   UNL A   1      32.390  18.647  23.034  1.00  0.00     0.047 A 
ATOM     17  C   UNL A   1      32.858  18.991  25.374  1.00  0.00     0.047 A 
ATOM     18  C   UNL A   1      32.250  20.025  22.847  1.00  0.00     0.014 A 
ATOM     19  C   UNL A   1      32.731  20.371  25.189  1.00  0.00     0.014 A 
BRANCH  15  20
ATOM     20  O   UNL A   1      32.819  16.764  24.347  1.00  0.00    -0.497 OA
ATOM     21  C   UNL A   1      33.478  16.250  25.499  1.00  0.00     0.278 C 
ENDBRANCH  15  20
ENDBRANCH  10  14
BRANCH  12  22
ATOM     22  C   UNL A   1      34.796  23.048  24.479  1.00  0.00    -0.012 A 
ATOM     23  C   UNL A   1      35.137  23.366  25.800  1.00  0.00     0.013 A 
ATOM     24  C   UNL A   1      35.773  22.516  23.633  1.00  0.00     0.013 A 
ATOM     25  C   UNL A   1      36.430  23.131  26.269  1.00  0.00     0.047 A 
ATOM     26  C   UNL A   1      37.071  22.285  24.107  1.00  0.00     0.047 A 
ATOM     27  C   UNL A   1      37.402  22.586  25.430  1.00  0.00     0.118 A 
BRANCH  27  28
ATOM     28  O   UNL A   1      38.619  22.400  26.021  1.00  0.00    -0.497 OA
ATOM     29  C   UNL A   1      39.214  21.117  25.884  1.00  0.00     0.278 C 
ENDBRANCH  27  28
ENDBRANCH  12  22
ENDBRANCH   8   9
ENDBRANCH   5   8
ENDBRANCH   3   4
ENDBRANCH   2   3
ENDBRANCH   1   2
BRANCH   1  30
ATOM     30  C   UNL A   1      31.771  29.192  27.136  1.00  0.00     0.002 C 
BRANCH  30  31
ATOM     31  C   UNL A   1      31.517  30.646  26.730  1.00  0.00     0.021 C 
BRANCH  31  32
ATOM     32  C   UNL A   1      32.749  31.544  26.789  1.00  0.00     0.116 C 
BRANCH  32  33
ATOM     33  N   UNL A   1      32.411  32.908  27.165  1.00  0.00    -0.352 N 
ATOM     34  C   UNL A   1      33.017  33.739  28.070  1.00  0.00     0.251 C 
ATOM     35  H   UNL A   1      31.632  33.291  26.701  1.00  0.00     0.163 HD
ATOM     36  O   UNL A   1      32.472  34.790  28.408  1.00  0.00    -0.269 OA
BRANCH  34  37
ATOM     37  C   UNL A   1      34.322  33.372  28.657  1.00  0.00     0.039 A 
ATOM     38  C   UNL A   1      34.347  32.658  29.859  1.00  0.00     0.014 A 
ATOM     39  C   UNL A   1      35.518  33.746  28.038  1.00  0.00     0.014 A 
ATOM     40  C   UNL A   1      35.569  32.268  30.409  1.00  0.00     0.010 A 
ATOM     41  C   UNL A   1      36.733  33.302  28.553  1.00  0.00     0.010 A 
ATOM     42  C   UNL A   1      36.770  32.560  29.742  1.00  0.00    -0.014 A 
BRANCH  42  43
ATOM     43  C   UNL A   1      38.075  32.093  30.272  1.00  0.00     0.031 A 
ATOM     44  C   UNL A   1      38.738  30.874  29.691  1.00  0.00     0.074 A 
ATOM     45  C   UNL A   1      38.631  32.725  31.323  1.00  0.00     0.049 A 
ATOM     46  N   UNL A   1      39.839  30.276  30.067  1.00  0.00    -0.248 NA
ATOM     47  C   UNL A   1      38.062  30.232  28.552  1.00  0.00     0.031 C 
ATOM     48  C   UNL A   1      38.072  33.897  32.001  1.00  0.00     0.029 A 
ATOM     49  N   UNL A   1      39.788  32.463  32.014  1.00  0.00    -0.354 N 
ATOM     50  C   UNL A   1      39.978  29.179  29.226  1.00  0.00     0.074 A 
ATOM     51  C   UNL A   1      38.827  29.169  28.349  1.00  0.00     0.031 C 
ATOM     52  C   UNL A   1      38.896  34.264  32.995  1.00  0.00     0.029 A 
ATOM     53  C   UNL A   1      40.019  33.333  33.050  1.00  0.00     0.049 A 
ATOM     54  H   UNL A   1      40.394  31.722  31.786  1.00  0.00     0.167 HD
ATOM     55  C   UNL A   1      40.980  28.269  29.179  1.00  0.00     0.031 A 
ATOM     56  C   UNL A   1      41.017  33.372  33.952  1.00  0.00     0.031 A 
ATOM     57  C   UNL A   1      42.130  28.282  30.043  1.00  0.00     0.049 A 
ATOM     58  C   UNL A   1      42.108  32.342  33.887  1.00  0.00     0.074 A 
ATOM     59  C   UNL A   1      43.227  27.438  30.032  1.00  0.00     0.029 A 
ATOM     60  N   UNL A   1      42.328  29.183  31.077  1.00  0.00    -0.354 N 
ATOM     61  N   UNL A   1      42.258  31.349  33.045  1.00  0.00    -0.248 NA
ATOM     62  C   UNL A   1      43.173  32.444  34.895  1.00  0.00     0.031 C 
ATOM     63  C   UNL A   1      44.066  27.798  31.092  1.00  0.00     0.029 A 
ATOM     64  C   UNL A   1      43.517  28.899  31.729  1.00  0.00     0.049 A 
ATOM     65  H   UNL A   1      41.714  29.915  31.314  1.00  0.00     0.167 HD
ATOM     66  C   UNL A   1      43.444  30.723  33.405  1.00  0.00     0.074 A 
ATOM     67  C   UNL A   1      43.981  31.458  34.532  1.00  0.00     0.031 C 
ATOM     68  C   UNL A   1      44.034  29.635  32.852  1.00  0.00     0.031 A 
BRANCH  55  69
ATOM     69  C   UNL A   1      40.869  27.172  28.156  1.00  0.00    -0.014 A 
ATOM     70  C   UNL A   1      40.236  25.956  28.458  1.00  0.00     0.009 A 
ATOM     71  C   UNL A   1      41.375  27.370  26.862  1.00  0.00     0.009 A 
ATOM     72  C   UNL A   1      40.147  24.947  27.497  1.00  0.00     0.001 A 
ATOM     73  C   UNL A   1      41.259  26.370  25.895  1.00  0.00     0.001 A 
ATOM     74  C   UNL A   1      40.654  25.157  26.215  1.00  0.00     0.000 A 
ENDBRANCH  55  69
BRANCH  56  75
ATOM     75  C   UNL A   1      41.037  34.433  34.992  1.00  0.00    -0.014 A 
ATOM     76  C   UNL A   1      41.829  35.580  34.821  1.00  0.00     0.009 A 
ATOM     77  C   UNL A   1      40.269  34.306  36.159  1.00  0.00     0.009 A 
ATOM     78  C   UNL A   1      41.869  36.565  35.809  1.00  0.00     0.001 A 
ATOM     79  C   UNL A   1      40.289  35.306  37.133  1.00  0.00     0.001 A 
ATOM     80  C   UNL A   1      41.096  36.430  36.962  1.00  0.00     0.000 A 
ENDBRANCH  56  75
BRANCH  68  81
ATOM     81  C   UNL A   1      45.344  29.193  33.443  1.00  0.00    -0.014 A 
ATOM     82  C   UNL A   1      45.390  28.250  34.481  1.00  0.00     0.009 A 
ATOM     83  C   UNL A   1      46.546  29.700  32.927  1.00  0.00     0.009 A 
ATOM     84  C   UNL A   1      46.617  27.848  35.013  1.00  0.00     0.001 A 
ATOM     85  C   UNL A   1      47.772  29.276  33.442  1.00  0.00     0.001 A 
ATOM     86  C   UNL A   1      47.806  28.357  34.490  1.00  0.00     0.000 A 
ENDBRANCH  68  81
ENDBRANCH  42  43
ENDBRANCH  34  37
ENDBRANCH  32  33
ENDBRANCH  31  32
ENDBRANCH  30  31
ENDBRANCH   1  30
TORSDOF 18
ENDMDL
