MODEL 1
REMARK VINA RESULT:     -11.3      0.000      0.000
REMARK SMILES O=C(NCCCCCCNC(=O)c1cccn1CC(=O)N1CC[C@H]2CCCC[C@H]2C1)c1ccc(-c2c3nc(c(-c4ccccc4)c4ccc([nH]4)c(-c4ccccc4)c4nc(c(-c5ccccc5)c5ccc2[nH]5)C=C4)C=C3)cc1
REMARK SMILES IDX 7 1 6 2 5 3 4 4 3 5 1 6 2 7 31 9 32 10 78 11 33 12 77 13
REMARK SMILES IDX 34 14 35 15 36 16 71 17 37 18 76 19 70 20 72 21 38 22 75 23
REMARK SMILES IDX 69 24 68 25 39 27 61 28 46 29 60 30 47 31 50 32 59 33 73 34
REMARK SMILES IDX 48 35 49 36 58 38 74 39 51 40 40 41 41 42 45 43 42 44 44 45
REMARK SMILES IDX 43 46 62 47 63 48 67 49 64 50 66 51 65 52 52 53 53 54 57 55
REMARK SMILES IDX 54 56 56 57 55 58 8 59 9 60 10 61 11 62 12 64 13 65 14 66
REMARK SMILES IDX 17 67 15 68 16 69 18 70 19 71 20 72 21 73 22 74 30 75 23 76
REMARK SMILES IDX 29 77 24 78 28 79 25 80 27 81 26 82
REMARK H PARENT 3 8 72 26 50 37 10 63
REMARK Flexibility Score: inf
ROOT
ATOM      1  C   UNL A   1      37.248  21.952  24.779  1.00  0.00     0.002 C 
ENDROOT
BRANCH   1   2
ATOM      2  C   UNL A   1      36.959  20.461  24.934  1.00  0.00     0.002 C 
BRANCH   2   3
ATOM      3  C   UNL A   1      38.174  19.541  24.810  1.00  0.00     0.021 C 
BRANCH   3   4
ATOM      4  C   UNL A   1      39.183  19.617  25.959  1.00  0.00     0.116 C 
BRANCH   4   5
ATOM      5  N   UNL A   1      40.420  18.882  25.770  1.00  0.00    -0.352 N 
ATOM      6  O   UNL A   1      42.588  18.328  25.860  1.00  0.00    -0.269 OA
ATOM      7  C   UNL A   1      41.727  19.185  26.046  1.00  0.00     0.251 C 
ATOM      8  H   UNL A   1      40.294  17.993  25.365  1.00  0.00     0.163 HD
BRANCH   7   9
ATOM      9  C   UNL A   1      42.142  20.538  26.478  1.00  0.00     0.039 A 
ATOM     10  C   UNL A   1      42.217  20.916  27.819  1.00  0.00     0.014 A 
ATOM     11  C   UNL A   1      42.469  21.463  25.473  1.00  0.00     0.014 A 
ATOM     12  C   UNL A   1      42.479  22.235  28.151  1.00  0.00     0.010 A 
ATOM     13  C   UNL A   1      42.793  22.776  25.804  1.00  0.00     0.010 A 
ATOM     14  C   UNL A   1      42.775  23.163  27.146  1.00  0.00    -0.014 A 
BRANCH  14  15
ATOM     15  C   UNL A   1      43.239  24.490  27.597  1.00  0.00     0.031 A 
ATOM     16  C   UNL A   1      42.073  25.473  27.766  1.00  0.00     0.074 A 
ATOM     17  C   UNL A   1      44.588  24.681  27.656  1.00  0.00     0.049 A 
ATOM     18  N   UNL A   1      42.042  26.762  27.625  1.00  0.00    -0.248 NA
ATOM     19  C   UNL A   1      40.720  24.924  28.059  1.00  0.00     0.031 C 
ATOM     20  C   UNL A   1      45.596  23.613  27.480  1.00  0.00     0.029 A 
ATOM     21  N   UNL A   1      45.388  25.788  27.843  1.00  0.00    -0.354 N 
ATOM     22  C   UNL A   1      40.731  27.191  27.926  1.00  0.00     0.074 A 
ATOM     23  C   UNL A   1      39.945  26.009  28.109  1.00  0.00     0.031 C 
ATOM     24  C   UNL A   1      46.844  24.125  27.492  1.00  0.00     0.029 A 
ATOM     25  C   UNL A   1      46.774  25.563  27.664  1.00  0.00     0.049 A 
ATOM     26  H   UNL A   1      45.022  26.671  28.083  1.00  0.00     0.167 HD
ATOM     27  C   UNL A   1      40.376  28.498  28.090  1.00  0.00     0.031 A 
ATOM     28  C   UNL A   1      47.792  26.473  27.598  1.00  0.00     0.031 A 
ATOM     29  C   UNL A   1      41.463  29.367  27.791  1.00  0.00     0.049 A 
ATOM     30  C   UNL A   1      47.185  27.795  27.819  1.00  0.00     0.074 A 
ATOM     31  C   UNL A   1      42.015  29.813  26.620  1.00  0.00     0.029 A 
ATOM     32  N   UNL A   1      42.312  29.681  28.822  1.00  0.00    -0.354 N 
ATOM     33  N   UNL A   1      46.755  28.237  28.960  1.00  0.00    -0.248 NA
ATOM     34  C   UNL A   1      46.976  28.682  26.668  1.00  0.00     0.031 C 
ATOM     35  C   UNL A   1      43.384  29.988  26.927  1.00  0.00     0.029 A 
ATOM     36  C   UNL A   1      43.578  29.738  28.288  1.00  0.00     0.049 A 
ATOM     37  H   UNL A   1      42.063  29.837  29.762  1.00  0.00     0.167 HD
ATOM     38  C   UNL A   1      45.910  29.255  28.591  1.00  0.00     0.074 A 
ATOM     39  C   UNL A   1      46.319  29.671  27.270  1.00  0.00     0.031 C 
ATOM     40  C   UNL A   1      44.673  29.343  29.144  1.00  0.00     0.031 A 
BRANCH  27  41
ATOM     41  C   UNL A   1      39.132  29.106  28.671  1.00  0.00    -0.014 A 
ATOM     42  C   UNL A   1      38.836  28.842  30.029  1.00  0.00     0.009 A 
ATOM     43  C   UNL A   1      38.115  29.677  27.895  1.00  0.00     0.009 A 
ATOM     44  C   UNL A   1      37.563  29.056  30.565  1.00  0.00     0.001 A 
ATOM     45  C   UNL A   1      36.846  29.921  28.442  1.00  0.00     0.001 A 
ATOM     46  C   UNL A   1      36.562  29.584  29.765  1.00  0.00     0.000 A 
ENDBRANCH  27  41
BRANCH  28  47
ATOM     47  C   UNL A   1      49.262  26.462  27.260  1.00  0.00    -0.014 A 
ATOM     48  C   UNL A   1      50.309  26.713  28.149  1.00  0.00     0.009 A 
ATOM     49  C   UNL A   1      49.655  26.123  25.935  1.00  0.00     0.009 A 
ATOM     50  C   UNL A   1      51.655  26.543  27.762  1.00  0.00     0.001 A 
ATOM     51  C   UNL A   1      50.983  25.916  25.554  1.00  0.00     0.001 A 
ATOM     52  C   UNL A   1      51.991  26.114  26.479  1.00  0.00     0.000 A 
ENDBRANCH  28  47
BRANCH  40  53
ATOM     53  C   UNL A   1      44.514  28.573  30.447  1.00  0.00    -0.014 A 
ATOM     54  C   UNL A   1      44.043  27.253  30.441  1.00  0.00     0.009 A 
ATOM     55  C   UNL A   1      44.704  29.180  31.702  1.00  0.00     0.009 A 
ATOM     56  C   UNL A   1      43.760  26.579  31.637  1.00  0.00     0.001 A 
ATOM     57  C   UNL A   1      44.431  28.510  32.900  1.00  0.00     0.001 A 
ATOM     58  C   UNL A   1      43.953  27.206  32.867  1.00  0.00     0.000 A 
ENDBRANCH  40  53
ENDBRANCH  14  15
ENDBRANCH   7   9
ENDBRANCH   4   5
ENDBRANCH   3   4
ENDBRANCH   2   3
ENDBRANCH   1   2
BRANCH   1  59
ATOM     59  C   UNL A   1      36.672  22.852  25.872  1.00  0.00     0.021 C 
BRANCH  59  60
ATOM     60  C   UNL A   1      35.503  23.752  25.465  1.00  0.00     0.116 C 
BRANCH  60  61
ATOM     61  N   UNL A   1      34.402  23.630  26.401  1.00  0.00    -0.351 N 
ATOM     62  C   UNL A   1      33.239  22.904  26.317  1.00  0.00     0.267 C 
ATOM     63  H   UNL A   1      34.506  24.151  27.230  1.00  0.00     0.163 HD
ATOM     64  O   UNL A   1      32.351  23.175  27.119  1.00  0.00    -0.268 OA
BRANCH  62  65
ATOM     65  C   UNL A   1      33.094  21.867  25.311  1.00  0.00     0.107 A 
ATOM     66  C   UNL A   1      33.455  20.528  25.388  1.00  0.00     0.033 A 
ATOM     67  N   UNL A   1      32.441  22.022  24.092  1.00  0.00    -0.334 N 
ATOM     68  C   UNL A   1      32.979  19.864  24.233  1.00  0.00     0.020 A 
ATOM     69  C   UNL A   1      32.326  20.800  23.468  1.00  0.00     0.087 A 
BRANCH  67  70
ATOM     70  C   UNL A   1      31.885  23.262  23.565  1.00  0.00     0.222 C 
BRANCH  70  71
ATOM     71  C   UNL A   1      32.834  24.333  23.033  1.00  0.00     0.242 C 
ATOM     72  O   UNL A   1      33.633  24.020  22.141  1.00  0.00    -0.273 OA
BRANCH  71  73
ATOM     73  N   UNL A   1      32.627  25.668  23.341  1.00  0.00    -0.341 N 
ATOM     74  C   UNL A   1      32.549  26.767  22.399  1.00  0.00     0.120 C 
ATOM     75  C   UNL A   1      32.494  26.083  24.736  1.00  0.00     0.123 C 
ATOM     76  C   UNL A   1      33.720  27.699  22.637  1.00  0.00     0.025 C 
ATOM     77  C   UNL A   1      33.634  27.073  25.088  1.00  0.00     0.012 C 
ATOM     78  C   UNL A   1      33.748  28.238  24.079  1.00  0.00    -0.005 C 
ATOM     79  C   UNL A   1      33.532  27.629  26.507  1.00  0.00     0.006 C 
ATOM     80  C   UNL A   1      32.692  29.343  24.254  1.00  0.00     0.004 C 
ATOM     81  C   UNL A   1      32.313  28.522  26.683  1.00  0.00     0.000 C 
ATOM     82  C   UNL A   1      32.262  29.668  25.682  1.00  0.00     0.000 C 
ENDBRANCH  71  73
ENDBRANCH  70  71
ENDBRANCH  67  70
ENDBRANCH  62  65
ENDBRANCH  60  61
ENDBRANCH  59  60
ENDBRANCH   1  59
TORSDOF 16
ENDMDL
MODEL 2
REMARK VINA RESULT:     -11.1      4.306      9.648
REMARK SMILES O=C(NCCCCCCNC(=O)c1cccn1CC(=O)N1CC[C@H]2CCCC[C@H]2C1)c1ccc(-c2c3nc(c(-c4ccccc4)c4ccc([nH]4)c(-c4ccccc4)c4nc(c(-c5ccccc5)c5ccc2[nH]5)C=C4)C=C3)cc1
REMARK SMILES IDX 7 1 6 2 5 3 4 4 3 5 1 6 2 7 31 9 32 10 78 11 33 12 77 13
REMARK SMILES IDX 34 14 35 15 36 16 71 17 37 18 76 19 70 20 72 21 38 22 75 23
REMARK SMILES IDX 69 24 68 25 39 27 61 28 46 29 60 30 47 31 50 32 59 33 73 34
REMARK SMILES IDX 48 35 49 36 58 38 74 39 51 40 40 41 41 42 45 43 42 44 44 45
REMARK SMILES IDX 43 46 62 47 63 48 67 49 64 50 66 51 65 52 52 53 53 54 57 55
REMARK SMILES IDX 54 56 56 57 55 58 8 59 9 60 10 61 11 62 12 64 13 65 14 66
REMARK SMILES IDX 17 67 15 68 16 69 18 70 19 71 20 72 21 73 22 74 30 75 23 76
REMARK SMILES IDX 29 77 24 78 28 79 25 80 27 81 26 82
REMARK H PARENT 3 8 72 26 50 37 10 63
REMARK Flexibility Score: inf
ROOT
ATOM      1  C   UNL A   1      34.657  29.279  27.513  1.00  0.00     0.002 C 
ENDROOT
BRANCH   1   2
ATOM      2  C   UNL A   1      34.502  30.795  27.442  1.00  0.00     0.002 C 
BRANCH   2   3
ATOM      3  C   UNL A   1      33.072  31.316  27.591  1.00  0.00     0.021 C 
BRANCH   3   4
ATOM      4  C   UNL A   1      32.750  32.598  26.816  1.00  0.00     0.116 C 
BRANCH   4   5
ATOM      5  N   UNL A   1      32.427  33.763  27.618  1.00  0.00    -0.352 N 
ATOM      6  O   UNL A   1      32.632  35.459  29.067  1.00  0.00    -0.269 OA
ATOM      7  C   UNL A   1      33.110  34.427  28.602  1.00  0.00     0.251 C 
ATOM      8  H   UNL A   1      31.545  34.152  27.414  1.00  0.00     0.163 HD
BRANCH   7   9
ATOM      9  C   UNL A   1      34.362  33.891  29.182  1.00  0.00     0.039 A 
ATOM     10  C   UNL A   1      34.385  33.071  30.310  1.00  0.00     0.014 A 
ATOM     11  C   UNL A   1      35.566  34.240  28.548  1.00  0.00     0.014 A 
ATOM     12  C   UNL A   1      35.597  32.717  30.881  1.00  0.00     0.010 A 
ATOM     13  C   UNL A   1      36.786  33.836  29.083  1.00  0.00     0.010 A 
ATOM     14  C   UNL A   1      36.796  33.091  30.265  1.00  0.00    -0.014 A 
BRANCH  14  15
ATOM     15  C   UNL A   1      38.031  32.504  30.823  1.00  0.00     0.031 A 
ATOM     16  C   UNL A   1      38.353  31.146  30.187  1.00  0.00     0.074 A 
ATOM     17  C   UNL A   1      38.599  33.158  31.876  1.00  0.00     0.049 A 
ATOM     18  N   UNL A   1      38.960  30.113  30.687  1.00  0.00    -0.248 NA
ATOM     19  C   UNL A   1      37.853  30.870  28.812  1.00  0.00     0.031 C 
ATOM     20  C   UNL A   1      38.174  34.487  32.367  1.00  0.00     0.029 A 
ATOM     21  N   UNL A   1      39.611  32.848  32.759  1.00  0.00    -0.354 N 
ATOM     22  C   UNL A   1      39.028  29.130  29.677  1.00  0.00     0.074 A 
ATOM     23  C   UNL A   1      38.261  29.623  28.573  1.00  0.00     0.031 C 
ATOM     24  C   UNL A   1      38.856  34.827  33.480  1.00  0.00     0.029 A 
ATOM     25  C   UNL A   1      39.775  33.761  33.828  1.00  0.00     0.049 A 
ATOM     26  H   UNL A   1      40.178  32.049  32.653  1.00  0.00     0.167 HD
ATOM     27  C   UNL A   1      39.778  27.995  29.769  1.00  0.00     0.031 A 
ATOM     28  C   UNL A   1      40.549  33.644  34.948  1.00  0.00     0.031 A 
ATOM     29  C   UNL A   1      40.373  27.874  31.057  1.00  0.00     0.049 A 
ATOM     30  C   UNL A   1      41.275  32.370  34.823  1.00  0.00     0.074 A 
ATOM     31  C   UNL A   1      39.894  27.485  32.279  1.00  0.00     0.029 A 
ATOM     32  N   UNL A   1      41.602  28.456  31.234  1.00  0.00    -0.354 N 
ATOM     33  N   UNL A   1      42.265  32.153  34.016  1.00  0.00    -0.248 NA
ATOM     34  C   UNL A   1      40.825  31.217  35.612  1.00  0.00     0.031 C 
ATOM     35  C   UNL A   1      40.650  28.242  33.204  1.00  0.00     0.029 A 
ATOM     36  C   UNL A   1      41.614  28.976  32.507  1.00  0.00     0.049 A 
ATOM     37  H   UNL A   1      42.334  28.495  30.576  1.00  0.00     0.167 HD
ATOM     38  C   UNL A   1      42.294  30.782  33.934  1.00  0.00     0.074 A 
ATOM     39  C   UNL A   1      41.640  30.285  35.122  1.00  0.00     0.031 C 
ATOM     40  C   UNL A   1      42.388  30.177  32.722  1.00  0.00     0.031 A 
BRANCH  27  41
ATOM     41  C   UNL A   1      40.183  27.003  28.716  1.00  0.00    -0.014 A 
ATOM     42  C   UNL A   1      41.032  27.450  27.675  1.00  0.00     0.009 A 
ATOM     43  C   UNL A   1      39.559  25.762  28.542  1.00  0.00     0.009 A 
ATOM     44  C   UNL A   1      41.184  26.734  26.485  1.00  0.00     0.001 A 
ATOM     45  C   UNL A   1      39.737  25.028  27.359  1.00  0.00     0.001 A 
ATOM     46  C   UNL A   1      40.524  25.526  26.322  1.00  0.00     0.000 A 
ENDBRANCH  27  41
BRANCH  28  47
ATOM     47  C   UNL A   1      40.736  34.394  36.243  1.00  0.00    -0.014 A 
ATOM     48  C   UNL A   1      39.720  34.786  37.118  1.00  0.00     0.009 A 
ATOM     49  C   UNL A   1      42.058  34.706  36.667  1.00  0.00     0.009 A 
ATOM     50  C   UNL A   1      40.013  35.363  38.371  1.00  0.00     0.001 A 
ATOM     51  C   UNL A   1      42.359  35.243  37.921  1.00  0.00     0.001 A 
ATOM     52  C   UNL A   1      41.329  35.561  38.786  1.00  0.00     0.000 A 
ENDBRANCH  28  47
BRANCH  40  53
ATOM     53  C   UNL A   1      42.905  31.079  31.611  1.00  0.00    -0.014 A 
ATOM     54  C   UNL A   1      44.280  31.297  31.452  1.00  0.00     0.009 A 
ATOM     55  C   UNL A   1      42.039  31.824  30.790  1.00  0.00     0.009 A 
ATOM     56  C   UNL A   1      44.764  32.230  30.525  1.00  0.00     0.001 A 
ATOM     57  C   UNL A   1      42.516  32.752  29.856  1.00  0.00     0.001 A 
ATOM     58  C   UNL A   1      43.883  32.959  29.727  1.00  0.00     0.000 A 
ENDBRANCH  40  53
ENDBRANCH  14  15
ENDBRANCH   7   9
ENDBRANCH   4   5
ENDBRANCH   3   4
ENDBRANCH   2   3
ENDBRANCH   1   2
BRANCH   1  59
ATOM     59  C   UNL A   1      33.445  28.470  27.053  1.00  0.00     0.021 C 
BRANCH  59  60
ATOM     60  C   UNL A   1      33.721  27.337  26.061  1.00  0.00     0.116 C 
BRANCH  60  61
ATOM     61  N   UNL A   1      32.724  26.291  26.176  1.00  0.00    -0.351 N 
ATOM     62  C   UNL A   1      31.495  26.163  25.575  1.00  0.00     0.267 C 
ATOM     63  H   UNL A   1      32.967  25.554  26.781  1.00  0.00     0.163 HD
ATOM     64  O   UNL A   1      30.731  25.322  26.038  1.00  0.00    -0.268 OA
BRANCH  62  65
ATOM     65  C   UNL A   1      31.142  27.002  24.444  1.00  0.00     0.107 A 
ATOM     66  C   UNL A   1      30.755  28.337  24.444  1.00  0.00     0.033 A 
ATOM     67  N   UNL A   1      31.246  26.630  23.108  1.00  0.00    -0.334 N 
ATOM     68  C   UNL A   1      30.667  28.782  23.104  1.00  0.00     0.020 A 
ATOM     69  C   UNL A   1      31.010  27.721  22.301  1.00  0.00     0.087 A 
BRANCH  67  70
ATOM     70  C   UNL A   1      31.619  25.312  22.608  1.00  0.00     0.222 C 
BRANCH  70  71
ATOM     71  C   UNL A   1      33.091  25.011  22.336  1.00  0.00     0.242 C 
ATOM     72  O   UNL A   1      33.774  25.876  21.773  1.00  0.00    -0.273 OA
BRANCH  71  73
ATOM     73  N   UNL A   1      33.707  23.925  22.937  1.00  0.00    -0.341 N 
ATOM     74  C   UNL A   1      33.137  22.605  23.120  1.00  0.00     0.120 C 
ATOM     75  C   UNL A   1      35.054  24.061  23.487  1.00  0.00     0.123 C 
ATOM     76  C   UNL A   1      32.976  22.343  24.604  1.00  0.00     0.025 C 
ATOM     77  C   UNL A   1      35.017  23.782  25.011  1.00  0.00     0.012 C 
ATOM     78  C   UNL A   1      34.312  22.452  25.359  1.00  0.00    -0.005 C 
ATOM     79  C   UNL A   1      36.397  23.821  25.664  1.00  0.00     0.006 C 
ATOM     80  C   UNL A   1      35.163  21.194  25.119  1.00  0.00     0.004 C 
ATOM     81  C   UNL A   1      37.285  22.681  25.187  1.00  0.00     0.000 C 
ATOM     82  C   UNL A   1      36.660  21.309  25.396  1.00  0.00     0.000 C 
ENDBRANCH  71  73
ENDBRANCH  70  71
ENDBRANCH  67  70
ENDBRANCH  62  65
ENDBRANCH  60  61
ENDBRANCH  59  60
ENDBRANCH   1  59
TORSDOF 16
ENDMDL
MODEL 3
REMARK VINA RESULT:     -11.0      3.113      8.599
REMARK SMILES O=C(NCCCCCCNC(=O)c1cccn1CC(=O)N1CC[C@H]2CCCC[C@H]2C1)c1ccc(-c2c3nc(c(-c4ccccc4)c4ccc([nH]4)c(-c4ccccc4)c4nc(c(-c5ccccc5)c5ccc2[nH]5)C=C4)C=C3)cc1
REMARK SMILES IDX 7 1 6 2 5 3 4 4 3 5 1 6 2 7 31 9 32 10 78 11 33 12 77 13
REMARK SMILES IDX 34 14 35 15 36 16 71 17 37 18 76 19 70 20 72 21 38 22 75 23
REMARK SMILES IDX 69 24 68 25 39 27 61 28 46 29 60 30 47 31 50 32 59 33 73 34
REMARK SMILES IDX 48 35 49 36 58 38 74 39 51 40 40 41 41 42 45 43 42 44 44 45
REMARK SMILES IDX 43 46 62 47 63 48 67 49 64 50 66 51 65 52 52 53 53 54 57 55
REMARK SMILES IDX 54 56 56 57 55 58 8 59 9 60 10 61 11 62 12 64 13 65 14 66
REMARK SMILES IDX 17 67 15 68 16 69 18 70 19 71 20 72 21 73 22 74 30 75 23 76
REMARK SMILES IDX 29 77 24 78 28 79 25 80 27 81 26 82
REMARK H PARENT 3 8 72 26 50 37 10 63
REMARK Flexibility Score: inf
ROOT
ATOM      1  C   UNL A   1      35.442  31.379  27.866  1.00  0.00     0.002 C 
ENDROOT
BRANCH   1   2
ATOM      2  C   UNL A   1      35.372  32.898  27.994  1.00  0.00     0.002 C 
BRANCH   2   3
ATOM      3  C   UNL A   1      34.595  33.421  29.203  1.00  0.00     0.021 C 
BRANCH   3   4
ATOM      4  C   UNL A   1      34.797  32.642  30.506  1.00  0.00     0.116 C 
BRANCH   4   5
ATOM      5  N   UNL A   1      35.423  33.371  31.593  1.00  0.00    -0.352 N 
ATOM      6  O   UNL A   1      36.993  34.197  32.961  1.00  0.00    -0.269 OA
ATOM      7  C   UNL A   1      36.710  33.411  32.060  1.00  0.00     0.251 C 
ATOM      8  H   UNL A   1      34.801  33.949  32.092  1.00  0.00     0.163 HD
BRANCH   7   9
ATOM      9  C   UNL A   1      37.749  32.478  31.570  1.00  0.00     0.039 A 
ATOM     10  C   UNL A   1      38.258  32.523  30.272  1.00  0.00     0.014 A 
ATOM     11  C   UNL A   1      38.225  31.513  32.473  1.00  0.00     0.014 A 
ATOM     12  C   UNL A   1      39.126  31.536  29.835  1.00  0.00     0.010 A 
ATOM     13  C   UNL A   1      39.145  30.554  32.058  1.00  0.00     0.010 A 
ATOM     14  C   UNL A   1      39.577  30.558  30.729  1.00  0.00    -0.014 A 
BRANCH  14  15
ATOM     15  C   UNL A   1      40.652  29.670  30.240  1.00  0.00     0.031 A 
ATOM     16  C   UNL A   1      41.999  30.399  30.158  1.00  0.00     0.074 A 
ATOM     17  C   UNL A   1      40.277  28.429  29.818  1.00  0.00     0.049 A 
ATOM     18  N   UNL A   1      43.001  30.213  29.355  1.00  0.00    -0.248 NA
ATOM     19  C   UNL A   1      42.231  31.564  31.056  1.00  0.00     0.031 C 
ATOM     20  C   UNL A   1      38.922  27.859  29.984  1.00  0.00     0.029 A 
ATOM     21  N   UNL A   1      40.925  27.412  29.149  1.00  0.00    -0.354 N 
ATOM     22  C   UNL A   1      44.012  31.128  29.717  1.00  0.00     0.074 A 
ATOM     23  C   UNL A   1      43.451  31.984  30.717  1.00  0.00     0.031 C 
ATOM     24  C   UNL A   1      38.830  26.657  29.377  1.00  0.00     0.029 A 
ATOM     25  C   UNL A   1      40.098  26.333  28.753  1.00  0.00     0.049 A 
ATOM     26  H   UNL A   1      41.891  27.436  28.960  1.00  0.00     0.167 HD
ATOM     27  C   UNL A   1      45.287  31.084  29.234  1.00  0.00     0.031 A 
ATOM     28  C   UNL A   1      40.391  25.282  27.930  1.00  0.00     0.031 A 
ATOM     29  C   UNL A   1      45.423  30.084  28.230  1.00  0.00     0.049 A 
ATOM     30  C   UNL A   1      41.806  25.429  27.553  1.00  0.00     0.074 A 
ATOM     31  C   UNL A   1      45.073  30.028  26.908  1.00  0.00     0.029 A 
ATOM     32  N   UNL A   1      45.756  28.821  28.649  1.00  0.00    -0.354 N 
ATOM     33  N   UNL A   1      42.814  25.203  28.337  1.00  0.00    -0.248 NA
ATOM     34  C   UNL A   1      42.136  25.930  26.214  1.00  0.00     0.031 C 
ATOM     35  C   UNL A   1      44.780  28.662  26.685  1.00  0.00     0.029 A 
ATOM     36  C   UNL A   1      45.060  27.944  27.851  1.00  0.00     0.049 A 
ATOM     37  H   UNL A   1      46.374  28.588  29.380  1.00  0.00     0.167 HD
ATOM     38  C   UNL A   1      43.836  25.883  27.721  1.00  0.00     0.074 A 
ATOM     39  C   UNL A   1      43.457  26.023  26.333  1.00  0.00     0.031 C 
ATOM     40  C   UNL A   1      44.644  26.695  28.448  1.00  0.00     0.031 A 
BRANCH  27  41
ATOM     41  C   UNL A   1      46.533  31.779  29.704  1.00  0.00    -0.014 A 
ATOM     42  C   UNL A   1      47.195  32.640  28.796  1.00  0.00     0.009 A 
ATOM     43  C   UNL A   1      47.228  31.419  30.865  1.00  0.00     0.009 A 
ATOM     44  C   UNL A   1      48.515  33.052  28.995  1.00  0.00     0.001 A 
ATOM     45  C   UNL A   1      48.544  31.859  31.080  1.00  0.00     0.001 A 
ATOM     46  C   UNL A   1      49.195  32.649  30.134  1.00  0.00     0.000 A 
ENDBRANCH  27  41
BRANCH  28  47
ATOM     47  C   UNL A   1      39.638  24.155  27.268  1.00  0.00    -0.014 A 
ATOM     48  C   UNL A   1      38.432  24.272  26.573  1.00  0.00     0.009 A 
ATOM     49  C   UNL A   1      40.201  22.849  27.295  1.00  0.00     0.009 A 
ATOM     50  C   UNL A   1      37.880  23.179  25.874  1.00  0.00     0.001 A 
ATOM     51  C   UNL A   1      39.681  21.770  26.576  1.00  0.00     0.001 A 
ATOM     52  C   UNL A   1      38.519  21.940  25.848  1.00  0.00     0.000 A 
ENDBRANCH  28  47
BRANCH  40  53
ATOM     53  C   UNL A   1      44.623  26.421  29.945  1.00  0.00    -0.014 A 
ATOM     54  C   UNL A   1      45.193  25.251  30.463  1.00  0.00     0.009 A 
ATOM     55  C   UNL A   1      43.929  27.251  30.845  1.00  0.00     0.009 A 
ATOM     56  C   UNL A   1      45.060  24.919  31.819  1.00  0.00     0.001 A 
ATOM     57  C   UNL A   1      43.800  26.929  32.202  1.00  0.00     0.001 A 
ATOM     58  C   UNL A   1      44.363  25.757  32.689  1.00  0.00     0.000 A 
ENDBRANCH  40  53
ENDBRANCH  14  15
ENDBRANCH   7   9
ENDBRANCH   4   5
ENDBRANCH   3   4
ENDBRANCH   2   3
ENDBRANCH   1   2
BRANCH   1  59
ATOM     59  C   UNL A   1      34.202  30.710  27.273  1.00  0.00     0.021 C 
BRANCH  59  60
ATOM     60  C   UNL A   1      34.230  29.182  27.188  1.00  0.00     0.116 C 
BRANCH  60  61
ATOM     61  N   UNL A   1      33.087  28.603  27.866  1.00  0.00    -0.351 N 
ATOM     62  C   UNL A   1      31.946  28.031  27.357  1.00  0.00     0.267 C 
ATOM     63  H   UNL A   1      33.137  28.622  28.849  1.00  0.00     0.163 HD
ATOM     64  O   UNL A   1      31.013  27.857  28.135  1.00  0.00    -0.268 OA
BRANCH  62  65
ATOM     65  C   UNL A   1      31.875  27.663  25.955  1.00  0.00     0.107 A 
ATOM     66  C   UNL A   1      31.381  28.404  24.888  1.00  0.00     0.033 A 
ATOM     67  N   UNL A   1      32.415  26.505  25.403  1.00  0.00    -0.334 N 
ATOM     68  C   UNL A   1      31.663  27.712  23.688  1.00  0.00     0.020 A 
ATOM     69  C   UNL A   1      32.333  26.562  24.030  1.00  0.00     0.087 A 
BRANCH  67  70
ATOM     70  C   UNL A   1      33.046  25.415  26.138  1.00  0.00     0.222 C 
BRANCH  70  71
ATOM     71  C   UNL A   1      32.187  24.247  26.614  1.00  0.00     0.242 C 
ATOM     72  O   UNL A   1      31.074  24.493  27.096  1.00  0.00    -0.273 OA
BRANCH  71  73
ATOM     73  N   UNL A   1      32.521  22.946  26.272  1.00  0.00    -0.341 N 
ATOM     74  C   UNL A   1      33.431  22.075  26.990  1.00  0.00     0.120 C 
ATOM     75  C   UNL A   1      31.959  22.340  25.067  1.00  0.00     0.123 C 
ATOM     76  C   UNL A   1      34.629  21.787  26.108  1.00  0.00     0.025 C 
ATOM     77  C   UNL A   1      33.109  21.972  24.094  1.00  0.00     0.012 C 
ATOM     78  C   UNL A   1      34.223  21.143  24.771  1.00  0.00    -0.005 C 
ATOM     79  C   UNL A   1      32.625  21.255  22.835  1.00  0.00     0.006 C 
ATOM     80  C   UNL A   1      33.881  19.658  24.978  1.00  0.00     0.004 C 
ATOM     81  C   UNL A   1      32.061  19.876  23.145  1.00  0.00     0.000 C 
ATOM     82  C   UNL A   1      33.040  18.984  23.895  1.00  0.00     0.000 C 
ENDBRANCH  71  73
ENDBRANCH  70  71
ENDBRANCH  67  70
ENDBRANCH  62  65
ENDBRANCH  60  61
ENDBRANCH  59  60
ENDBRANCH   1  59
TORSDOF 16
ENDMDL
