MODEL 1
REMARK VINA RESULT:     -11.2      0.000      0.000
REMARK SMILES O=C(C[C@@H](c1cccc([N+](=O)[O-])c1)N1Cc2ccccc2C1=O)NCCCCCCNC(=O)c1ccc(-c2c3nc(c(-c4ccccc4)c4ccc([nH]4)c(-c4ccccc4)c4nc(c(-c5ccccc5)c5ccc2[nH]5)C=C4)C=C3)cc1
REMARK SMILES IDX 27 1 26 2 25 3 24 4 1 5 2 6 3 8 4 9 5 10 6 11 13 12 7 13
REMARK SMILES IDX 9 14 8 15 10 16 11 17 12 18 14 19 15 20 22 21 16 22 21 23
REMARK SMILES IDX 23 24 17 25 20 26 18 27 19 28 28 29 29 30 30 31 31 32 32 33
REMARK SMILES IDX 33 35 34 36 35 37 81 38 36 39 80 40 37 41 38 42 39 43 74 44
REMARK SMILES IDX 40 45 79 46 73 47 75 48 41 49 78 50 72 51 71 52 42 54 64 55
REMARK SMILES IDX 49 56 63 57 50 58 53 59 62 60 76 61 51 62 52 63 61 65 77 66
REMARK SMILES IDX 54 67 43 68 44 69 48 70 45 71 47 72 46 73 65 74 66 75 70 76
REMARK SMILES IDX 67 77 69 78 68 79 55 80 56 81 60 82 57 83 59 84 58 85
REMARK H PARENT 24 7 31 34 75 53 53 64
REMARK Flexibility Score: inf
ROOT
ATOM      1  C   UNL A   1      36.469  22.038  25.402  1.00  0.00     0.002 C 
ENDROOT
BRANCH   1   2
ATOM      2  C   UNL A   1      35.237  21.568  26.196  1.00  0.00     0.021 C 
BRANCH   2   3
ATOM      3  C   UNL A   1      34.199  20.758  25.406  1.00  0.00     0.116 C 
BRANCH   3   4
ATOM      4  N   UNL A   1      32.970  21.508  25.261  1.00  0.00    -0.356 N 
ATOM      5  O   UNL A   1      32.786  21.472  22.981  1.00  0.00    -0.275 OA
ATOM      6  C   UNL A   1      32.404  21.887  24.070  1.00  0.00     0.222 C 
ATOM      7  H   UNL A   1      32.502  21.769  26.087  1.00  0.00     0.163 HD
BRANCH   6   8
ATOM      8  C   UNL A   1      31.395  23.018  24.190  1.00  0.00     0.130 C 
BRANCH   8   9
ATOM      9  C   UNL A   1      31.921  24.465  24.221  1.00  0.00     0.125 C 
BRANCH   9  10
ATOM     10  C   UNL A   1      30.923  25.553  23.763  1.00  0.00    -0.018 A 
ATOM     11  C   UNL A   1      29.570  25.532  24.150  1.00  0.00     0.006 A 
ATOM     12  C   UNL A   1      31.415  26.710  23.126  1.00  0.00     0.091 A 
ATOM     13  C   UNL A   1      28.731  26.622  23.905  1.00  0.00     0.007 A 
ATOM     14  C   UNL A   1      30.577  27.815  22.918  1.00  0.00     0.269 A 
ATOM     15  C   UNL A   1      29.231  27.768  23.292  1.00  0.00     0.085 A 
BRANCH  14  16
ATOM     16  N   UNL A   1      31.128  29.060  22.365  1.00  0.00     0.062 N 
ATOM     17  O   UNL A   1      32.352  29.235  22.458  1.00  0.00    -0.258 OA
ATOM     18  O   UNL A   1      30.342  29.861  21.842  1.00  0.00    -0.258 OA
ENDBRANCH  14  16
ENDBRANCH   9  10
BRANCH   9  19
ATOM     19  N   UNL A   1      32.414  24.860  25.574  1.00  0.00    -0.327 N 
ATOM     20  C   UNL A   1      31.539  25.461  26.578  1.00  0.00     0.157 C 
ATOM     21  C   UNL A   1      33.659  25.526  25.609  1.00  0.00     0.255 C 
ATOM     22  C   UNL A   1      32.067  26.849  26.660  1.00  0.00    -0.016 A 
ATOM     23  C   UNL A   1      33.371  26.867  26.163  1.00  0.00     0.045 A 
ATOM     24  O   UNL A   1      34.693  25.211  25.056  1.00  0.00    -0.269 OA
ATOM     25  C   UNL A   1      31.398  28.022  26.963  1.00  0.00     0.006 A 
ATOM     26  C   UNL A   1      34.035  28.050  25.896  1.00  0.00     0.014 A 
ATOM     27  C   UNL A   1      32.052  29.228  26.696  1.00  0.00     0.000 A 
ATOM     28  C   UNL A   1      33.356  29.242  26.165  1.00  0.00     0.001 A 
ENDBRANCH   9  19
ENDBRANCH   8   9
ENDBRANCH   6   8
ENDBRANCH   3   4
ENDBRANCH   2   3
ENDBRANCH   1   2
BRANCH   1  29
ATOM     29  C   UNL A   1      36.994  21.069  24.337  1.00  0.00     0.002 C 
BRANCH  29  30
ATOM     30  C   UNL A   1      37.789  19.880  24.871  1.00  0.00     0.021 C 
BRANCH  30  31
ATOM     31  C   UNL A   1      38.905  20.243  25.843  1.00  0.00     0.116 C 
BRANCH  31  32
ATOM     32  N   UNL A   1      40.040  19.335  25.776  1.00  0.00    -0.352 N 
ATOM     33  C   UNL A   1      41.363  19.587  26.052  1.00  0.00     0.251 C 
ATOM     34  H   UNL A   1      39.832  18.416  25.492  1.00  0.00     0.163 HD
ATOM     35  O   UNL A   1      42.213  18.729  25.838  1.00  0.00    -0.269 OA
BRANCH  33  36
ATOM     36  C   UNL A   1      41.766  20.910  26.579  1.00  0.00     0.039 A 
ATOM     37  C   UNL A   1      42.207  21.887  25.683  1.00  0.00     0.014 A 
ATOM     38  C   UNL A   1      41.704  21.188  27.948  1.00  0.00     0.014 A 
ATOM     39  C   UNL A   1      42.523  23.166  26.151  1.00  0.00     0.010 A 
ATOM     40  C   UNL A   1      41.962  22.478  28.404  1.00  0.00     0.010 A 
ATOM     41  C   UNL A   1      42.373  23.478  27.511  1.00  0.00    -0.014 A 
BRANCH  41  42
ATOM     42  C   UNL A   1      42.656  24.840  28.030  1.00  0.00     0.031 A 
ATOM     43  C   UNL A   1      44.049  25.201  28.466  1.00  0.00     0.074 A 
ATOM     44  C   UNL A   1      41.653  25.725  28.179  1.00  0.00     0.049 A 
ATOM     45  N   UNL A   1      44.474  26.289  29.055  1.00  0.00    -0.248 NA
ATOM     46  C   UNL A   1      45.096  24.193  28.232  1.00  0.00     0.031 C 
ATOM     47  C   UNL A   1      40.250  25.492  27.830  1.00  0.00     0.029 A 
ATOM     48  N   UNL A   1      41.662  27.003  28.682  1.00  0.00    -0.354 N 
ATOM     49  C   UNL A   1      45.828  26.088  29.287  1.00  0.00     0.074 A 
ATOM     50  C   UNL A   1      46.148  24.761  28.804  1.00  0.00     0.031 C 
ATOM     51  C   UNL A   1      39.537  26.594  28.114  1.00  0.00     0.029 A 
ATOM     52  C   UNL A   1      40.424  27.598  28.693  1.00  0.00     0.049 A 
ATOM     53  H   UNL A   1      42.478  27.450  29.002  1.00  0.00     0.167 HD
ATOM     54  C   UNL A   1      46.729  26.933  29.838  1.00  0.00     0.031 A 
ATOM     55  C   UNL A   1      40.046  28.815  29.128  1.00  0.00     0.031 A 
ATOM     56  C   UNL A   1      46.425  28.261  30.297  1.00  0.00     0.049 A 
ATOM     57  C   UNL A   1      41.074  29.749  29.699  1.00  0.00     0.074 A 
ATOM     58  C   UNL A   1      47.277  29.199  30.855  1.00  0.00     0.029 A 
ATOM     59  N   UNL A   1      45.172  28.846  30.233  1.00  0.00    -0.354 N 
ATOM     60  N   UNL A   1      42.354  29.549  29.893  1.00  0.00    -0.248 NA
ATOM     61  C   UNL A   1      40.605  31.084  30.098  1.00  0.00     0.031 C 
ATOM     62  C   UNL A   1      46.534  30.350  31.140  1.00  0.00     0.029 A 
ATOM     63  C   UNL A   1      45.228  30.135  30.731  1.00  0.00     0.049 A 
ATOM     64  H   UNL A   1      44.361  28.408  29.885  1.00  0.00     0.167 HD
ATOM     65  C   UNL A   1      42.849  30.739  30.409  1.00  0.00     0.074 A 
ATOM     66  C   UNL A   1      41.734  31.660  30.488  1.00  0.00     0.031 C 
ATOM     67  C   UNL A   1      44.114  31.042  30.784  1.00  0.00     0.031 A 
BRANCH  54  68
ATOM     68  C   UNL A   1      48.141  26.439  29.970  1.00  0.00    -0.014 A 
ATOM     69  C   UNL A   1      49.066  26.621  28.931  1.00  0.00     0.009 A 
ATOM     70  C   UNL A   1      48.557  25.812  31.153  1.00  0.00     0.009 A 
ATOM     71  C   UNL A   1      50.376  26.155  29.063  1.00  0.00     0.001 A 
ATOM     72  C   UNL A   1      49.874  25.367  31.291  1.00  0.00     0.001 A 
ATOM     73  C   UNL A   1      50.779  25.532  30.244  1.00  0.00     0.000 A 
ENDBRANCH  54  68
BRANCH  55  74
ATOM     74  C   UNL A   1      38.627  29.236  29.022  1.00  0.00    -0.014 A 
ATOM     75  C   UNL A   1      37.771  29.128  30.129  1.00  0.00     0.009 A 
ATOM     76  C   UNL A   1      38.118  29.730  27.811  1.00  0.00     0.009 A 
ATOM     77  C   UNL A   1      36.424  29.477  30.017  1.00  0.00     0.001 A 
ATOM     78  C   UNL A   1      36.774  30.099  27.709  1.00  0.00     0.001 A 
ATOM     79  C   UNL A   1      35.928  29.965  28.809  1.00  0.00     0.000 A 
ENDBRANCH  55  74
BRANCH  67  80
ATOM     80  C   UNL A   1      44.369  32.440  31.265  1.00  0.00    -0.014 A 
ATOM     81  C   UNL A   1      44.259  32.771  32.624  1.00  0.00     0.009 A 
ATOM     82  C   UNL A   1      44.759  33.427  30.348  1.00  0.00     0.009 A 
ATOM     83  C   UNL A   1      44.510  34.077  33.051  1.00  0.00     0.001 A 
ATOM     84  C   UNL A   1      45.026  34.726  30.780  1.00  0.00     0.001 A 
ATOM     85  C   UNL A   1      44.895  35.051  32.129  1.00  0.00     0.000 A 
ENDBRANCH  67  80
ENDBRANCH  41  42
ENDBRANCH  33  36
ENDBRANCH  31  32
ENDBRANCH  30  31
ENDBRANCH  29  30
ENDBRANCH   1  29
TORSDOF 17
ENDMDL
MODEL 2
REMARK VINA RESULT:     -11.2      0.590      5.721
REMARK SMILES O=C(C[C@@H](c1cccc([N+](=O)[O-])c1)N1Cc2ccccc2C1=O)NCCCCCCNC(=O)c1ccc(-c2c3nc(c(-c4ccccc4)c4ccc([nH]4)c(-c4ccccc4)c4nc(c(-c5ccccc5)c5ccc2[nH]5)C=C4)C=C3)cc1
REMARK SMILES IDX 27 1 26 2 25 3 24 4 1 5 2 6 3 8 4 9 5 10 6 11 13 12 7 13
REMARK SMILES IDX 9 14 8 15 10 16 11 17 12 18 14 19 15 20 22 21 16 22 21 23
REMARK SMILES IDX 23 24 17 25 20 26 18 27 19 28 28 29 29 30 30 31 31 32 32 33
REMARK SMILES IDX 33 35 34 36 35 37 81 38 36 39 80 40 37 41 38 42 39 43 74 44
REMARK SMILES IDX 40 45 79 46 73 47 75 48 41 49 78 50 72 51 71 52 42 54 64 55
REMARK SMILES IDX 49 56 63 57 50 58 53 59 62 60 76 61 51 62 52 63 61 65 77 66
REMARK SMILES IDX 54 67 43 68 44 69 48 70 45 71 47 72 46 73 65 74 66 75 70 76
REMARK SMILES IDX 67 77 69 78 68 79 55 80 56 81 60 82 57 83 59 84 58 85
REMARK H PARENT 24 7 31 34 75 53 53 64
REMARK Flexibility Score: inf
ROOT
ATOM      1  C   UNL A   1      35.595  21.509  24.765  1.00  0.00     0.002 C 
ENDROOT
BRANCH   1   2
ATOM      2  C   UNL A   1      34.964  20.108  24.870  1.00  0.00     0.021 C 
BRANCH   2   3
ATOM      3  C   UNL A   1      33.470  20.018  24.524  1.00  0.00     0.116 C 
BRANCH   3   4
ATOM      4  N   UNL A   1      32.969  21.304  24.089  1.00  0.00    -0.356 N 
ATOM      5  O   UNL A   1      31.399  21.654  25.715  1.00  0.00    -0.275 OA
ATOM      6  C   UNL A   1      31.920  21.983  24.655  1.00  0.00     0.222 C 
ATOM      7  H   UNL A   1      33.420  21.727  23.323  1.00  0.00     0.163 HD
BRANCH   6   8
ATOM      8  C   UNL A   1      31.318  23.057  23.763  1.00  0.00     0.130 C 
BRANCH   8   9
ATOM      9  C   UNL A   1      31.845  24.498  23.897  1.00  0.00     0.125 C 
BRANCH   9  10
ATOM     10  C   UNL A   1      30.836  25.617  23.553  1.00  0.00    -0.018 A 
ATOM     11  C   UNL A   1      29.502  25.580  24.001  1.00  0.00     0.006 A 
ATOM     12  C   UNL A   1      31.308  26.808  22.965  1.00  0.00     0.091 A 
ATOM     13  C   UNL A   1      28.662  26.688  23.862  1.00  0.00     0.007 A 
ATOM     14  C   UNL A   1      30.471  27.929  22.864  1.00  0.00     0.269 A 
ATOM     15  C   UNL A   1      29.142  27.867  23.298  1.00  0.00     0.085 A 
BRANCH  14  16
ATOM     16  N   UNL A   1      31.006  29.202  22.362  1.00  0.00     0.062 N 
ATOM     17  O   UNL A   1      32.236  29.352  22.381  1.00  0.00    -0.258 OA
ATOM     18  O   UNL A   1      30.201  30.049  21.952  1.00  0.00    -0.258 OA
ENDBRANCH  14  16
ENDBRANCH   9  10
BRANCH   9  19
ATOM     19  N   UNL A   1      32.372  24.783  25.264  1.00  0.00    -0.327 N 
ATOM     20  C   UNL A   1      31.521  25.292  26.337  1.00  0.00     0.157 C 
ATOM     21  C   UNL A   1      33.614  25.454  25.321  1.00  0.00     0.255 C 
ATOM     22  C   UNL A   1      32.043  26.672  26.520  1.00  0.00    -0.016 A 
ATOM     23  C   UNL A   1      33.332  26.743  25.992  1.00  0.00     0.045 A 
ATOM     24  O   UNL A   1      34.634  25.195  24.717  1.00  0.00    -0.269 OA
ATOM     25  C   UNL A   1      31.376  27.811  26.937  1.00  0.00     0.006 A 
ATOM     26  C   UNL A   1      33.982  27.948  25.807  1.00  0.00     0.014 A 
ATOM     27  C   UNL A   1      32.015  29.041  26.754  1.00  0.00     0.000 A 
ATOM     28  C   UNL A   1      33.303  29.109  26.191  1.00  0.00     0.001 A 
ENDBRANCH   9  19
ENDBRANCH   8   9
ENDBRANCH   6   8
ENDBRANCH   3   4
ENDBRANCH   2   3
ENDBRANCH   1   2
BRANCH   1  29
ATOM     29  C   UNL A   1      37.108  21.549  24.528  1.00  0.00     0.002 C 
BRANCH  29  30
ATOM     30  C   UNL A   1      37.862  20.277  24.907  1.00  0.00     0.021 C 
BRANCH  30  31
ATOM     31  C   UNL A   1      38.967  20.472  25.938  1.00  0.00     0.116 C 
BRANCH  31  32
ATOM     32  N   UNL A   1      40.066  19.531  25.785  1.00  0.00    -0.352 N 
ATOM     33  C   UNL A   1      41.406  19.725  26.024  1.00  0.00     0.251 C 
ATOM     34  H   UNL A   1      39.816  18.634  25.466  1.00  0.00     0.163 HD
ATOM     35  O   UNL A   1      42.218  18.850  25.737  1.00  0.00    -0.269 OA
BRANCH  33  36
ATOM     36  C   UNL A   1      41.874  21.005  26.599  1.00  0.00     0.039 A 
ATOM     37  C   UNL A   1      42.273  22.028  25.734  1.00  0.00     0.014 A 
ATOM     38  C   UNL A   1      41.913  21.201  27.983  1.00  0.00     0.014 A 
ATOM     39  C   UNL A   1      42.649  23.269  26.254  1.00  0.00     0.010 A 
ATOM     40  C   UNL A   1      42.230  22.455  28.496  1.00  0.00     0.010 A 
ATOM     41  C   UNL A   1      42.601  23.501  27.637  1.00  0.00    -0.014 A 
BRANCH  41  42
ATOM     42  C   UNL A   1      42.949  24.823  28.215  1.00  0.00     0.031 A 
ATOM     43  C   UNL A   1      41.875  25.854  28.426  1.00  0.00     0.074 A 
ATOM     44  C   UNL A   1      44.233  25.125  28.482  1.00  0.00     0.049 A 
ATOM     45  N   UNL A   1      41.990  27.102  28.803  1.00  0.00    -0.248 NA
ATOM     46  C   UNL A   1      40.491  25.433  28.150  1.00  0.00     0.031 C 
ATOM     47  C   UNL A   1      45.377  24.230  28.291  1.00  0.00     0.029 A 
ATOM     48  N   UNL A   1      44.794  26.283  28.960  1.00  0.00    -0.354 N 
ATOM     49  C   UNL A   1      40.703  27.622  28.783  1.00  0.00     0.074 A 
ATOM     50  C   UNL A   1      39.825  26.565  28.327  1.00  0.00     0.031 C 
ATOM     51  C   UNL A   1      46.500  24.867  28.662  1.00  0.00     0.029 A 
ATOM     52  C   UNL A   1      46.160  26.221  29.086  1.00  0.00     0.049 A 
ATOM     53  H   UNL A   1      44.267  27.082  29.191  1.00  0.00     0.167 HD
ATOM     54  C   UNL A   1      40.283  28.862  29.126  1.00  0.00     0.031 A 
ATOM     55  C   UNL A   1      47.041  27.155  29.492  1.00  0.00     0.031 A 
ATOM     56  C   UNL A   1      41.144  29.909  29.604  1.00  0.00     0.049 A 
ATOM     57  C   UNL A   1      46.544  28.510  29.906  1.00  0.00     0.074 A 
ATOM     58  C   UNL A   1      40.808  31.194  29.993  1.00  0.00     0.029 A 
ATOM     59  N   UNL A   1      42.512  29.784  29.775  1.00  0.00    -0.354 N 
ATOM     60  N   UNL A   1      45.321  28.979  29.900  1.00  0.00    -0.248 NA
ATOM     61  C   UNL A   1      47.552  29.462  30.398  1.00  0.00     0.031 C 
ATOM     62  C   UNL A   1      41.978  31.852  30.389  1.00  0.00     0.029 A 
ATOM     63  C   UNL A   1      43.034  30.964  30.274  1.00  0.00     0.049 A 
ATOM     64  H   UNL A   1      43.036  28.974  29.572  1.00  0.00     0.167 HD
ATOM     65  C   UNL A   1      45.407  30.267  30.411  1.00  0.00     0.074 A 
ATOM     66  C   UNL A   1      46.800  30.503  30.728  1.00  0.00     0.031 C 
ATOM     67  C   UNL A   1      44.419  31.173  30.601  1.00  0.00     0.031 A 
BRANCH  54  68
ATOM     68  C   UNL A   1      38.816  29.148  28.999  1.00  0.00    -0.014 A 
ATOM     69  C   UNL A   1      37.959  29.023  30.104  1.00  0.00     0.009 A 
ATOM     70  C   UNL A   1      38.288  29.575  27.771  1.00  0.00     0.009 A 
ATOM     71  C   UNL A   1      36.595  29.289  29.973  1.00  0.00     0.001 A 
ATOM     72  C   UNL A   1      36.927  29.862  27.650  1.00  0.00     0.001 A 
ATOM     73  C   UNL A   1      36.081  29.712  28.748  1.00  0.00     0.000 A 
ENDBRANCH  54  68
BRANCH  55  74
ATOM     74  C   UNL A   1      48.490  26.837  29.552  1.00  0.00    -0.014 A 
ATOM     75  C   UNL A   1      49.044  26.272  30.711  1.00  0.00     0.009 A 
ATOM     76  C   UNL A   1      49.326  27.114  28.460  1.00  0.00     0.009 A 
ATOM     77  C   UNL A   1      50.415  26.018  30.787  1.00  0.00     0.001 A 
ATOM     78  C   UNL A   1      50.694  26.838  28.532  1.00  0.00     0.001 A 
ATOM     79  C   UNL A   1      51.238  26.299  29.697  1.00  0.00     0.000 A 
ENDBRANCH  55  74
BRANCH  67  80
ATOM     80  C   UNL A   1      44.803  32.482  31.225  1.00  0.00    -0.014 A 
ATOM     81  C   UNL A   1      45.095  33.605  30.435  1.00  0.00     0.009 A 
ATOM     82  C   UNL A   1      44.836  32.600  32.622  1.00  0.00     0.009 A 
ATOM     83  C   UNL A   1      45.440  34.816  31.037  1.00  0.00     0.001 A 
ATOM     84  C   UNL A   1      45.164  33.817  33.220  1.00  0.00     0.001 A 
ATOM     85  C   UNL A   1      45.473  34.921  32.428  1.00  0.00     0.000 A 
ENDBRANCH  67  80
ENDBRANCH  41  42
ENDBRANCH  33  36
ENDBRANCH  31  32
ENDBRANCH  30  31
ENDBRANCH  29  30
ENDBRANCH   1  29
TORSDOF 17
ENDMDL
MODEL 3
REMARK VINA RESULT:     -11.2      2.984      5.108
REMARK SMILES O=C(C[C@@H](c1cccc([N+](=O)[O-])c1)N1Cc2ccccc2C1=O)NCCCCCCNC(=O)c1ccc(-c2c3nc(c(-c4ccccc4)c4ccc([nH]4)c(-c4ccccc4)c4nc(c(-c5ccccc5)c5ccc2[nH]5)C=C4)C=C3)cc1
REMARK SMILES IDX 27 1 26 2 25 3 24 4 1 5 2 6 3 8 4 9 5 10 6 11 13 12 7 13
REMARK SMILES IDX 9 14 8 15 10 16 11 17 12 18 14 19 15 20 22 21 16 22 21 23
REMARK SMILES IDX 23 24 17 25 20 26 18 27 19 28 28 29 29 30 30 31 31 32 32 33
REMARK SMILES IDX 33 35 34 36 35 37 81 38 36 39 80 40 37 41 38 42 39 43 74 44
REMARK SMILES IDX 40 45 79 46 73 47 75 48 41 49 78 50 72 51 71 52 42 54 64 55
REMARK SMILES IDX 49 56 63 57 50 58 53 59 62 60 76 61 51 62 52 63 61 65 77 66
REMARK SMILES IDX 54 67 43 68 44 69 48 70 45 71 47 72 46 73 65 74 66 75 70 76
REMARK SMILES IDX 67 77 69 78 68 79 55 80 56 81 60 82 57 83 59 84 58 85
REMARK H PARENT 24 7 31 34 75 53 53 64
REMARK Flexibility Score: inf
ROOT
ATOM      1  C   UNL A   1      42.186  21.386  26.972  1.00  0.00     0.002 C 
ENDROOT
BRANCH   1   2
ATOM      2  C   UNL A   1      41.139  22.190  26.181  1.00  0.00     0.021 C 
BRANCH   2   3
ATOM      3  C   UNL A   1      39.795  22.421  26.889  1.00  0.00     0.116 C 
BRANCH   3   4
ATOM      4  N   UNL A   1      38.739  21.684  26.230  1.00  0.00    -0.356 N 
ATOM      5  O   UNL A   1      37.774  23.395  25.058  1.00  0.00    -0.275 OA
ATOM      6  C   UNL A   1      37.758  22.230  25.440  1.00  0.00     0.222 C 
ATOM      7  H   UNL A   1      38.723  20.708  26.358  1.00  0.00     0.163 HD
BRANCH   6   8
ATOM      8  C   UNL A   1      36.544  21.336  25.244  1.00  0.00     0.130 C 
BRANCH   8   9
ATOM      9  C   UNL A   1      35.176  22.003  25.008  1.00  0.00     0.125 C 
BRANCH   9  10
ATOM     10  C   UNL A   1      34.048  21.068  24.518  1.00  0.00    -0.018 A 
ATOM     11  C   UNL A   1      33.013  21.526  23.681  1.00  0.00     0.006 A 
ATOM     12  C   UNL A   1      34.168  19.680  24.729  1.00  0.00     0.091 A 
ATOM     13  C   UNL A   1      32.122  20.634  23.079  1.00  0.00     0.007 A 
ATOM     14  C   UNL A   1      33.294  18.788  24.091  1.00  0.00     0.269 A 
ATOM     15  C   UNL A   1      32.260  19.263  23.278  1.00  0.00     0.085 A 
BRANCH  14  16
ATOM     16  N   UNL A   1      33.501  17.339  24.219  1.00  0.00     0.062 N 
ATOM     17  O   UNL A   1      33.545  16.866  25.365  1.00  0.00    -0.258 OA
ATOM     18  O   UNL A   1      33.621  16.675  23.181  1.00  0.00    -0.258 OA
ENDBRANCH  14  16
ENDBRANCH   9  10
BRANCH   9  19
ATOM     19  N   UNL A   1      34.671  22.704  26.226  1.00  0.00    -0.327 N 
ATOM     20  C   UNL A   1      33.686  22.100  27.121  1.00  0.00     0.157 C 
ATOM     21  C   UNL A   1      34.351  24.071  26.065  1.00  0.00     0.255 C 
ATOM     22  C   UNL A   1      32.490  22.953  26.888  1.00  0.00    -0.016 A 
ATOM     23  C   UNL A   1      32.900  24.168  26.340  1.00  0.00     0.045 A 
ATOM     24  O   UNL A   1      35.018  24.940  25.544  1.00  0.00    -0.269 OA
ATOM     25  C   UNL A   1      31.150  22.619  26.969  1.00  0.00     0.006 A 
ATOM     26  C   UNL A   1      32.000  25.070  25.803  1.00  0.00     0.014 A 
ATOM     27  C   UNL A   1      30.224  23.515  26.428  1.00  0.00     0.000 A 
ATOM     28  C   UNL A   1      30.645  24.727  25.847  1.00  0.00     0.001 A 
ENDBRANCH   9  19
ENDBRANCH   8   9
ENDBRANCH   6   8
ENDBRANCH   3   4
ENDBRANCH   2   3
ENDBRANCH   1   2
BRANCH   1  29
ATOM     29  C   UNL A   1      41.873  19.901  27.185  1.00  0.00     0.002 C 
BRANCH  29  30
ATOM     30  C   UNL A   1      42.345  18.968  26.072  1.00  0.00     0.021 C 
BRANCH  30  31
ATOM     31  C   UNL A   1      43.838  18.664  26.083  1.00  0.00     0.116 C 
BRANCH  31  32
ATOM     32  N   UNL A   1      44.419  18.596  24.751  1.00  0.00    -0.352 N 
ATOM     33  C   UNL A   1      44.886  19.619  23.961  1.00  0.00     0.251 C 
ATOM     34  H   UNL A   1      44.485  17.694  24.362  1.00  0.00     0.163 HD
ATOM     35  O   UNL A   1      45.247  19.396  22.810  1.00  0.00    -0.269 OA
BRANCH  33  36
ATOM     36  C   UNL A   1      44.922  21.001  24.491  1.00  0.00     0.039 A 
ATOM     37  C   UNL A   1      45.601  21.246  25.688  1.00  0.00     0.014 A 
ATOM     38  C   UNL A   1      44.296  22.049  23.811  1.00  0.00     0.014 A 
ATOM     39  C   UNL A   1      45.710  22.554  26.168  1.00  0.00     0.010 A 
ATOM     40  C   UNL A   1      44.456  23.357  24.258  1.00  0.00     0.010 A 
ATOM     41  C   UNL A   1      45.164  23.623  25.440  1.00  0.00    -0.014 A 
BRANCH  41  42
ATOM     42  C   UNL A   1      45.304  25.027  25.900  1.00  0.00     0.031 A 
ATOM     43  C   UNL A   1      46.644  25.706  25.836  1.00  0.00     0.074 A 
ATOM     44  C   UNL A   1      44.250  25.667  26.441  1.00  0.00     0.049 A 
ATOM     45  N   UNL A   1      46.998  26.878  26.296  1.00  0.00    -0.248 NA
ATOM     46  C   UNL A   1      47.735  24.955  25.194  1.00  0.00     0.031 C 
ATOM     47  C   UNL A   1      42.904  25.113  26.595  1.00  0.00     0.029 A 
ATOM     48  N   UNL A   1      44.154  26.927  26.977  1.00  0.00    -0.354 N 
ATOM     49  C   UNL A   1      48.355  26.995  26.025  1.00  0.00     0.074 A 
ATOM     50  C   UNL A   1      48.768  25.762  25.388  1.00  0.00     0.031 C 
ATOM     51  C   UNL A   1      42.113  26.033  27.172  1.00  0.00     0.029 A 
ATOM     52  C   UNL A   1      42.903  27.227  27.456  1.00  0.00     0.049 A 
ATOM     53  H   UNL A   1      44.911  27.556  27.013  1.00  0.00     0.167 HD
ATOM     54  C   UNL A   1      49.183  28.037  26.269  1.00  0.00     0.031 A 
ATOM     55  C   UNL A   1      42.444  28.338  28.063  1.00  0.00     0.031 A 
ATOM     56  C   UNL A   1      48.776  29.274  26.878  1.00  0.00     0.049 A 
ATOM     57  C   UNL A   1      43.375  29.497  28.285  1.00  0.00     0.074 A 
ATOM     58  C   UNL A   1      49.541  30.395  27.150  1.00  0.00     0.029 A 
ATOM     59  N   UNL A   1      47.486  29.559  27.291  1.00  0.00    -0.354 N 
ATOM     60  N   UNL A   1      44.650  29.597  28.005  1.00  0.00    -0.248 NA
ATOM     61  C   UNL A   1      42.795  30.702  28.896  1.00  0.00     0.031 C 
ATOM     62  C   UNL A   1      48.713  31.356  27.741  1.00  0.00     0.029 A 
ATOM     63  C   UNL A   1      47.429  30.841  27.807  1.00  0.00     0.049 A 
ATOM     64  H   UNL A   1      46.722  28.939  27.227  1.00  0.00     0.167 HD
ATOM     65  C   UNL A   1      45.020  30.882  28.377  1.00  0.00     0.074 A 
ATOM     66  C   UNL A   1      43.832  31.529  28.895  1.00  0.00     0.031 C 
ATOM     67  C   UNL A   1      46.235  31.474  28.299  1.00  0.00     0.031 A 
BRANCH  54  68
ATOM     68  C   UNL A   1      50.621  27.879  25.868  1.00  0.00    -0.014 A 
ATOM     69  C   UNL A   1      51.568  27.370  26.769  1.00  0.00     0.009 A 
ATOM     70  C   UNL A   1      51.027  28.216  24.568  1.00  0.00     0.009 A 
ATOM     71  C   UNL A   1      52.903  27.231  26.386  1.00  0.00     0.001 A 
ATOM     72  C   UNL A   1      52.359  28.054  24.181  1.00  0.00     0.001 A 
ATOM     73  C   UNL A   1      53.296  27.569  25.091  1.00  0.00     0.000 A 
ENDBRANCH  54  68
BRANCH  55  74
ATOM     74  C   UNL A   1      41.025  28.425  28.487  1.00  0.00    -0.014 A 
ATOM     75  C   UNL A   1      40.627  27.923  29.735  1.00  0.00     0.009 A 
ATOM     76  C   UNL A   1      40.061  28.992  27.639  1.00  0.00     0.009 A 
ATOM     77  C   UNL A   1      39.283  27.958  30.114  1.00  0.00     0.001 A 
ATOM     78  C   UNL A   1      38.721  29.046  28.032  1.00  0.00     0.001 A 
ATOM     79  C   UNL A   1      38.333  28.522  29.264  1.00  0.00     0.000 A 
ENDBRANCH  55  74
BRANCH  67  80
ATOM     80  C   UNL A   1      46.328  32.906  28.735  1.00  0.00    -0.014 A 
ATOM     81  C   UNL A   1      46.315  33.952  27.800  1.00  0.00     0.009 A 
ATOM     82  C   UNL A   1      46.394  33.210  30.102  1.00  0.00     0.009 A 
ATOM     83  C   UNL A   1      46.393  35.278  28.229  1.00  0.00     0.001 A 
ATOM     84  C   UNL A   1      46.455  34.537  30.529  1.00  0.00     0.001 A 
ATOM     85  C   UNL A   1      46.461  35.569  29.592  1.00  0.00     0.000 A 
ENDBRANCH  67  80
ENDBRANCH  41  42
ENDBRANCH  33  36
ENDBRANCH  31  32
ENDBRANCH  30  31
ENDBRANCH  29  30
ENDBRANCH   1  29
TORSDOF 17
ENDMDL
