MODEL 1
REMARK VINA RESULT:     -11.8      0.000      0.000
REMARK SMILES C[C@H]1[NH2+]CC[C@H]1C(=O)N1CCCc2cc(C(=O)NCCCCCCNC(=O)c3ccc(-c4c5nc(c(-c6ccccc6)c6ccc([nH]6)c(-c6ccccc6)c6nc(c(-c7ccccc7)c7ccc4[nH]7)C=C6)C=C5)cc3)ccc21
REMARK SMILES IDX 21 1 20 2 19 3 18 4 16 5 17 6 15 8 9 9 10 10 78 11 11 12
REMARK SMILES IDX 13 13 77 14 12 15 14 16 76 17 7 18 8 19 6 20 1 21 2 22 3 23
REMARK SMILES IDX 4 24 5 27 22 28 23 29 24 30 25 31 26 32 27 34 28 35 29 36
REMARK SMILES IDX 75 37 30 38 74 39 31 40 32 41 33 42 68 43 34 44 73 45 67 46
REMARK SMILES IDX 69 47 35 48 72 49 66 50 65 51 36 53 58 54 43 55 57 56 44 57
REMARK SMILES IDX 47 58 56 59 70 60 45 61 46 62 55 64 71 65 48 66 37 67 38 68
REMARK SMILES IDX 42 69 39 70 41 71 40 72 59 73 60 74 64 75 61 76 63 77 62 78
REMARK SMILES IDX 49 79 50 80 54 81 51 82 53 83 52 84
REMARK H PARENT 18 7 3 25 3 26 25 33 69 52 47 63
REMARK Flexibility Score: inf
ROOT
ATOM      1  C   UNL A   1      32.972  28.146  23.618  1.00  0.00     0.002 C 
ENDROOT
BRANCH   1   2
ATOM      2  C   UNL A   1      31.591  28.276  22.959  1.00  0.00     0.021 C 
BRANCH   2   3
ATOM      3  C   UNL A   1      30.998  26.917  22.584  1.00  0.00     0.116 C 
BRANCH   3   4
ATOM      4  N   UNL A   1      31.692  26.398  21.426  1.00  0.00    -0.352 N 
ATOM      5  C   UNL A   1      32.607  25.393  21.260  1.00  0.00     0.251 C 
ATOM      6  O   UNL A   1      33.101  25.272  20.137  1.00  0.00    -0.269 OA
ATOM      7  H   UNL A   1      31.460  26.860  20.589  1.00  0.00     0.163 HD
BRANCH   5   8
ATOM      8  C   UNL A   1      32.977  24.417  22.324  1.00  0.00     0.040 A 
ATOM      9  N   UNL A   1      34.373  21.474  25.093  1.00  0.00    -0.312 N 
ATOM     10  C   UNL A   1      35.806  21.413  25.355  1.00  0.00     0.126 C 
ATOM     11  C   UNL A   1      33.915  22.471  24.172  1.00  0.00     0.047 A 
ATOM     12  C   UNL A   1      36.674  21.774  24.162  1.00  0.00     0.027 C 
ATOM     13  C   UNL A   1      34.823  23.276  23.465  1.00  0.00    -0.023 A 
ATOM     14  C   UNL A   1      32.549  22.684  23.971  1.00  0.00     0.027 A 
ATOM     15  C   UNL A   1      36.308  23.158  23.664  1.00  0.00     0.039 C 
ATOM     16  C   UNL A   1      34.347  24.221  22.539  1.00  0.00     0.019 A 
ATOM     17  C   UNL A   1      32.088  23.687  23.111  1.00  0.00     0.016 A 
BRANCH   9  18
ATOM     18  C   UNL A   1      33.626  20.319  25.286  1.00  0.00     0.236 C 
ATOM     19  O   UNL A   1      33.021  20.127  26.346  1.00  0.00    -0.274 OA
BRANCH  18  20
ATOM     20  C   UNL A   1      33.630  19.232  24.208  1.00  0.00     0.142 C 
ATOM     21  C   UNL A   1      32.970  17.117  25.620  1.00  0.00     0.076 C 
ATOM     22  C   UNL A   1      33.836  17.756  24.541  1.00  0.00     0.192 C 
ATOM     23  N   UNL A   1      33.535  17.106  23.247  1.00  0.00    -0.343 N 
ATOM     24  C   UNL A   1      32.522  17.903  22.555  1.00  0.00     0.261 C 
ATOM     25  H   UNL A   1      33.182  16.163  23.409  1.00  0.00     0.346 HD
ATOM     26  H   UNL A   1      34.381  17.046  22.681  1.00  0.00     0.346 HD
ATOM     27  C   UNL A   1      32.410  19.220  23.304  1.00  0.00     0.081 C 
ENDBRANCH  18  20
ENDBRANCH   9  18
ENDBRANCH   5   8
ENDBRANCH   3   4
ENDBRANCH   2   3
ENDBRANCH   1   2
BRANCH   1  28
ATOM     28  C   UNL A   1      33.145  28.992  24.887  1.00  0.00     0.002 C 
BRANCH  28  29
ATOM     29  C   UNL A   1      34.093  28.385  25.922  1.00  0.00     0.021 C 
BRANCH  29  30
ATOM     30  C   UNL A   1      33.660  28.644  27.359  1.00  0.00     0.116 C 
BRANCH  30  31
ATOM     31  N   UNL A   1      33.661  30.069  27.659  1.00  0.00    -0.352 N 
ATOM     32  C   UNL A   1      34.619  30.801  28.312  1.00  0.00     0.251 C 
ATOM     33  H   UNL A   1      32.871  30.572  27.354  1.00  0.00     0.163 HD
ATOM     34  O   UNL A   1      34.376  31.929  28.731  1.00  0.00    -0.269 OA
BRANCH  32  35
ATOM     35  C   UNL A   1      35.952  30.205  28.505  1.00  0.00     0.039 A 
ATOM     36  C   UNL A   1      36.888  30.257  27.471  1.00  0.00     0.014 A 
ATOM     37  C   UNL A   1      36.274  29.622  29.733  1.00  0.00     0.014 A 
ATOM     38  C   UNL A   1      38.175  29.767  27.688  1.00  0.00     0.010 A 
ATOM     39  C   UNL A   1      37.577  29.210  29.974  1.00  0.00     0.010 A 
ATOM     40  C   UNL A   1      38.536  29.268  28.951  1.00  0.00    -0.014 A 
BRANCH  40  41
ATOM     41  C   UNL A   1      39.901  28.767  29.236  1.00  0.00     0.031 A 
ATOM     42  C   UNL A   1      40.919  29.701  29.826  1.00  0.00     0.074 A 
ATOM     43  C   UNL A   1      40.253  27.522  28.865  1.00  0.00     0.049 A 
ATOM     44  N   UNL A   1      42.201  29.519  30.008  1.00  0.00    -0.248 NA
ATOM     45  C   UNL A   1      40.434  31.031  30.233  1.00  0.00     0.031 C 
ATOM     46  C   UNL A   1      39.362  26.533  28.258  1.00  0.00     0.029 A 
ATOM     47  N   UNL A   1      41.467  26.886  28.926  1.00  0.00    -0.354 N 
ATOM     48  C   UNL A   1      42.680  30.720  30.517  1.00  0.00     0.074 A 
ATOM     49  C   UNL A   1      41.563  31.636  30.568  1.00  0.00     0.031 C 
ATOM     50  C   UNL A   1      40.057  25.411  28.012  1.00  0.00     0.029 A 
ATOM     51  C   UNL A   1      41.450  25.620  28.394  1.00  0.00     0.049 A 
ATOM     52  H   UNL A   1      42.274  27.297  29.313  1.00  0.00     0.167 HD
ATOM     53  C   UNL A   1      43.936  31.027  30.915  1.00  0.00     0.031 A 
ATOM     54  C   UNL A   1      42.449  24.735  28.212  1.00  0.00     0.031 A 
ATOM     55  C   UNL A   1      45.040  30.107  30.868  1.00  0.00     0.049 A 
ATOM     56  C   UNL A   1      43.842  25.103  28.642  1.00  0.00     0.074 A 
ATOM     57  C   UNL A   1      46.338  30.296  31.307  1.00  0.00     0.029 A 
ATOM     58  N   UNL A   1      44.974  28.825  30.343  1.00  0.00    -0.354 N 
ATOM     59  N   UNL A   1      44.271  26.220  29.180  1.00  0.00    -0.248 NA
ATOM     60  C   UNL A   1      44.887  24.089  28.448  1.00  0.00     0.031 C 
ATOM     61  C   UNL A   1      47.075  29.152  30.987  1.00  0.00     0.029 A 
ATOM     62  C   UNL A   1      46.218  28.222  30.419  1.00  0.00     0.049 A 
ATOM     63  H   UNL A   1      44.165  28.406  29.973  1.00  0.00     0.167 HD
ATOM     64  C   UNL A   1      45.626  26.029  29.423  1.00  0.00     0.074 A 
ATOM     65  C   UNL A   1      45.946  24.689  28.974  1.00  0.00     0.031 C 
ATOM     66  C   UNL A   1      46.519  26.885  29.977  1.00  0.00     0.031 A 
BRANCH  53  67
ATOM     67  C   UNL A   1      44.183  32.427  31.410  1.00  0.00    -0.014 A 
ATOM     68  C   UNL A   1      44.646  33.439  30.553  1.00  0.00     0.009 A 
ATOM     69  C   UNL A   1      43.937  32.739  32.756  1.00  0.00     0.009 A 
ATOM     70  C   UNL A   1      44.906  34.720  31.046  1.00  0.00     0.001 A 
ATOM     71  C   UNL A   1      44.163  34.030  33.238  1.00  0.00     0.001 A 
ATOM     72  C   UNL A   1      44.660  35.015  32.386  1.00  0.00     0.000 A 
ENDBRANCH  53  67
BRANCH  54  73
ATOM     73  C   UNL A   1      42.159  23.414  27.596  1.00  0.00    -0.014 A 
ATOM     74  C   UNL A   1      41.734  22.336  28.388  1.00  0.00     0.009 A 
ATOM     75  C   UNL A   1      42.281  23.229  26.209  1.00  0.00     0.009 A 
ATOM     76  C   UNL A   1      41.456  21.096  27.806  1.00  0.00     0.001 A 
ATOM     77  C   UNL A   1      41.973  21.998  25.627  1.00  0.00     0.001 A 
ATOM     78  C   UNL A   1      41.568  20.931  26.426  1.00  0.00     0.000 A 
ENDBRANCH  54  73
BRANCH  66  79
ATOM     79  C   UNL A   1      47.923  26.391  30.187  1.00  0.00    -0.014 A 
ATOM     80  C   UNL A   1      48.337  25.851  31.413  1.00  0.00     0.009 A 
ATOM     81  C   UNL A   1      48.815  26.385  29.102  1.00  0.00     0.009 A 
ATOM     82  C   UNL A   1      49.625  25.326  31.550  1.00  0.00     0.001 A 
ATOM     83  C   UNL A   1      50.090  25.833  29.234  1.00  0.00     0.001 A 
ATOM     84  C   UNL A   1      50.494  25.308  30.460  1.00  0.00     0.000 A 
ENDBRANCH  66  79
ENDBRANCH  40  41
ENDBRANCH  32  35
ENDBRANCH  30  31
ENDBRANCH  29  30
ENDBRANCH  28  29
ENDBRANCH   1  28
TORSDOF 15
ENDMDL
MODEL 2
REMARK VINA RESULT:     -11.7      4.465      7.034
REMARK SMILES C[C@H]1[NH2+]CC[C@H]1C(=O)N1CCCc2cc(C(=O)NCCCCCCNC(=O)c3ccc(-c4c5nc(c(-c6ccccc6)c6ccc([nH]6)c(-c6ccccc6)c6nc(c(-c7ccccc7)c7ccc4[nH]7)C=C6)C=C5)cc3)ccc21
REMARK SMILES IDX 21 1 20 2 19 3 18 4 16 5 17 6 15 8 9 9 10 10 78 11 11 12
REMARK SMILES IDX 13 13 77 14 12 15 14 16 76 17 7 18 8 19 6 20 1 21 2 22 3 23
REMARK SMILES IDX 4 24 5 27 22 28 23 29 24 30 25 31 26 32 27 34 28 35 29 36
REMARK SMILES IDX 75 37 30 38 74 39 31 40 32 41 33 42 68 43 34 44 73 45 67 46
REMARK SMILES IDX 69 47 35 48 72 49 66 50 65 51 36 53 58 54 43 55 57 56 44 57
REMARK SMILES IDX 47 58 56 59 70 60 45 61 46 62 55 64 71 65 48 66 37 67 38 68
REMARK SMILES IDX 42 69 39 70 41 71 40 72 59 73 60 74 64 75 61 76 63 77 62 78
REMARK SMILES IDX 49 79 50 80 54 81 51 82 53 83 52 84
REMARK H PARENT 18 7 3 25 3 26 25 33 69 52 47 63
REMARK Flexibility Score: inf
ROOT
ATOM      1  C   UNL A   1      35.138  33.381  29.136  1.00  0.00     0.002 C 
ENDROOT
BRANCH   1   2
ATOM      2  C   UNL A   1      35.641  32.409  28.058  1.00  0.00     0.021 C 
BRANCH   2   3
ATOM      3  C   UNL A   1      34.636  31.293  27.769  1.00  0.00     0.116 C 
BRANCH   3   4
ATOM      4  N   UNL A   1      33.324  31.871  27.579  1.00  0.00    -0.352 N 
ATOM      5  C   UNL A   1      32.189  31.422  26.960  1.00  0.00     0.251 C 
ATOM      6  O   UNL A   1      31.252  32.219  26.872  1.00  0.00    -0.269 OA
ATOM      7  H   UNL A   1      33.228  32.768  27.972  1.00  0.00     0.163 HD
BRANCH   5   8
ATOM      8  C   UNL A   1      32.006  30.029  26.460  1.00  0.00     0.040 A 
ATOM      9  N   UNL A   1      31.069  26.174  24.868  1.00  0.00    -0.312 N 
ATOM     10  C   UNL A   1      30.559  26.107  23.504  1.00  0.00     0.126 C 
ATOM     11  C   UNL A   1      31.389  27.470  25.388  1.00  0.00     0.047 A 
ATOM     12  C   UNL A   1      29.711  27.299  23.097  1.00  0.00     0.027 C 
ATOM     13  C   UNL A   1      31.113  28.634  24.652  1.00  0.00    -0.023 A 
ATOM     14  C   UNL A   1      32.009  27.607  26.633  1.00  0.00     0.027 A 
ATOM     15  C   UNL A   1      30.505  28.577  23.279  1.00  0.00     0.039 C 
ATOM     16  C   UNL A   1      31.404  29.895  25.202  1.00  0.00     0.019 A 
ATOM     17  C   UNL A   1      32.372  28.864  27.130  1.00  0.00     0.016 A 
BRANCH   9  18
ATOM     18  C   UNL A   1      30.733  25.146  25.740  1.00  0.00     0.236 C 
ATOM     19  O   UNL A   1      29.768  25.253  26.503  1.00  0.00    -0.274 OA
BRANCH  18  20
ATOM     20  C   UNL A   1      31.626  23.905  25.818  1.00  0.00     0.142 C 
ATOM     21  C   UNL A   1      34.001  24.968  25.456  1.00  0.00     0.076 C 
ATOM     22  C   UNL A   1      33.005  23.852  25.164  1.00  0.00     0.192 C 
ATOM     23  N   UNL A   1      33.548  22.583  25.696  1.00  0.00    -0.343 N 
ATOM     24  C   UNL A   1      33.005  22.377  27.040  1.00  0.00     0.261 C 
ATOM     25  H   UNL A   1      34.565  22.634  25.739  1.00  0.00     0.346 HD
ATOM     26  H   UNL A   1      33.284  21.808  25.088  1.00  0.00     0.346 HD
ATOM     27  C   UNL A   1      31.885  23.386  27.222  1.00  0.00     0.081 C 
ENDBRANCH  18  20
ENDBRANCH   9  18
ENDBRANCH   5   8
ENDBRANCH   3   4
ENDBRANCH   2   3
ENDBRANCH   1   2
BRANCH   1  28
ATOM     28  C   UNL A   1      35.258  34.862  28.751  1.00  0.00     0.002 C 
BRANCH  28  29
ATOM     29  C   UNL A   1      33.928  35.617  28.738  1.00  0.00     0.021 C 
BRANCH  29  30
ATOM     30  C   UNL A   1      32.889  35.019  29.677  1.00  0.00     0.116 C 
BRANCH  30  31
ATOM     31  N   UNL A   1      32.478  35.982  30.689  1.00  0.00    -0.352 N 
ATOM     32  C   UNL A   1      32.814  36.017  32.017  1.00  0.00     0.251 C 
ATOM     33  H   UNL A   1      31.882  36.702  30.378  1.00  0.00     0.163 HD
ATOM     34  O   UNL A   1      32.191  36.720  32.808  1.00  0.00    -0.269 OA
BRANCH  32  35
ATOM     35  C   UNL A   1      33.940  35.189  32.483  1.00  0.00     0.039 A 
ATOM     36  C   UNL A   1      33.693  33.921  33.009  1.00  0.00     0.014 A 
ATOM     37  C   UNL A   1      35.246  35.673  32.363  1.00  0.00     0.014 A 
ATOM     38  C   UNL A   1      34.768  33.109  33.370  1.00  0.00     0.010 A 
ATOM     39  C   UNL A   1      36.314  34.834  32.646  1.00  0.00     0.010 A 
ATOM     40  C   UNL A   1      36.085  33.549  33.162  1.00  0.00    -0.014 A 
BRANCH  40  41
ATOM     41  C   UNL A   1      37.257  32.707  33.499  1.00  0.00     0.031 A 
ATOM     42  C   UNL A   1      38.007  32.967  34.774  1.00  0.00     0.074 A 
ATOM     43  C   UNL A   1      37.706  31.795  32.618  1.00  0.00     0.049 A 
ATOM     44  N   UNL A   1      39.141  32.460  35.185  1.00  0.00    -0.248 NA
ATOM     45  C   UNL A   1      37.422  33.959  35.693  1.00  0.00     0.031 C 
ATOM     46  C   UNL A   1      37.080  31.472  31.335  1.00  0.00     0.029 A 
ATOM     47  N   UNL A   1      38.815  30.988  32.661  1.00  0.00    -0.354 N 
ATOM     48  C   UNL A   1      39.419  33.094  36.389  1.00  0.00     0.074 A 
ATOM     49  C   UNL A   1      38.364  34.055  36.618  1.00  0.00     0.031 C 
ATOM     50  C   UNL A   1      37.807  30.527  30.719  1.00  0.00     0.029 A 
ATOM     51  C   UNL A   1      38.976  30.218  31.535  1.00  0.00     0.049 A 
ATOM     52  H   UNL A   1      39.436  30.963  33.425  1.00  0.00     0.167 HD
ATOM     53  C   UNL A   1      40.456  32.885  37.234  1.00  0.00     0.031 A 
ATOM     54  C   UNL A   1      39.967  29.374  31.189  1.00  0.00     0.031 A 
ATOM     55  C   UNL A   1      41.496  31.921  37.002  1.00  0.00     0.049 A 
ATOM     56  C   UNL A   1      41.121  29.172  32.131  1.00  0.00     0.074 A 
ATOM     57  C   UNL A   1      42.557  31.585  37.825  1.00  0.00     0.029 A 
ATOM     58  N   UNL A   1      41.610  31.143  35.860  1.00  0.00    -0.354 N 
ATOM     59  N   UNL A   1      41.342  29.731  33.297  1.00  0.00    -0.248 NA
ATOM     60  C   UNL A   1      42.159  28.218  31.716  1.00  0.00     0.031 C 
ATOM     61  C   UNL A   1      43.349  30.652  37.150  1.00  0.00     0.029 A 
ATOM     62  C   UNL A   1      42.741  30.351  35.941  1.00  0.00     0.049 A 
ATOM     63  H   UNL A   1      40.980  31.154  35.103  1.00  0.00     0.167 HD
ATOM     64  C   UNL A   1      42.521  29.169  33.771  1.00  0.00     0.074 A 
ATOM     65  C   UNL A   1      42.968  28.226  32.766  1.00  0.00     0.031 C 
ATOM     66  C   UNL A   1      43.167  29.409  34.938  1.00  0.00     0.031 A 
BRANCH  53  67
ATOM     67  C   UNL A   1      40.523  33.739  38.471  1.00  0.00    -0.014 A 
ATOM     68  C   UNL A   1      39.914  33.342  39.673  1.00  0.00     0.009 A 
ATOM     69  C   UNL A   1      41.219  34.957  38.435  1.00  0.00     0.009 A 
ATOM     70  C   UNL A   1      39.956  34.172  40.796  1.00  0.00     0.001 A 
ATOM     71  C   UNL A   1      41.292  35.767  39.569  1.00  0.00     0.001 A 
ATOM     72  C   UNL A   1      40.649  35.380  40.744  1.00  0.00     0.000 A 
ENDBRANCH  53  67
BRANCH  54  73
ATOM     73  C   UNL A   1      39.904  28.658  29.888  1.00  0.00    -0.014 A 
ATOM     74  C   UNL A   1      40.447  29.235  28.730  1.00  0.00     0.009 A 
ATOM     75  C   UNL A   1      39.323  27.382  29.801  1.00  0.00     0.009 A 
ATOM     76  C   UNL A   1      40.392  28.557  27.509  1.00  0.00     0.001 A 
ATOM     77  C   UNL A   1      39.298  26.695  28.586  1.00  0.00     0.001 A 
ATOM     78  C   UNL A   1      39.825  27.286  27.440  1.00  0.00     0.000 A 
ENDBRANCH  54  73
BRANCH  66  79
ATOM     79  C   UNL A   1      44.402  28.604  35.232  1.00  0.00    -0.014 A 
ATOM     80  C   UNL A   1      45.682  29.076  34.908  1.00  0.00     0.009 A 
ATOM     81  C   UNL A   1      44.279  27.393  35.933  1.00  0.00     0.009 A 
ATOM     82  C   UNL A   1      46.815  28.340  35.268  1.00  0.00     0.001 A 
ATOM     83  C   UNL A   1      45.413  26.676  36.318  1.00  0.00     0.001 A 
ATOM     84  C   UNL A   1      46.679  27.149  35.980  1.00  0.00     0.000 A 
ENDBRANCH  66  79
ENDBRANCH  40  41
ENDBRANCH  32  35
ENDBRANCH  30  31
ENDBRANCH  29  30
ENDBRANCH  28  29
ENDBRANCH   1  28
TORSDOF 15
ENDMDL
MODEL 3
REMARK VINA RESULT:     -11.6      3.406      8.633
REMARK SMILES C[C@H]1[NH2+]CC[C@H]1C(=O)N1CCCc2cc(C(=O)NCCCCCCNC(=O)c3ccc(-c4c5nc(c(-c6ccccc6)c6ccc([nH]6)c(-c6ccccc6)c6nc(c(-c7ccccc7)c7ccc4[nH]7)C=C6)C=C5)cc3)ccc21
REMARK SMILES IDX 21 1 20 2 19 3 18 4 16 5 17 6 15 8 9 9 10 10 78 11 11 12
REMARK SMILES IDX 13 13 77 14 12 15 14 16 76 17 7 18 8 19 6 20 1 21 2 22 3 23
REMARK SMILES IDX 4 24 5 27 22 28 23 29 24 30 25 31 26 32 27 34 28 35 29 36
REMARK SMILES IDX 75 37 30 38 74 39 31 40 32 41 33 42 68 43 34 44 73 45 67 46
REMARK SMILES IDX 69 47 35 48 72 49 66 50 65 51 36 53 58 54 43 55 57 56 44 57
REMARK SMILES IDX 47 58 56 59 70 60 45 61 46 62 55 64 71 65 48 66 37 67 38 68
REMARK SMILES IDX 42 69 39 70 41 71 40 72 59 73 60 74 64 75 61 76 63 77 62 78
REMARK SMILES IDX 49 79 50 80 54 81 51 82 53 83 52 84
REMARK H PARENT 18 7 3 25 3 26 25 33 69 52 47 63
REMARK Flexibility Score: inf
ROOT
ATOM      1  C   UNL A   1      42.011  21.577  27.483  1.00  0.00     0.002 C 
ENDROOT
BRANCH   1   2
ATOM      2  C   UNL A   1      41.223  22.244  26.346  1.00  0.00     0.021 C 
BRANCH   2   3
ATOM      3  C   UNL A   1      39.718  22.267  26.620  1.00  0.00     0.116 C 
BRANCH   3   4
ATOM      4  N   UNL A   1      39.068  21.274  25.794  1.00  0.00    -0.352 N 
ATOM      5  C   UNL A   1      37.774  21.111  25.379  1.00  0.00     0.251 C 
ATOM      6  O   UNL A   1      37.516  20.076  24.760  1.00  0.00    -0.269 OA
ATOM      7  H   UNL A   1      39.677  20.575  25.466  1.00  0.00     0.163 HD
BRANCH   5   8
ATOM      8  C   UNL A   1      36.700  22.128  25.570  1.00  0.00     0.040 A 
ATOM      9  N   UNL A   1      33.325  24.719  25.982  1.00  0.00    -0.312 N 
ATOM     10  C   UNL A   1      32.159  24.208  26.693  1.00  0.00     0.126 C 
ATOM     11  C   UNL A   1      34.454  23.846  25.859  1.00  0.00     0.047 A 
ATOM     12  C   UNL A   1      31.928  22.717  26.521  1.00  0.00     0.027 C 
ATOM     13  C   UNL A   1      34.393  22.515  26.304  1.00  0.00    -0.023 A 
ATOM     14  C   UNL A   1      35.656  24.306  25.314  1.00  0.00     0.027 A 
ATOM     15  C   UNL A   1      33.162  21.955  26.959  1.00  0.00     0.039 C 
ATOM     16  C   UNL A   1      35.504  21.670  26.137  1.00  0.00     0.019 A 
ATOM     17  C   UNL A   1      36.781  23.477  25.233  1.00  0.00     0.016 A 
BRANCH   9  18
ATOM     18  C   UNL A   1      33.127  25.726  25.047  1.00  0.00     0.236 C 
ATOM     19  O   UNL A   1      32.893  26.885  25.404  1.00  0.00    -0.274 OA
BRANCH  18  20
ATOM     20  C   UNL A   1      33.109  25.375  23.557  1.00  0.00     0.142 C 
ATOM     21  C   UNL A   1      30.676  24.420  23.293  1.00  0.00     0.076 C 
ATOM     22  C   UNL A   1      32.164  24.323  22.980  1.00  0.00     0.192 C 
ATOM     23  N   UNL A   1      32.355  24.505  21.525  1.00  0.00    -0.343 N 
ATOM     24  C   UNL A   1      32.647  25.917  21.271  1.00  0.00     0.261 C 
ATOM     25  H   UNL A   1      31.506  24.235  21.029  1.00  0.00     0.346 HD
ATOM     26  H   UNL A   1      33.125  23.923  21.197  1.00  0.00     0.346 HD
ATOM     27  C   UNL A   1      32.929  26.557  22.620  1.00  0.00     0.081 C 
ENDBRANCH  18  20
ENDBRANCH   9  18
ENDBRANCH   5   8
ENDBRANCH   3   4
ENDBRANCH   2   3
ENDBRANCH   1   2
BRANCH   1  28
ATOM     28  C   UNL A   1      41.702  20.086  27.671  1.00  0.00     0.002 C 
BRANCH  28  29
ATOM     29  C   UNL A   1      42.657  19.148  26.932  1.00  0.00     0.021 C 
BRANCH  29  30
ATOM     30  C   UNL A   1      42.679  19.377  25.427  1.00  0.00     0.116 C 
BRANCH  30  31
ATOM     31  N   UNL A   1      43.882  18.817  24.828  1.00  0.00    -0.352 N 
ATOM     32  C   UNL A   1      44.971  19.479  24.324  1.00  0.00     0.251 C 
ATOM     33  H   UNL A   1      43.917  17.834  24.777  1.00  0.00     0.163 HD
ATOM     34  O   UNL A   1      45.789  18.904  23.612  1.00  0.00    -0.269 OA
BRANCH  32  35
ATOM     35  C   UNL A   1      45.144  20.905  24.653  1.00  0.00     0.039 A 
ATOM     36  C   UNL A   1      44.747  21.878  23.735  1.00  0.00     0.014 A 
ATOM     37  C   UNL A   1      45.674  21.266  25.895  1.00  0.00     0.014 A 
ATOM     38  C   UNL A   1      44.835  23.225  24.085  1.00  0.00     0.010 A 
ATOM     39  C   UNL A   1      45.684  22.601  26.272  1.00  0.00     0.010 A 
ATOM     40  C   UNL A   1      45.275  23.593  25.367  1.00  0.00    -0.014 A 
BRANCH  40  41
ATOM     41  C   UNL A   1      45.353  25.010  25.794  1.00  0.00     0.031 A 
ATOM     42  C   UNL A   1      46.678  25.717  25.764  1.00  0.00     0.074 A 
ATOM     43  C   UNL A   1      44.267  25.619  26.306  1.00  0.00     0.049 A 
ATOM     44  N   UNL A   1      46.999  26.894  26.236  1.00  0.00    -0.248 NA
ATOM     45  C   UNL A   1      47.801  24.984  25.154  1.00  0.00     0.031 C 
ATOM     46  C   UNL A   1      42.933  25.028  26.414  1.00  0.00     0.029 A 
ATOM     47  N   UNL A   1      44.125  26.867  26.857  1.00  0.00    -0.354 N 
ATOM     48  C   UNL A   1      48.362  27.027  26.010  1.00  0.00     0.074 A 
ATOM     49  C   UNL A   1      48.817  25.795  25.406  1.00  0.00     0.031 C 
ATOM     50  C   UNL A   1      42.105  25.917  26.984  1.00  0.00     0.029 A 
ATOM     51  C   UNL A   1      42.860  27.117  27.330  1.00  0.00     0.049 A 
ATOM     52  H   UNL A   1      44.859  27.522  26.908  1.00  0.00     0.167 HD
ATOM     53  C   UNL A   1      49.162  28.087  26.274  1.00  0.00     0.031 A 
ATOM     54  C   UNL A   1      42.369  28.183  27.990  1.00  0.00     0.031 A 
ATOM     55  C   UNL A   1      48.700  29.312  26.868  1.00  0.00     0.049 A 
ATOM     56  C   UNL A   1      43.278  29.342  28.292  1.00  0.00     0.074 A 
ATOM     57  C   UNL A   1      49.415  30.469  27.118  1.00  0.00     0.029 A 
ATOM     58  N   UNL A   1      47.405  29.533  27.311  1.00  0.00    -0.354 N 
ATOM     59  N   UNL A   1      44.553  29.483  28.018  1.00  0.00    -0.248 NA
ATOM     60  C   UNL A   1      42.683  30.491  28.987  1.00  0.00     0.031 C 
ATOM     61  C   UNL A   1      48.568  31.368  27.774  1.00  0.00     0.029 A 
ATOM     62  C   UNL A   1      47.307  30.798  27.863  1.00  0.00     0.049 A 
ATOM     63  H   UNL A   1      46.666  28.886  27.244  1.00  0.00     0.167 HD
ATOM     64  C   UNL A   1      44.903  30.749  28.471  1.00  0.00     0.074 A 
ATOM     65  C   UNL A   1      43.705  31.335  29.039  1.00  0.00     0.031 C 
ATOM     66  C   UNL A   1      46.106  31.370  28.414  1.00  0.00     0.031 A 
BRANCH  53  67
ATOM     67  C   UNL A   1      50.624  27.950  25.944  1.00  0.00    -0.014 A 
ATOM     68  C   UNL A   1      51.132  28.314  24.686  1.00  0.00     0.009 A 
ATOM     69  C   UNL A   1      51.510  27.457  26.914  1.00  0.00     0.009 A 
ATOM     70  C   UNL A   1      52.486  28.139  24.391  1.00  0.00     0.001 A 
ATOM     71  C   UNL A   1      52.869  27.317  26.629  1.00  0.00     0.001 A 
ATOM     72  C   UNL A   1      53.353  27.645  25.364  1.00  0.00     0.000 A 
ENDBRANCH  53  67
BRANCH  54  73
ATOM     73  C   UNL A   1      40.942  28.200  28.404  1.00  0.00    -0.014 A 
ATOM     74  C   UNL A   1      40.541  27.589  29.602  1.00  0.00     0.009 A 
ATOM     75  C   UNL A   1      39.976  28.849  27.618  1.00  0.00     0.009 A 
ATOM     76  C   UNL A   1      39.199  27.610  29.994  1.00  0.00     0.001 A 
ATOM     77  C   UNL A   1      38.642  28.896  28.028  1.00  0.00     0.001 A 
ATOM     78  C   UNL A   1      38.253  28.270  29.211  1.00  0.00     0.000 A 
ENDBRANCH  54  73
BRANCH  66  79
ATOM     79  C   UNL A   1      46.189  32.782  28.925  1.00  0.00    -0.014 A 
ATOM     80  C   UNL A   1      45.899  33.880  28.103  1.00  0.00     0.009 A 
ATOM     81  C   UNL A   1      46.473  33.002  30.283  1.00  0.00     0.009 A 
ATOM     82  C   UNL A   1      45.906  35.174  28.631  1.00  0.00     0.001 A 
ATOM     83  C   UNL A   1      46.450  34.292  30.813  1.00  0.00     0.001 A 
ATOM     84  C   UNL A   1      46.171  35.377  29.985  1.00  0.00     0.000 A 
ENDBRANCH  66  79
ENDBRANCH  40  41
ENDBRANCH  32  35
ENDBRANCH  30  31
ENDBRANCH  29  30
ENDBRANCH  28  29
ENDBRANCH   1  28
TORSDOF 15
ENDMDL
