MODEL 1
REMARK VINA RESULT:      -9.4      0.000      0.000
REMARK SMILES O=C(CCCC(=O)NCc1ccco1)NCCCCCCNC(=O)c1ccc(-c2c3nc(c(-c4ccccc4)c4ccc([nH]4)c(-c4ccccc4)c4nc(c(-c5ccccc5)c5ccc2[nH]5)C=C4)C=C3)cc1
REMARK SMILES IDX 17 1 16 2 15 3 1 4 2 5 3 7 4 8 5 9 6 10 7 11 8 12 9 14 10 15
REMARK SMILES IDX 11 16 14 17 12 18 13 19 18 20 19 21 20 22 21 23 22 24 23 25
REMARK SMILES IDX 24 27 25 28 26 29 72 30 27 31 71 32 28 33 29 34 30 35 65 36
REMARK SMILES IDX 31 37 70 38 64 39 66 40 32 41 69 42 63 43 62 44 33 46 55 47
REMARK SMILES IDX 40 48 54 49 41 50 44 51 53 52 67 53 42 54 43 55 52 57 68 58
REMARK SMILES IDX 45 59 34 60 35 61 39 62 36 63 38 64 37 65 56 66 57 67 61 68
REMARK SMILES IDX 58 69 60 70 59 71 46 72 47 73 51 74 48 75 50 76 49 77
REMARK H PARENT 15 6 8 13 22 26 66 45 44 56
REMARK Flexibility Score: inf
ROOT
ATOM      1  C   UNL A   1      33.588  27.078  26.085  1.00  0.00     0.021 C 
ENDROOT
BRANCH   1   2
ATOM      2  C   UNL A   1      33.558  27.089  24.552  1.00  0.00     0.116 C 
BRANCH   2   3
ATOM      3  N   UNL A   1      33.953  25.802  24.024  1.00  0.00    -0.356 N 
ATOM      4  O   UNL A   1      31.924  25.141  23.235  1.00  0.00    -0.275 OA
ATOM      5  C   UNL A   1      33.108  24.895  23.450  1.00  0.00     0.220 C 
ATOM      6  H   UNL A   1      34.906  25.560  24.085  1.00  0.00     0.163 HD
BRANCH   5   7
ATOM      7  C   UNL A   1      33.672  23.490  23.255  1.00  0.00     0.100 C 
BRANCH   7   8
ATOM      8  C   UNL A   1      32.786  22.249  23.361  1.00  0.00     0.020 C 
BRANCH   8   9
ATOM      9  C   UNL A   1      32.097  21.844  24.669  1.00  0.00     0.100 C 
BRANCH   9  10
ATOM     10  C   UNL A   1      32.530  20.582  25.396  1.00  0.00     0.220 C 
ATOM     11  O   UNL A   1      32.112  19.485  25.012  1.00  0.00    -0.275 OA
ATOM     12  N   UNL A   1      33.437  20.571  26.397  1.00  0.00    -0.349 N 
ATOM     13  H   UNL A   1      33.662  19.664  26.709  1.00  0.00     0.163 HD
BRANCH  12  14
ATOM     14  C   UNL A   1      34.148  21.609  27.108  1.00  0.00     0.191 C 
BRANCH  14  15
ATOM     15  C   UNL A   1      35.290  22.067  26.271  1.00  0.00     0.122 A 
ATOM     16  C   UNL A   1      35.912  23.286  26.084  1.00  0.00     0.047 A 
ATOM     17  O   UNL A   1      35.889  21.122  25.489  1.00  0.00    -0.467 OA
ATOM     18  C   UNL A   1      36.928  23.079  25.122  1.00  0.00     0.042 A 
ATOM     19  C   UNL A   1      36.881  21.744  24.801  1.00  0.00     0.195 A 
ENDBRANCH  14  15
ENDBRANCH  12  14
ENDBRANCH   9  10
ENDBRANCH   8   9
ENDBRANCH   7   8
ENDBRANCH   5   7
ENDBRANCH   2   3
ENDBRANCH   1   2
BRANCH   1  20
ATOM     20  C   UNL A   1      32.954  28.296  26.780  1.00  0.00     0.002 C 
BRANCH  20  21
ATOM     21  C   UNL A   1      31.746  28.920  26.076  1.00  0.00     0.002 C 
BRANCH  21  22
ATOM     22  C   UNL A   1      31.738  30.447  26.032  1.00  0.00     0.021 C 
BRANCH  22  23
ATOM     23  C   UNL A   1      32.655  31.124  27.044  1.00  0.00     0.116 C 
BRANCH  23  24
ATOM     24  N   UNL A   1      32.308  32.518  27.271  1.00  0.00    -0.352 N 
ATOM     25  C   UNL A   1      32.979  33.476  27.992  1.00  0.00     0.251 C 
ATOM     26  H   UNL A   1      31.472  32.819  26.847  1.00  0.00     0.163 HD
ATOM     27  O   UNL A   1      32.456  34.567  28.207  1.00  0.00    -0.269 OA
BRANCH  25  28
ATOM     28  C   UNL A   1      34.323  33.188  28.541  1.00  0.00     0.039 A 
ATOM     29  C   UNL A   1      34.425  32.528  29.769  1.00  0.00     0.014 A 
ATOM     30  C   UNL A   1      35.479  33.554  27.846  1.00  0.00     0.014 A 
ATOM     31  C   UNL A   1      35.680  32.167  30.261  1.00  0.00     0.010 A 
ATOM     32  C   UNL A   1      36.725  33.128  28.300  1.00  0.00     0.010 A 
ATOM     33  C   UNL A   1      36.839  32.425  29.509  1.00  0.00    -0.014 A 
BRANCH  33  34
ATOM     34  C   UNL A   1      38.173  31.946  29.957  1.00  0.00     0.031 A 
ATOM     35  C   UNL A   1      38.726  30.644  29.448  1.00  0.00     0.074 A 
ATOM     36  C   UNL A   1      38.856  32.649  30.882  1.00  0.00     0.049 A 
ATOM     37  N   UNL A   1      39.837  30.034  29.778  1.00  0.00    -0.248 NA
ATOM     38  C   UNL A   1      37.915  29.921  28.455  1.00  0.00     0.031 C 
ATOM     39  C   UNL A   1      38.416  33.908  31.488  1.00  0.00     0.029 A 
ATOM     40  N   UNL A   1      40.065  32.397  31.484  1.00  0.00    -0.354 N 
ATOM     41  C   UNL A   1      39.849  28.851  29.049  1.00  0.00     0.074 A 
ATOM     42  C   UNL A   1      38.613  28.807  28.296  1.00  0.00     0.031 C 
ATOM     43  C   UNL A   1      39.348  34.328  32.357  1.00  0.00     0.029 A 
ATOM     44  C   UNL A   1      40.430  33.349  32.405  1.00  0.00     0.049 A 
ATOM     45  H   UNL A   1      40.617  31.610  31.274  1.00  0.00     0.167 HD
ATOM     46  C   UNL A   1      40.808  27.896  28.995  1.00  0.00     0.031 A 
ATOM     47  C   UNL A   1      41.508  33.422  33.210  1.00  0.00     0.031 A 
ATOM     48  C   UNL A   1      42.039  27.940  29.741  1.00  0.00     0.049 A 
ATOM     49  C   UNL A   1      42.545  32.336  33.153  1.00  0.00     0.074 A 
ATOM     50  C   UNL A   1      43.097  27.049  29.709  1.00  0.00     0.029 A 
ATOM     51  N   UNL A   1      42.371  28.923  30.660  1.00  0.00    -0.354 N 
ATOM     52  N   UNL A   1      42.576  31.263  32.401  1.00  0.00    -0.248 NA
ATOM     53  C   UNL A   1      43.701  32.479  34.049  1.00  0.00     0.031 C 
ATOM     54  C   UNL A   1      44.043  27.460  30.654  1.00  0.00     0.029 A 
ATOM     55  C   UNL A   1      43.604  28.642  31.226  1.00  0.00     0.049 A 
ATOM     56  H   UNL A   1      41.814  29.705  30.879  1.00  0.00     0.167 HD
ATOM     57  C   UNL A   1      43.765  30.616  32.715  1.00  0.00     0.074 A 
ATOM     58  C   UNL A   1      44.434  31.427  33.710  1.00  0.00     0.031 C 
ATOM     59  C   UNL A   1      44.258  29.454  32.220  1.00  0.00     0.031 A 
BRANCH  46  60
ATOM     60  C   UNL A   1      40.556  26.711  28.104  1.00  0.00    -0.014 A 
ATOM     61  C   UNL A   1      41.123  26.626  26.821  1.00  0.00     0.009 A 
ATOM     62  C   UNL A   1      39.767  25.646  28.567  1.00  0.00     0.009 A 
ATOM     63  C   UNL A   1      40.869  25.520  26.007  1.00  0.00     0.001 A 
ATOM     64  C   UNL A   1      39.543  24.527  27.762  1.00  0.00     0.001 A 
ATOM     65  C   UNL A   1      40.084  24.471  26.479  1.00  0.00     0.000 A 
ENDBRANCH  46  60
BRANCH  47  66
ATOM     66  C   UNL A   1      41.660  34.570  34.144  1.00  0.00    -0.014 A 
ATOM     67  C   UNL A   1      42.300  35.747  33.729  1.00  0.00     0.009 A 
ATOM     68  C   UNL A   1      41.170  34.492  35.456  1.00  0.00     0.009 A 
ATOM     69  C   UNL A   1      42.470  36.813  34.617  1.00  0.00     0.001 A 
ATOM     70  C   UNL A   1      41.313  35.570  36.333  1.00  0.00     0.001 A 
ATOM     71  C   UNL A   1      41.972  36.725  35.916  1.00  0.00     0.000 A 
ENDBRANCH  47  66
BRANCH  59  72
ATOM     72  C   UNL A   1      45.601  29.004  32.725  1.00  0.00    -0.014 A 
ATOM     73  C   UNL A   1      46.788  29.384  32.082  1.00  0.00     0.009 A 
ATOM     74  C   UNL A   1      45.679  28.225  33.891  1.00  0.00     0.009 A 
ATOM     75  C   UNL A   1      48.025  28.965  32.576  1.00  0.00     0.001 A 
ATOM     76  C   UNL A   1      46.917  27.834  34.401  1.00  0.00     0.001 A 
ATOM     77  C   UNL A   1      48.089  28.196  33.738  1.00  0.00     0.000 A 
ENDBRANCH  59  72
ENDBRANCH  33  34
ENDBRANCH  25  28
ENDBRANCH  23  24
ENDBRANCH  22  23
ENDBRANCH  21  22
ENDBRANCH  20  21
ENDBRANCH   1  20
TORSDOF 18
ENDMDL
MODEL 2
REMARK VINA RESULT:      -9.3      4.879      9.800
REMARK SMILES O=C(CCCC(=O)NCc1ccco1)NCCCCCCNC(=O)c1ccc(-c2c3nc(c(-c4ccccc4)c4ccc([nH]4)c(-c4ccccc4)c4nc(c(-c5ccccc5)c5ccc2[nH]5)C=C4)C=C3)cc1
REMARK SMILES IDX 17 1 16 2 15 3 1 4 2 5 3 7 4 8 5 9 6 10 7 11 8 12 9 14 10 15
REMARK SMILES IDX 11 16 14 17 12 18 13 19 18 20 19 21 20 22 21 23 22 24 23 25
REMARK SMILES IDX 24 27 25 28 26 29 72 30 27 31 71 32 28 33 29 34 30 35 65 36
REMARK SMILES IDX 31 37 70 38 64 39 66 40 32 41 69 42 63 43 62 44 33 46 55 47
REMARK SMILES IDX 40 48 54 49 41 50 44 51 53 52 67 53 42 54 43 55 52 57 68 58
REMARK SMILES IDX 45 59 34 60 35 61 39 62 36 63 38 64 37 65 56 66 57 67 61 68
REMARK SMILES IDX 58 69 60 70 59 71 46 72 47 73 51 74 48 75 50 76 49 77
REMARK H PARENT 15 6 8 13 22 26 66 45 44 56
REMARK Flexibility Score: inf
ROOT
ATOM      1  C   UNL A   1      39.742  21.893  26.337  1.00  0.00     0.021 C 
ENDROOT
BRANCH   1   2
ATOM      2  C   UNL A   1      38.900  23.167  26.476  1.00  0.00     0.116 C 
BRANCH   2   3
ATOM      3  N   UNL A   1      38.015  23.319  25.343  1.00  0.00    -0.356 N 
ATOM      4  O   UNL A   1      36.315  22.000  26.083  1.00  0.00    -0.275 OA
ATOM      5  C   UNL A   1      36.811  22.690  25.197  1.00  0.00     0.220 C 
ATOM      6  H   UNL A   1      38.303  23.923  24.621  1.00  0.00     0.163 HD
BRANCH   5   7
ATOM      7  C   UNL A   1      36.197  22.745  23.800  1.00  0.00     0.100 C 
BRANCH   7   8
ATOM      8  C   UNL A   1      34.884  23.482  23.530  1.00  0.00     0.020 C 
BRANCH   8   9
ATOM      9  C   UNL A   1      33.537  22.755  23.454  1.00  0.00     0.100 C 
BRANCH   9  10
ATOM     10  C   UNL A   1      33.053  21.930  24.634  1.00  0.00     0.220 C 
ATOM     11  O   UNL A   1      32.992  22.447  25.754  1.00  0.00    -0.275 OA
ATOM     12  N   UNL A   1      32.585  20.667  24.520  1.00  0.00    -0.349 N 
ATOM     13  H   UNL A   1      32.241  20.302  25.368  1.00  0.00     0.163 HD
BRANCH  12  14
ATOM     14  C   UNL A   1      32.482  19.740  23.417  1.00  0.00     0.191 C 
BRANCH  14  15
ATOM     15  C   UNL A   1      32.750  18.365  23.919  1.00  0.00     0.122 A 
ATOM     16  C   UNL A   1      33.455  17.285  23.425  1.00  0.00     0.047 A 
ATOM     17  O   UNL A   1      32.197  18.038  25.124  1.00  0.00    -0.467 OA
ATOM     18  C   UNL A   1      33.307  16.239  24.365  1.00  0.00     0.042 A 
ATOM     19  C   UNL A   1      32.543  16.752  25.386  1.00  0.00     0.195 A 
ENDBRANCH  14  15
ENDBRANCH  12  14
ENDBRANCH   9  10
ENDBRANCH   8   9
ENDBRANCH   7   8
ENDBRANCH   5   7
ENDBRANCH   2   3
ENDBRANCH   1   2
BRANCH   1  20
ATOM     20  C   UNL A   1      41.248  22.046  26.617  1.00  0.00     0.002 C 
BRANCH  20  21
ATOM     21  C   UNL A   1      41.851  21.058  27.619  1.00  0.00     0.002 C 
BRANCH  21  22
ATOM     22  C   UNL A   1      42.408  19.774  27.009  1.00  0.00     0.021 C 
BRANCH  22  23
ATOM     23  C   UNL A   1      42.271  19.669  25.495  1.00  0.00     0.116 C 
BRANCH  23  24
ATOM     24  N   UNL A   1      43.431  19.057  24.867  1.00  0.00    -0.352 N 
ATOM     25  C   UNL A   1      44.622  19.630  24.492  1.00  0.00     0.251 C 
ATOM     26  H   UNL A   1      43.352  18.093  24.684  1.00  0.00     0.163 HD
ATOM     27  O   UNL A   1      45.434  18.990  23.829  1.00  0.00    -0.269 OA
BRANCH  25  28
ATOM     28  C   UNL A   1      44.920  21.033  24.858  1.00  0.00     0.039 A 
ATOM     29  C   UNL A   1      44.562  22.053  23.972  1.00  0.00     0.014 A 
ATOM     30  C   UNL A   1      45.538  21.345  26.071  1.00  0.00     0.014 A 
ATOM     31  C   UNL A   1      44.752  23.387  24.337  1.00  0.00     0.010 A 
ATOM     32  C   UNL A   1      45.657  22.676  26.466  1.00  0.00     0.010 A 
ATOM     33  C   UNL A   1      45.260  23.711  25.606  1.00  0.00    -0.014 A 
BRANCH  33  34
ATOM     34  C   UNL A   1      45.361  25.123  26.060  1.00  0.00     0.031 A 
ATOM     35  C   UNL A   1      46.683  25.839  26.036  1.00  0.00     0.074 A 
ATOM     36  C   UNL A   1      44.274  25.739  26.566  1.00  0.00     0.049 A 
ATOM     37  N   UNL A   1      46.976  27.044  26.456  1.00  0.00    -0.248 NA
ATOM     38  C   UNL A   1      47.830  25.097  25.490  1.00  0.00     0.031 C 
ATOM     39  C   UNL A   1      42.940  25.145  26.684  1.00  0.00     0.029 A 
ATOM     40  N   UNL A   1      44.122  27.001  27.087  1.00  0.00    -0.354 N 
ATOM     41  C   UNL A   1      48.341  27.197  26.241  1.00  0.00     0.074 A 
ATOM     42  C   UNL A   1      48.825  25.946  25.699  1.00  0.00     0.031 C 
ATOM     43  C   UNL A   1      42.103  26.047  27.221  1.00  0.00     0.029 A 
ATOM     44  C   UNL A   1      42.847  27.264  27.526  1.00  0.00     0.049 A 
ATOM     45  H   UNL A   1      44.856  27.654  27.139  1.00  0.00     0.167 HD
ATOM     46  C   UNL A   1      49.117  28.285  26.457  1.00  0.00     0.031 A 
ATOM     47  C   UNL A   1      42.334  28.358  28.123  1.00  0.00     0.031 A 
ATOM     48  C   UNL A   1      48.637  29.531  26.995  1.00  0.00     0.049 A 
ATOM     49  C   UNL A   1      43.223  29.543  28.379  1.00  0.00     0.074 A 
ATOM     50  C   UNL A   1      49.336  30.708  27.197  1.00  0.00     0.029 A 
ATOM     51  N   UNL A   1      47.339  29.758  27.424  1.00  0.00    -0.354 N 
ATOM     52  N   UNL A   1      44.494  29.697  28.099  1.00  0.00    -0.248 NA
ATOM     53  C   UNL A   1      42.602  30.708  29.023  1.00  0.00     0.031 C 
ATOM     54  C   UNL A   1      48.476  31.629  27.805  1.00  0.00     0.029 A 
ATOM     55  C   UNL A   1      47.225  31.047  27.921  1.00  0.00     0.049 A 
ATOM     56  H   UNL A   1      46.606  29.102  27.383  1.00  0.00     0.167 HD
ATOM     57  C   UNL A   1      44.819  30.984  28.509  1.00  0.00     0.074 A 
ATOM     58  C   UNL A   1      43.607  31.573  29.040  1.00  0.00     0.031 C 
ATOM     59  C   UNL A   1      46.014  31.620  28.451  1.00  0.00     0.031 A 
BRANCH  46  60
ATOM     60  C   UNL A   1      50.580  28.169  26.124  1.00  0.00    -0.014 A 
ATOM     61  C   UNL A   1      51.065  28.488  24.844  1.00  0.00     0.009 A 
ATOM     62  C   UNL A   1      51.491  27.767  27.112  1.00  0.00     0.009 A 
ATOM     63  C   UNL A   1      52.425  28.365  24.552  1.00  0.00     0.001 A 
ATOM     64  C   UNL A   1      52.855  27.678  26.826  1.00  0.00     0.001 A 
ATOM     65  C   UNL A   1      53.319  27.965  25.543  1.00  0.00     0.000 A 
ENDBRANCH  46  60
BRANCH  47  66
ATOM     66  C   UNL A   1      40.902  28.383  28.521  1.00  0.00    -0.014 A 
ATOM     67  C   UNL A   1      39.932  28.927  27.665  1.00  0.00     0.009 A 
ATOM     68  C   UNL A   1      40.497  27.868  29.762  1.00  0.00     0.009 A 
ATOM     69  C   UNL A   1      38.591  28.979  28.055  1.00  0.00     0.001 A 
ATOM     70  C   UNL A   1      39.151  27.891  30.136  1.00  0.00     0.001 A 
ATOM     71  C   UNL A   1      38.201  28.456  29.287  1.00  0.00     0.000 A 
ENDBRANCH  47  66
BRANCH  59  72
ATOM     72  C   UNL A   1      46.065  33.040  28.945  1.00  0.00    -0.014 A 
ATOM     73  C   UNL A   1      45.779  34.119  28.097  1.00  0.00     0.009 A 
ATOM     74  C   UNL A   1      46.360  33.295  30.294  1.00  0.00     0.009 A 
ATOM     75  C   UNL A   1      45.820  35.428  28.581  1.00  0.00     0.001 A 
ATOM     76  C   UNL A   1      46.369  34.602  30.784  1.00  0.00     0.001 A 
ATOM     77  C   UNL A   1      46.108  35.668  29.925  1.00  0.00     0.000 A 
ENDBRANCH  59  72
ENDBRANCH  33  34
ENDBRANCH  25  28
ENDBRANCH  23  24
ENDBRANCH  22  23
ENDBRANCH  21  22
ENDBRANCH  20  21
ENDBRANCH   1  20
TORSDOF 18
ENDMDL
MODEL 3
REMARK VINA RESULT:      -9.3      2.024      7.885
REMARK SMILES O=C(CCCC(=O)NCc1ccco1)NCCCCCCNC(=O)c1ccc(-c2c3nc(c(-c4ccccc4)c4ccc([nH]4)c(-c4ccccc4)c4nc(c(-c5ccccc5)c5ccc2[nH]5)C=C4)C=C3)cc1
REMARK SMILES IDX 17 1 16 2 15 3 1 4 2 5 3 7 4 8 5 9 6 10 7 11 8 12 9 14 10 15
REMARK SMILES IDX 11 16 14 17 12 18 13 19 18 20 19 21 20 22 21 23 22 24 23 25
REMARK SMILES IDX 24 27 25 28 26 29 72 30 27 31 71 32 28 33 29 34 30 35 65 36
REMARK SMILES IDX 31 37 70 38 64 39 66 40 32 41 69 42 63 43 62 44 33 46 55 47
REMARK SMILES IDX 40 48 54 49 41 50 44 51 53 52 67 53 42 54 43 55 52 57 68 58
REMARK SMILES IDX 45 59 34 60 35 61 39 62 36 63 38 64 37 65 56 66 57 67 61 68
REMARK SMILES IDX 58 69 60 70 59 71 46 72 47 73 51 74 48 75 50 76 49 77
REMARK H PARENT 15 6 8 13 22 26 66 45 44 56
REMARK Flexibility Score: inf
ROOT
ATOM      1  C   UNL A   1      33.547  21.152  26.208  1.00  0.00     0.021 C 
ENDROOT
BRANCH   1   2
ATOM      2  C   UNL A   1      32.265  21.801  25.673  1.00  0.00     0.116 C 
BRANCH   2   3
ATOM      3  N   UNL A   1      32.511  23.171  25.280  1.00  0.00    -0.356 N 
ATOM      4  O   UNL A   1      31.801  24.186  27.188  1.00  0.00    -0.275 OA
ATOM      5  C   UNL A   1      32.217  24.270  26.037  1.00  0.00     0.220 C 
ATOM      6  H   UNL A   1      32.922  23.323  24.398  1.00  0.00     0.163 HD
BRANCH   5   7
ATOM      7  C   UNL A   1      32.265  25.611  25.309  1.00  0.00     0.100 C 
BRANCH   7   8
ATOM      8  C   UNL A   1      33.146  26.759  25.801  1.00  0.00     0.020 C 
BRANCH   8   9
ATOM      9  C   UNL A   1      33.376  28.029  24.974  1.00  0.00     0.100 C 
BRANCH   9  10
ATOM     10  C   UNL A   1      32.542  29.270  25.241  1.00  0.00     0.220 C 
ATOM     11  O   UNL A   1      32.941  30.108  26.056  1.00  0.00    -0.275 OA
ATOM     12  N   UNL A   1      31.413  29.571  24.562  1.00  0.00    -0.349 N 
ATOM     13  H   UNL A   1      31.035  30.448  24.805  1.00  0.00     0.163 HD
BRANCH  12  14
ATOM     14  C   UNL A   1      30.644  28.880  23.553  1.00  0.00     0.191 C 
BRANCH  14  15
ATOM     15  C   UNL A   1      29.643  29.822  22.983  1.00  0.00     0.122 A 
ATOM     16  C   UNL A   1      28.947  30.902  23.491  1.00  0.00     0.047 A 
ATOM     17  O   UNL A   1      29.289  29.621  21.681  1.00  0.00    -0.467 OA
ATOM     18  C   UNL A   1      28.109  31.369  22.451  1.00  0.00     0.042 A 
ATOM     19  C   UNL A   1      28.364  30.563  21.367  1.00  0.00     0.195 A 
ENDBRANCH  14  15
ENDBRANCH  12  14
ENDBRANCH   9  10
ENDBRANCH   8   9
ENDBRANCH   7   8
ENDBRANCH   5   7
ENDBRANCH   2   3
ENDBRANCH   1   2
BRANCH   1  20
ATOM     20  C   UNL A   1      34.523  20.614  25.147  1.00  0.00     0.002 C 
BRANCH  20  21
ATOM     21  C   UNL A   1      35.918  21.247  25.131  1.00  0.00     0.002 C 
BRANCH  21  22
ATOM     22  C   UNL A   1      35.976  22.701  25.595  1.00  0.00     0.021 C 
BRANCH  22  23
ATOM     23  C   UNL A   1      37.285  23.420  25.293  1.00  0.00     0.116 C 
BRANCH  23  24
ATOM     24  N   UNL A   1      38.454  22.604  25.586  1.00  0.00    -0.352 N 
ATOM     25  C   UNL A   1      39.622  22.951  26.221  1.00  0.00     0.251 C 
ATOM     26  H   UNL A   1      38.400  21.668  25.285  1.00  0.00     0.163 HD
ATOM     27  O   UNL A   1      40.569  22.170  26.242  1.00  0.00    -0.269 OA
BRANCH  25  28
ATOM     28  C   UNL A   1      39.755  24.282  26.855  1.00  0.00     0.039 A 
ATOM     29  C   UNL A   1      39.197  24.487  28.120  1.00  0.00     0.014 A 
ATOM     30  C   UNL A   1      40.436  25.320  26.215  1.00  0.00     0.014 A 
ATOM     31  C   UNL A   1      39.389  25.705  28.774  1.00  0.00     0.010 A 
ATOM     32  C   UNL A   1      40.691  26.507  26.899  1.00  0.00     0.010 A 
ATOM     33  C   UNL A   1      40.176  26.710  28.187  1.00  0.00    -0.014 A 
BRANCH  33  34
ATOM     34  C   UNL A   1      40.490  27.968  28.914  1.00  0.00     0.031 A 
ATOM     35  C   UNL A   1      41.791  28.116  29.653  1.00  0.00     0.074 A 
ATOM     36  C   UNL A   1      39.571  28.952  28.971  1.00  0.00     0.049 A 
ATOM     37  N   UNL A   1      42.209  29.110  30.397  1.00  0.00    -0.248 NA
ATOM     38  C   UNL A   1      42.738  26.994  29.562  1.00  0.00     0.031 C 
ATOM     39  C   UNL A   1      38.252  28.920  28.333  1.00  0.00     0.029 A 
ATOM     40  N   UNL A   1      39.601  30.168  29.608  1.00  0.00    -0.354 N 
ATOM     41  C   UNL A   1      43.455  28.725  30.876  1.00  0.00     0.074 A 
ATOM     42  C   UNL A   1      43.704  27.389  30.378  1.00  0.00     0.031 C 
ATOM     43  C   UNL A   1      37.610  30.070  28.592  1.00  0.00     0.029 A 
ATOM     44  C   UNL A   1      38.449  30.901  29.449  1.00  0.00     0.049 A 
ATOM     45  H   UNL A   1      40.374  30.485  30.128  1.00  0.00     0.167 HD
ATOM     46  C   UNL A   1      44.322  29.424  31.646  1.00  0.00     0.031 A 
ATOM     47  C   UNL A   1      38.098  32.101  29.950  1.00  0.00     0.031 A 
ATOM     48  C   UNL A   1      44.077  30.754  32.141  1.00  0.00     0.049 A 
ATOM     49  C   UNL A   1      39.066  32.846  30.825  1.00  0.00     0.074 A 
ATOM     50  C   UNL A   1      44.919  31.566  32.880  1.00  0.00     0.029 A 
ATOM     51  N   UNL A   1      42.900  31.461  31.955  1.00  0.00    -0.354 N 
ATOM     52  N   UNL A   1      40.271  32.499  31.205  1.00  0.00    -0.248 NA
ATOM     53  C   UNL A   1      38.628  34.155  31.331  1.00  0.00     0.031 C 
ATOM     54  C   UNL A   1      44.228  32.741  33.194  1.00  0.00     0.029 A 
ATOM     55  C   UNL A   1      42.981  32.688  32.594  1.00  0.00     0.049 A 
ATOM     56  H   UNL A   1      42.121  31.140  31.445  1.00  0.00     0.167 HD
ATOM     57  C   UNL A   1      40.745  33.556  31.973  1.00  0.00     0.074 A 
ATOM     58  C   UNL A   1      39.705  34.563  31.988  1.00  0.00     0.031 C 
ATOM     59  C   UNL A   1      41.936  33.680  32.607  1.00  0.00     0.031 A 
BRANCH  46  60
ATOM     60  C   UNL A   1      45.618  28.754  32.013  1.00  0.00    -0.014 A 
ATOM     61  C   UNL A   1      45.736  27.981  33.180  1.00  0.00     0.009 A 
ATOM     62  C   UNL A   1      46.728  28.868  31.162  1.00  0.00     0.009 A 
ATOM     63  C   UNL A   1      46.950  27.373  33.507  1.00  0.00     0.001 A 
ATOM     64  C   UNL A   1      47.931  28.232  31.475  1.00  0.00     0.001 A 
ATOM     65  C   UNL A   1      48.044  27.495  32.653  1.00  0.00     0.000 A 
ENDBRANCH  46  60
BRANCH  47  66
ATOM     66  C   UNL A   1      36.763  32.675  29.633  1.00  0.00    -0.014 A 
ATOM     67  C   UNL A   1      36.573  33.444  28.476  1.00  0.00     0.009 A 
ATOM     68  C   UNL A   1      35.673  32.462  30.491  1.00  0.00     0.009 A 
ATOM     69  C   UNL A   1      35.325  34.009  28.197  1.00  0.00     0.001 A 
ATOM     70  C   UNL A   1      34.418  33.000  30.194  1.00  0.00     0.001 A 
ATOM     71  C   UNL A   1      34.249  33.782  29.053  1.00  0.00     0.000 A 
ENDBRANCH  47  66
BRANCH  59  72
ATOM     72  C   UNL A   1      42.194  34.964  33.347  1.00  0.00    -0.014 A 
ATOM     73  C   UNL A   1      41.733  35.157  34.658  1.00  0.00     0.009 A 
ATOM     74  C   UNL A   1      42.949  35.978  32.735  1.00  0.00     0.009 A 
ATOM     75  C   UNL A   1      41.996  36.352  35.329  1.00  0.00     0.001 A 
ATOM     76  C   UNL A   1      43.237  37.159  33.420  1.00  0.00     0.001 A 
ATOM     77  C   UNL A   1      42.752  37.349  34.714  1.00  0.00     0.000 A 
ENDBRANCH  59  72
ENDBRANCH  33  34
ENDBRANCH  25  28
ENDBRANCH  23  24
ENDBRANCH  22  23
ENDBRANCH  21  22
ENDBRANCH  20  21
ENDBRANCH   1  20
TORSDOF 18
ENDMDL
