MODEL 1
REMARK VINA RESULT:      -8.5      0.000      0.000
REMARK SMILES C#Cc1cccc(N(C)S(=O)(=O)c2cc(F)c(F)c(C(=O)NCCCCCCNC(=O)c3ccc(-c4c5nc(c(-c6ccccc6)c6ccc([nH]6)c(-c6ccccc6)c6nc(c(-c7ccccc7)c7ccc4[nH]7)C=C6)C=C5)cc3)c2)c1
REMARK SMILES IDX 24 1 23 2 22 3 20 4 21 5 19 7 13 8 14 9 80 10 15 11 16 12
REMARK SMILES IDX 17 13 18 14 10 15 11 16 12 17 8 18 9 19 7 20 3 21 4 22 81 23
REMARK SMILES IDX 5 24 6 25 2 26 1 27 25 28 26 29 27 30 28 31 29 32 30 33
REMARK SMILES IDX 31 35 32 36 33 37 79 38 34 39 78 40 35 41 36 42 37 43 72 44
REMARK SMILES IDX 38 45 77 46 71 47 73 48 39 49 76 50 70 51 69 52 40 54 62 55
REMARK SMILES IDX 47 56 61 57 48 58 51 59 60 60 74 61 49 62 50 63 59 65 75 66
REMARK SMILES IDX 52 67 41 68 42 69 46 70 43 71 45 72 44 73 63 74 64 75 68 76
REMARK SMILES IDX 65 77 67 78 66 79 53 80 54 81 58 82 55 83 57 84 56 85
REMARK H PARENT 22 6 29 34 73 53 51 64
REMARK Flexibility Score: inf
ROOT
ATOM      1  C   UNL A   1      43.382  24.148  27.375  1.00  0.00     0.021 C 
ENDROOT
BRANCH   1   2
ATOM      2  C   UNL A   1      42.275  23.942  28.396  1.00  0.00     0.116 C 
BRANCH   2   3
ATOM      3  N   UNL A   1      40.919  23.813  27.939  1.00  0.00    -0.352 N 
ATOM      4  C   UNL A   1      39.998  24.812  27.662  1.00  0.00     0.254 C 
ATOM      5  O   UNL A   1      38.913  24.462  27.203  1.00  0.00    -0.269 OA
ATOM      6  H   UNL A   1      40.602  22.892  27.803  1.00  0.00     0.163 HD
BRANCH   4   7
ATOM      7  C   UNL A   1      40.254  26.267  27.959  1.00  0.00     0.079 A 
ATOM      8  C   UNL A   1      40.061  28.263  29.366  1.00  0.00     0.091 A 
ATOM      9  C   UNL A   1      40.403  29.059  28.263  1.00  0.00     0.064 A 
ATOM     10  C   UNL A   1      40.103  26.865  29.235  1.00  0.00     0.039 A 
ATOM     11  C   UNL A   1      40.724  28.462  27.050  1.00  0.00     0.161 A 
ATOM     12  F   UNL A   1      41.088  29.236  26.019  1.00  0.00    -0.204 F 
ATOM     13  C   UNL A   1      40.614  27.085  26.879  1.00  0.00     0.171 A 
ATOM     14  F   UNL A   1      40.827  26.581  25.655  1.00  0.00    -0.203 F 
BRANCH   8  15
ATOM     15  S   UNL A   1      39.419  29.159  30.804  1.00  0.00     0.264 S 
ATOM     16  O   UNL A   1      40.409  30.191  31.046  1.00  0.00    -0.201 OA
ATOM     17  O   UNL A   1      39.139  28.143  31.797  1.00  0.00    -0.201 OA
BRANCH  15  18
ATOM     18  N   UNL A   1      37.944  29.975  30.436  1.00  0.00    -0.269 N 
ATOM     19  C   UNL A   1      37.204  29.485  29.267  1.00  0.00     0.164 C 
BRANCH  18  20
ATOM     20  C   UNL A   1      37.909  31.449  30.556  1.00  0.00     0.053 A 
ATOM     21  C   UNL A   1      37.482  33.552  31.717  1.00  0.00     0.026 A 
ATOM     22  C   UNL A   1      37.943  34.283  30.621  1.00  0.00     0.017 A 
ATOM     23  C   UNL A   1      37.471  32.145  31.688  1.00  0.00     0.044 A 
ATOM     24  C   UNL A   1      38.364  33.616  29.481  1.00  0.00     0.003 A 
ATOM     25  C   UNL A   1      38.314  32.221  29.442  1.00  0.00     0.027 A 
BRANCH  21  26
ATOM     26  C   UNL A   1      37.006  34.256  32.866  1.00  0.00    -0.070 C 
ATOM     27  C   UNL A   1      36.572  34.847  33.820  1.00  0.00     0.010 C 
ENDBRANCH  21  26
ENDBRANCH  18  20
ENDBRANCH  15  18
ENDBRANCH   8  15
ENDBRANCH   4   7
ENDBRANCH   2   3
ENDBRANCH   1   2
BRANCH   1  28
ATOM     28  C   UNL A   1      43.210  23.464  26.026  1.00  0.00     0.002 C 
BRANCH  28  29
ATOM     29  C   UNL A   1      44.051  24.024  24.873  1.00  0.00     0.002 C 
BRANCH  29  30
ATOM     30  C   UNL A   1      45.486  23.498  24.755  1.00  0.00     0.021 C 
BRANCH  30  31
ATOM     31  C   UNL A   1      46.555  24.340  25.446  1.00  0.00     0.116 C 
BRANCH  31  32
ATOM     32  N   UNL A   1      47.001  25.453  24.625  1.00  0.00    -0.352 N 
ATOM     33  C   UNL A   1      46.706  26.790  24.712  1.00  0.00     0.251 C 
ATOM     34  H   UNL A   1      47.609  25.209  23.890  1.00  0.00     0.163 HD
ATOM     35  O   UNL A   1      47.013  27.546  23.795  1.00  0.00    -0.269 OA
BRANCH  33  36
ATOM     36  C   UNL A   1      46.006  27.322  25.899  1.00  0.00     0.039 A 
ATOM     37  C   UNL A   1      46.764  27.773  26.984  1.00  0.00     0.014 A 
ATOM     38  C   UNL A   1      44.610  27.358  25.957  1.00  0.00     0.014 A 
ATOM     39  C   UNL A   1      46.122  28.313  28.099  1.00  0.00     0.010 A 
ATOM     40  C   UNL A   1      43.976  27.974  27.031  1.00  0.00     0.010 A 
ATOM     41  C   UNL A   1      44.724  28.454  28.117  1.00  0.00    -0.014 A 
BRANCH  41  42
ATOM     42  C   UNL A   1      44.034  29.106  29.258  1.00  0.00     0.031 A 
ATOM     43  C   UNL A   1      43.675  30.565  29.201  1.00  0.00     0.074 A 
ATOM     44  C   UNL A   1      43.779  28.394  30.373  1.00  0.00     0.049 A 
ATOM     45  N   UNL A   1      43.104  31.310  30.113  1.00  0.00    -0.248 NA
ATOM     46  C   UNL A   1      44.023  31.286  27.967  1.00  0.00     0.031 C 
ATOM     47  C   UNL A   1      44.106  26.980  30.569  1.00  0.00     0.029 A 
ATOM     48  N   UNL A   1      43.185  28.763  31.554  1.00  0.00    -0.354 N 
ATOM     49  C   UNL A   1      43.037  32.587  29.569  1.00  0.00     0.074 A 
ATOM     50  C   UNL A   1      43.680  32.528  28.275  1.00  0.00     0.031 C 
ATOM     51  C   UNL A   1      43.675  26.593  31.779  1.00  0.00     0.029 A 
ATOM     52  C   UNL A   1      43.092  27.741  32.466  1.00  0.00     0.049 A 
ATOM     53  H   UNL A   1      42.857  29.674  31.730  1.00  0.00     0.167 HD
ATOM     54  C   UNL A   1      42.472  33.703  30.088  1.00  0.00     0.031 A 
ATOM     55  C   UNL A   1      42.603  27.726  33.721  1.00  0.00     0.031 A 
ATOM     56  C   UNL A   1      41.845  33.763  31.383  1.00  0.00     0.049 A 
ATOM     57  C   UNL A   1      42.025  28.989  34.296  1.00  0.00     0.074 A 
ATOM     58  C   UNL A   1      41.207  34.834  31.983  1.00  0.00     0.029 A 
ATOM     59  N   UNL A   1      41.790  32.710  32.284  1.00  0.00    -0.354 N 
ATOM     60  N   UNL A   1      41.907  30.172  33.742  1.00  0.00    -0.248 NA
ATOM     61  C   UNL A   1      41.505  28.911  35.668  1.00  0.00     0.031 C 
ATOM     62  C   UNL A   1      40.838  34.453  33.277  1.00  0.00     0.029 A 
ATOM     63  C   UNL A   1      41.166  33.118  33.451  1.00  0.00     0.049 A 
ATOM     64  H   UNL A   1      42.143  31.806  32.120  1.00  0.00     0.167 HD
ATOM     65  C   UNL A   1      41.269  30.970  34.684  1.00  0.00     0.074 A 
ATOM     66  C   UNL A   1      41.013  30.130  35.836  1.00  0.00     0.031 C 
ATOM     67  C   UNL A   1      40.924  32.279  34.598  1.00  0.00     0.031 A 
BRANCH  54  68
ATOM     68  C   UNL A   1      42.537  34.960  29.261  1.00  0.00    -0.014 A 
ATOM     69  C   UNL A   1      41.506  35.311  28.372  1.00  0.00     0.009 A 
ATOM     70  C   UNL A   1      43.642  35.818  29.381  1.00  0.00     0.009 A 
ATOM     71  C   UNL A   1      41.606  36.460  27.586  1.00  0.00     0.001 A 
ATOM     72  C   UNL A   1      43.720  36.989  28.624  1.00  0.00     0.001 A 
ATOM     73  C   UNL A   1      42.711  37.300  27.716  1.00  0.00     0.000 A 
ENDBRANCH  54  68
BRANCH  55  74
ATOM     74  C   UNL A   1      42.636  26.468  34.515  1.00  0.00    -0.014 A 
ATOM     75  C   UNL A   1      43.857  25.855  34.836  1.00  0.00     0.009 A 
ATOM     76  C   UNL A   1      41.443  25.876  34.962  1.00  0.00     0.009 A 
ATOM     77  C   UNL A   1      43.881  24.664  35.564  1.00  0.00     0.001 A 
ATOM     78  C   UNL A   1      41.472  24.705  35.721  1.00  0.00     0.001 A 
ATOM     79  C   UNL A   1      42.690  24.093  36.012  1.00  0.00     0.000 A 
ENDBRANCH  55  74
BRANCH  67  80
ATOM     80  C   UNL A   1      40.193  32.879  35.769  1.00  0.00    -0.014 A 
ATOM     81  C   UNL A   1      40.870  33.570  36.787  1.00  0.00     0.009 A 
ATOM     82  C   UNL A   1      38.793  32.785  35.832  1.00  0.00     0.009 A 
ATOM     83  C   UNL A   1      40.164  34.117  37.861  1.00  0.00     0.001 A 
ATOM     84  C   UNL A   1      38.087  33.367  36.885  1.00  0.00     0.001 A 
ATOM     85  C   UNL A   1      38.773  34.022  37.905  1.00  0.00     0.000 A 
ENDBRANCH  67  80
ENDBRANCH  41  42
ENDBRANCH  33  36
ENDBRANCH  31  32
ENDBRANCH  30  31
ENDBRANCH  29  30
ENDBRANCH  28  29
ENDBRANCH   1  28
TORSDOF 17
ENDMDL
MODEL 2
REMARK VINA RESULT:      -8.3      4.536      6.422
REMARK SMILES C#Cc1cccc(N(C)S(=O)(=O)c2cc(F)c(F)c(C(=O)NCCCCCCNC(=O)c3ccc(-c4c5nc(c(-c6ccccc6)c6ccc([nH]6)c(-c6ccccc6)c6nc(c(-c7ccccc7)c7ccc4[nH]7)C=C6)C=C5)cc3)c2)c1
REMARK SMILES IDX 24 1 23 2 22 3 20 4 21 5 19 7 13 8 14 9 80 10 15 11 16 12
REMARK SMILES IDX 17 13 18 14 10 15 11 16 12 17 8 18 9 19 7 20 3 21 4 22 81 23
REMARK SMILES IDX 5 24 6 25 2 26 1 27 25 28 26 29 27 30 28 31 29 32 30 33
REMARK SMILES IDX 31 35 32 36 33 37 79 38 34 39 78 40 35 41 36 42 37 43 72 44
REMARK SMILES IDX 38 45 77 46 71 47 73 48 39 49 76 50 70 51 69 52 40 54 62 55
REMARK SMILES IDX 47 56 61 57 48 58 51 59 60 60 74 61 49 62 50 63 59 65 75 66
REMARK SMILES IDX 52 67 41 68 42 69 46 70 43 71 45 72 44 73 63 74 64 75 68 76
REMARK SMILES IDX 65 77 67 78 66 79 53 80 54 81 58 82 55 83 57 84 56 85
REMARK H PARENT 22 6 29 34 73 53 51 64
REMARK Flexibility Score: inf
ROOT
ATOM      1  C   UNL A   1      38.358  24.401  26.695  1.00  0.00     0.021 C 
ENDROOT
BRANCH   1   2
ATOM      2  C   UNL A   1      37.411  23.391  26.064  1.00  0.00     0.116 C 
BRANCH   2   3
ATOM      3  N   UNL A   1      37.433  23.210  24.640  1.00  0.00    -0.352 N 
ATOM      4  C   UNL A   1      36.385  22.893  23.789  1.00  0.00     0.254 C 
ATOM      5  O   UNL A   1      36.629  22.867  22.585  1.00  0.00    -0.269 OA
ATOM      6  H   UNL A   1      38.310  23.327  24.210  1.00  0.00     0.163 HD
BRANCH   4   7
ATOM      7  C   UNL A   1      35.010  22.526  24.285  1.00  0.00     0.079 A 
ATOM      8  C   UNL A   1      32.788  23.094  25.146  1.00  0.00     0.091 A 
ATOM      9  C   UNL A   1      32.631  21.769  25.581  1.00  0.00     0.064 A 
ATOM     10  C   UNL A   1      33.928  23.434  24.399  1.00  0.00     0.039 A 
ATOM     11  C   UNL A   1      33.621  20.831  25.315  1.00  0.00     0.161 A 
ATOM     12  F   UNL A   1      33.436  19.561  25.701  1.00  0.00    -0.204 F 
ATOM     13  C   UNL A   1      34.818  21.205  24.711  1.00  0.00     0.171 A 
ATOM     14  F   UNL A   1      35.778  20.278  24.585  1.00  0.00    -0.203 F 
BRANCH   8  15
ATOM     15  S   UNL A   1      31.561  24.269  25.773  1.00  0.00     0.264 S 
ATOM     16  O   UNL A   1      32.288  25.045  26.761  1.00  0.00    -0.201 OA
ATOM     17  O   UNL A   1      30.416  23.467  26.148  1.00  0.00    -0.201 OA
BRANCH  15  18
ATOM     18  N   UNL A   1      31.063  25.381  24.550  1.00  0.00    -0.269 N 
ATOM     19  C   UNL A   1      30.765  24.806  23.233  1.00  0.00     0.164 C 
BRANCH  18  20
ATOM     20  C   UNL A   1      31.760  26.682  24.460  1.00  0.00     0.053 A 
ATOM     21  C   UNL A   1      32.076  29.048  24.969  1.00  0.00     0.026 A 
ATOM     22  C   UNL A   1      33.240  29.087  24.201  1.00  0.00     0.017 A 
ATOM     23  C   UNL A   1      31.344  27.853  25.104  1.00  0.00     0.044 A 
ATOM     24  C   UNL A   1      33.662  27.944  23.538  1.00  0.00     0.003 A 
ATOM     25  C   UNL A   1      32.910  26.771  23.643  1.00  0.00     0.027 A 
BRANCH  21  26
ATOM     26  C   UNL A   1      31.628  30.246  25.607  1.00  0.00    -0.070 C 
ATOM     27  C   UNL A   1      31.282  31.272  26.132  1.00  0.00     0.010 C 
ENDBRANCH  21  26
ENDBRANCH  18  20
ENDBRANCH  15  18
ENDBRANCH   8  15
ENDBRANCH   4   7
ENDBRANCH   2   3
ENDBRANCH   1   2
BRANCH   1  28
ATOM     28  C   UNL A   1      39.784  23.936  26.955  1.00  0.00     0.002 C 
BRANCH  28  29
ATOM     29  C   UNL A   1      40.007  22.420  26.972  1.00  0.00     0.002 C 
BRANCH  29  30
ATOM     30  C   UNL A   1      40.883  21.845  25.853  1.00  0.00     0.021 C 
BRANCH  30  31
ATOM     31  C   UNL A   1      42.323  21.525  26.243  1.00  0.00     0.116 C 
BRANCH  31  32
ATOM     32  N   UNL A   1      43.290  22.170  25.369  1.00  0.00    -0.352 N 
ATOM     33  C   UNL A   1      43.714  23.475  25.330  1.00  0.00     0.251 C 
ATOM     34  H   UNL A   1      43.705  21.578  24.700  1.00  0.00     0.163 HD
ATOM     35  O   UNL A   1      44.381  23.873  24.381  1.00  0.00    -0.269 OA
BRANCH  33  36
ATOM     36  C   UNL A   1      43.357  24.406  26.420  1.00  0.00     0.039 A 
ATOM     37  C   UNL A   1      43.062  25.736  26.104  1.00  0.00     0.014 A 
ATOM     38  C   UNL A   1      43.335  23.982  27.752  1.00  0.00     0.014 A 
ATOM     39  C   UNL A   1      42.688  26.621  27.115  1.00  0.00     0.010 A 
ATOM     40  C   UNL A   1      42.879  24.842  28.746  1.00  0.00     0.010 A 
ATOM     41  C   UNL A   1      42.556  26.173  28.441  1.00  0.00    -0.014 A 
BRANCH  41  42
ATOM     42  C   UNL A   1      42.075  27.080  29.512  1.00  0.00     0.031 A 
ATOM     43  C   UNL A   1      40.782  27.832  29.352  1.00  0.00     0.074 A 
ATOM     44  C   UNL A   1      42.832  27.270  30.610  1.00  0.00     0.049 A 
ATOM     45  N   UNL A   1      40.224  28.693  30.164  1.00  0.00    -0.248 NA
ATOM     46  C   UNL A   1      40.032  27.606  28.108  1.00  0.00     0.031 C 
ATOM     47  C   UNL A   1      44.121  26.626  30.871  1.00  0.00     0.029 A 
ATOM     48  N   UNL A   1      42.626  28.061  31.713  1.00  0.00    -0.354 N 
ATOM     49  C   UNL A   1      39.065  29.118  29.525  1.00  0.00     0.074 A 
ATOM     50  C   UNL A   1      39.035  28.469  28.233  1.00  0.00     0.031 C 
ATOM     51  C   UNL A   1      44.571  27.018  32.073  1.00  0.00     0.029 A 
ATOM     52  C   UNL A   1      43.634  27.981  32.642  1.00  0.00     0.049 A 
ATOM     53  H   UNL A   1      41.832  28.632  31.826  1.00  0.00     0.167 HD
ATOM     54  C   UNL A   1      38.103  29.957  29.978  1.00  0.00     0.031 A 
ATOM     55  C   UNL A   1      43.795  28.618  33.818  1.00  0.00     0.031 A 
ATOM     56  C   UNL A   1      38.142  30.613  31.259  1.00  0.00     0.049 A 
ATOM     57  C   UNL A   1      42.738  29.581  34.280  1.00  0.00     0.074 A 
ATOM     58  C   UNL A   1      37.198  31.448  31.829  1.00  0.00     0.029 A 
ATOM     59  N   UNL A   1      39.191  30.521  32.162  1.00  0.00    -0.354 N 
ATOM     60  N   UNL A   1      41.615  29.920  33.694  1.00  0.00    -0.248 NA
ATOM     61  C   UNL A   1      42.968  30.243  35.572  1.00  0.00     0.031 C 
ATOM     62  C   UNL A   1      37.710  31.923  33.041  1.00  0.00     0.029 A 
ATOM     63  C   UNL A   1      38.934  31.316  33.267  1.00  0.00     0.049 A 
ATOM     64  H   UNL A   1      39.999  29.973  32.037  1.00  0.00     0.167 HD
ATOM     65  C   UNL A   1      40.988  30.808  34.559  1.00  0.00     0.074 A 
ATOM     66  C   UNL A   1      41.850  30.941  35.716  1.00  0.00     0.031 C 
ATOM     67  C   UNL A   1      39.803  31.451  34.410  1.00  0.00     0.031 A 
BRANCH  54  68
ATOM     68  C   UNL A   1      36.938  30.231  29.064  1.00  0.00    -0.014 A 
ATOM     69  C   UNL A   1      36.038  29.218  28.691  1.00  0.00     0.009 A 
ATOM     70  C   UNL A   1      36.726  31.531  28.576  1.00  0.00     0.009 A 
ATOM     71  C   UNL A   1      34.989  29.487  27.811  1.00  0.00     0.001 A 
ATOM     72  C   UNL A   1      35.651  31.807  27.728  1.00  0.00     0.001 A 
ATOM     73  C   UNL A   1      34.794  30.782  27.334  1.00  0.00     0.000 A 
ENDBRANCH  54  68
BRANCH  55  74
ATOM     74  C   UNL A   1      45.007  28.358  34.641  1.00  0.00    -0.014 A 
ATOM     75  C   UNL A   1      46.113  29.217  34.580  1.00  0.00     0.009 A 
ATOM     76  C   UNL A   1      45.060  27.247  35.500  1.00  0.00     0.009 A 
ATOM     77  C   UNL A   1      47.256  28.957  35.340  1.00  0.00     0.001 A 
ATOM     78  C   UNL A   1      46.189  27.009  36.286  1.00  0.00     0.001 A 
ATOM     79  C   UNL A   1      47.290  27.857  36.197  1.00  0.00     0.000 A 
ENDBRANCH  55  74
BRANCH  67  80
ATOM     80  C   UNL A   1      39.345  32.330  35.544  1.00  0.00    -0.014 A 
ATOM     81  C   UNL A   1      39.789  33.655  35.676  1.00  0.00     0.009 A 
ATOM     82  C   UNL A   1      38.419  31.831  36.474  1.00  0.00     0.009 A 
ATOM     83  C   UNL A   1      39.346  34.446  36.738  1.00  0.00     0.001 A 
ATOM     84  C   UNL A   1      37.947  32.636  37.511  1.00  0.00     0.001 A 
ATOM     85  C   UNL A   1      38.420  33.940  37.649  1.00  0.00     0.000 A 
ENDBRANCH  67  80
ENDBRANCH  41  42
ENDBRANCH  33  36
ENDBRANCH  31  32
ENDBRANCH  30  31
ENDBRANCH  29  30
ENDBRANCH  28  29
ENDBRANCH   1  28
TORSDOF 17
ENDMDL
MODEL 3
REMARK VINA RESULT:      -8.2      4.725      7.705
REMARK SMILES C#Cc1cccc(N(C)S(=O)(=O)c2cc(F)c(F)c(C(=O)NCCCCCCNC(=O)c3ccc(-c4c5nc(c(-c6ccccc6)c6ccc([nH]6)c(-c6ccccc6)c6nc(c(-c7ccccc7)c7ccc4[nH]7)C=C6)C=C5)cc3)c2)c1
REMARK SMILES IDX 24 1 23 2 22 3 20 4 21 5 19 7 13 8 14 9 80 10 15 11 16 12
REMARK SMILES IDX 17 13 18 14 10 15 11 16 12 17 8 18 9 19 7 20 3 21 4 22 81 23
REMARK SMILES IDX 5 24 6 25 2 26 1 27 25 28 26 29 27 30 28 31 29 32 30 33
REMARK SMILES IDX 31 35 32 36 33 37 79 38 34 39 78 40 35 41 36 42 37 43 72 44
REMARK SMILES IDX 38 45 77 46 71 47 73 48 39 49 76 50 70 51 69 52 40 54 62 55
REMARK SMILES IDX 47 56 61 57 48 58 51 59 60 60 74 61 49 62 50 63 59 65 75 66
REMARK SMILES IDX 52 67 41 68 42 69 46 70 43 71 45 72 44 73 63 74 64 75 68 76
REMARK SMILES IDX 65 77 67 78 66 79 53 80 54 81 58 82 55 83 57 84 56 85
REMARK H PARENT 22 6 29 34 73 53 51 64
REMARK Flexibility Score: inf
ROOT
ATOM      1  C   UNL A   1      38.577  24.031  26.871  1.00  0.00     0.021 C 
ENDROOT
BRANCH   1   2
ATOM      2  C   UNL A   1      37.311  23.722  26.088  1.00  0.00     0.116 C 
BRANCH   2   3
ATOM      3  N   UNL A   1      37.408  23.467  24.678  1.00  0.00    -0.352 N 
ATOM      4  C   UNL A   1      36.423  23.029  23.806  1.00  0.00     0.254 C 
ATOM      5  O   UNL A   1      36.721  22.955  22.616  1.00  0.00    -0.269 OA
ATOM      6  H   UNL A   1      38.293  23.625  24.277  1.00  0.00     0.163 HD
BRANCH   4   7
ATOM      7  C   UNL A   1      35.058  22.588  24.267  1.00  0.00     0.079 A 
ATOM      8  C   UNL A   1      32.792  23.036  25.081  1.00  0.00     0.091 A 
ATOM      9  C   UNL A   1      32.691  21.701  25.501  1.00  0.00     0.064 A 
ATOM     10  C   UNL A   1      33.929  23.440  24.364  1.00  0.00     0.039 A 
ATOM     11  C   UNL A   1      33.733  20.816  25.250  1.00  0.00     0.161 A 
ATOM     12  F   UNL A   1      33.603  19.535  25.621  1.00  0.00    -0.204 F 
ATOM     13  C   UNL A   1      34.923  21.255  24.677  1.00  0.00     0.171 A 
ATOM     14  F   UNL A   1      35.930  20.379  24.565  1.00  0.00    -0.203 F 
BRANCH   8  15
ATOM     15  S   UNL A   1      31.493  24.143  25.690  1.00  0.00     0.264 S 
ATOM     16  O   UNL A   1      32.142  24.903  26.742  1.00  0.00    -0.201 OA
ATOM     17  O   UNL A   1      30.361  23.287  25.976  1.00  0.00    -0.201 OA
BRANCH  15  18
ATOM     18  N   UNL A   1      31.016  25.285  24.487  1.00  0.00    -0.269 N 
ATOM     19  C   UNL A   1      30.676  24.735  23.169  1.00  0.00     0.164 C 
BRANCH  18  20
ATOM     20  C   UNL A   1      31.757  26.561  24.398  1.00  0.00     0.053 A 
ATOM     21  C   UNL A   1      32.201  28.891  24.971  1.00  0.00     0.026 A 
ATOM     22  C   UNL A   1      33.314  28.916  24.130  1.00  0.00     0.017 A 
ATOM     23  C   UNL A   1      31.431  27.721  25.111  1.00  0.00     0.044 A 
ATOM     24  C   UNL A   1      33.646  27.785  23.400  1.00  0.00     0.003 A 
ATOM     25  C   UNL A   1      32.855  26.638  23.511  1.00  0.00     0.027 A 
BRANCH  21  26
ATOM     26  C   UNL A   1      31.844  30.081  25.679  1.00  0.00    -0.070 C 
ATOM     27  C   UNL A   1      31.526  31.062  26.300  1.00  0.00     0.010 C 
ENDBRANCH  21  26
ENDBRANCH  18  20
ENDBRANCH  15  18
ENDBRANCH   8  15
ENDBRANCH   4   7
ENDBRANCH   2   3
ENDBRANCH   1   2
BRANCH   1  28
ATOM     28  C   UNL A   1      39.841  23.292  26.455  1.00  0.00     0.002 C 
BRANCH  28  29
ATOM     29  C   UNL A   1      40.129  21.980  27.194  1.00  0.00     0.002 C 
BRANCH  29  30
ATOM     30  C   UNL A   1      40.632  20.810  26.342  1.00  0.00     0.021 C 
BRANCH  30  31
ATOM     31  C   UNL A   1      41.875  20.098  26.868  1.00  0.00     0.116 C 
BRANCH  31  32
ATOM     32  N   UNL A   1      42.942  20.042  25.883  1.00  0.00    -0.352 N 
ATOM     33  C   UNL A   1      43.679  21.053  25.319  1.00  0.00     0.251 C 
ATOM     34  H   UNL A   1      43.170  19.137  25.569  1.00  0.00     0.163 HD
ATOM     35  O   UNL A   1      44.392  20.824  24.348  1.00  0.00    -0.269 OA
BRANCH  33  36
ATOM     36  C   UNL A   1      43.607  22.423  25.870  1.00  0.00     0.039 A 
ATOM     37  C   UNL A   1      43.847  22.616  27.234  1.00  0.00     0.014 A 
ATOM     38  C   UNL A   1      43.284  23.511  25.054  1.00  0.00     0.014 A 
ATOM     39  C   UNL A   1      43.820  23.907  27.765  1.00  0.00     0.010 A 
ATOM     40  C   UNL A   1      43.342  24.803  25.568  1.00  0.00     0.010 A 
ATOM     41  C   UNL A   1      43.605  25.016  26.929  1.00  0.00    -0.014 A 
BRANCH  41  42
ATOM     42  C   UNL A   1      43.660  26.399  27.463  1.00  0.00     0.031 A 
ATOM     43  C   UNL A   1      44.980  27.100  27.634  1.00  0.00     0.074 A 
ATOM     44  C   UNL A   1      42.522  27.008  27.847  1.00  0.00     0.049 A 
ATOM     45  N   UNL A   1      45.224  28.291  28.118  1.00  0.00    -0.248 NA
ATOM     46  C   UNL A   1      46.183  26.356  27.232  1.00  0.00     0.031 C 
ATOM     47  C   UNL A   1      41.181  26.426  27.764  1.00  0.00     0.029 A 
ATOM     48  N   UNL A   1      42.310  28.253  28.385  1.00  0.00    -0.354 N 
ATOM     49  C   UNL A   1      46.606  28.434  28.088  1.00  0.00     0.074 A 
ATOM     50  C   UNL A   1      47.148  27.185  27.600  1.00  0.00     0.031 C 
ATOM     51  C   UNL A   1      40.284  27.324  28.198  1.00  0.00     0.029 A 
ATOM     52  C   UNL A   1      40.988  28.524  28.641  1.00  0.00     0.049 A 
ATOM     53  H   UNL A   1      43.036  28.890  28.571  1.00  0.00     0.167 HD
ATOM     54  C   UNL A   1      47.357  29.512  28.418  1.00  0.00     0.031 A 
ATOM     55  C   UNL A   1      40.404  29.610  29.181  1.00  0.00     0.031 A 
ATOM     56  C   UNL A   1      46.816  30.749  28.918  1.00  0.00     0.049 A 
ATOM     57  C   UNL A   1      41.261  30.777  29.585  1.00  0.00     0.074 A 
ATOM     58  C   UNL A   1      47.487  31.915  29.241  1.00  0.00     0.029 A 
ATOM     59  N   UNL A   1      45.473  30.975  29.182  1.00  0.00    -0.354 N 
ATOM     60  N   UNL A   1      42.560  30.922  29.487  1.00  0.00    -0.248 NA
ATOM     61  C   UNL A   1      40.567  31.935  30.167  1.00  0.00     0.031 C 
ATOM     62  C   UNL A   1      46.562  32.818  29.775  1.00  0.00     0.029 A 
ATOM     63  C   UNL A   1      45.301  32.248  29.702  1.00  0.00     0.049 A 
ATOM     64  H   UNL A   1      44.749  30.328  29.023  1.00  0.00     0.167 HD
ATOM     65  C   UNL A   1      42.836  32.198  29.963  1.00  0.00     0.074 A 
ATOM     66  C   UNL A   1      41.566  32.789  30.333  1.00  0.00     0.031 C 
ATOM     67  C   UNL A   1      44.034  32.824  30.078  1.00  0.00     0.031 A 
BRANCH  54  68
ATOM     68  C   UNL A   1      48.851  29.385  28.274  1.00  0.00    -0.014 A 
ATOM     69  C   UNL A   1      49.657  28.932  29.332  1.00  0.00     0.009 A 
ATOM     70  C   UNL A   1      49.464  29.712  27.054  1.00  0.00     0.009 A 
ATOM     71  C   UNL A   1      51.045  28.861  29.189  1.00  0.00     0.001 A 
ATOM     72  C   UNL A   1      50.847  29.600  26.899  1.00  0.00     0.001 A 
ATOM     73  C   UNL A   1      51.637  29.190  27.971  1.00  0.00     0.000 A 
ENDBRANCH  54  68
BRANCH  55  74
ATOM     74  C   UNL A   1      38.928  29.643  29.366  1.00  0.00    -0.014 A 
ATOM     75  C   UNL A   1      38.351  29.292  30.595  1.00  0.00     0.009 A 
ATOM     76  C   UNL A   1      38.087  30.032  28.310  1.00  0.00     0.009 A 
ATOM     77  C   UNL A   1      36.964  29.306  30.757  1.00  0.00     0.001 A 
ATOM     78  C   UNL A   1      36.703  30.080  28.486  1.00  0.00     0.001 A 
ATOM     79  C   UNL A   1      36.141  29.706  29.704  1.00  0.00     0.000 A 
ENDBRANCH  55  74
BRANCH  67  80
ATOM     80  C   UNL A   1      44.028  34.240  30.590  1.00  0.00    -0.014 A 
ATOM     81  C   UNL A   1      43.859  35.336  29.729  1.00  0.00     0.009 A 
ATOM     82  C   UNL A   1      44.155  34.477  31.969  1.00  0.00     0.009 A 
ATOM     83  C   UNL A   1      43.858  36.638  30.234  1.00  0.00     0.001 A 
ATOM     84  C   UNL A   1      44.113  35.776  32.475  1.00  0.00     0.001 A 
ATOM     85  C   UNL A   1      43.976  36.857  31.607  1.00  0.00     0.000 A 
ENDBRANCH  67  80
ENDBRANCH  41  42
ENDBRANCH  33  36
ENDBRANCH  31  32
ENDBRANCH  30  31
ENDBRANCH  29  30
ENDBRANCH  28  29
ENDBRANCH   1  28
TORSDOF 17
ENDMDL
