MODEL 1
REMARK VINA RESULT:     -11.4      0.000      0.000
REMARK SMILES Cc1nc(C(=O)NCCCCCCNC(=O)c2ccc(-c3c4nc(c(-c5ccccc5)c5ccc([nH]5)c(-c5ccccc5)c5nc(c(-c6ccccc6)c6ccc3[nH]6)C=C5)C=C4)cc2)nn1-c1cccc(C(F)(F)F)c1
REMARK SMILES IDX 10 1 9 2 8 3 7 4 5 5 6 6 4 8 1 9 2 10 3 11 66 12 65 13 67 14
REMARK SMILES IDX 68 15 76 16 69 17 71 18 70 19 72 20 73 21 74 22 75 23 11 24
REMARK SMILES IDX 12 25 13 26 14 27 15 28 16 30 17 31 18 32 64 33 19 34 63 35
REMARK SMILES IDX 20 36 21 37 22 38 57 39 23 40 62 41 56 42 58 43 24 44 61 45
REMARK SMILES IDX 55 46 54 47 25 49 47 50 32 51 46 52 33 53 36 54 45 55 59 56
REMARK SMILES IDX 34 57 35 58 44 60 60 61 37 62 26 63 27 64 31 65 28 66 30 67
REMARK SMILES IDX 29 68 48 69 49 70 53 71 50 72 52 73 51 74 38 75 39 76 43 77
REMARK SMILES IDX 40 78 42 79 41 80
REMARK H PARENT 7 7 14 29 58 48 36 59
REMARK Flexibility Score: inf
ROOT
ATOM      1  C   UNL A   1      40.171  21.426  26.307  1.00  0.00     0.002 C 
ENDROOT
BRANCH   1   2
ATOM      2  C   UNL A   1      39.350  22.705  26.464  1.00  0.00     0.021 C 
BRANCH   2   3
ATOM      3  C   UNL A   1      37.999  22.710  25.751  1.00  0.00     0.116 C 
BRANCH   3   4
ATOM      4  N   UNL A   1      37.584  21.382  25.333  1.00  0.00    -0.349 N 
ATOM      5  C   UNL A   1      36.309  20.869  25.162  1.00  0.00     0.290 C 
ATOM      6  O   UNL A   1      36.217  19.668  24.887  1.00  0.00    -0.266 OA
ATOM      7  H   UNL A   1      38.317  20.754  25.141  1.00  0.00     0.163 HD
BRANCH   5   8
ATOM      8  C   UNL A   1      35.125  21.736  25.351  1.00  0.00     0.239 A 
ATOM      9  C   UNL A   1      32.298  23.006  27.132  1.00  0.00     0.090 C 
ATOM     10  C   UNL A   1      33.496  22.708  26.315  1.00  0.00     0.130 A 
ATOM     11  N   UNL A   1      34.311  21.683  26.466  1.00  0.00    -0.207 NA
ATOM     12  N   UNL A   1      33.882  23.419  25.198  1.00  0.00    -0.217 N 
ATOM     13  N   UNL A   1      34.719  22.660  24.460  1.00  0.00    -0.140 NA
BRANCH  12  14
ATOM     14  C   UNL A   1      33.675  24.774  24.838  1.00  0.00     0.067 A 
ATOM     15  C   UNL A   1      33.555  25.103  23.480  1.00  0.00     0.028 A 
ATOM     16  C   UNL A   1      33.730  25.790  25.802  1.00  0.00     0.041 A 
ATOM     17  C   UNL A   1      33.450  26.437  23.089  1.00  0.00     0.003 A 
ATOM     18  C   UNL A   1      33.678  27.139  25.406  1.00  0.00     0.058 A 
ATOM     19  C   UNL A   1      33.516  27.449  24.045  1.00  0.00     0.013 A 
BRANCH  18  20
ATOM     20  C   UNL A   1      33.852  28.258  26.407  1.00  0.00     0.416 C 
ATOM     21  F   UNL A   1      33.588  29.480  25.864  1.00  0.00    -0.166 F 
ATOM     22  F   UNL A   1      33.023  28.134  27.478  1.00  0.00    -0.166 F 
ATOM     23  F   UNL A   1      35.113  28.342  26.912  1.00  0.00    -0.166 F 
ENDBRANCH  18  20
ENDBRANCH  12  14
ENDBRANCH   5   8
ENDBRANCH   3   4
ENDBRANCH   2   3
ENDBRANCH   1   2
BRANCH   1  24
ATOM     24  C   UNL A   1      41.111  21.068  27.470  1.00  0.00     0.002 C 
BRANCH  24  25
ATOM     25  C   UNL A   1      42.068  19.883  27.265  1.00  0.00     0.021 C 
BRANCH  25  26
ATOM     26  C   UNL A   1      42.337  19.543  25.809  1.00  0.00     0.116 C 
BRANCH  26  27
ATOM     27  N   UNL A   1      43.766  19.459  25.464  1.00  0.00    -0.352 N 
ATOM     28  C   UNL A   1      44.612  20.478  25.061  1.00  0.00     0.251 C 
ATOM     29  H   UNL A   1      44.172  18.564  25.528  1.00  0.00     0.163 HD
ATOM     30  O   UNL A   1      45.670  20.233  24.451  1.00  0.00    -0.269 OA
BRANCH  28  31
ATOM     31  C   UNL A   1      44.279  21.866  25.401  1.00  0.00     0.039 A 
ATOM     32  C   UNL A   1      43.408  22.701  24.691  1.00  0.00     0.014 A 
ATOM     33  C   UNL A   1      44.883  22.341  26.543  1.00  0.00     0.014 A 
ATOM     34  C   UNL A   1      43.186  23.994  25.183  1.00  0.00     0.010 A 
ATOM     35  C   UNL A   1      44.194  23.289  27.210  1.00  0.00     0.010 A 
ATOM     36  C   UNL A   1      43.649  24.296  26.463  1.00  0.00    -0.014 A 
BRANCH  36  37
ATOM     37  C   UNL A   1      43.455  25.535  27.190  1.00  0.00     0.031 A 
ATOM     38  C   UNL A   1      44.435  26.566  26.806  1.00  0.00     0.074 A 
ATOM     39  C   UNL A   1      42.335  25.787  27.911  1.00  0.00     0.049 A 
ATOM     40  N   UNL A   1      45.521  26.863  27.433  1.00  0.00    -0.248 NA
ATOM     41  C   UNL A   1      44.337  27.162  25.461  1.00  0.00     0.031 C 
ATOM     42  C   UNL A   1      41.123  24.959  28.063  1.00  0.00     0.029 A 
ATOM     43  N   UNL A   1      41.999  26.906  28.611  1.00  0.00    -0.354 N 
ATOM     44  C   UNL A   1      46.093  27.891  26.699  1.00  0.00     0.074 A 
ATOM     45  C   UNL A   1      45.489  27.833  25.395  1.00  0.00     0.031 C 
ATOM     46  C   UNL A   1      40.126  25.692  28.618  1.00  0.00     0.029 A 
ATOM     47  C   UNL A   1      40.669  26.974  29.022  1.00  0.00     0.049 A 
ATOM     48  H   UNL A   1      42.651  27.616  28.813  1.00  0.00     0.167 HD
ATOM     49  C   UNL A   1      46.714  28.921  27.336  1.00  0.00     0.031 A 
ATOM     50  C   UNL A   1      40.075  28.017  29.656  1.00  0.00     0.031 A 
ATOM     51  C   UNL A   1      46.865  28.628  28.743  1.00  0.00     0.049 A 
ATOM     52  C   UNL A   1      41.162  28.807  30.272  1.00  0.00     0.074 A 
ATOM     53  C   UNL A   1      47.586  27.736  29.506  1.00  0.00     0.029 A 
ATOM     54  N   UNL A   1      45.799  29.045  29.504  1.00  0.00    -0.354 N 
ATOM     55  N   UNL A   1      41.923  28.344  31.223  1.00  0.00    -0.248 NA
ATOM     56  C   UNL A   1      41.698  29.947  29.545  1.00  0.00     0.031 C 
ATOM     57  C   UNL A   1      46.748  27.421  30.621  1.00  0.00     0.029 A 
ATOM     58  C   UNL A   1      45.583  28.188  30.548  1.00  0.00     0.049 A 
ATOM     59  H   UNL A   1      45.264  29.851  29.322  1.00  0.00     0.167 HD
ATOM     60  C   UNL A   1      43.189  28.818  30.918  1.00  0.00     0.074 A 
ATOM     61  C   UNL A   1      42.960  29.921  29.986  1.00  0.00     0.031 C 
ATOM     62  C   UNL A   1      44.297  28.073  31.208  1.00  0.00     0.031 A 
BRANCH  49  63
ATOM     63  C   UNL A   1      46.670  30.356  26.856  1.00  0.00    -0.014 A 
ATOM     64  C   UNL A   1      47.838  31.130  26.976  1.00  0.00     0.009 A 
ATOM     65  C   UNL A   1      45.481  31.054  26.571  1.00  0.00     0.009 A 
ATOM     66  C   UNL A   1      47.802  32.526  26.879  1.00  0.00     0.001 A 
ATOM     67  C   UNL A   1      45.447  32.445  26.440  1.00  0.00     0.001 A 
ATOM     68  C   UNL A   1      46.606  33.184  26.618  1.00  0.00     0.000 A 
ENDBRANCH  49  63
BRANCH  50  69
ATOM     69  C   UNL A   1      38.705  28.564  29.508  1.00  0.00    -0.014 A 
ATOM     70  C   UNL A   1      37.859  28.719  30.621  1.00  0.00     0.009 A 
ATOM     71  C   UNL A   1      38.350  29.233  28.324  1.00  0.00     0.009 A 
ATOM     72  C   UNL A   1      36.728  29.549  30.560  1.00  0.00     0.001 A 
ATOM     73  C   UNL A   1      37.226  30.066  28.265  1.00  0.00     0.001 A 
ATOM     74  C   UNL A   1      36.422  30.237  29.388  1.00  0.00     0.000 A 
ENDBRANCH  50  69
BRANCH  62  75
ATOM     75  C   UNL A   1      44.129  26.934  32.184  1.00  0.00    -0.014 A 
ATOM     76  C   UNL A   1      44.224  25.574  31.838  1.00  0.00     0.009 A 
ATOM     77  C   UNL A   1      43.961  27.264  33.536  1.00  0.00     0.009 A 
ATOM     78  C   UNL A   1      44.128  24.578  32.819  1.00  0.00     0.001 A 
ATOM     79  C   UNL A   1      43.886  26.273  34.516  1.00  0.00     0.001 A 
ATOM     80  C   UNL A   1      43.962  24.930  34.158  1.00  0.00     0.000 A 
ENDBRANCH  62  75
ENDBRANCH  36  37
ENDBRANCH  28  31
ENDBRANCH  26  27
ENDBRANCH  25  26
ENDBRANCH  24  25
ENDBRANCH   1  24
TORSDOF 15
ENDMDL
MODEL 2
REMARK VINA RESULT:     -10.8      2.290      3.155
REMARK SMILES Cc1nc(C(=O)NCCCCCCNC(=O)c2ccc(-c3c4nc(c(-c5ccccc5)c5ccc([nH]5)c(-c5ccccc5)c5nc(c(-c6ccccc6)c6ccc3[nH]6)C=C5)C=C4)cc2)nn1-c1cccc(C(F)(F)F)c1
REMARK SMILES IDX 10 1 9 2 8 3 7 4 5 5 6 6 4 8 1 9 2 10 3 11 66 12 65 13 67 14
REMARK SMILES IDX 68 15 76 16 69 17 71 18 70 19 72 20 73 21 74 22 75 23 11 24
REMARK SMILES IDX 12 25 13 26 14 27 15 28 16 30 17 31 18 32 64 33 19 34 63 35
REMARK SMILES IDX 20 36 21 37 22 38 57 39 23 40 62 41 56 42 58 43 24 44 61 45
REMARK SMILES IDX 55 46 54 47 25 49 47 50 32 51 46 52 33 53 36 54 45 55 59 56
REMARK SMILES IDX 34 57 35 58 44 60 60 61 37 62 26 63 27 64 31 65 28 66 30 67
REMARK SMILES IDX 29 68 48 69 49 70 53 71 50 72 52 73 51 74 38 75 39 76 43 77
REMARK SMILES IDX 40 78 42 79 41 80
REMARK H PARENT 7 7 14 29 58 48 36 59
REMARK Flexibility Score: inf
ROOT
ATOM      1  C   UNL A   1      39.659  23.485  27.293  1.00  0.00     0.002 C 
ENDROOT
BRANCH   1   2
ATOM      2  C   UNL A   1      38.700  24.370  26.497  1.00  0.00     0.021 C 
BRANCH   2   3
ATOM      3  C   UNL A   1      37.426  23.684  26.008  1.00  0.00     0.116 C 
BRANCH   3   4
ATOM      4  N   UNL A   1      37.465  23.377  24.589  1.00  0.00    -0.349 N 
ATOM      5  C   UNL A   1      36.424  23.234  23.688  1.00  0.00     0.290 C 
ATOM      6  O   UNL A   1      36.716  22.874  22.541  1.00  0.00    -0.266 OA
ATOM      7  H   UNL A   1      38.366  23.253  24.212  1.00  0.00     0.163 HD
BRANCH   5   8
ATOM      8  C   UNL A   1      35.028  23.465  24.118  1.00  0.00     0.239 A 
ATOM      9  C   UNL A   1      32.081  22.804  26.031  1.00  0.00     0.090 C 
ATOM     10  C   UNL A   1      33.240  23.312  25.262  1.00  0.00     0.130 A 
ATOM     11  N   UNL A   1      34.375  22.678  25.046  1.00  0.00    -0.207 NA
ATOM     12  N   UNL A   1      33.260  24.503  24.565  1.00  0.00    -0.217 N 
ATOM     13  N   UNL A   1      34.252  24.462  23.652  1.00  0.00    -0.140 NA
BRANCH  12  14
ATOM     14  C   UNL A   1      32.557  25.716  24.774  1.00  0.00     0.067 A 
ATOM     15  C   UNL A   1      31.851  26.282  23.702  1.00  0.00     0.028 A 
ATOM     16  C   UNL A   1      32.677  26.418  25.980  1.00  0.00     0.041 A 
ATOM     17  C   UNL A   1      31.234  27.522  23.847  1.00  0.00     0.003 A 
ATOM     18  C   UNL A   1      32.101  27.694  26.112  1.00  0.00     0.058 A 
ATOM     19  C   UNL A   1      31.361  28.227  25.043  1.00  0.00     0.013 A 
BRANCH  18  20
ATOM     20  C   UNL A   1      32.309  28.525  27.357  1.00  0.00     0.416 C 
ATOM     21  F   UNL A   1      31.940  29.824  27.177  1.00  0.00    -0.166 F 
ATOM     22  F   UNL A   1      31.586  28.071  28.416  1.00  0.00    -0.166 F 
ATOM     23  F   UNL A   1      33.606  28.562  27.772  1.00  0.00    -0.166 F 
ENDBRANCH  18  20
ENDBRANCH  12  14
ENDBRANCH   5   8
ENDBRANCH   3   4
ENDBRANCH   2   3
ENDBRANCH   1   2
BRANCH   1  24
ATOM     24  C   UNL A   1      40.008  22.122  26.674  1.00  0.00     0.002 C 
BRANCH  24  25
ATOM     25  C   UNL A   1      41.018  21.243  27.427  1.00  0.00     0.021 C 
BRANCH  25  26
ATOM     26  C   UNL A   1      42.031  22.022  28.250  1.00  0.00     0.116 C 
BRANCH  26  27
ATOM     27  N   UNL A   1      43.373  22.092  27.646  1.00  0.00    -0.352 N 
ATOM     28  C   UNL A   1      43.937  23.134  26.932  1.00  0.00     0.251 C 
ATOM     29  H   UNL A   1      43.941  21.297  27.767  1.00  0.00     0.163 HD
ATOM     30  O   UNL A   1      44.904  22.944  26.171  1.00  0.00    -0.269 OA
BRANCH  28  31
ATOM     31  C   UNL A   1      43.418  24.495  27.113  1.00  0.00     0.039 A 
ATOM     32  C   UNL A   1      42.533  25.159  26.254  1.00  0.00     0.014 A 
ATOM     33  C   UNL A   1      43.848  25.130  28.256  1.00  0.00     0.014 A 
ATOM     34  C   UNL A   1      42.118  26.450  26.604  1.00  0.00     0.010 A 
ATOM     35  C   UNL A   1      42.993  26.038  28.769  1.00  0.00     0.010 A 
ATOM     36  C   UNL A   1      42.415  26.908  27.887  1.00  0.00    -0.014 A 
BRANCH  36  37
ATOM     37  C   UNL A   1      42.012  28.169  28.477  1.00  0.00     0.031 A 
ATOM     38  C   UNL A   1      42.960  29.255  28.174  1.00  0.00     0.074 A 
ATOM     39  C   UNL A   1      40.773  28.367  28.992  1.00  0.00     0.049 A 
ATOM     40  N   UNL A   1      43.903  29.686  28.939  1.00  0.00    -0.248 NA
ATOM     41  C   UNL A   1      43.036  29.754  26.788  1.00  0.00     0.031 C 
ATOM     42  C   UNL A   1      39.619  27.448  29.015  1.00  0.00     0.029 A 
ATOM     43  N   UNL A   1      40.244  29.495  29.543  1.00  0.00    -0.354 N 
ATOM     44  C   UNL A   1      44.506  30.712  28.227  1.00  0.00     0.074 A 
ATOM     45  C   UNL A   1      44.129  30.518  26.852  1.00  0.00     0.031 C 
ATOM     46  C   UNL A   1      38.492  28.124  29.350  1.00  0.00     0.029 A 
ATOM     47  C   UNL A   1      38.863  29.472  29.733  1.00  0.00     0.049 A 
ATOM     48  H   UNL A   1      40.798  30.270  29.789  1.00  0.00     0.167 HD
ATOM     49  C   UNL A   1      44.935  31.831  28.873  1.00  0.00     0.031 A 
ATOM     50  C   UNL A   1      38.096  30.497  30.185  1.00  0.00     0.031 A 
ATOM     51  C   UNL A   1      44.877  31.642  30.303  1.00  0.00     0.049 A 
ATOM     52  C   UNL A   1      39.005  31.417  30.902  1.00  0.00     0.074 A 
ATOM     53  C   UNL A   1      45.531  30.866  31.236  1.00  0.00     0.029 A 
ATOM     54  N   UNL A   1      43.673  32.011  30.854  1.00  0.00    -0.354 N 
ATOM     55  N   UNL A   1      39.634  31.083  31.993  1.00  0.00    -0.248 NA
ATOM     56  C   UNL A   1      39.563  32.551  30.182  1.00  0.00     0.031 C 
ATOM     57  C   UNL A   1      44.549  30.551  32.227  1.00  0.00     0.029 A 
ATOM     58  C   UNL A   1      43.356  31.206  31.913  1.00  0.00     0.049 A 
ATOM     59  H   UNL A   1      43.115  32.754  30.528  1.00  0.00     0.167 HD
ATOM     60  C   UNL A   1      40.892  31.646  31.854  1.00  0.00     0.074 A 
ATOM     61  C   UNL A   1      40.735  32.663  30.816  1.00  0.00     0.031 C 
ATOM     62  C   UNL A   1      41.993  31.021  32.371  1.00  0.00     0.031 A 
BRANCH  49  63
ATOM     63  C   UNL A   1      44.861  33.222  28.282  1.00  0.00    -0.014 A 
ATOM     64  C   UNL A   1      43.590  33.793  28.092  1.00  0.00     0.009 A 
ATOM     65  C   UNL A   1      45.940  33.865  27.645  1.00  0.00     0.009 A 
ATOM     66  C   UNL A   1      43.405  34.904  27.260  1.00  0.00     0.001 A 
ATOM     67  C   UNL A   1      45.764  34.995  26.841  1.00  0.00     0.001 A 
ATOM     68  C   UNL A   1      44.491  35.501  26.630  1.00  0.00     0.000 A 
ENDBRANCH  49  63
BRANCH  50  69
ATOM     69  C   UNL A   1      36.730  30.911  29.782  1.00  0.00    -0.014 A 
ATOM     70  C   UNL A   1      35.917  31.671  30.642  1.00  0.00     0.009 A 
ATOM     71  C   UNL A   1      36.354  30.836  28.430  1.00  0.00     0.009 A 
ATOM     72  C   UNL A   1      34.796  32.363  30.155  1.00  0.00     0.001 A 
ATOM     73  C   UNL A   1      35.240  31.531  27.942  1.00  0.00     0.001 A 
ATOM     74  C   UNL A   1      34.470  32.308  28.802  1.00  0.00     0.000 A 
ENDBRANCH  50  69
BRANCH  62  75
ATOM     75  C   UNL A   1      41.755  29.937  33.393  1.00  0.00    -0.014 A 
ATOM     76  C   UNL A   1      41.622  28.571  33.082  1.00  0.00     0.009 A 
ATOM     77  C   UNL A   1      41.765  30.311  34.744  1.00  0.00     0.009 A 
ATOM     78  C   UNL A   1      41.477  27.617  34.098  1.00  0.00     0.001 A 
ATOM     79  C   UNL A   1      41.640  29.359  35.757  1.00  0.00     0.001 A 
ATOM     80  C   UNL A   1      41.490  28.013  35.435  1.00  0.00     0.000 A 
ENDBRANCH  62  75
ENDBRANCH  36  37
ENDBRANCH  28  31
ENDBRANCH  26  27
ENDBRANCH  25  26
ENDBRANCH  24  25
ENDBRANCH   1  24
TORSDOF 15
ENDMDL
MODEL 3
REMARK VINA RESULT:     -10.8      4.856      9.614
REMARK SMILES Cc1nc(C(=O)NCCCCCCNC(=O)c2ccc(-c3c4nc(c(-c5ccccc5)c5ccc([nH]5)c(-c5ccccc5)c5nc(c(-c6ccccc6)c6ccc3[nH]6)C=C5)C=C4)cc2)nn1-c1cccc(C(F)(F)F)c1
REMARK SMILES IDX 10 1 9 2 8 3 7 4 5 5 6 6 4 8 1 9 2 10 3 11 66 12 65 13 67 14
REMARK SMILES IDX 68 15 76 16 69 17 71 18 70 19 72 20 73 21 74 22 75 23 11 24
REMARK SMILES IDX 12 25 13 26 14 27 15 28 16 30 17 31 18 32 64 33 19 34 63 35
REMARK SMILES IDX 20 36 21 37 22 38 57 39 23 40 62 41 56 42 58 43 24 44 61 45
REMARK SMILES IDX 55 46 54 47 25 49 47 50 32 51 46 52 33 53 36 54 45 55 59 56
REMARK SMILES IDX 34 57 35 58 44 60 60 61 37 62 26 63 27 64 31 65 28 66 30 67
REMARK SMILES IDX 29 68 48 69 49 70 53 71 50 72 52 73 51 74 38 75 39 76 43 77
REMARK SMILES IDX 40 78 42 79 41 80
REMARK H PARENT 7 7 14 29 58 48 36 59
REMARK Flexibility Score: inf
ROOT
ATOM      1  C   UNL A   1      35.068  33.100  33.015  1.00  0.00     0.002 C 
ENDROOT
BRANCH   1   2
ATOM      2  C   UNL A   1      34.927  34.090  34.172  1.00  0.00     0.021 C 
BRANCH   2   3
ATOM      3  C   UNL A   1      34.765  35.554  33.767  1.00  0.00     0.116 C 
BRANCH   3   4
ATOM      4  N   UNL A   1      33.391  36.014  33.875  1.00  0.00    -0.349 N 
ATOM      5  C   UNL A   1      32.491  36.346  32.878  1.00  0.00     0.290 C 
ATOM      6  O   UNL A   1      31.400  36.806  33.233  1.00  0.00    -0.266 OA
ATOM      7  H   UNL A   1      33.050  36.104  34.794  1.00  0.00     0.163 HD
BRANCH   5   8
ATOM      8  C   UNL A   1      32.861  36.186  31.455  1.00  0.00     0.239 A 
ATOM      9  C   UNL A   1      33.634  37.350  28.164  1.00  0.00     0.090 C 
ATOM     10  C   UNL A   1      33.482  36.697  29.483  1.00  0.00     0.130 A 
ATOM     11  N   UNL A   1      32.986  37.245  30.575  1.00  0.00    -0.207 NA
ATOM     12  N   UNL A   1      33.751  35.368  29.739  1.00  0.00    -0.217 N 
ATOM     13  N   UNL A   1      33.115  35.000  30.871  1.00  0.00    -0.140 NA
BRANCH  12  14
ATOM     14  C   UNL A   1      34.656  34.467  29.126  1.00  0.00     0.067 A 
ATOM     15  C   UNL A   1      34.145  33.438  28.321  1.00  0.00     0.028 A 
ATOM     16  C   UNL A   1      36.024  34.506  29.427  1.00  0.00     0.041 A 
ATOM     17  C   UNL A   1      35.001  32.477  27.786  1.00  0.00     0.003 A 
ATOM     18  C   UNL A   1      36.882  33.506  28.933  1.00  0.00     0.058 A 
ATOM     19  C   UNL A   1      36.360  32.508  28.094  1.00  0.00     0.013 A 
BRANCH  18  20
ATOM     20  C   UNL A   1      38.339  33.454  29.332  1.00  0.00     0.416 C 
ATOM     21  F   UNL A   1      38.530  33.829  30.628  1.00  0.00    -0.166 F 
ATOM     22  F   UNL A   1      38.868  32.207  29.218  1.00  0.00    -0.166 F 
ATOM     23  F   UNL A   1      39.133  34.273  28.588  1.00  0.00    -0.166 F 
ENDBRANCH  18  20
ENDBRANCH  12  14
ENDBRANCH   5   8
ENDBRANCH   3   4
ENDBRANCH   2   3
ENDBRANCH   1   2
BRANCH   1  24
ATOM     24  C   UNL A   1      36.475  32.532  32.767  1.00  0.00     0.002 C 
BRANCH  24  25
ATOM     25  C   UNL A   1      36.610  31.005  32.661  1.00  0.00     0.021 C 
BRANCH  25  26
ATOM     26  C   UNL A   1      37.217  30.521  31.355  1.00  0.00     0.116 C 
BRANCH  26  27
ATOM     27  N   UNL A   1      36.269  29.824  30.470  1.00  0.00    -0.352 N 
ATOM     28  C   UNL A   1      36.492  29.323  29.200  1.00  0.00     0.251 C 
ATOM     29  H   UNL A   1      35.360  29.697  30.828  1.00  0.00     0.163 HD
ATOM     30  O   UNL A   1      35.547  29.096  28.421  1.00  0.00    -0.269 OA
BRANCH  28  31
ATOM     31  C   UNL A   1      37.863  29.007  28.782  1.00  0.00     0.039 A 
ATOM     32  C   UNL A   1      38.541  29.566  27.691  1.00  0.00     0.014 A 
ATOM     33  C   UNL A   1      38.513  28.091  29.577  1.00  0.00     0.014 A 
ATOM     34  C   UNL A   1      39.863  29.166  27.460  1.00  0.00     0.010 A 
ATOM     35  C   UNL A   1      39.854  28.222  29.635  1.00  0.00     0.010 A 
ATOM     36  C   UNL A   1      40.505  28.424  28.450  1.00  0.00    -0.014 A 
BRANCH  36  37
ATOM     37  C   UNL A   1      41.886  27.983  28.451  1.00  0.00     0.031 A 
ATOM     38  C   UNL A   1      42.090  26.791  27.609  1.00  0.00     0.074 A 
ATOM     39  C   UNL A   1      42.894  28.749  28.935  1.00  0.00     0.049 A 
ATOM     40  N   UNL A   1      42.144  25.568  28.011  1.00  0.00    -0.248 NA
ATOM     41  C   UNL A   1      41.979  26.937  26.146  1.00  0.00     0.031 C 
ATOM     42  C   UNL A   1      42.840  30.123  29.471  1.00  0.00     0.029 A 
ATOM     43  N   UNL A   1      44.230  28.487  28.971  1.00  0.00    -0.354 N 
ATOM     44  C   UNL A   1      42.361  24.819  26.864  1.00  0.00     0.074 A 
ATOM     45  C   UNL A   1      41.975  25.658  25.762  1.00  0.00     0.031 C 
ATOM     46  C   UNL A   1      44.093  30.632  29.572  1.00  0.00     0.029 A 
ATOM     47  C   UNL A   1      45.043  29.577  29.278  1.00  0.00     0.049 A 
ATOM     48  H   UNL A   1      44.595  27.590  28.794  1.00  0.00     0.167 HD
ATOM     49  C   UNL A   1      43.188  23.738  26.901  1.00  0.00     0.031 A 
ATOM     50  C   UNL A   1      46.400  29.590  29.294  1.00  0.00     0.031 A 
ATOM     51  C   UNL A   1      43.541  23.419  28.265  1.00  0.00     0.049 A 
ATOM     52  C   UNL A   1      46.831  28.182  29.438  1.00  0.00     0.074 A 
ATOM     53  C   UNL A   1      42.888  22.942  29.381  1.00  0.00     0.029 A 
ATOM     54  N   UNL A   1      44.673  24.066  28.701  1.00  0.00    -0.354 N 
ATOM     55  N   UNL A   1      46.581  27.470  30.500  1.00  0.00    -0.248 NA
ATOM     56  C   UNL A   1      47.153  27.423  28.240  1.00  0.00     0.031 C 
ATOM     57  C   UNL A   1      43.516  23.584  30.494  1.00  0.00     0.029 A 
ATOM     58  C   UNL A   1      44.578  24.364  30.032  1.00  0.00     0.049 A 
ATOM     59  H   UNL A   1      45.445  24.285  28.131  1.00  0.00     0.167 HD
ATOM     60  C   UNL A   1      46.266  26.213  30.011  1.00  0.00     0.074 A 
ATOM     61  C   UNL A   1      46.793  26.201  28.647  1.00  0.00     0.031 C 
ATOM     62  C   UNL A   1      45.344  25.431  30.648  1.00  0.00     0.031 A 
BRANCH  49  63
ATOM     63  C   UNL A   1      44.101  23.340  25.762  1.00  0.00    -0.014 A 
ATOM     64  C   UNL A   1      44.121  21.989  25.371  1.00  0.00     0.009 A 
ATOM     65  C   UNL A   1      45.137  24.154  25.263  1.00  0.00     0.009 A 
ATOM     66  C   UNL A   1      45.154  21.473  24.579  1.00  0.00     0.001 A 
ATOM     67  C   UNL A   1      46.151  23.649  24.445  1.00  0.00     0.001 A 
ATOM     68  C   UNL A   1      46.172  22.302  24.122  1.00  0.00     0.000 A 
ENDBRANCH  49  63
BRANCH  50  69
ATOM     69  C   UNL A   1      47.345  30.653  28.877  1.00  0.00    -0.014 A 
ATOM     70  C   UNL A   1      48.642  30.727  29.417  1.00  0.00     0.009 A 
ATOM     71  C   UNL A   1      47.083  31.394  27.711  1.00  0.00     0.009 A 
ATOM     72  C   UNL A   1      49.646  31.480  28.788  1.00  0.00     0.001 A 
ATOM     73  C   UNL A   1      48.087  32.140  27.080  1.00  0.00     0.001 A 
ATOM     74  C   UNL A   1      49.373  32.170  27.609  1.00  0.00     0.000 A 
ENDBRANCH  50  69
BRANCH  62  75
ATOM     75  C   UNL A   1      44.979  25.806  32.063  1.00  0.00    -0.014 A 
ATOM     76  C   UNL A   1      45.654  25.339  33.206  1.00  0.00     0.009 A 
ATOM     77  C   UNL A   1      43.963  26.756  32.236  1.00  0.00     0.009 A 
ATOM     78  C   UNL A   1      45.299  25.795  34.482  1.00  0.00     0.001 A 
ATOM     79  C   UNL A   1      43.622  27.225  33.506  1.00  0.00     0.001 A 
ATOM     80  C   UNL A   1      44.285  26.740  34.629  1.00  0.00     0.000 A 
ENDBRANCH  62  75
ENDBRANCH  36  37
ENDBRANCH  28  31
ENDBRANCH  26  27
ENDBRANCH  25  26
ENDBRANCH  24  25
ENDBRANCH   1  24
TORSDOF 15
ENDMDL
