MODEL 1
REMARK VINA RESULT:     -11.5      0.000      0.000
REMARK SMILES CCn1c(N2CCC[C@H](C(=O)NCCCCCCNC(=O)c3ccc(-c4c5nc(c(-c6ccccc6)c6ccc([nH]6)c(-c6ccccc6)c6nc(c(-c7ccccc7)c7ccc4[nH]7)C=C6)C=C5)cc3)C2)nc2cc(C)ccc21
REMARK SMILES IDX 15 1 14 2 13 3 12 4 10 5 11 6 9 8 5 9 6 10 70 11 7 12 8 13
REMARK SMILES IDX 4 14 3 15 78 16 71 17 72 18 77 19 73 20 76 21 74 22 75 23
REMARK SMILES IDX 2 24 1 25 16 26 17 27 18 28 19 29 20 30 21 32 22 33 23 34
REMARK SMILES IDX 69 35 24 36 68 37 25 38 26 39 27 40 62 41 28 42 67 43 61 44
REMARK SMILES IDX 63 45 29 46 66 47 60 48 59 49 30 51 52 52 37 53 51 54 38 55
REMARK SMILES IDX 41 56 50 57 64 58 39 59 40 60 49 62 65 63 42 64 31 65 32 66
REMARK SMILES IDX 36 67 33 68 35 69 34 70 53 71 54 72 58 73 55 74 57 75 56 76
REMARK SMILES IDX 43 77 44 78 48 79 45 80 47 81 46 82
REMARK H PARENT 12 7 19 31 63 50 41 61
REMARK Flexibility Score: inf
ROOT
ATOM      1  C   UNL A   1      34.050  32.374  28.015  1.00  0.00     0.002 C 
ENDROOT
BRANCH   1   2
ATOM      2  C   UNL A   1      34.633  31.012  27.641  1.00  0.00     0.021 C 
BRANCH   2   3
ATOM      3  C   UNL A   1      33.593  30.034  27.107  1.00  0.00     0.116 C 
BRANCH   3   4
ATOM      4  N   UNL A   1      33.858  29.565  25.769  1.00  0.00    -0.356 N 
ATOM      5  C   UNL A   1      32.973  29.288  24.779  1.00  0.00     0.224 C 
ATOM      6  O   UNL A   1      33.425  29.249  23.627  1.00  0.00    -0.275 OA
ATOM      7  H   UNL A   1      34.806  29.428  25.545  1.00  0.00     0.163 HD
BRANCH   5   8
ATOM      8  C   UNL A   1      31.486  29.000  25.010  1.00  0.00     0.098 C 
ATOM      9  N   UNL A   1      30.726  26.612  24.726  1.00  0.00    -0.341 N 
ATOM     10  C   UNL A   1      29.794  26.942  23.654  1.00  0.00     0.119 C 
ATOM     11  C   UNL A   1      31.165  27.657  25.652  1.00  0.00     0.133 C 
ATOM     12  C   UNL A   1      30.065  28.288  22.975  1.00  0.00     0.022 C 
ATOM     13  C   UNL A   1      30.527  29.411  23.897  1.00  0.00     0.017 C 
BRANCH   9  14
ATOM     14  C   UNL A   1      31.367  25.412  24.729  1.00  0.00     0.206 A 
ATOM     15  N   UNL A   1      32.433  25.100  23.902  1.00  0.00    -0.310 N 
ATOM     16  C   UNL A   1      32.720  23.754  24.075  1.00  0.00     0.070 A 
ATOM     17  N   UNL A   1      31.042  24.374  25.470  1.00  0.00    -0.213 NA
ATOM     18  C   UNL A   1      31.821  23.332  25.044  1.00  0.00     0.091 A 
ATOM     19  C   UNL A   1      33.663  22.885  23.508  1.00  0.00     0.029 A 
ATOM     20  C   UNL A   1      31.816  21.984  25.446  1.00  0.00     0.034 A 
ATOM     21  C   UNL A   1      33.647  21.546  23.924  1.00  0.00     0.006 A 
ATOM     22  C   UNL A   1      32.733  21.085  24.876  1.00  0.00    -0.049 A 
ATOM     23  C   UNL A   1      32.705  19.638  25.278  1.00  0.00     0.044 C 
BRANCH  15  24
ATOM     24  C   UNL A   1      33.272  25.994  23.129  1.00  0.00     0.122 C 
ATOM     25  C   UNL A   1      32.949  26.185  21.659  1.00  0.00     0.028 C 
ENDBRANCH  15  24
ENDBRANCH   9  14
ENDBRANCH   5   8
ENDBRANCH   3   4
ENDBRANCH   2   3
ENDBRANCH   1   2
BRANCH   1  26
ATOM     26  C   UNL A   1      35.046  33.542  28.001  1.00  0.00     0.002 C 
BRANCH  26  27
ATOM     27  C   UNL A   1      34.568  34.859  28.629  1.00  0.00     0.021 C 
BRANCH  27  28
ATOM     28  C   UNL A   1      33.176  34.805  29.254  1.00  0.00     0.116 C 
BRANCH  28  29
ATOM     29  N   UNL A   1      33.171  35.059  30.680  1.00  0.00    -0.352 N 
ATOM     30  C   UNL A   1      33.974  34.749  31.741  1.00  0.00     0.251 C 
ATOM     31  H   UNL A   1      32.390  35.593  30.954  1.00  0.00     0.163 HD
ATOM     32  O   UNL A   1      33.617  35.193  32.830  1.00  0.00    -0.269 OA
BRANCH  30  33
ATOM     33  C   UNL A   1      35.193  33.894  31.688  1.00  0.00     0.039 A 
ATOM     34  C   UNL A   1      36.513  34.339  31.724  1.00  0.00     0.014 A 
ATOM     35  C   UNL A   1      34.959  32.509  31.555  1.00  0.00     0.014 A 
ATOM     36  C   UNL A   1      37.562  33.437  31.545  1.00  0.00     0.010 A 
ATOM     37  C   UNL A   1      36.004  31.603  31.392  1.00  0.00     0.010 A 
ATOM     38  C   UNL A   1      37.309  32.074  31.343  1.00  0.00    -0.014 A 
BRANCH  38  39
ATOM     39  C   UNL A   1      38.452  31.177  31.179  1.00  0.00     0.031 A 
ATOM     40  C   UNL A   1      39.174  30.832  32.437  1.00  0.00     0.074 A 
ATOM     41  C   UNL A   1      38.840  30.618  30.014  1.00  0.00     0.049 A 
ATOM     42  N   UNL A   1      40.399  31.111  32.744  1.00  0.00    -0.248 NA
ATOM     43  C   UNL A   1      38.419  30.177  33.515  1.00  0.00     0.031 C 
ATOM     44  C   UNL A   1      38.149  30.605  28.723  1.00  0.00     0.029 A 
ATOM     45  N   UNL A   1      39.945  29.854  29.776  1.00  0.00    -0.354 N 
ATOM     46  C   UNL A   1      40.622  30.570  34.006  1.00  0.00     0.074 A 
ATOM     47  C   UNL A   1      39.346  30.082  34.471  1.00  0.00     0.031 C 
ATOM     48  C   UNL A   1      38.733  29.690  27.912  1.00  0.00     0.029 A 
ATOM     49  C   UNL A   1      39.925  29.177  28.565  1.00  0.00     0.049 A 
ATOM     50  H   UNL A   1      40.694  29.788  30.411  1.00  0.00     0.167 HD
ATOM     51  C   UNL A   1      41.873  30.440  34.530  1.00  0.00     0.031 A 
ATOM     52  C   UNL A   1      40.811  28.237  28.150  1.00  0.00     0.031 A 
ATOM     53  C   UNL A   1      42.833  31.258  33.841  1.00  0.00     0.049 A 
ATOM     54  C   UNL A   1      42.061  28.429  28.918  1.00  0.00     0.074 A 
ATOM     55  C   UNL A   1      42.993  32.619  33.670  1.00  0.00     0.029 A 
ATOM     56  N   UNL A   1      43.620  30.665  32.886  1.00  0.00    -0.354 N 
ATOM     57  N   UNL A   1      42.845  29.456  28.770  1.00  0.00    -0.248 NA
ATOM     58  C   UNL A   1      42.239  27.672  30.145  1.00  0.00     0.031 C 
ATOM     59  C   UNL A   1      43.453  32.767  32.329  1.00  0.00     0.029 A 
ATOM     60  C   UNL A   1      43.608  31.489  31.788  1.00  0.00     0.049 A 
ATOM     61  H   UNL A   1      44.102  29.811  32.971  1.00  0.00     0.167 HD
ATOM     62  C   UNL A   1      43.284  29.743  30.052  1.00  0.00     0.074 A 
ATOM     63  C   UNL A   1      42.969  28.551  30.837  1.00  0.00     0.031 C 
ATOM     64  C   UNL A   1      43.606  31.019  30.420  1.00  0.00     0.031 A 
BRANCH  51  65
ATOM     65  C   UNL A   1      42.279  29.353  35.486  1.00  0.00    -0.014 A 
ATOM     66  C   UNL A   1      41.785  28.038  35.402  1.00  0.00     0.009 A 
ATOM     67  C   UNL A   1      43.376  29.563  36.343  1.00  0.00     0.009 A 
ATOM     68  C   UNL A   1      42.353  26.985  36.126  1.00  0.00     0.001 A 
ATOM     69  C   UNL A   1      43.971  28.504  37.040  1.00  0.00     0.001 A 
ATOM     70  C   UNL A   1      43.462  27.214  36.927  1.00  0.00     0.000 A 
ENDBRANCH  51  65
BRANCH  52  71
ATOM     71  C   UNL A   1      40.549  26.978  27.419  1.00  0.00    -0.014 A 
ATOM     72  C   UNL A   1      39.577  26.081  27.893  1.00  0.00     0.009 A 
ATOM     73  C   UNL A   1      41.471  26.506  26.469  1.00  0.00     0.009 A 
ATOM     74  C   UNL A   1      39.566  24.743  27.482  1.00  0.00     0.001 A 
ATOM     75  C   UNL A   1      41.461  25.166  26.060  1.00  0.00     0.001 A 
ATOM     76  C   UNL A   1      40.522  24.280  26.583  1.00  0.00     0.000 A 
ENDBRANCH  52  71
BRANCH  64  77
ATOM     77  C   UNL A   1      43.683  32.081  29.341  1.00  0.00    -0.014 A 
ATOM     78  C   UNL A   1      44.807  32.100  28.500  1.00  0.00     0.009 A 
ATOM     79  C   UNL A   1      42.770  33.148  29.244  1.00  0.00     0.009 A 
ATOM     80  C   UNL A   1      45.018  33.148  27.601  1.00  0.00     0.001 A 
ATOM     81  C   UNL A   1      42.965  34.184  28.323  1.00  0.00     0.001 A 
ATOM     82  C   UNL A   1      44.096  34.188  27.509  1.00  0.00     0.000 A 
ENDBRANCH  64  77
ENDBRANCH  38  39
ENDBRANCH  30  33
ENDBRANCH  28  29
ENDBRANCH  27  28
ENDBRANCH  26  27
ENDBRANCH   1  26
TORSDOF 15
ENDMDL
MODEL 2
REMARK VINA RESULT:     -11.4      1.892      2.664
REMARK SMILES CCn1c(N2CCC[C@H](C(=O)NCCCCCCNC(=O)c3ccc(-c4c5nc(c(-c6ccccc6)c6ccc([nH]6)c(-c6ccccc6)c6nc(c(-c7ccccc7)c7ccc4[nH]7)C=C6)C=C5)cc3)C2)nc2cc(C)ccc21
REMARK SMILES IDX 15 1 14 2 13 3 12 4 10 5 11 6 9 8 5 9 6 10 70 11 7 12 8 13
REMARK SMILES IDX 4 14 3 15 78 16 71 17 72 18 77 19 73 20 76 21 74 22 75 23
REMARK SMILES IDX 2 24 1 25 16 26 17 27 18 28 19 29 20 30 21 32 22 33 23 34
REMARK SMILES IDX 69 35 24 36 68 37 25 38 26 39 27 40 62 41 28 42 67 43 61 44
REMARK SMILES IDX 63 45 29 46 66 47 60 48 59 49 30 51 52 52 37 53 51 54 38 55
REMARK SMILES IDX 41 56 50 57 64 58 39 59 40 60 49 62 65 63 42 64 31 65 32 66
REMARK SMILES IDX 36 67 33 68 35 69 34 70 53 71 54 72 58 73 55 74 57 75 56 76
REMARK SMILES IDX 43 77 44 78 48 79 45 80 47 81 46 82
REMARK H PARENT 12 7 19 31 63 50 41 61
REMARK Flexibility Score: inf
ROOT
ATOM      1  C   UNL A   1      35.565  29.958  28.287  1.00  0.00     0.002 C 
ENDROOT
BRANCH   1   2
ATOM      2  C   UNL A   1      34.814  29.035  27.328  1.00  0.00     0.021 C 
BRANCH   2   3
ATOM      3  C   UNL A   1      33.819  29.768  26.436  1.00  0.00     0.116 C 
BRANCH   3   4
ATOM      4  N   UNL A   1      33.842  29.347  25.058  1.00  0.00    -0.356 N 
ATOM      5  C   UNL A   1      32.796  29.128  24.223  1.00  0.00     0.224 C 
ATOM      6  O   UNL A   1      33.047  29.124  23.010  1.00  0.00    -0.275 OA
ATOM      7  H   UNL A   1      34.735  29.199  24.672  1.00  0.00     0.163 HD
BRANCH   5   8
ATOM      8  C   UNL A   1      31.361  28.861  24.691  1.00  0.00     0.098 C 
ATOM      9  N   UNL A   1      30.575  26.466  24.667  1.00  0.00    -0.341 N 
ATOM     10  C   UNL A   1      29.492  26.736  23.730  1.00  0.00     0.119 C 
ATOM     11  C   UNL A   1      31.146  27.561  25.452  1.00  0.00     0.133 C 
ATOM     12  C   UNL A   1      29.653  28.038  22.939  1.00  0.00     0.022 C 
ATOM     13  C   UNL A   1      30.244  29.211  23.712  1.00  0.00     0.017 C 
BRANCH   9  14
ATOM     14  C   UNL A   1      31.214  25.264  24.646  1.00  0.00     0.206 A 
ATOM     15  N   UNL A   1      32.130  24.890  23.676  1.00  0.00    -0.310 N 
ATOM     16  C   UNL A   1      32.448  23.557  23.890  1.00  0.00     0.070 A 
ATOM     17  N   UNL A   1      31.021  24.280  25.498  1.00  0.00    -0.213 NA
ATOM     18  C   UNL A   1      31.723  23.207  25.020  1.00  0.00     0.091 A 
ATOM     19  C   UNL A   1      33.289  22.646  23.235  1.00  0.00     0.029 A 
ATOM     20  C   UNL A   1      31.791  21.889  25.508  1.00  0.00     0.034 A 
ATOM     21  C   UNL A   1      33.348  21.338  23.737  1.00  0.00     0.006 A 
ATOM     22  C   UNL A   1      32.605  20.948  24.856  1.00  0.00    -0.049 A 
ATOM     23  C   UNL A   1      32.651  19.532  25.354  1.00  0.00     0.044 C 
BRANCH  15  24
ATOM     24  C   UNL A   1      32.826  25.725  22.716  1.00  0.00     0.122 C 
ATOM     25  C   UNL A   1      32.244  25.847  21.321  1.00  0.00     0.028 C 
ENDBRANCH  15  24
ENDBRANCH   9  14
ENDBRANCH   5   8
ENDBRANCH   3   4
ENDBRANCH   2   3
ENDBRANCH   1   2
BRANCH   1  26
ATOM     26  C   UNL A   1      35.959  31.325  27.711  1.00  0.00     0.002 C 
BRANCH  26  27
ATOM     27  C   UNL A   1      35.424  32.561  28.450  1.00  0.00     0.021 C 
BRANCH  27  28
ATOM     28  C   UNL A   1      34.275  32.283  29.417  1.00  0.00     0.116 C 
BRANCH  28  29
ATOM     29  N   UNL A   1      34.610  32.541  30.802  1.00  0.00    -0.352 N 
ATOM     30  C   UNL A   1      35.584  32.142  31.674  1.00  0.00     0.251 C 
ATOM     31  H   UNL A   1      33.974  33.164  31.223  1.00  0.00     0.163 HD
ATOM     32  O   UNL A   1      35.525  32.629  32.801  1.00  0.00    -0.269 OA
BRANCH  30  33
ATOM     33  C   UNL A   1      36.657  31.150  31.384  1.00  0.00     0.039 A 
ATOM     34  C   UNL A   1      36.566  29.769  31.541  1.00  0.00     0.014 A 
ATOM     35  C   UNL A   1      37.882  31.692  30.942  1.00  0.00     0.014 A 
ATOM     36  C   UNL A   1      37.690  28.965  31.346  1.00  0.00     0.010 A 
ATOM     37  C   UNL A   1      39.002  30.893  30.730  1.00  0.00     0.010 A 
ATOM     38  C   UNL A   1      38.918  29.529  30.975  1.00  0.00    -0.014 A 
BRANCH  38  39
ATOM     39  C   UNL A   1      40.054  28.631  30.768  1.00  0.00     0.031 A 
ATOM     40  C   UNL A   1      40.895  28.384  31.974  1.00  0.00     0.074 A 
ATOM     41  C   UNL A   1      40.338  27.991  29.615  1.00  0.00     0.049 A 
ATOM     42  N   UNL A   1      42.140  28.695  32.142  1.00  0.00    -0.248 NA
ATOM     43  C   UNL A   1      40.255  27.805  33.163  1.00  0.00     0.031 C 
ATOM     44  C   UNL A   1      39.529  27.878  28.400  1.00  0.00     0.029 A 
ATOM     45  N   UNL A   1      41.427  27.220  29.329  1.00  0.00    -0.354 N 
ATOM     46  C   UNL A   1      42.488  28.249  33.414  1.00  0.00     0.074 A 
ATOM     47  C   UNL A   1      41.270  27.787  34.031  1.00  0.00     0.031 C 
ATOM     48  C   UNL A   1      40.047  26.911  27.605  1.00  0.00     0.029 A 
ATOM     49  C   UNL A   1      41.303  26.456  28.177  1.00  0.00     0.049 A 
ATOM     50  H   UNL A   1      42.233  27.206  29.893  1.00  0.00     0.167 HD
ATOM     51  C   UNL A   1      43.785  28.167  33.824  1.00  0.00     0.031 A 
ATOM     52  C   UNL A   1      42.159  25.495  27.750  1.00  0.00     0.031 A 
ATOM     53  C   UNL A   1      44.664  28.940  32.990  1.00  0.00     0.049 A 
ATOM     54  C   UNL A   1      43.473  25.752  28.379  1.00  0.00     0.074 A 
ATOM     55  C   UNL A   1      44.788  30.286  32.706  1.00  0.00     0.029 A 
ATOM     56  N   UNL A   1      45.367  28.284  32.009  1.00  0.00    -0.354 N 
ATOM     57  N   UNL A   1      44.225  26.771  28.084  1.00  0.00    -0.248 NA
ATOM     58  C   UNL A   1      43.777  25.088  29.635  1.00  0.00     0.031 C 
ATOM     59  C   UNL A   1      45.117  30.338  31.321  1.00  0.00     0.029 A 
ATOM     60  C   UNL A   1      45.239  29.026  30.861  1.00  0.00     0.049 A 
ATOM     61  H   UNL A   1      45.867  27.443  32.110  1.00  0.00     0.167 HD
ATOM     62  C   UNL A   1      44.778  27.155  29.294  1.00  0.00     0.074 A 
ATOM     63  C   UNL A   1      44.556  26.021  30.190  1.00  0.00     0.031 C 
ATOM     64  C   UNL A   1      45.115  28.457  29.536  1.00  0.00     0.031 A 
BRANCH  51  65
ATOM     65  C   UNL A   1      44.295  27.157  34.814  1.00  0.00    -0.014 A 
ATOM     66  C   UNL A   1      44.473  27.448  36.179  1.00  0.00     0.009 A 
ATOM     67  C   UNL A   1      44.363  25.801  34.442  1.00  0.00     0.009 A 
ATOM     68  C   UNL A   1      44.702  26.446  37.127  1.00  0.00     0.001 A 
ATOM     69  C   UNL A   1      44.554  24.792  35.394  1.00  0.00     0.001 A 
ATOM     70  C   UNL A   1      44.718  25.115  36.737  1.00  0.00     0.000 A 
ENDBRANCH  51  65
BRANCH  52  71
ATOM     71  C   UNL A   1      41.848  24.183  27.140  1.00  0.00    -0.014 A 
ATOM     72  C   UNL A   1      41.133  23.221  27.873  1.00  0.00     0.009 A 
ATOM     73  C   UNL A   1      42.533  23.758  25.988  1.00  0.00     0.009 A 
ATOM     74  C   UNL A   1      41.155  21.871  27.506  1.00  0.00     0.001 A 
ATOM     75  C   UNL A   1      42.556  22.405  25.624  1.00  0.00     0.001 A 
ATOM     76  C   UNL A   1      41.884  21.460  26.395  1.00  0.00     0.000 A 
ENDBRANCH  52  71
BRANCH  64  77
ATOM     77  C   UNL A   1      45.075  29.437  28.382  1.00  0.00    -0.014 A 
ATOM     78  C   UNL A   1      46.285  29.805  27.774  1.00  0.00     0.009 A 
ATOM     79  C   UNL A   1      43.909  30.125  27.995  1.00  0.00     0.009 A 
ATOM     80  C   UNL A   1      46.334  30.825  26.821  1.00  0.00     0.001 A 
ATOM     81  C   UNL A   1      43.951  31.128  27.020  1.00  0.00     0.001 A 
ATOM     82  C   UNL A   1      45.168  31.484  26.440  1.00  0.00     0.000 A 
ENDBRANCH  64  77
ENDBRANCH  38  39
ENDBRANCH  30  33
ENDBRANCH  28  29
ENDBRANCH  27  28
ENDBRANCH  26  27
ENDBRANCH   1  26
TORSDOF 15
ENDMDL
MODEL 3
REMARK VINA RESULT:     -11.2      2.246      4.267
REMARK SMILES CCn1c(N2CCC[C@H](C(=O)NCCCCCCNC(=O)c3ccc(-c4c5nc(c(-c6ccccc6)c6ccc([nH]6)c(-c6ccccc6)c6nc(c(-c7ccccc7)c7ccc4[nH]7)C=C6)C=C5)cc3)C2)nc2cc(C)ccc21
REMARK SMILES IDX 15 1 14 2 13 3 12 4 10 5 11 6 9 8 5 9 6 10 70 11 7 12 8 13
REMARK SMILES IDX 4 14 3 15 78 16 71 17 72 18 77 19 73 20 76 21 74 22 75 23
REMARK SMILES IDX 2 24 1 25 16 26 17 27 18 28 19 29 20 30 21 32 22 33 23 34
REMARK SMILES IDX 69 35 24 36 68 37 25 38 26 39 27 40 62 41 28 42 67 43 61 44
REMARK SMILES IDX 63 45 29 46 66 47 60 48 59 49 30 51 52 52 37 53 51 54 38 55
REMARK SMILES IDX 41 56 50 57 64 58 39 59 40 60 49 62 65 63 42 64 31 65 32 66
REMARK SMILES IDX 36 67 33 68 35 69 34 70 53 71 54 72 58 73 55 74 57 75 56 76
REMARK SMILES IDX 43 77 44 78 48 79 45 80 47 81 46 82
REMARK H PARENT 12 7 19 31 63 50 41 61
REMARK Flexibility Score: inf
ROOT
ATOM      1  C   UNL A   1      34.836  29.250  27.544  1.00  0.00     0.002 C 
ENDROOT
BRANCH   1   2
ATOM      2  C   UNL A   1      33.400  28.949  27.116  1.00  0.00     0.021 C 
BRANCH   2   3
ATOM      3  C   UNL A   1      33.307  27.986  25.938  1.00  0.00     0.116 C 
BRANCH   3   4
ATOM      4  N   UNL A   1      33.152  26.604  26.318  1.00  0.00    -0.356 N 
ATOM      5  C   UNL A   1      33.620  25.496  25.690  1.00  0.00     0.224 C 
ATOM      6  O   UNL A   1      33.681  24.461  26.366  1.00  0.00    -0.275 OA
ATOM      7  H   UNL A   1      32.639  26.443  27.143  1.00  0.00     0.163 HD
BRANCH   5   8
ATOM      8  C   UNL A   1      34.039  25.454  24.217  1.00  0.00     0.098 C 
ATOM      9  N   UNL A   1      32.457  26.488  22.548  1.00  0.00    -0.341 N 
ATOM     10  C   UNL A   1      32.265  25.240  21.820  1.00  0.00     0.119 C 
ATOM     11  C   UNL A   1      33.645  26.666  23.384  1.00  0.00     0.133 C 
ATOM     12  C   UNL A   1      32.652  23.985  22.610  1.00  0.00     0.022 C 
ATOM     13  C   UNL A   1      33.883  24.118  23.497  1.00  0.00     0.017 C 
BRANCH   9  14
ATOM     14  C   UNL A   1      31.440  27.387  22.644  1.00  0.00     0.206 A 
ATOM     15  N   UNL A   1      30.171  27.074  23.101  1.00  0.00    -0.310 N 
ATOM     16  C   UNL A   1      29.368  28.190  22.912  1.00  0.00     0.070 A 
ATOM     17  N   UNL A   1      31.497  28.649  22.277  1.00  0.00    -0.213 NA
ATOM     18  C   UNL A   1      30.224  29.144  22.379  1.00  0.00     0.091 A 
ATOM     19  C   UNL A   1      28.016  28.463  23.162  1.00  0.00     0.029 A 
ATOM     20  C   UNL A   1      29.723  30.411  22.034  1.00  0.00     0.034 A 
ATOM     21  C   UNL A   1      27.534  29.734  22.817  1.00  0.00     0.006 A 
ATOM     22  C   UNL A   1      28.366  30.704  22.249  1.00  0.00    -0.049 A 
ATOM     23  C   UNL A   1      27.821  32.045  21.847  1.00  0.00     0.044 C 
BRANCH  15  24
ATOM     24  C   UNL A   1      29.734  25.903  23.836  1.00  0.00     0.122 C 
ATOM     25  C   UNL A   1      29.960  25.875  25.335  1.00  0.00     0.028 C 
ENDBRANCH  15  24
ENDBRANCH   9  14
ENDBRANCH   5   8
ENDBRANCH   3   4
ENDBRANCH   2   3
ENDBRANCH   1   2
BRANCH   1  26
ATOM     26  C   UNL A   1      35.197  30.739  27.632  1.00  0.00     0.002 C 
BRANCH  26  27
ATOM     27  C   UNL A   1      34.104  31.681  28.157  1.00  0.00     0.021 C 
BRANCH  27  28
ATOM     28  C   UNL A   1      34.618  32.972  28.791  1.00  0.00     0.116 C 
BRANCH  28  29
ATOM     29  N   UNL A   1      34.656  32.930  30.238  1.00  0.00    -0.352 N 
ATOM     30  C   UNL A   1      35.404  32.296  31.189  1.00  0.00     0.251 C 
ATOM     31  H   UNL A   1      33.966  33.507  30.639  1.00  0.00     0.163 HD
ATOM     32  O   UNL A   1      35.122  32.559  32.356  1.00  0.00    -0.269 OA
BRANCH  30  33
ATOM     33  C   UNL A   1      36.480  31.299  30.927  1.00  0.00     0.039 A 
ATOM     34  C   UNL A   1      36.345  29.913  30.966  1.00  0.00     0.014 A 
ATOM     35  C   UNL A   1      37.753  31.838  30.648  1.00  0.00     0.014 A 
ATOM     36  C   UNL A   1      37.466  29.095  30.817  1.00  0.00     0.010 A 
ATOM     37  C   UNL A   1      38.872  31.025  30.482  1.00  0.00     0.010 A 
ATOM     38  C   UNL A   1      38.736  29.650  30.611  1.00  0.00    -0.014 A 
BRANCH  38  39
ATOM     39  C   UNL A   1      39.868  28.738  30.444  1.00  0.00     0.031 A 
ATOM     40  C   UNL A   1      40.649  28.464  31.684  1.00  0.00     0.074 A 
ATOM     41  C   UNL A   1      40.196  28.109  29.297  1.00  0.00     0.049 A 
ATOM     42  N   UNL A   1      41.888  28.754  31.913  1.00  0.00    -0.248 NA
ATOM     43  C   UNL A   1      39.946  27.878  32.834  1.00  0.00     0.031 C 
ATOM     44  C   UNL A   1      39.442  28.025  28.044  1.00  0.00     0.029 A 
ATOM     45  N   UNL A   1      41.286  27.327  29.050  1.00  0.00    -0.354 N 
ATOM     46  C   UNL A   1      42.171  28.287  33.193  1.00  0.00     0.074 A 
ATOM     47  C   UNL A   1      40.919  27.834  33.748  1.00  0.00     0.031 C 
ATOM     48  C   UNL A   1      39.983  27.060  27.261  1.00  0.00     0.029 A 
ATOM     49  C   UNL A   1      41.205  26.579  27.884  1.00  0.00     0.049 A 
ATOM     50  H   UNL A   1      42.065  27.294  29.651  1.00  0.00     0.167 HD
ATOM     51  C   UNL A   1      43.446  28.180  33.662  1.00  0.00     0.031 A 
ATOM     52  C   UNL A   1      42.066  25.612  27.483  1.00  0.00     0.031 A 
ATOM     53  C   UNL A   1      44.374  28.951  32.880  1.00  0.00     0.049 A 
ATOM     54  C   UNL A   1      43.353  25.841  28.176  1.00  0.00     0.074 A 
ATOM     55  C   UNL A   1      44.530  30.299  32.621  1.00  0.00     0.029 A 
ATOM     56  N   UNL A   1      45.112  28.298  31.924  1.00  0.00    -0.354 N 
ATOM     57  N   UNL A   1      44.132  26.854  27.929  1.00  0.00    -0.248 NA
ATOM     58  C   UNL A   1      43.589  25.157  29.435  1.00  0.00     0.031 C 
ATOM     59  C   UNL A   1      44.923  30.365  31.253  1.00  0.00     0.029 A 
ATOM     60  C   UNL A   1      45.048  29.057  30.781  1.00  0.00     0.049 A 
ATOM     61  H   UNL A   1      45.595  27.449  32.036  1.00  0.00     0.167 HD
ATOM     62  C   UNL A   1      44.634  27.214  29.169  1.00  0.00     0.074 A 
ATOM     63  C   UNL A   1      44.355  26.071  30.038  1.00  0.00     0.031 C 
ATOM     64  C   UNL A   1      44.978  28.507  29.445  1.00  0.00     0.031 A 
BRANCH  51  65
ATOM     65  C   UNL A   1      43.896  27.150  34.660  1.00  0.00    -0.014 A 
ATOM     66  C   UNL A   1      44.069  27.435  36.027  1.00  0.00     0.009 A 
ATOM     67  C   UNL A   1      43.908  25.792  34.291  1.00  0.00     0.009 A 
ATOM     68  C   UNL A   1      44.238  26.426  36.979  1.00  0.00     0.001 A 
ATOM     69  C   UNL A   1      44.038  24.777  35.247  1.00  0.00     0.001 A 
ATOM     70  C   UNL A   1      44.199  25.094  36.592  1.00  0.00     0.000 A 
ENDBRANCH  51  65
BRANCH  52  71
ATOM     71  C   UNL A   1      41.766  24.313  26.841  1.00  0.00    -0.014 A 
ATOM     72  C   UNL A   1      40.786  23.469  27.391  1.00  0.00     0.009 A 
ATOM     73  C   UNL A   1      42.658  23.762  25.906  1.00  0.00     0.009 A 
ATOM     74  C   UNL A   1      40.741  22.108  27.069  1.00  0.00     0.001 A 
ATOM     75  C   UNL A   1      42.615  22.398  25.587  1.00  0.00     0.001 A 
ATOM     76  C   UNL A   1      41.669  21.568  26.184  1.00  0.00     0.000 A 
ENDBRANCH  52  71
BRANCH  64  77
ATOM     77  C   UNL A   1      45.004  29.503  28.303  1.00  0.00    -0.014 A 
ATOM     78  C   UNL A   1      46.237  29.795  27.699  1.00  0.00     0.009 A 
ATOM     79  C   UNL A   1      43.888  30.273  27.926  1.00  0.00     0.009 A 
ATOM     80  C   UNL A   1      46.355  30.822  26.760  1.00  0.00     0.001 A 
ATOM     81  C   UNL A   1      43.999  31.283  26.964  1.00  0.00     0.001 A 
ATOM     82  C   UNL A   1      45.237  31.564  26.388  1.00  0.00     0.000 A 
ENDBRANCH  64  77
ENDBRANCH  38  39
ENDBRANCH  30  33
ENDBRANCH  28  29
ENDBRANCH  27  28
ENDBRANCH  26  27
ENDBRANCH   1  26
TORSDOF 15
ENDMDL
