MODEL 1
REMARK VINA RESULT:      -9.9      0.000      0.000
REMARK SMILES O=C(C[C@H](C(=O)OC[C@H]1CCCO1)[NH+]1CCOCC1)NCCCCCCNC(=O)c1ccc(-c2c3nc(c(-c4ccccc4)c4ccc([nH]4)c(-c4ccccc4)c4nc(c(-c5ccccc5)c5ccc2[nH]5)C=C4)C=C3)cc1
REMARK SMILES IDX 22 1 21 2 20 3 1 4 2 5 3 7 4 8 14 9 15 10 19 11 16 13 18 14
REMARK SMILES IDX 17 15 5 16 6 17 7 18 8 19 9 20 10 21 13 22 11 23 12 24 23 25
REMARK SMILES IDX 24 26 25 27 26 28 27 29 28 30 29 32 30 33 31 34 77 35 32 36
REMARK SMILES IDX 76 37 33 38 34 39 35 40 70 41 36 42 75 43 69 44 71 45 37 46
REMARK SMILES IDX 74 47 68 48 67 49 38 51 60 52 45 53 59 54 46 55 49 56 58 57
REMARK SMILES IDX 72 58 47 59 48 60 57 62 73 63 50 64 39 65 40 66 44 67 41 68
REMARK SMILES IDX 43 69 42 70 61 71 62 72 66 73 63 74 65 75 64 76 51 77 52 78
REMARK SMILES IDX 56 79 53 80 55 81 54 82
REMARK H PARENT 20 6 14 12 27 31 71 50 49 61
REMARK Flexibility Score: inf
ROOT
ATOM      1  C   UNL A   1      36.355  23.581  25.351  1.00  0.00     0.021 C 
ENDROOT
BRANCH   1   2
ATOM      2  C   UNL A   1      35.656  23.754  24.002  1.00  0.00     0.116 C 
BRANCH   2   3
ATOM      3  N   UNL A   1      34.231  23.495  24.109  1.00  0.00    -0.356 N 
ATOM      4  O   UNL A   1      33.852  23.380  21.853  1.00  0.00    -0.275 OA
ATOM      5  C   UNL A   1      33.426  23.345  23.002  1.00  0.00     0.226 C 
ATOM      6  H   UNL A   1      33.828  23.424  25.004  1.00  0.00     0.163 HD
BRANCH   5   7
ATOM      7  C   UNL A   1      31.942  23.223  23.307  1.00  0.00     0.177 C 
BRANCH   7   8
ATOM      8  C   UNL A   1      31.565  23.641  24.751  1.00  0.00     0.304 C 
BRANCH   8   9
ATOM      9  N   UNL A   1      30.355  24.541  24.714  1.00  0.00    -0.319 N 
ATOM     10  C   UNL A   1      30.405  25.526  23.596  1.00  0.00     0.291 C 
ATOM     11  C   UNL A   1      30.106  25.353  25.936  1.00  0.00     0.291 C 
ATOM     12  H   UNL A   1      29.605  23.858  24.607  1.00  0.00     0.348 HD
ATOM     13  C   UNL A   1      31.381  26.698  23.819  1.00  0.00     0.221 C 
ATOM     14  C   UNL A   1      31.112  26.491  26.155  1.00  0.00     0.221 C 
ATOM     15  O   UNL A   1      31.117  27.391  25.039  1.00  0.00    -0.370 OA
ENDBRANCH   8   9
BRANCH   8  16
ATOM     16  C   UNL A   1      31.355  22.316  25.551  1.00  0.00     0.365 C 
ATOM     17  O   UNL A   1      30.303  21.874  25.990  1.00  0.00    -0.245 OA
BRANCH  16  18
ATOM     18  O   UNL A   1      32.570  21.745  25.794  1.00  0.00    -0.459 OA
BRANCH  18  19
ATOM     19  C   UNL A   1      32.676  20.314  25.684  1.00  0.00     0.265 C 
BRANCH  19  20
ATOM     20  C   UNL A   1      33.388  19.929  24.379  1.00  0.00     0.156 C 
ATOM     21  C   UNL A   1      34.193  18.640  24.463  1.00  0.00     0.038 C 
ATOM     22  O   UNL A   1      32.413  19.722  23.340  1.00  0.00    -0.375 OA
ATOM     23  C   UNL A   1      33.231  17.584  23.981  1.00  0.00     0.031 C 
ATOM     24  C   UNL A   1      32.370  18.335  22.993  1.00  0.00     0.161 C 
ENDBRANCH  19  20
ENDBRANCH  18  19
ENDBRANCH  16  18
ENDBRANCH   8  16
ENDBRANCH   7   8
ENDBRANCH   5   7
ENDBRANCH   2   3
ENDBRANCH   1   2
BRANCH   1  25
ATOM     25  C   UNL A   1      37.450  22.506  25.367  1.00  0.00     0.002 C 
BRANCH  25  26
ATOM     26  C   UNL A   1      37.142  21.245  24.554  1.00  0.00     0.002 C 
BRANCH  26  27
ATOM     27  C   UNL A   1      38.071  20.058  24.816  1.00  0.00     0.021 C 
BRANCH  27  28
ATOM     28  C   UNL A   1      39.088  20.272  25.933  1.00  0.00     0.116 C 
BRANCH  28  29
ATOM     29  N   UNL A   1      40.174  19.307  25.889  1.00  0.00    -0.352 N 
ATOM     30  C   UNL A   1      41.521  19.500  26.074  1.00  0.00     0.251 C 
ATOM     31  H   UNL A   1      39.906  18.379  25.699  1.00  0.00     0.163 HD
ATOM     32  O   UNL A   1      42.312  18.594  25.830  1.00  0.00    -0.269 OA
BRANCH  30  33
ATOM     33  C   UNL A   1      42.026  20.809  26.545  1.00  0.00     0.039 A 
ATOM     34  C   UNL A   1      42.442  21.753  25.602  1.00  0.00     0.014 A 
ATOM     35  C   UNL A   1      42.104  21.102  27.909  1.00  0.00     0.014 A 
ATOM     36  C   UNL A   1      42.881  23.010  26.025  1.00  0.00     0.010 A 
ATOM     37  C   UNL A   1      42.468  22.380  28.325  1.00  0.00     0.010 A 
ATOM     38  C   UNL A   1      42.868  23.346  27.389  1.00  0.00    -0.014 A 
BRANCH  38  39
ATOM     39  C   UNL A   1      43.289  24.693  27.857  1.00  0.00     0.031 A 
ATOM     40  C   UNL A   1      42.255  25.753  28.132  1.00  0.00     0.074 A 
ATOM     41  C   UNL A   1      44.599  24.981  27.986  1.00  0.00     0.049 A 
ATOM     42  N   UNL A   1      42.427  27.004  28.474  1.00  0.00    -0.248 NA
ATOM     43  C   UNL A   1      40.844  25.361  27.983  1.00  0.00     0.031 C 
ATOM     44  C   UNL A   1      45.704  24.056  27.723  1.00  0.00     0.029 A 
ATOM     45  N   UNL A   1      45.225  26.143  28.366  1.00  0.00    -0.354 N 
ATOM     46  C   UNL A   1      41.152  27.547  28.573  1.00  0.00     0.074 A 
ATOM     47  C   UNL A   1      40.218  26.509  28.198  1.00  0.00     0.031 C 
ATOM     48  C   UNL A   1      46.869  24.679  27.970  1.00  0.00     0.029 A 
ATOM     49  C   UNL A   1      46.597  26.057  28.364  1.00  0.00     0.049 A 
ATOM     50  H   UNL A   1      44.737  26.960  28.616  1.00  0.00     0.167 HD
ATOM     51  C   UNL A   1      40.785  28.791  28.966  1.00  0.00     0.031 A 
ATOM     52  C   UNL A   1      47.532  26.988  28.637  1.00  0.00     0.031 A 
ATOM     53  C   UNL A   1      41.710  29.825  29.347  1.00  0.00     0.049 A 
ATOM     54  C   UNL A   1      47.097  28.372  29.037  1.00  0.00     0.074 A 
ATOM     55  C   UNL A   1      41.433  31.109  29.786  1.00  0.00     0.029 A 
ATOM     56  N   UNL A   1      43.089  29.692  29.340  1.00  0.00    -0.354 N 
ATOM     57  N   UNL A   1      45.884  28.852  29.173  1.00  0.00    -0.248 NA
ATOM     58  C   UNL A   1      48.162  29.340  29.335  1.00  0.00     0.031 C 
ATOM     59  C   UNL A   1      42.645  31.769  29.999  1.00  0.00     0.029 A 
ATOM     60  C   UNL A   1      43.677  30.876  29.754  1.00  0.00     0.049 A 
ATOM     61  H   UNL A   1      43.578  28.878  29.080  1.00  0.00     0.167 HD
ATOM     62  C   UNL A   1      46.043  30.161  29.610  1.00  0.00     0.074 A 
ATOM     63  C   UNL A   1      47.465  30.395  29.733  1.00  0.00     0.031 C 
ATOM     64  C   UNL A   1      45.093  31.088  29.886  1.00  0.00     0.031 A 
BRANCH  51  65
ATOM     65  C   UNL A   1      39.315  29.101  29.014  1.00  0.00    -0.014 A 
ATOM     66  C   UNL A   1      38.638  29.570  27.877  1.00  0.00     0.009 A 
ATOM     67  C   UNL A   1      38.585  28.863  30.189  1.00  0.00     0.009 A 
ATOM     68  C   UNL A   1      37.265  29.823  27.924  1.00  0.00     0.001 A 
ATOM     69  C   UNL A   1      37.207  29.087  30.224  1.00  0.00     0.001 A 
ATOM     70  C   UNL A   1      36.550  29.574  29.095  1.00  0.00     0.000 A 
ENDBRANCH  51  65
BRANCH  52  71
ATOM     71  C   UNL A   1      48.980  26.656  28.540  1.00  0.00    -0.014 A 
ATOM     72  C   UNL A   1      49.704  26.262  29.676  1.00  0.00     0.009 A 
ATOM     73  C   UNL A   1      49.658  26.780  27.317  1.00  0.00     0.009 A 
ATOM     74  C   UNL A   1      51.082  26.048  29.600  1.00  0.00     0.001 A 
ATOM     75  C   UNL A   1      51.029  26.528  27.236  1.00  0.00     0.001 A 
ATOM     76  C   UNL A   1      51.743  26.178  28.381  1.00  0.00     0.000 A 
ENDBRANCH  52  71
BRANCH  64  77
ATOM     77  C   UNL A   1      45.558  32.420  30.407  1.00  0.00    -0.014 A 
ATOM     78  C   UNL A   1      45.819  33.497  29.546  1.00  0.00     0.009 A 
ATOM     79  C   UNL A   1      45.700  32.608  31.792  1.00  0.00     0.009 A 
ATOM     80  C   UNL A   1      46.249  34.722  30.058  1.00  0.00     0.001 A 
ATOM     81  C   UNL A   1      46.097  33.844  32.304  1.00  0.00     0.001 A 
ATOM     82  C   UNL A   1      46.383  34.896  31.436  1.00  0.00     0.000 A 
ENDBRANCH  64  77
ENDBRANCH  38  39
ENDBRANCH  30  33
ENDBRANCH  28  29
ENDBRANCH  27  28
ENDBRANCH  26  27
ENDBRANCH  25  26
ENDBRANCH   1  25
TORSDOF 19
ENDMDL
MODEL 2
REMARK VINA RESULT:      -9.8      1.090      5.962
REMARK SMILES O=C(C[C@H](C(=O)OC[C@H]1CCCO1)[NH+]1CCOCC1)NCCCCCCNC(=O)c1ccc(-c2c3nc(c(-c4ccccc4)c4ccc([nH]4)c(-c4ccccc4)c4nc(c(-c5ccccc5)c5ccc2[nH]5)C=C4)C=C3)cc1
REMARK SMILES IDX 22 1 21 2 20 3 1 4 2 5 3 7 4 8 14 9 15 10 19 11 16 13 18 14
REMARK SMILES IDX 17 15 5 16 6 17 7 18 8 19 9 20 10 21 13 22 11 23 12 24 23 25
REMARK SMILES IDX 24 26 25 27 26 28 27 29 28 30 29 32 30 33 31 34 77 35 32 36
REMARK SMILES IDX 76 37 33 38 34 39 35 40 70 41 36 42 75 43 69 44 71 45 37 46
REMARK SMILES IDX 74 47 68 48 67 49 38 51 60 52 45 53 59 54 46 55 49 56 58 57
REMARK SMILES IDX 72 58 47 59 48 60 57 62 73 63 50 64 39 65 40 66 44 67 41 68
REMARK SMILES IDX 43 69 42 70 61 71 62 72 66 73 63 74 65 75 64 76 51 77 52 78
REMARK SMILES IDX 56 79 53 80 55 81 54 82
REMARK H PARENT 20 6 14 12 27 31 71 50 49 61
REMARK Flexibility Score: inf
ROOT
ATOM      1  C   UNL A   1      37.381  23.392  25.643  1.00  0.00     0.021 C 
ENDROOT
BRANCH   1   2
ATOM      2  C   UNL A   1      36.679  23.602  24.301  1.00  0.00     0.116 C 
BRANCH   2   3
ATOM      3  N   UNL A   1      35.382  22.950  24.277  1.00  0.00    -0.356 N 
ATOM      4  O   UNL A   1      34.560  24.146  22.504  1.00  0.00    -0.275 OA
ATOM      5  C   UNL A   1      34.402  23.295  23.374  1.00  0.00     0.226 C 
ATOM      6  H   UNL A   1      35.197  22.235  24.929  1.00  0.00     0.163 HD
BRANCH   5   7
ATOM      7  C   UNL A   1      33.065  22.606  23.591  1.00  0.00     0.177 C 
BRANCH   7   8
ATOM      8  C   UNL A   1      32.466  22.837  25.002  1.00  0.00     0.304 C 
BRANCH   8   9
ATOM      9  N   UNL A   1      31.008  23.203  24.876  1.00  0.00    -0.319 N 
ATOM     10  C   UNL A   1      30.718  23.992  23.645  1.00  0.00     0.291 C 
ATOM     11  C   UNL A   1      30.435  24.001  25.993  1.00  0.00     0.291 C 
ATOM     12  H   UNL A   1      30.574  22.280  24.866  1.00  0.00     0.348 HD
ATOM     13  C   UNL A   1      31.174  25.463  23.704  1.00  0.00     0.221 C 
ATOM     14  C   UNL A   1      30.931  25.452  26.053  1.00  0.00     0.221 C 
ATOM     15  O   UNL A   1      30.631  26.147  24.835  1.00  0.00    -0.370 OA
ENDBRANCH   8   9
BRANCH   8  16
ATOM     16  C   UNL A   1      32.731  21.528  25.811  1.00  0.00     0.365 C 
ATOM     17  O   UNL A   1      33.296  21.424  26.890  1.00  0.00    -0.245 OA
BRANCH  16  18
ATOM     18  O   UNL A   1      32.324  20.456  25.070  1.00  0.00    -0.459 OA
BRANCH  18  19
ATOM     19  C   UNL A   1      33.100  19.248  25.152  1.00  0.00     0.265 C 
BRANCH  19  20
ATOM     20  C   UNL A   1      32.372  18.095  24.445  1.00  0.00     0.156 C 
ATOM     21  C   UNL A   1      32.996  17.680  23.120  1.00  0.00     0.038 C 
ATOM     22  O   UNL A   1      32.397  16.923  25.281  1.00  0.00    -0.375 OA
ATOM     23  C   UNL A   1      33.927  16.556  23.498  1.00  0.00     0.031 C 
ATOM     24  C   UNL A   1      33.236  15.928  24.686  1.00  0.00     0.161 C 
ENDBRANCH  19  20
ENDBRANCH  18  19
ENDBRANCH  16  18
ENDBRANCH   8  16
ENDBRANCH   7   8
ENDBRANCH   5   7
ENDBRANCH   2   3
ENDBRANCH   1   2
BRANCH   1  25
ATOM     25  C   UNL A   1      38.203  22.100  25.736  1.00  0.00     0.002 C 
BRANCH  25  26
ATOM     26  C   UNL A   1      37.717  20.949  24.849  1.00  0.00     0.002 C 
BRANCH  26  27
ATOM     27  C   UNL A   1      38.502  19.643  24.988  1.00  0.00     0.021 C 
BRANCH  27  28
ATOM     28  C   UNL A   1      39.434  19.579  26.194  1.00  0.00     0.116 C 
BRANCH  28  29
ATOM     29  N   UNL A   1      40.728  19.002  25.866  1.00  0.00    -0.352 N 
ATOM     30  C   UNL A   1      41.969  19.591  25.858  1.00  0.00     0.251 C 
ATOM     31  H   UNL A   1      40.714  18.051  25.615  1.00  0.00     0.163 HD
ATOM     32  O   UNL A   1      42.931  18.992  25.388  1.00  0.00    -0.269 OA
BRANCH  30  33
ATOM     33  C   UNL A   1      42.145  20.960  26.393  1.00  0.00     0.039 A 
ATOM     34  C   UNL A   1      42.061  21.163  27.773  1.00  0.00     0.014 A 
ATOM     35  C   UNL A   1      42.375  22.043  25.540  1.00  0.00     0.014 A 
ATOM     36  C   UNL A   1      42.267  22.439  28.301  1.00  0.00     0.010 A 
ATOM     37  C   UNL A   1      42.656  23.298  26.072  1.00  0.00     0.010 A 
ATOM     38  C   UNL A   1      42.597  23.513  27.458  1.00  0.00    -0.014 A 
BRANCH  38  39
ATOM     39  C   UNL A   1      42.863  24.870  28.003  1.00  0.00     0.031 A 
ATOM     40  C   UNL A   1      44.253  25.248  28.441  1.00  0.00     0.074 A 
ATOM     41  C   UNL A   1      41.849  25.746  28.152  1.00  0.00     0.049 A 
ATOM     42  N   UNL A   1      44.669  26.352  29.008  1.00  0.00    -0.248 NA
ATOM     43  C   UNL A   1      45.312  24.245  28.235  1.00  0.00     0.031 C 
ATOM     44  C   UNL A   1      40.451  25.498  27.796  1.00  0.00     0.029 A 
ATOM     45  N   UNL A   1      41.841  27.025  28.652  1.00  0.00    -0.354 N 
ATOM     46  C   UNL A   1      46.029  26.173  29.231  1.00  0.00     0.074 A 
ATOM     47  C   UNL A   1      46.358  24.834  28.795  1.00  0.00     0.031 C 
ATOM     48  C   UNL A   1      39.725  26.595  28.068  1.00  0.00     0.029 A 
ATOM     49  C   UNL A   1      40.595  27.607  28.658  1.00  0.00     0.049 A 
ATOM     50  H   UNL A   1      42.649  27.482  28.975  1.00  0.00     0.167 HD
ATOM     51  C   UNL A   1      46.932  27.051  29.730  1.00  0.00     0.031 A 
ATOM     52  C   UNL A   1      40.195  28.814  29.103  1.00  0.00     0.031 A 
ATOM     53  C   UNL A   1      46.611  28.386  30.159  1.00  0.00     0.049 A 
ATOM     54  C   UNL A   1      41.214  29.757  29.685  1.00  0.00     0.074 A 
ATOM     55  C   UNL A   1      47.462  29.360  30.653  1.00  0.00     0.029 A 
ATOM     56  N   UNL A   1      45.340  28.937  30.139  1.00  0.00    -0.354 N 
ATOM     57  N   UNL A   1      42.505  29.588  29.841  1.00  0.00    -0.248 NA
ATOM     58  C   UNL A   1      40.721  31.065  30.140  1.00  0.00     0.031 C 
ATOM     59  C   UNL A   1      46.698  30.484  30.978  1.00  0.00     0.029 A 
ATOM     60  C   UNL A   1      45.382  30.233  30.626  1.00  0.00     0.049 A 
ATOM     61  H   UNL A   1      44.528  28.476  29.826  1.00  0.00     0.167 HD
ATOM     62  C   UNL A   1      42.980  30.780  30.373  1.00  0.00     0.074 A 
ATOM     63  C   UNL A   1      41.845  31.668  30.497  1.00  0.00     0.031 C 
ATOM     64  C   UNL A   1      44.246  31.110  30.728  1.00  0.00     0.031 A 
BRANCH  51  65
ATOM     65  C   UNL A   1      48.362  26.599  29.830  1.00  0.00    -0.014 A 
ATOM     66  C   UNL A   1      49.279  26.872  28.802  1.00  0.00     0.009 A 
ATOM     67  C   UNL A   1      48.815  25.949  30.989  1.00  0.00     0.009 A 
ATOM     68  C   UNL A   1      50.613  26.476  28.921  1.00  0.00     0.001 A 
ATOM     69  C   UNL A   1      50.156  25.582  31.117  1.00  0.00     0.001 A 
ATOM     70  C   UNL A   1      51.052  25.839  30.080  1.00  0.00     0.000 A 
ENDBRANCH  51  65
BRANCH  52  71
ATOM     71  C   UNL A   1      38.764  29.213  29.024  1.00  0.00    -0.014 A 
ATOM     72  C   UNL A   1      37.922  29.093  30.141  1.00  0.00     0.009 A 
ATOM     73  C   UNL A   1      38.217  29.669  27.814  1.00  0.00     0.009 A 
ATOM     74  C   UNL A   1      36.558  29.375  30.036  1.00  0.00     0.001 A 
ATOM     75  C   UNL A   1      36.861  29.986  27.721  1.00  0.00     0.001 A 
ATOM     76  C   UNL A   1      36.029  29.823  28.828  1.00  0.00     0.000 A 
ENDBRANCH  52  71
BRANCH  64  77
ATOM     77  C   UNL A   1      44.482  32.509  31.225  1.00  0.00    -0.014 A 
ATOM     78  C   UNL A   1      44.427  32.824  32.592  1.00  0.00     0.009 A 
ATOM     79  C   UNL A   1      44.804  33.522  30.307  1.00  0.00     0.009 A 
ATOM     80  C   UNL A   1      44.651  34.133  33.025  1.00  0.00     0.001 A 
ATOM     81  C   UNL A   1      45.062  34.822  30.746  1.00  0.00     0.001 A 
ATOM     82  C   UNL A   1      44.973  35.128  32.102  1.00  0.00     0.000 A 
ENDBRANCH  64  77
ENDBRANCH  38  39
ENDBRANCH  30  33
ENDBRANCH  28  29
ENDBRANCH  27  28
ENDBRANCH  26  27
ENDBRANCH  25  26
ENDBRANCH   1  25
TORSDOF 19
ENDMDL
MODEL 3
REMARK VINA RESULT:      -9.5      3.528      8.517
REMARK SMILES O=C(C[C@H](C(=O)OC[C@H]1CCCO1)[NH+]1CCOCC1)NCCCCCCNC(=O)c1ccc(-c2c3nc(c(-c4ccccc4)c4ccc([nH]4)c(-c4ccccc4)c4nc(c(-c5ccccc5)c5ccc2[nH]5)C=C4)C=C3)cc1
REMARK SMILES IDX 22 1 21 2 20 3 1 4 2 5 3 7 4 8 14 9 15 10 19 11 16 13 18 14
REMARK SMILES IDX 17 15 5 16 6 17 7 18 8 19 9 20 10 21 13 22 11 23 12 24 23 25
REMARK SMILES IDX 24 26 25 27 26 28 27 29 28 30 29 32 30 33 31 34 77 35 32 36
REMARK SMILES IDX 76 37 33 38 34 39 35 40 70 41 36 42 75 43 69 44 71 45 37 46
REMARK SMILES IDX 74 47 68 48 67 49 38 51 60 52 45 53 59 54 46 55 49 56 58 57
REMARK SMILES IDX 72 58 47 59 48 60 57 62 73 63 50 64 39 65 40 66 44 67 41 68
REMARK SMILES IDX 43 69 42 70 61 71 62 72 66 73 63 74 65 75 64 76 51 77 52 78
REMARK SMILES IDX 56 79 53 80 55 81 54 82
REMARK H PARENT 20 6 14 12 27 31 71 50 49 61
REMARK Flexibility Score: inf
ROOT
ATOM      1  C   UNL A   1      33.296  29.243  25.264  1.00  0.00     0.021 C 
ENDROOT
BRANCH   1   2
ATOM      2  C   UNL A   1      33.245  29.050  23.748  1.00  0.00     0.116 C 
BRANCH   2   3
ATOM      3  N   UNL A   1      32.615  27.789  23.399  1.00  0.00    -0.356 N 
ATOM      4  O   UNL A   1      33.975  27.346  21.609  1.00  0.00    -0.275 OA
ATOM      5  C   UNL A   1      33.028  27.034  22.325  1.00  0.00     0.226 C 
ATOM      6  H   UNL A   1      31.868  27.463  23.950  1.00  0.00     0.163 HD
BRANCH   5   7
ATOM      7  C   UNL A   1      32.162  25.821  22.029  1.00  0.00     0.177 C 
BRANCH   7   8
ATOM      8  C   UNL A   1      32.402  24.632  22.995  1.00  0.00     0.304 C 
BRANCH   8   9
ATOM      9  N   UNL A   1      31.075  24.071  23.441  1.00  0.00    -0.319 N 
ATOM     10  C   UNL A   1      30.109  25.133  23.846  1.00  0.00     0.291 C 
ATOM     11  C   UNL A   1      31.117  23.126  24.589  1.00  0.00     0.291 C 
ATOM     12  H   UNL A   1      30.782  23.569  22.603  1.00  0.00     0.348 HD
ATOM     13  C   UNL A   1      30.400  25.774  25.216  1.00  0.00     0.221 C 
ATOM     14  C   UNL A   1      31.443  23.783  25.937  1.00  0.00     0.221 C 
ATOM     15  O   UNL A   1      30.484  24.799  26.257  1.00  0.00    -0.370 OA
ENDBRANCH   8   9
BRANCH   8  16
ATOM     16  C   UNL A   1      33.302  23.615  22.224  1.00  0.00     0.365 C 
ATOM     17  O   UNL A   1      33.317  23.401  21.020  1.00  0.00    -0.245 OA
BRANCH  16  18
ATOM     18  O   UNL A   1      34.027  22.890  23.125  1.00  0.00    -0.459 OA
BRANCH  18  19
ATOM     19  C   UNL A   1      35.301  23.414  23.541  1.00  0.00     0.265 C 
BRANCH  19  20
ATOM     20  C   UNL A   1      35.930  22.507  24.608  1.00  0.00     0.156 C 
ATOM     21  C   UNL A   1      36.267  23.216  25.912  1.00  0.00     0.038 C 
ATOM     22  O   UNL A   1      35.008  21.456  24.954  1.00  0.00    -0.375 OA
ATOM     23  C   UNL A   1      35.047  22.992  26.769  1.00  0.00     0.031 C 
ATOM     24  C   UNL A   1      34.540  21.650  26.291  1.00  0.00     0.161 C 
ENDBRANCH  19  20
ENDBRANCH  18  19
ENDBRANCH  16  18
ENDBRANCH   8  16
ENDBRANCH   7   8
ENDBRANCH   5   7
ENDBRANCH   2   3
ENDBRANCH   1   2
BRANCH   1  25
ATOM     25  C   UNL A   1      31.932  29.167  25.963  1.00  0.00     0.002 C 
BRANCH  25  26
ATOM     26  C   UNL A   1      31.745  30.127  27.142  1.00  0.00     0.002 C 
BRANCH  26  27
ATOM     27  C   UNL A   1      31.482  31.585  26.759  1.00  0.00     0.021 C 
BRANCH  27  28
ATOM     28  C   UNL A   1      32.706  32.493  26.810  1.00  0.00     0.116 C 
BRANCH  28  29
ATOM     29  N   UNL A   1      32.439  33.748  27.494  1.00  0.00    -0.352 N 
ATOM     30  C   UNL A   1      33.122  34.341  28.528  1.00  0.00     0.251 C 
ATOM     31  H   UNL A   1      31.655  34.247  27.169  1.00  0.00     0.163 HD
ATOM     32  O   UNL A   1      32.650  35.322  29.094  1.00  0.00    -0.269 OA
BRANCH  30  33
ATOM     33  C   UNL A   1      34.418  33.784  28.978  1.00  0.00     0.039 A 
ATOM     34  C   UNL A   1      34.448  32.982  30.122  1.00  0.00     0.014 A 
ATOM     35  C   UNL A   1      35.600  34.063  28.287  1.00  0.00     0.014 A 
ATOM     36  C   UNL A   1      35.653  32.412  30.538  1.00  0.00     0.010 A 
ATOM     37  C   UNL A   1      36.785  33.433  28.658  1.00  0.00     0.010 A 
ATOM     38  C   UNL A   1      36.827  32.607  29.792  1.00  0.00    -0.014 A 
BRANCH  38  39
ATOM     39  C   UNL A   1      38.111  31.974  30.193  1.00  0.00     0.031 A 
ATOM     40  C   UNL A   1      39.046  32.691  31.130  1.00  0.00     0.074 A 
ATOM     41  C   UNL A   1      38.461  30.778  29.677  1.00  0.00     0.049 A 
ATOM     42  N   UNL A   1      40.239  32.338  31.537  1.00  0.00    -0.248 NA
ATOM     43  C   UNL A   1      38.590  33.985  31.664  1.00  0.00     0.031 C 
ATOM     44  C   UNL A   1      37.662  29.990  28.736  1.00  0.00     0.029 A 
ATOM     45  N   UNL A   1      39.590  30.020  29.868  1.00  0.00    -0.354 N 
ATOM     46  C   UNL A   1      40.676  33.366  32.364  1.00  0.00     0.074 A 
ATOM     47  C   UNL A   1      39.648  34.383  32.355  1.00  0.00     0.031 C 
ATOM     48  C   UNL A   1      38.315  28.852  28.450  1.00  0.00     0.029 A 
ATOM     49  C   UNL A   1      39.596  28.848  29.148  1.00  0.00     0.049 A 
ATOM     50  H   UNL A   1      40.326  30.289  30.463  1.00  0.00     0.167 HD
ATOM     51  C   UNL A   1      41.818  33.448  33.088  1.00  0.00     0.031 A 
ATOM     52  C   UNL A   1      40.533  27.885  29.051  1.00  0.00     0.031 A 
ATOM     53  C   UNL A   1      42.839  32.436  33.105  1.00  0.00     0.049 A 
ATOM     54  C   UNL A   1      41.808  28.019  29.840  1.00  0.00     0.074 A 
ATOM     55  C   UNL A   1      44.020  32.416  33.829  1.00  0.00     0.029 A 
ATOM     56  N   UNL A   1      42.800  31.262  32.370  1.00  0.00    -0.354 N 
ATOM     57  N   UNL A   1      42.181  28.975  30.657  1.00  0.00    -0.248 NA
ATOM     58  C   UNL A   1      42.787  26.931  29.705  1.00  0.00     0.031 C 
ATOM     59  C   UNL A   1      44.718  31.253  33.495  1.00  0.00     0.029 A 
ATOM     60  C   UNL A   1      43.943  30.517  32.613  1.00  0.00     0.049 A 
ATOM     61  H   UNL A   1      42.070  30.997  31.766  1.00  0.00     0.167 HD
ATOM     62  C   UNL A   1      43.415  28.584  31.160  1.00  0.00     0.074 A 
ATOM     63  C   UNL A   1      43.720  27.297  30.572  1.00  0.00     0.031 C 
ATOM     64  C   UNL A   1      44.225  29.232  32.032  1.00  0.00     0.031 A 
BRANCH  51  65
ATOM     65  C   UNL A   1      42.019  34.674  33.934  1.00  0.00    -0.014 A 
ATOM     66  C   UNL A   1      41.605  34.702  35.276  1.00  0.00     0.009 A 
ATOM     67  C   UNL A   1      42.686  35.791  33.407  1.00  0.00     0.009 A 
ATOM     68  C   UNL A   1      41.827  35.834  36.062  1.00  0.00     0.001 A 
ATOM     69  C   UNL A   1      42.934  36.909  34.205  1.00  0.00     0.001 A 
ATOM     70  C   UNL A   1      42.498  36.933  35.528  1.00  0.00     0.000 A 
ENDBRANCH  51  65
BRANCH  52  71
ATOM     71  C   UNL A   1      40.316  26.705  28.173  1.00  0.00    -0.014 A 
ATOM     72  C   UNL A   1      40.812  26.686  26.859  1.00  0.00     0.009 A 
ATOM     73  C   UNL A   1      39.566  25.608  28.626  1.00  0.00     0.009 A 
ATOM     74  C   UNL A   1      40.522  25.618  26.006  1.00  0.00     0.001 A 
ATOM     75  C   UNL A   1      39.309  24.525  27.783  1.00  0.00     0.001 A 
ATOM     76  C   UNL A   1      39.773  24.539  26.469  1.00  0.00     0.000 A 
ENDBRANCH  52  71
BRANCH  64  77
ATOM     77  C   UNL A   1      45.489  28.534  32.452  1.00  0.00    -0.014 A 
ATOM     78  C   UNL A   1      46.698  28.726  31.766  1.00  0.00     0.009 A 
ATOM     79  C   UNL A   1      45.472  27.698  33.581  1.00  0.00     0.009 A 
ATOM     80  C   UNL A   1      47.856  28.064  32.180  1.00  0.00     0.001 A 
ATOM     81  C   UNL A   1      46.639  27.065  34.012  1.00  0.00     0.001 A 
ATOM     82  C   UNL A   1      47.827  27.239  33.304  1.00  0.00     0.000 A 
ENDBRANCH  64  77
ENDBRANCH  38  39
ENDBRANCH  30  33
ENDBRANCH  28  29
ENDBRANCH  27  28
ENDBRANCH  26  27
ENDBRANCH  25  26
ENDBRANCH   1  25
TORSDOF 19
ENDMDL
