MODEL 1
REMARK VINA RESULT:     -10.4      0.000      0.000
REMARK SMILES O=C(NCCCCCCNC(=O)[C@H]1CS[C@H](c2nc3ccccc3s2)[NH2+]1)c1ccc(-c2c3nc(c(-c4ccccc4)c4ccc([nH]4)c(-c4ccccc4)c4nc(c(-c5ccccc5)c5ccc2[nH]5)C=C4)C=C3)cc1
REMARK SMILES IDX 6 1 5 2 4 3 3 4 1 5 2 6 27 8 28 9 74 10 29 11 73 12 30 13
REMARK SMILES IDX 31 14 32 15 67 16 33 17 72 18 66 19 68 20 34 21 71 22 65 23
REMARK SMILES IDX 64 24 35 26 57 27 42 28 56 29 43 30 46 31 55 32 69 33 44 34
REMARK SMILES IDX 45 35 54 37 70 38 47 39 36 40 37 41 41 42 38 43 40 44 39 45
REMARK SMILES IDX 58 46 59 47 63 48 60 49 62 50 61 51 48 52 49 53 53 54 50 55
REMARK SMILES IDX 52 56 51 57 7 58 8 59 9 60 10 61 11 62 12 64 13 65 14 66
REMARK SMILES IDX 26 67 15 68 16 69 17 72 18 73 25 74 19 75 24 76 20 77 23 78
REMARK SMILES IDX 21 79 22 80
REMARK H PARENT 3 7 68 25 46 36 10 63 26 70 26 71
REMARK Flexibility Score: inf
ROOT
ATOM      1  C   UNL A   1      35.269  22.685  26.156  1.00  0.00     0.002 C 
ENDROOT
BRANCH   1   2
ATOM      2  C   UNL A   1      35.989  23.951  25.697  1.00  0.00     0.021 C 
BRANCH   2   3
ATOM      3  C   UNL A   1      37.255  23.700  24.890  1.00  0.00     0.116 C 
BRANCH   3   4
ATOM      4  N   UNL A   1      38.061  22.624  25.440  1.00  0.00    -0.352 N 
ATOM      5  O   UNL A   1      39.831  21.717  26.515  1.00  0.00    -0.269 OA
ATOM      6  C   UNL A   1      39.152  22.709  26.269  1.00  0.00     0.251 C 
ATOM      7  H   UNL A   1      37.788  21.712  25.186  1.00  0.00     0.163 HD
BRANCH   6   8
ATOM      8  C   UNL A   1      39.514  24.015  26.857  1.00  0.00     0.039 A 
ATOM      9  C   UNL A   1      39.133  24.330  28.164  1.00  0.00     0.014 A 
ATOM     10  C   UNL A   1      40.253  24.928  26.100  1.00  0.00     0.014 A 
ATOM     11  C   UNL A   1      39.392  25.596  28.674  1.00  0.00     0.010 A 
ATOM     12  C   UNL A   1      40.587  26.170  26.645  1.00  0.00     0.010 A 
ATOM     13  C   UNL A   1      40.151  26.516  27.933  1.00  0.00    -0.014 A 
BRANCH  13  14
ATOM     14  C   UNL A   1      40.583  27.777  28.581  1.00  0.00     0.031 A 
ATOM     15  C   UNL A   1      41.987  27.972  29.075  1.00  0.00     0.074 A 
ATOM     16  C   UNL A   1      39.671  28.762  28.711  1.00  0.00     0.049 A 
ATOM     17  N   UNL A   1      42.512  29.024  29.653  1.00  0.00    -0.248 NA
ATOM     18  C   UNL A   1      42.923  26.850  28.907  1.00  0.00     0.031 C 
ATOM     19  C   UNL A   1      38.271  28.676  28.281  1.00  0.00     0.029 A 
ATOM     20  N   UNL A   1      39.780  30.026  29.227  1.00  0.00    -0.354 N 
ATOM     21  C   UNL A   1      43.829  28.687  29.935  1.00  0.00     0.074 A 
ATOM     22  C   UNL A   1      44.023  27.327  29.477  1.00  0.00     0.031 C 
ATOM     23  C   UNL A   1      37.666  29.849  28.512  1.00  0.00     0.029 A 
ATOM     24  C   UNL A   1      38.610  30.743  29.169  1.00  0.00     0.049 A 
ATOM     25  H   UNL A   1      40.616  30.386  29.603  1.00  0.00     0.167 HD
ATOM     26  C   UNL A   1      44.784  29.446  30.523  1.00  0.00     0.031 A 
ATOM     27  C   UNL A   1      38.315  31.974  29.622  1.00  0.00     0.031 A 
ATOM     28  C   UNL A   1      44.582  30.800  30.974  1.00  0.00     0.049 A 
ATOM     29  C   UNL A   1      39.386  32.771  30.303  1.00  0.00     0.074 A 
ATOM     30  C   UNL A   1      45.505  31.667  31.532  1.00  0.00     0.029 A 
ATOM     31  N   UNL A   1      43.374  31.478  30.929  1.00  0.00    -0.354 N 
ATOM     32  N   UNL A   1      40.644  32.459  30.503  1.00  0.00    -0.248 NA
ATOM     33  C   UNL A   1      38.998  34.088  30.824  1.00  0.00     0.031 C 
ATOM     34  C   UNL A   1      44.842  32.846  31.883  1.00  0.00     0.029 A 
ATOM     35  C   UNL A   1      43.519  32.737  31.488  1.00  0.00     0.049 A 
ATOM     36  H   UNL A   1      42.537  31.118  30.557  1.00  0.00     0.167 HD
ATOM     37  C   UNL A   1      41.200  33.545  31.163  1.00  0.00     0.074 A 
ATOM     38  C   UNL A   1      40.152  34.536  31.298  1.00  0.00     0.031 C 
ATOM     39  C   UNL A   1      42.463  33.706  31.623  1.00  0.00     0.031 A 
BRANCH  26  40
ATOM     40  C   UNL A   1      46.140  28.835  30.745  1.00  0.00    -0.014 A 
ATOM     41  C   UNL A   1      47.144  28.910  29.769  1.00  0.00     0.009 A 
ATOM     42  C   UNL A   1      46.445  28.264  31.992  1.00  0.00     0.009 A 
ATOM     43  C   UNL A   1      48.423  28.412  30.031  1.00  0.00     0.001 A 
ATOM     44  C   UNL A   1      47.730  27.788  32.259  1.00  0.00     0.001 A 
ATOM     45  C   UNL A   1      48.717  27.860  31.278  1.00  0.00     0.000 A 
ENDBRANCH  26  40
BRANCH  27  46
ATOM     46  C   UNL A   1      36.934  32.508  29.488  1.00  0.00    -0.014 A 
ATOM     47  C   UNL A   1      35.978  32.294  30.491  1.00  0.00     0.009 A 
ATOM     48  C   UNL A   1      36.563  33.224  28.338  1.00  0.00     0.009 A 
ATOM     49  C   UNL A   1      34.671  32.758  30.330  1.00  0.00     0.001 A 
ATOM     50  C   UNL A   1      35.266  33.719  28.196  1.00  0.00     0.001 A 
ATOM     51  C   UNL A   1      34.317  33.473  29.187  1.00  0.00     0.000 A 
ENDBRANCH  27  46
BRANCH  39  52
ATOM     52  C   UNL A   1      42.777  35.009  32.300  1.00  0.00    -0.014 A 
ATOM     53  C   UNL A   1      43.423  36.047  31.609  1.00  0.00     0.009 A 
ATOM     54  C   UNL A   1      42.408  35.207  33.638  1.00  0.00     0.009 A 
ATOM     55  C   UNL A   1      43.725  37.245  32.260  1.00  0.00     0.001 A 
ATOM     56  C   UNL A   1      42.682  36.417  34.277  1.00  0.00     0.001 A 
ATOM     57  C   UNL A   1      43.350  37.430  33.590  1.00  0.00     0.000 A 
ENDBRANCH  39  52
ENDBRANCH  13  14
ENDBRANCH   6   8
ENDBRANCH   3   4
ENDBRANCH   2   3
ENDBRANCH   1   2
BRANCH   1  58
ATOM     58  C   UNL A   1      34.053  22.920  27.058  1.00  0.00     0.002 C 
BRANCH  58  59
ATOM     59  C   UNL A   1      32.921  21.891  26.926  1.00  0.00     0.021 C 
BRANCH  59  60
ATOM     60  C   UNL A   1      31.755  22.329  26.040  1.00  0.00     0.116 C 
BRANCH  60  61
ATOM     61  N   UNL A   1      31.978  21.964  24.655  1.00  0.00    -0.351 N 
ATOM     62  C   UNL A   1      32.296  22.751  23.589  1.00  0.00     0.279 C 
ATOM     63  H   UNL A   1      31.887  21.004  24.454  1.00  0.00     0.163 HD
ATOM     64  O   UNL A   1      32.333  22.220  22.479  1.00  0.00    -0.268 OA
BRANCH  62  65
ATOM     65  C   UNL A   1      32.559  24.255  23.806  1.00  0.00     0.284 C 
ATOM     66  C   UNL A   1      33.715  24.743  22.921  1.00  0.00     0.151 C 
ATOM     67  N   UNL A   1      31.294  25.010  23.537  1.00  0.00    -0.319 N 
ATOM     68  S   UNL A   1      33.003  26.003  21.846  1.00  0.00    -0.085 SA
ATOM     69  C   UNL A   1      31.655  26.339  23.010  1.00  0.00     0.303 C 
ATOM     70  H   UNL A   1      30.764  25.115  24.401  1.00  0.00     0.348 HD
ATOM     71  H   UNL A   1      30.721  24.507  22.860  1.00  0.00     0.348 HD
BRANCH  69  72
ATOM     72  C   UNL A   1      32.049  27.400  24.031  1.00  0.00     0.163 A 
ATOM     73  N   UNL A   1      33.140  27.322  24.773  1.00  0.00    -0.234 NA
ATOM     74  S   UNL A   1      31.131  28.841  24.269  1.00  0.00    -0.112 S 
ATOM     75  C   UNL A   1      33.233  28.404  25.627  1.00  0.00     0.082 A 
ATOM     76  C   UNL A   1      32.211  29.344  25.511  1.00  0.00     0.055 A 
ATOM     77  C   UNL A   1      34.250  28.616  26.579  1.00  0.00     0.030 A 
ATOM     78  C   UNL A   1      32.164  30.490  26.321  1.00  0.00     0.021 A 
ATOM     79  C   UNL A   1      34.214  29.754  27.391  1.00  0.00     0.002 A 
ATOM     80  C   UNL A   1      33.181  30.677  27.264  1.00  0.00     0.002 A 
ENDBRANCH  69  72
ENDBRANCH  62  65
ENDBRANCH  60  61
ENDBRANCH  59  60
ENDBRANCH  58  59
ENDBRANCH   1  58
TORSDOF 14
ENDMDL
MODEL 2
REMARK VINA RESULT:     -10.3      2.653      7.587
REMARK SMILES O=C(NCCCCCCNC(=O)[C@H]1CS[C@H](c2nc3ccccc3s2)[NH2+]1)c1ccc(-c2c3nc(c(-c4ccccc4)c4ccc([nH]4)c(-c4ccccc4)c4nc(c(-c5ccccc5)c5ccc2[nH]5)C=C4)C=C3)cc1
REMARK SMILES IDX 6 1 5 2 4 3 3 4 1 5 2 6 27 8 28 9 74 10 29 11 73 12 30 13
REMARK SMILES IDX 31 14 32 15 67 16 33 17 72 18 66 19 68 20 34 21 71 22 65 23
REMARK SMILES IDX 64 24 35 26 57 27 42 28 56 29 43 30 46 31 55 32 69 33 44 34
REMARK SMILES IDX 45 35 54 37 70 38 47 39 36 40 37 41 41 42 38 43 40 44 39 45
REMARK SMILES IDX 58 46 59 47 63 48 60 49 62 50 61 51 48 52 49 53 53 54 50 55
REMARK SMILES IDX 52 56 51 57 7 58 8 59 9 60 10 61 11 62 12 64 13 65 14 66
REMARK SMILES IDX 26 67 15 68 16 69 17 72 18 73 25 74 19 75 24 76 20 77 23 78
REMARK SMILES IDX 21 79 22 80
REMARK H PARENT 3 7 68 25 46 36 10 63 26 70 26 71
REMARK Flexibility Score: inf
ROOT
ATOM      1  C   UNL A   1      31.813  30.437  26.887  1.00  0.00     0.002 C 
ENDROOT
BRANCH   1   2
ATOM      2  C   UNL A   1      31.481  31.927  26.883  1.00  0.00     0.021 C 
BRANCH   2   3
ATOM      3  C   UNL A   1      32.695  32.845  26.909  1.00  0.00     0.116 C 
BRANCH   3   4
ATOM      4  N   UNL A   1      32.464  34.049  27.689  1.00  0.00    -0.352 N 
ATOM      5  O   UNL A   1      32.741  35.457  29.436  1.00  0.00    -0.269 OA
ATOM      6  C   UNL A   1      33.161  34.509  28.779  1.00  0.00     0.251 C 
ATOM      7  H   UNL A   1      31.708  34.608  27.398  1.00  0.00     0.163 HD
BRANCH   6   8
ATOM      8  C   UNL A   1      34.421  33.843  29.167  1.00  0.00     0.039 A 
ATOM      9  C   UNL A   1      35.619  34.174  28.529  1.00  0.00     0.014 A 
ATOM     10  C   UNL A   1      34.407  32.888  30.188  1.00  0.00     0.014 A 
ATOM     11  C   UNL A   1      36.780  33.474  28.831  1.00  0.00     0.010 A 
ATOM     12  C   UNL A   1      35.592  32.244  30.550  1.00  0.00     0.010 A 
ATOM     13  C   UNL A   1      36.786  32.527  29.868  1.00  0.00    -0.014 A 
BRANCH  13  14
ATOM     14  C   UNL A   1      38.079  31.946  30.302  1.00  0.00     0.031 A 
ATOM     15  C   UNL A   1      38.599  30.659  29.732  1.00  0.00     0.074 A 
ATOM     16  C   UNL A   1      38.790  32.617  31.230  1.00  0.00     0.049 A 
ATOM     17  N   UNL A   1      39.717  30.035  30.008  1.00  0.00    -0.248 NA
ATOM     18  C   UNL A   1      37.762  29.978  28.731  1.00  0.00     0.031 C 
ATOM     19  C   UNL A   1      38.374  33.873  31.866  1.00  0.00     0.029 A 
ATOM     20  N   UNL A   1      40.011  32.353  31.792  1.00  0.00    -0.354 N 
ATOM     21  C   UNL A   1      39.712  28.882  29.233  1.00  0.00     0.074 A 
ATOM     22  C   UNL A   1      38.473  28.884  28.483  1.00  0.00     0.031 C 
ATOM     23  C   UNL A   1      39.340  34.288  32.696  1.00  0.00     0.029 A 
ATOM     24  C   UNL A   1      40.408  33.298  32.707  1.00  0.00     0.049 A 
ATOM     25  H   UNL A   1      40.552  31.563  31.563  1.00  0.00     0.167 HD
ATOM     26  C   UNL A   1      40.657  27.916  29.158  1.00  0.00     0.031 A 
ATOM     27  C   UNL A   1      41.498  33.351  33.494  1.00  0.00     0.031 A 
ATOM     28  C   UNL A   1      41.888  27.923  29.906  1.00  0.00     0.049 A 
ATOM     29  C   UNL A   1      42.504  32.243  33.412  1.00  0.00     0.074 A 
ATOM     30  C   UNL A   1      42.931  27.014  29.856  1.00  0.00     0.029 A 
ATOM     31  N   UNL A   1      42.238  28.879  30.847  1.00  0.00    -0.354 N 
ATOM     32  N   UNL A   1      42.512  31.194  32.626  1.00  0.00    -0.248 NA
ATOM     33  C   UNL A   1      43.649  32.323  34.328  1.00  0.00     0.031 C 
ATOM     34  C   UNL A   1      43.882  27.384  30.811  1.00  0.00     0.029 A 
ATOM     35  C   UNL A   1      43.461  28.558  31.414  1.00  0.00     0.049 A 
ATOM     36  H   UNL A   1      41.697  29.668  31.079  1.00  0.00     0.167 HD
ATOM     37  C   UNL A   1      43.667  30.495  32.945  1.00  0.00     0.074 A 
ATOM     38  C   UNL A   1      44.350  31.257  33.970  1.00  0.00     0.031 C 
ATOM     39  C   UNL A   1      44.120  29.323  32.439  1.00  0.00     0.031 A 
BRANCH  26  40
ATOM     40  C   UNL A   1      40.401  26.740  28.255  1.00  0.00    -0.014 A 
ATOM     41  C   UNL A   1      39.590  25.670  28.661  1.00  0.00     0.009 A 
ATOM     42  C   UNL A   1      40.901  26.755  26.942  1.00  0.00     0.009 A 
ATOM     43  C   UNL A   1      39.295  24.632  27.774  1.00  0.00     0.001 A 
ATOM     44  C   UNL A   1      40.585  25.727  26.051  1.00  0.00     0.001 A 
ATOM     45  C   UNL A   1      39.785  24.665  26.468  1.00  0.00     0.000 A 
ENDBRANCH  26  40
BRANCH  27  46
ATOM     46  C   UNL A   1      41.669  34.469  34.457  1.00  0.00    -0.014 A 
ATOM     47  C   UNL A   1      41.172  34.374  35.765  1.00  0.00     0.009 A 
ATOM     48  C   UNL A   1      42.319  35.649  34.062  1.00  0.00     0.009 A 
ATOM     49  C   UNL A   1      41.296  35.451  36.647  1.00  0.00     0.001 A 
ATOM     50  C   UNL A   1      42.473  36.710  34.956  1.00  0.00     0.001 A 
ATOM     51  C   UNL A   1      41.949  36.615  36.243  1.00  0.00     0.000 A 
ENDBRANCH  27  46
BRANCH  39  52
ATOM     52  C   UNL A   1      45.422  28.808  32.983  1.00  0.00    -0.014 A 
ATOM     53  C   UNL A   1      46.646  29.187  32.410  1.00  0.00     0.009 A 
ATOM     54  C   UNL A   1      45.424  27.948  34.091  1.00  0.00     0.009 A 
ATOM     55  C   UNL A   1      47.846  28.684  32.915  1.00  0.00     0.001 A 
ATOM     56  C   UNL A   1      46.626  27.472  34.614  1.00  0.00     0.001 A 
ATOM     57  C   UNL A   1      47.835  27.831  34.019  1.00  0.00     0.000 A 
ENDBRANCH  39  52
ENDBRANCH  13  14
ENDBRANCH   6   8
ENDBRANCH   3   4
ENDBRANCH   2   3
ENDBRANCH   1   2
BRANCH   1  58
ATOM     58  C   UNL A   1      31.903  29.786  25.502  1.00  0.00     0.002 C 
BRANCH  58  59
ATOM     59  C   UNL A   1      33.306  29.337  25.070  1.00  0.00     0.021 C 
BRANCH  59  60
ATOM     60  C   UNL A   1      33.479  29.126  23.566  1.00  0.00     0.116 C 
BRANCH  60  61
ATOM     61  N   UNL A   1      32.198  28.972  22.905  1.00  0.00    -0.351 N 
ATOM     62  C   UNL A   1      31.498  27.838  22.619  1.00  0.00     0.279 C 
ATOM     63  H   UNL A   1      31.770  29.811  22.619  1.00  0.00     0.163 HD
ATOM     64  O   UNL A   1      30.471  27.955  21.951  1.00  0.00    -0.268 OA
BRANCH  62  65
ATOM     65  C   UNL A   1      32.028  26.474  23.107  1.00  0.00     0.284 C 
ATOM     66  C   UNL A   1      31.081  25.858  24.147  1.00  0.00     0.151 C 
ATOM     67  N   UNL A   1      32.215  25.577  21.923  1.00  0.00    -0.319 N 
ATOM     68  S   UNL A   1      30.520  24.303  23.429  1.00  0.00    -0.085 SA
ATOM     69  C   UNL A   1      31.976  24.188  22.356  1.00  0.00     0.303 C 
ATOM     70  H   UNL A   1      33.166  25.669  21.567  1.00  0.00     0.348 HD
ATOM     71  H   UNL A   1      31.562  25.831  21.182  1.00  0.00     0.348 HD
BRANCH  69  72
ATOM     72  C   UNL A   1      33.131  23.477  23.053  1.00  0.00     0.163 A 
ATOM     73  N   UNL A   1      34.400  23.779  22.844  1.00  0.00    -0.234 NA
ATOM     74  S   UNL A   1      32.880  22.243  24.233  1.00  0.00    -0.112 S 
ATOM     75  C   UNL A   1      35.229  22.961  23.586  1.00  0.00     0.082 A 
ATOM     76  C   UNL A   1      34.580  22.038  24.403  1.00  0.00     0.055 A 
ATOM     77  C   UNL A   1      36.638  22.986  23.573  1.00  0.00     0.030 A 
ATOM     78  C   UNL A   1      35.290  21.130  25.205  1.00  0.00     0.021 A 
ATOM     79  C   UNL A   1      37.357  22.088  24.368  1.00  0.00     0.002 A 
ATOM     80  C   UNL A   1      36.688  21.170  25.171  1.00  0.00     0.002 A 
ENDBRANCH  69  72
ENDBRANCH  62  65
ENDBRANCH  60  61
ENDBRANCH  59  60
ENDBRANCH  58  59
ENDBRANCH   1  58
TORSDOF 14
ENDMDL
MODEL 3
REMARK VINA RESULT:     -10.3      3.043      7.441
REMARK SMILES O=C(NCCCCCCNC(=O)[C@H]1CS[C@H](c2nc3ccccc3s2)[NH2+]1)c1ccc(-c2c3nc(c(-c4ccccc4)c4ccc([nH]4)c(-c4ccccc4)c4nc(c(-c5ccccc5)c5ccc2[nH]5)C=C4)C=C3)cc1
REMARK SMILES IDX 6 1 5 2 4 3 3 4 1 5 2 6 27 8 28 9 74 10 29 11 73 12 30 13
REMARK SMILES IDX 31 14 32 15 67 16 33 17 72 18 66 19 68 20 34 21 71 22 65 23
REMARK SMILES IDX 64 24 35 26 57 27 42 28 56 29 43 30 46 31 55 32 69 33 44 34
REMARK SMILES IDX 45 35 54 37 70 38 47 39 36 40 37 41 41 42 38 43 40 44 39 45
REMARK SMILES IDX 58 46 59 47 63 48 60 49 62 50 61 51 48 52 49 53 53 54 50 55
REMARK SMILES IDX 52 56 51 57 7 58 8 59 9 60 10 61 11 62 12 64 13 65 14 66
REMARK SMILES IDX 26 67 15 68 16 69 17 72 18 73 25 74 19 75 24 76 20 77 23 78
REMARK SMILES IDX 21 79 22 80
REMARK H PARENT 3 7 68 25 46 36 10 63 26 70 26 71
REMARK Flexibility Score: inf
ROOT
ATOM      1  C   UNL A   1      36.767  20.446  24.987  1.00  0.00     0.002 C 
ENDROOT
BRANCH   1   2
ATOM      2  C   UNL A   1      38.051  19.631  24.861  1.00  0.00     0.021 C 
BRANCH   2   3
ATOM      3  C   UNL A   1      39.153  20.032  25.832  1.00  0.00     0.116 C 
BRANCH   3   4
ATOM      4  N   UNL A   1      40.211  19.039  25.913  1.00  0.00    -0.352 N 
ATOM      5  O   UNL A   1      42.348  18.308  25.993  1.00  0.00    -0.269 OA
ATOM      6  C   UNL A   1      41.554  19.236  26.118  1.00  0.00     0.251 C 
ATOM      7  H   UNL A   1      39.927  18.103  25.806  1.00  0.00     0.163 HD
BRANCH   6   8
ATOM      8  C   UNL A   1      42.042  20.582  26.480  1.00  0.00     0.039 A 
ATOM      9  C   UNL A   1      42.448  21.476  25.486  1.00  0.00     0.014 A 
ATOM     10  C   UNL A   1      42.082  20.959  27.825  1.00  0.00     0.014 A 
ATOM     11  C   UNL A   1      42.998  22.701  25.840  1.00  0.00     0.010 A 
ATOM     12  C   UNL A   1      42.555  22.226  28.176  1.00  0.00     0.010 A 
ATOM     13  C   UNL A   1      43.025  23.103  27.185  1.00  0.00    -0.014 A 
BRANCH  13  14
ATOM     14  C   UNL A   1      43.427  24.492  27.512  1.00  0.00     0.031 A 
ATOM     15  C   UNL A   1      42.422  25.533  27.911  1.00  0.00     0.074 A 
ATOM     16  C   UNL A   1      44.738  24.799  27.448  1.00  0.00     0.049 A 
ATOM     17  N   UNL A   1      42.627  26.785  28.235  1.00  0.00    -0.248 NA
ATOM     18  C   UNL A   1      41.008  25.127  27.950  1.00  0.00     0.031 C 
ATOM     19  C   UNL A   1      45.803  23.868  27.056  1.00  0.00     0.029 A 
ATOM     20  N   UNL A   1      45.403  25.965  27.720  1.00  0.00    -0.354 N 
ATOM     21  C   UNL A   1      41.373  27.322  28.496  1.00  0.00     0.074 A 
ATOM     22  C   UNL A   1      40.409  26.264  28.281  1.00  0.00     0.031 C 
ATOM     23  C   UNL A   1      46.987  24.488  27.153  1.00  0.00     0.029 A 
ATOM     24  C   UNL A   1      46.763  25.873  27.544  1.00  0.00     0.049 A 
ATOM     25  H   UNL A   1      44.951  26.788  28.013  1.00  0.00     0.167 HD
ATOM     26  C   UNL A   1      41.062  28.583  28.880  1.00  0.00     0.031 A 
ATOM     27  C   UNL A   1      47.724  26.807  27.653  1.00  0.00     0.031 A 
ATOM     28  C   UNL A   1      42.029  29.630  29.093  1.00  0.00     0.049 A 
ATOM     29  C   UNL A   1      47.338  28.202  28.041  1.00  0.00     0.074 A 
ATOM     30  C   UNL A   1      41.812  30.924  29.534  1.00  0.00     0.029 A 
ATOM     31  N   UNL A   1      43.391  29.507  28.871  1.00  0.00    -0.354 N 
ATOM     32  N   UNL A   1      46.153  28.674  28.346  1.00  0.00    -0.248 NA
ATOM     33  C   UNL A   1      48.419  29.194  28.096  1.00  0.00     0.031 C 
ATOM     34  C   UNL A   1      43.034  31.603  29.518  1.00  0.00     0.029 A 
ATOM     35  C   UNL A   1      44.021  30.714  29.125  1.00  0.00     0.049 A 
ATOM     36  H   UNL A   1      43.844  28.685  28.574  1.00  0.00     0.167 HD
ATOM     37  C   UNL A   1      46.348  30.015  28.641  1.00  0.00     0.074 A 
ATOM     38  C   UNL A   1      47.768  30.272  28.511  1.00  0.00     0.031 C 
ATOM     39  C   UNL A   1      45.433  30.953  28.981  1.00  0.00     0.031 A 
BRANCH  26  40
ATOM     40  C   UNL A   1      39.611  28.928  29.073  1.00  0.00    -0.014 A 
ATOM     41  C   UNL A   1      38.825  29.403  28.012  1.00  0.00     0.009 A 
ATOM     42  C   UNL A   1      39.000  28.680  30.313  1.00  0.00     0.009 A 
ATOM     43  C   UNL A   1      37.459  29.635  28.194  1.00  0.00     0.001 A 
ATOM     44  C   UNL A   1      37.630  28.889  30.485  1.00  0.00     0.001 A 
ATOM     45  C   UNL A   1      36.862  29.370  29.427  1.00  0.00     0.000 A 
ENDBRANCH  26  40
BRANCH  27  46
ATOM     46  C   UNL A   1      49.137  26.462  27.346  1.00  0.00    -0.014 A 
ATOM     47  C   UNL A   1      49.629  26.542  26.036  1.00  0.00     0.009 A 
ATOM     48  C   UNL A   1      49.998  26.033  28.370  1.00  0.00     0.009 A 
ATOM     49  C   UNL A   1      50.945  26.169  25.752  1.00  0.00     0.001 A 
ATOM     50  C   UNL A   1      51.323  25.695  28.089  1.00  0.00     0.001 A 
ATOM     51  C   UNL A   1      51.791  25.751  26.779  1.00  0.00     0.000 A 
ENDBRANCH  27  46
BRANCH  39  52
ATOM     52  C   UNL A   1      45.950  32.338  29.251  1.00  0.00    -0.014 A 
ATOM     53  C   UNL A   1      46.330  32.730  30.544  1.00  0.00     0.009 A 
ATOM     54  C   UNL A   1      46.074  33.254  28.196  1.00  0.00     0.009 A 
ATOM     55  C   UNL A   1      46.790  34.027  30.779  1.00  0.00     0.001 A 
ATOM     56  C   UNL A   1      46.563  34.539  28.428  1.00  0.00     0.001 A 
ATOM     57  C   UNL A   1      46.911  34.927  29.722  1.00  0.00     0.000 A 
ENDBRANCH  39  52
ENDBRANCH  13  14
ENDBRANCH   6   8
ENDBRANCH   3   4
ENDBRANCH   2   3
ENDBRANCH   1   2
BRANCH   1  58
ATOM     58  C   UNL A   1      36.800  21.821  24.310  1.00  0.00     0.002 C 
BRANCH  58  59
ATOM     59  C   UNL A   1      37.336  22.972  25.174  1.00  0.00     0.021 C 
BRANCH  59  60
ATOM     60  C   UNL A   1      36.266  23.761  25.928  1.00  0.00     0.116 C 
BRANCH  60  61
ATOM     61  N   UNL A   1      35.524  22.908  26.837  1.00  0.00    -0.351 N 
ATOM     62  C   UNL A   1      34.188  22.872  27.099  1.00  0.00     0.279 C 
ATOM     63  H   UNL A   1      36.068  22.259  27.340  1.00  0.00     0.163 HD
ATOM     64  O   UNL A   1      33.803  22.123  27.998  1.00  0.00    -0.268 OA
BRANCH  62  65
ATOM     65  C   UNL A   1      33.231  23.779  26.298  1.00  0.00     0.284 C 
ATOM     66  C   UNL A   1      32.878  23.144  24.946  1.00  0.00     0.151 C 
ATOM     67  N   UNL A   1      32.011  24.043  27.125  1.00  0.00    -0.319 N 
ATOM     68  S   UNL A   1      31.091  22.908  24.973  1.00  0.00    -0.085 SA
ATOM     69  C   UNL A   1      30.865  24.211  26.213  1.00  0.00     0.303 C 
ATOM     70  H   UNL A   1      32.143  24.893  27.673  1.00  0.00     0.348 HD
ATOM     71  H   UNL A   1      31.842  23.266  27.763  1.00  0.00     0.348 HD
BRANCH  69  72
ATOM     72  C   UNL A   1      30.698  25.580  25.563  1.00  0.00     0.163 A 
ATOM     73  N   UNL A   1      29.817  25.826  24.609  1.00  0.00    -0.234 NA
ATOM     74  S   UNL A   1      31.610  26.957  26.059  1.00  0.00    -0.112 S 
ATOM     75  C   UNL A   1      29.903  27.138  24.187  1.00  0.00     0.082 A 
ATOM     76  C   UNL A   1      30.843  27.919  24.856  1.00  0.00     0.055 A 
ATOM     77  C   UNL A   1      29.137  27.725  23.160  1.00  0.00     0.030 A 
ATOM     78  C   UNL A   1      31.053  29.269  24.529  1.00  0.00     0.021 A 
ATOM     79  C   UNL A   1      29.336  29.068  22.825  1.00  0.00     0.002 A 
ATOM     80  C   UNL A   1      30.286  29.828  23.501  1.00  0.00     0.002 A 
ENDBRANCH  69  72
ENDBRANCH  62  65
ENDBRANCH  60  61
ENDBRANCH  59  60
ENDBRANCH  58  59
ENDBRANCH   1  58
TORSDOF 14
ENDMDL
