MODEL 1
REMARK VINA RESULT:     -11.0      0.000      0.000
REMARK SMILES CC[C@@](C)(NC(=O)c1c(C)cc(C)[nH]c1=O)C(=O)NCCCCCCNC(=O)c1ccc(-c2c3nc(c(-c4ccccc4)c4ccc([nH]4)c(-c4ccccc4)c4nc(c(-c5ccccc5)c5ccc2[nH]5)C=C4)C=C3)cc1
REMARK SMILES IDX 22 1 21 2 20 3 19 4 17 5 18 6 3 8 4 9 2 10 1 11 5 12 6 13
REMARK SMILES IDX 7 15 8 16 9 17 15 18 10 19 11 20 14 21 16 22 12 23 13 25
REMARK SMILES IDX 23 26 24 27 25 28 26 29 27 30 28 32 29 33 30 34 76 35 31 36
REMARK SMILES IDX 75 37 32 38 33 39 34 40 69 41 35 42 74 43 68 44 70 45 36 46
REMARK SMILES IDX 73 47 67 48 66 49 37 51 59 52 44 53 58 54 45 55 48 56 57 57
REMARK SMILES IDX 71 58 46 59 47 60 56 62 72 63 49 64 38 65 39 66 43 67 40 68
REMARK SMILES IDX 42 69 41 70 60 71 61 72 65 73 62 74 64 75 63 76 50 77 51 78
REMARK SMILES IDX 55 79 52 80 54 81 53 82
REMARK H PARENT 19 7 5 14 14 24 26 31 70 50 48 61
REMARK Flexibility Score: inf
ROOT
ATOM      1  C   UNL A   1      37.359  22.536  24.451  1.00  0.00     0.002 C 
ENDROOT
BRANCH   1   2
ATOM      2  C   UNL A   1      37.063  23.660  25.451  1.00  0.00     0.021 C 
BRANCH   2   3
ATOM      3  C   UNL A   1      35.619  24.131  25.606  1.00  0.00     0.116 C 
BRANCH   3   4
ATOM      4  N   UNL A   1      34.914  24.505  24.402  1.00  0.00    -0.354 N 
ATOM      5  C   UNL A   1      33.806  25.260  24.135  1.00  0.00     0.245 C 
ATOM      6  O   UNL A   1      33.691  25.588  22.944  1.00  0.00    -0.272 OA
ATOM      7  H   UNL A   1      35.326  24.133  23.590  1.00  0.00     0.163 HD
BRANCH   5   8
ATOM      8  C   UNL A   1      32.849  25.851  25.238  1.00  0.00     0.116 C 
ATOM      9  C   UNL A   1      33.757  26.915  25.922  1.00  0.00     0.045 C 
BRANCH   8  10
ATOM     10  C   UNL A   1      31.607  26.602  24.656  1.00  0.00     0.035 C 
ATOM     11  C   UNL A   1      30.218  26.173  25.119  1.00  0.00     0.007 C 
ENDBRANCH   8  10
BRANCH   8  12
ATOM     12  N   UNL A   1      32.322  24.969  26.345  1.00  0.00    -0.338 N 
ATOM     13  C   UNL A   1      31.965  23.661  26.525  1.00  0.00     0.258 C 
ATOM     14  H   UNL A   1      32.199  25.484  27.175  1.00  0.00     0.164 HD
ATOM     15  O   UNL A   1      31.164  23.521  27.461  1.00  0.00    -0.269 OA
BRANCH  13  16
ATOM     16  C   UNL A   1      32.494  22.432  25.816  1.00  0.00     0.107 A 
ATOM     17  C   UNL A   1      32.098  22.071  24.555  1.00  0.00    -0.031 A 
ATOM     18  C   UNL A   1      33.366  21.435  26.493  1.00  0.00     0.261 A 
ATOM     19  C   UNL A   1      31.266  22.855  23.567  1.00  0.00     0.045 C 
ATOM     20  C   UNL A   1      32.427  20.739  24.007  1.00  0.00     0.025 A 
ATOM     21  N   UNL A   1      33.706  20.284  25.865  1.00  0.00    -0.326 N 
ATOM     22  O   UNL A   1      33.789  21.547  27.623  1.00  0.00    -0.269 OA
ATOM     23  C   UNL A   1      33.213  19.882  24.671  1.00  0.00     0.015 A 
ATOM     24  H   UNL A   1      34.358  19.697  26.310  1.00  0.00     0.169 HD
ATOM     25  C   UNL A   1      33.526  18.471  24.291  1.00  0.00     0.064 C 
ENDBRANCH  13  16
ENDBRANCH   8  12
ENDBRANCH   5   8
ENDBRANCH   3   4
ENDBRANCH   2   3
ENDBRANCH   1   2
BRANCH   1  26
ATOM     26  C   UNL A   1      36.767  21.158  24.745  1.00  0.00     0.002 C 
BRANCH  26  27
ATOM     27  C   UNL A   1      37.777  20.032  24.948  1.00  0.00     0.021 C 
BRANCH  27  28
ATOM     28  C   UNL A   1      38.950  20.374  25.859  1.00  0.00     0.116 C 
BRANCH  28  29
ATOM     29  N   UNL A   1      40.021  19.389  25.794  1.00  0.00    -0.352 N 
ATOM     30  C   UNL A   1      41.362  19.572  26.039  1.00  0.00     0.251 C 
ATOM     31  H   UNL A   1      39.750  18.477  25.544  1.00  0.00     0.163 HD
ATOM     32  O   UNL A   1      42.180  18.691  25.802  1.00  0.00    -0.269 OA
BRANCH  30  33
ATOM     33  C   UNL A   1      41.809  20.873  26.573  1.00  0.00     0.039 A 
ATOM     34  C   UNL A   1      42.229  21.869  25.690  1.00  0.00     0.014 A 
ATOM     35  C   UNL A   1      41.738  21.119  27.948  1.00  0.00     0.014 A 
ATOM     36  C   UNL A   1      42.519  23.141  26.183  1.00  0.00     0.010 A 
ATOM     37  C   UNL A   1      41.959  22.405  28.427  1.00  0.00     0.010 A 
ATOM     38  C   UNL A   1      42.358  23.427  27.549  1.00  0.00    -0.014 A 
BRANCH  38  39
ATOM     39  C   UNL A   1      42.631  24.781  28.087  1.00  0.00     0.031 A 
ATOM     40  C   UNL A   1      44.035  25.155  28.473  1.00  0.00     0.074 A 
ATOM     41  C   UNL A   1      41.622  25.657  28.259  1.00  0.00     0.049 A 
ATOM     42  N   UNL A   1      44.478  26.272  28.991  1.00  0.00    -0.248 NA
ATOM     43  C   UNL A   1      45.077  24.134  28.269  1.00  0.00     0.031 C 
ATOM     44  C   UNL A   1      40.214  25.405  27.944  1.00  0.00     0.029 A 
ATOM     45  N   UNL A   1      41.630  26.944  28.738  1.00  0.00    -0.354 N 
ATOM     46  C   UNL A   1      45.841  26.086  29.175  1.00  0.00     0.074 A 
ATOM     47  C   UNL A   1      46.145  24.731  28.773  1.00  0.00     0.031 C 
ATOM     48  C   UNL A   1      39.501  26.514  28.203  1.00  0.00     0.029 A 
ATOM     49  C   UNL A   1      40.391  27.541  28.733  1.00  0.00     0.049 A 
ATOM     50  H   UNL A   1      42.445  27.395  29.055  1.00  0.00     0.167 HD
ATOM     51  C   UNL A   1      46.764  26.971  29.614  1.00  0.00     0.031 A 
ATOM     52  C   UNL A   1      40.020  28.780  29.109  1.00  0.00     0.031 A 
ATOM     53  C   UNL A   1      46.466  28.323  30.000  1.00  0.00     0.049 A 
ATOM     54  C   UNL A   1      41.061  29.733  29.628  1.00  0.00     0.074 A 
ATOM     55  C   UNL A   1      47.340  29.307  30.427  1.00  0.00     0.029 A 
ATOM     56  N   UNL A   1      45.198  28.879  30.001  1.00  0.00    -0.354 N 
ATOM     57  N   UNL A   1      42.354  29.555  29.756  1.00  0.00    -0.248 NA
ATOM     58  C   UNL A   1      40.594  31.062  30.051  1.00  0.00     0.031 C 
ATOM     59  C   UNL A   1      46.593  30.449  30.726  1.00  0.00     0.029 A 
ATOM     60  C   UNL A   1      45.263  30.190  30.438  1.00  0.00     0.049 A 
ATOM     61  H   UNL A   1      44.375  28.413  29.732  1.00  0.00     0.167 HD
ATOM     62  C   UNL A   1      42.856  30.752  30.247  1.00  0.00     0.074 A 
ATOM     63  C   UNL A   1      41.733  31.655  30.381  1.00  0.00     0.031 C 
ATOM     64  C   UNL A   1      44.134  31.074  30.561  1.00  0.00     0.031 A 
BRANCH  51  65
ATOM     65  C   UNL A   1      48.192  26.512  29.681  1.00  0.00    -0.014 A 
ATOM     66  C   UNL A   1      48.680  25.842  30.814  1.00  0.00     0.009 A 
ATOM     67  C   UNL A   1      49.042  26.694  28.580  1.00  0.00     0.009 A 
ATOM     68  C   UNL A   1      49.997  25.382  30.852  1.00  0.00     0.001 A 
ATOM     69  C   UNL A   1      50.350  26.210  28.609  1.00  0.00     0.001 A 
ATOM     70  C   UNL A   1      50.828  25.560  29.746  1.00  0.00     0.000 A 
ENDBRANCH  51  65
BRANCH  52  71
ATOM     71  C   UNL A   1      38.600  29.205  28.985  1.00  0.00    -0.014 A 
ATOM     72  C   UNL A   1      37.739  29.126  30.091  1.00  0.00     0.009 A 
ATOM     73  C   UNL A   1      38.096  29.682  27.766  1.00  0.00     0.009 A 
ATOM     74  C   UNL A   1      36.397  29.494  29.972  1.00  0.00     0.001 A 
ATOM     75  C   UNL A   1      36.760  30.076  27.657  1.00  0.00     0.001 A 
ATOM     76  C   UNL A   1      35.910  29.973  28.757  1.00  0.00     0.000 A 
ENDBRANCH  52  71
BRANCH  64  77
ATOM     77  C   UNL A   1      44.397  32.466  31.058  1.00  0.00    -0.014 A 
ATOM     78  C   UNL A   1      44.653  33.517  30.166  1.00  0.00     0.009 A 
ATOM     79  C   UNL A   1      44.307  32.743  32.432  1.00  0.00     0.009 A 
ATOM     80  C   UNL A   1      44.833  34.817  30.641  1.00  0.00     0.001 A 
ATOM     81  C   UNL A   1      44.459  34.047  32.902  1.00  0.00     0.001 A 
ATOM     82  C   UNL A   1      44.728  35.082  32.006  1.00  0.00     0.000 A 
ENDBRANCH  64  77
ENDBRANCH  38  39
ENDBRANCH  30  33
ENDBRANCH  28  29
ENDBRANCH  27  28
ENDBRANCH  26  27
ENDBRANCH   1  26
TORSDOF 16
ENDMDL
MODEL 2
REMARK VINA RESULT:     -11.0      4.021      9.314
REMARK SMILES CC[C@@](C)(NC(=O)c1c(C)cc(C)[nH]c1=O)C(=O)NCCCCCCNC(=O)c1ccc(-c2c3nc(c(-c4ccccc4)c4ccc([nH]4)c(-c4ccccc4)c4nc(c(-c5ccccc5)c5ccc2[nH]5)C=C4)C=C3)cc1
REMARK SMILES IDX 22 1 21 2 20 3 19 4 17 5 18 6 3 8 4 9 2 10 1 11 5 12 6 13
REMARK SMILES IDX 7 15 8 16 9 17 15 18 10 19 11 20 14 21 16 22 12 23 13 25
REMARK SMILES IDX 23 26 24 27 25 28 26 29 27 30 28 32 29 33 30 34 76 35 31 36
REMARK SMILES IDX 75 37 32 38 33 39 34 40 69 41 35 42 74 43 68 44 70 45 36 46
REMARK SMILES IDX 73 47 67 48 66 49 37 51 59 52 44 53 58 54 45 55 48 56 57 57
REMARK SMILES IDX 71 58 46 59 47 60 56 62 72 63 49 64 38 65 39 66 43 67 40 68
REMARK SMILES IDX 42 69 41 70 60 71 61 72 65 73 62 74 64 75 63 76 50 77 51 78
REMARK SMILES IDX 55 79 52 80 54 81 53 82
REMARK H PARENT 19 7 5 14 14 24 26 31 70 50 48 61
REMARK Flexibility Score: inf
ROOT
ATOM      1  C   UNL A   1      32.243  29.588  27.178  1.00  0.00     0.002 C 
ENDROOT
BRANCH   1   2
ATOM      2  C   UNL A   1      33.632  29.006  26.895  1.00  0.00     0.021 C 
BRANCH   2   3
ATOM      3  C   UNL A   1      33.724  27.689  26.127  1.00  0.00     0.116 C 
BRANCH   3   4
ATOM      4  N   UNL A   1      32.724  26.688  26.415  1.00  0.00    -0.354 N 
ATOM      5  C   UNL A   1      32.546  25.380  26.060  1.00  0.00     0.245 C 
ATOM      6  O   UNL A   1      31.715  24.774  26.753  1.00  0.00    -0.272 OA
ATOM      7  H   UNL A   1      32.008  27.023  27.001  1.00  0.00     0.163 HD
BRANCH   5   8
ATOM      8  C   UNL A   1      33.438  24.618  25.007  1.00  0.00     0.116 C 
ATOM      9  C   UNL A   1      34.788  24.473  25.769  1.00  0.00     0.045 C 
BRANCH   8  10
ATOM     10  C   UNL A   1      32.931  23.177  24.679  1.00  0.00     0.035 C 
ATOM     11  C   UNL A   1      32.752  22.787  23.214  1.00  0.00     0.007 C 
ENDBRANCH   8  10
BRANCH   8  12
ATOM     12  N   UNL A   1      33.768  25.257  23.679  1.00  0.00    -0.338 N 
ATOM     13  C   UNL A   1      33.161  26.064  22.757  1.00  0.00     0.258 C 
ATOM     14  H   UNL A   1      34.682  25.025  23.396  1.00  0.00     0.164 HD
ATOM     15  O   UNL A   1      33.657  25.936  21.627  1.00  0.00    -0.269 OA
BRANCH  13  16
ATOM     16  C   UNL A   1      32.085  27.107  22.977  1.00  0.00     0.107 A 
ATOM     17  C   UNL A   1      30.769  26.789  23.182  1.00  0.00    -0.031 A 
ATOM     18  C   UNL A   1      32.348  28.564  22.833  1.00  0.00     0.261 A 
ATOM     19  C   UNL A   1      30.153  25.430  23.424  1.00  0.00     0.045 C 
ATOM     20  C   UNL A   1      29.718  27.827  23.127  1.00  0.00     0.025 A 
ATOM     21  N   UNL A   1      31.329  29.454  22.906  1.00  0.00    -0.326 N 
ATOM     22  O   UNL A   1      33.436  29.047  22.607  1.00  0.00    -0.269 OA
ATOM     23  C   UNL A   1      30.020  29.124  22.987  1.00  0.00     0.015 A 
ATOM     24  H   UNL A   1      31.558  30.412  22.899  1.00  0.00     0.169 HD
ATOM     25  C   UNL A   1      29.062  30.254  22.798  1.00  0.00     0.064 C 
ENDBRANCH  13  16
ENDBRANCH   8  12
ENDBRANCH   5   8
ENDBRANCH   3   4
ENDBRANCH   2   3
ENDBRANCH   1   2
BRANCH   1  26
ATOM     26  C   UNL A   1      31.662  30.559  26.150  1.00  0.00     0.002 C 
BRANCH  26  27
ATOM     27  C   UNL A   1      31.399  31.976  26.650  1.00  0.00     0.021 C 
BRANCH  27  28
ATOM     28  C   UNL A   1      32.609  32.683  27.250  1.00  0.00     0.116 C 
BRANCH  28  29
ATOM     29  N   UNL A   1      32.332  34.066  27.612  1.00  0.00    -0.352 N 
ATOM     30  C   UNL A   1      32.962  34.841  28.557  1.00  0.00     0.251 C 
ATOM     31  H   UNL A   1      31.601  34.501  27.118  1.00  0.00     0.163 HD
ATOM     32  O   UNL A   1      32.532  35.946  28.868  1.00  0.00    -0.269 OA
BRANCH  30  33
ATOM     33  C   UNL A   1      34.168  34.304  29.217  1.00  0.00     0.039 A 
ATOM     34  C   UNL A   1      34.031  33.537  30.375  1.00  0.00     0.014 A 
ATOM     35  C   UNL A   1      35.425  34.508  28.638  1.00  0.00     0.014 A 
ATOM     36  C   UNL A   1      35.154  32.916  30.920  1.00  0.00     0.010 A 
ATOM     37  C   UNL A   1      36.529  33.830  29.142  1.00  0.00     0.010 A 
ATOM     38  C   UNL A   1      36.405  33.033  30.291  1.00  0.00    -0.014 A 
BRANCH  38  39
ATOM     39  C   UNL A   1      37.605  32.355  30.838  1.00  0.00     0.031 A 
ATOM     40  C   UNL A   1      38.250  32.884  32.089  1.00  0.00     0.074 A 
ATOM     41  C   UNL A   1      38.131  31.292  30.199  1.00  0.00     0.049 A 
ATOM     42  N   UNL A   1      39.320  32.457  32.708  1.00  0.00    -0.248 NA
ATOM     43  C   UNL A   1      37.622  34.059  32.716  1.00  0.00     0.031 C 
ATOM     44  C   UNL A   1      37.611  30.698  28.965  1.00  0.00     0.029 A 
ATOM     45  N   UNL A   1      39.222  30.517  30.506  1.00  0.00    -0.354 N 
ATOM     46  C   UNL A   1      39.492  33.310  33.790  1.00  0.00     0.074 A 
ATOM     47  C   UNL A   1      38.456  34.315  33.712  1.00  0.00     0.031 C 
ATOM     48  C   UNL A   1      38.360  29.631  28.642  1.00  0.00     0.029 A 
ATOM     49  C   UNL A   1      39.432  29.485  29.622  1.00  0.00     0.049 A 
ATOM     50  H   UNL A   1      39.800  30.685  31.284  1.00  0.00     0.167 HD
ATOM     51  C   UNL A   1      40.414  33.248  34.778  1.00  0.00     0.031 A 
ATOM     52  C   UNL A   1      40.378  28.527  29.609  1.00  0.00     0.031 A 
ATOM     53  C   UNL A   1      41.436  32.241  34.866  1.00  0.00     0.049 A 
ATOM     54  C   UNL A   1      41.413  28.502  30.699  1.00  0.00     0.074 A 
ATOM     55  C   UNL A   1      42.395  32.075  35.848  1.00  0.00     0.029 A 
ATOM     56  N   UNL A   1      41.625  31.230  33.940  1.00  0.00    -0.354 N 
ATOM     57  N   UNL A   1      41.535  29.291  31.740  1.00  0.00    -0.248 NA
ATOM     58  C   UNL A   1      42.439  27.451  30.619  1.00  0.00     0.031 C 
ATOM     59  C   UNL A   1      43.194  30.984  35.494  1.00  0.00     0.029 A 
ATOM     60  C   UNL A   1      42.699  30.443  34.318  1.00  0.00     0.049 A 
ATOM     61  H   UNL A   1      41.079  31.090  33.133  1.00  0.00     0.167 HD
ATOM     62  C   UNL A   1      42.632  28.818  32.447  1.00  0.00     0.074 A 
ATOM     63  C   UNL A   1      43.131  27.665  31.729  1.00  0.00     0.031 C 
ATOM     64  C   UNL A   1      43.177  29.298  33.591  1.00  0.00     0.031 A 
BRANCH  51  65
ATOM     65  C   UNL A   1      40.347  34.288  35.858  1.00  0.00    -0.014 A 
ATOM     66  C   UNL A   1      39.584  34.074  37.017  1.00  0.00     0.009 A 
ATOM     67  C   UNL A   1      41.098  35.468  35.746  1.00  0.00     0.009 A 
ATOM     68  C   UNL A   1      39.559  35.029  38.034  1.00  0.00     0.001 A 
ATOM     69  C   UNL A   1      41.093  36.409  36.776  1.00  0.00     0.001 A 
ATOM     70  C   UNL A   1      40.320  36.192  37.916  1.00  0.00     0.000 A 
ENDBRANCH  51  65
BRANCH  52  71
ATOM     71  C   UNL A   1      40.379  27.491  28.542  1.00  0.00    -0.014 A 
ATOM     72  C   UNL A   1      39.661  26.297  28.714  1.00  0.00     0.009 A 
ATOM     73  C   UNL A   1      41.101  27.682  27.354  1.00  0.00     0.009 A 
ATOM     74  C   UNL A   1      39.684  25.307  27.728  1.00  0.00     0.001 A 
ATOM     75  C   UNL A   1      41.099  26.703  26.358  1.00  0.00     0.001 A 
ATOM     76  C   UNL A   1      40.399  25.513  26.550  1.00  0.00     0.000 A 
ENDBRANCH  52  71
BRANCH  64  77
ATOM     77  C   UNL A   1      44.363  28.568  34.155  1.00  0.00    -0.014 A 
ATOM     78  C   UNL A   1      45.671  28.960  33.837  1.00  0.00     0.009 A 
ATOM     79  C   UNL A   1      44.165  27.529  35.078  1.00  0.00     0.009 A 
ATOM     80  C   UNL A   1      46.762  28.311  34.418  1.00  0.00     0.001 A 
ATOM     81  C   UNL A   1      45.256  26.901  35.679  1.00  0.00     0.001 A 
ATOM     82  C   UNL A   1      46.554  27.289  35.345  1.00  0.00     0.000 A 
ENDBRANCH  64  77
ENDBRANCH  38  39
ENDBRANCH  30  33
ENDBRANCH  28  29
ENDBRANCH  27  28
ENDBRANCH  26  27
ENDBRANCH   1  26
TORSDOF 16
ENDMDL
MODEL 3
REMARK VINA RESULT:     -10.9      0.987      5.950
REMARK SMILES CC[C@@](C)(NC(=O)c1c(C)cc(C)[nH]c1=O)C(=O)NCCCCCCNC(=O)c1ccc(-c2c3nc(c(-c4ccccc4)c4ccc([nH]4)c(-c4ccccc4)c4nc(c(-c5ccccc5)c5ccc2[nH]5)C=C4)C=C3)cc1
REMARK SMILES IDX 22 1 21 2 20 3 19 4 17 5 18 6 3 8 4 9 2 10 1 11 5 12 6 13
REMARK SMILES IDX 7 15 8 16 9 17 15 18 10 19 11 20 14 21 16 22 12 23 13 25
REMARK SMILES IDX 23 26 24 27 25 28 26 29 27 30 28 32 29 33 30 34 76 35 31 36
REMARK SMILES IDX 75 37 32 38 33 39 34 40 69 41 35 42 74 43 68 44 70 45 36 46
REMARK SMILES IDX 73 47 67 48 66 49 37 51 59 52 44 53 58 54 45 55 48 56 57 57
REMARK SMILES IDX 71 58 46 59 47 60 56 62 72 63 49 64 38 65 39 66 43 67 40 68
REMARK SMILES IDX 42 69 41 70 60 71 61 72 65 73 62 74 64 75 63 76 50 77 51 78
REMARK SMILES IDX 55 79 52 80 54 81 53 82
REMARK H PARENT 19 7 5 14 14 24 26 31 70 50 48 61
REMARK Flexibility Score: inf
ROOT
ATOM      1  C   UNL A   1      37.438  22.533  24.675  1.00  0.00     0.002 C 
ENDROOT
BRANCH   1   2
ATOM      2  C   UNL A   1      37.079  23.487  25.820  1.00  0.00     0.021 C 
BRANCH   2   3
ATOM      3  C   UNL A   1      35.742  24.223  25.758  1.00  0.00     0.116 C 
BRANCH   3   4
ATOM      4  N   UNL A   1      35.161  24.425  24.451  1.00  0.00    -0.354 N 
ATOM      5  C   UNL A   1      34.068  25.097  23.982  1.00  0.00     0.245 C 
ATOM      6  O   UNL A   1      34.072  25.279  22.755  1.00  0.00    -0.272 OA
ATOM      7  H   UNL A   1      35.668  23.977  23.737  1.00  0.00     0.163 HD
BRANCH   5   8
ATOM      8  C   UNL A   1      32.981  25.775  24.901  1.00  0.00     0.116 C 
ATOM      9  C   UNL A   1      33.754  27.003  25.467  1.00  0.00     0.045 C 
BRANCH   8  10
ATOM     10  C   UNL A   1      31.746  26.322  24.115  1.00  0.00     0.035 C 
ATOM     11  C   UNL A   1      30.432  26.509  24.868  1.00  0.00     0.007 C 
ENDBRANCH   8  10
BRANCH   8  12
ATOM     12  N   UNL A   1      32.423  25.038  26.095  1.00  0.00    -0.338 N 
ATOM     13  C   UNL A   1      32.038  23.767  26.420  1.00  0.00     0.258 C 
ATOM     14  H   UNL A   1      32.300  25.648  26.857  1.00  0.00     0.164 HD
ATOM     15  O   UNL A   1      31.222  23.751  27.354  1.00  0.00    -0.269 OA
BRANCH  13  16
ATOM     16  C   UNL A   1      32.551  22.453  25.866  1.00  0.00     0.107 A 
ATOM     17  C   UNL A   1      32.183  21.968  24.639  1.00  0.00    -0.031 A 
ATOM     18  C   UNL A   1      33.370  21.513  26.676  1.00  0.00     0.261 A 
ATOM     19  C   UNL A   1      31.407  22.662  23.544  1.00  0.00     0.045 C 
ATOM     20  C   UNL A   1      32.489  20.576  24.249  1.00  0.00     0.025 A 
ATOM     21  N   UNL A   1      33.694  20.291  26.188  1.00  0.00    -0.326 N 
ATOM     22  O   UNL A   1      33.761  21.736  27.801  1.00  0.00    -0.269 OA
ATOM     23  C   UNL A   1      33.227  19.776  25.028  1.00  0.00     0.015 A 
ATOM     24  H   UNL A   1      34.314  19.739  26.716  1.00  0.00     0.169 HD
ATOM     25  C   UNL A   1      33.508  18.324  24.814  1.00  0.00     0.064 C 
ENDBRANCH  13  16
ENDBRANCH   8  12
ENDBRANCH   5   8
ENDBRANCH   3   4
ENDBRANCH   2   3
ENDBRANCH   1   2
BRANCH   1  26
ATOM     26  C   UNL A   1      36.803  21.143  24.691  1.00  0.00     0.002 C 
BRANCH  26  27
ATOM     27  C   UNL A   1      37.747  19.985  25.001  1.00  0.00     0.021 C 
BRANCH  27  28
ATOM     28  C   UNL A   1      39.068  20.386  25.647  1.00  0.00     0.116 C 
BRANCH  28  29
ATOM     29  N   UNL A   1      39.988  19.267  25.794  1.00  0.00    -0.352 N 
ATOM     30  C   UNL A   1      41.327  19.300  26.104  1.00  0.00     0.251 C 
ATOM     31  H   UNL A   1      39.602  18.373  25.654  1.00  0.00     0.163 HD
ATOM     32  O   UNL A   1      42.021  18.290  26.050  1.00  0.00    -0.269 OA
BRANCH  30  33
ATOM     33  C   UNL A   1      41.930  20.592  26.485  1.00  0.00     0.039 A 
ATOM     34  C   UNL A   1      42.386  21.455  25.488  1.00  0.00     0.014 A 
ATOM     35  C   UNL A   1      41.970  20.968  27.831  1.00  0.00     0.014 A 
ATOM     36  C   UNL A   1      42.828  22.730  25.837  1.00  0.00     0.010 A 
ATOM     37  C   UNL A   1      42.343  22.265  28.169  1.00  0.00     0.010 A 
ATOM     38  C   UNL A   1      42.781  23.155  27.176  1.00  0.00    -0.014 A 
BRANCH  38  39
ATOM     39  C   UNL A   1      43.217  24.519  27.564  1.00  0.00     0.031 A 
ATOM     40  C   UNL A   1      42.184  25.559  27.896  1.00  0.00     0.074 A 
ATOM     41  C   UNL A   1      44.527  24.830  27.585  1.00  0.00     0.049 A 
ATOM     42  N   UNL A   1      42.355  26.814  28.225  1.00  0.00    -0.248 NA
ATOM     43  C   UNL A   1      40.773  25.143  27.832  1.00  0.00     0.031 C 
ATOM     44  C   UNL A   1      45.624  23.914  27.261  1.00  0.00     0.029 A 
ATOM     45  N   UNL A   1      45.160  26.006  27.901  1.00  0.00    -0.354 N 
ATOM     46  C   UNL A   1      41.080  27.332  28.403  1.00  0.00     0.074 A 
ATOM     47  C   UNL A   1      40.142  26.278  28.088  1.00  0.00     0.031 C 
ATOM     48  C   UNL A   1      46.794  24.553  27.432  1.00  0.00     0.029 A 
ATOM     49  C   UNL A   1      46.532  25.929  27.841  1.00  0.00     0.049 A 
ATOM     50  H   UNL A   1      44.678  26.828  28.147  1.00  0.00     0.167 HD
ATOM     51  C   UNL A   1      40.719  28.568  28.819  1.00  0.00     0.031 A 
ATOM     52  C   UNL A   1      47.470  26.861  28.094  1.00  0.00     0.031 A 
ATOM     53  C   UNL A   1      41.649  29.612  29.147  1.00  0.00     0.049 A 
ATOM     54  C   UNL A   1      47.039  28.238  28.520  1.00  0.00     0.074 A 
ATOM     55  C   UNL A   1      41.380  30.888  29.610  1.00  0.00     0.029 A 
ATOM     56  N   UNL A   1      43.025  29.498  29.052  1.00  0.00    -0.354 N 
ATOM     57  N   UNL A   1      45.829  28.699  28.725  1.00  0.00    -0.248 NA
ATOM     58  C   UNL A   1      48.105  29.224  28.756  1.00  0.00     0.031 C 
ATOM     59  C   UNL A   1      42.595  31.562  29.756  1.00  0.00     0.029 A 
ATOM     60  C   UNL A   1      43.621  30.688  29.431  1.00  0.00     0.049 A 
ATOM     61  H   UNL A   1      43.508  28.693  28.758  1.00  0.00     0.167 HD
ATOM     62  C   UNL A   1      45.989  30.015  29.136  1.00  0.00     0.074 A 
ATOM     63  C   UNL A   1      47.412  30.276  29.167  1.00  0.00     0.031 C 
ATOM     64  C   UNL A   1      45.040  30.927  29.459  1.00  0.00     0.031 A 
BRANCH  51  65
ATOM     65  C   UNL A   1      39.252  28.851  28.963  1.00  0.00    -0.014 A 
ATOM     66  C   UNL A   1      38.599  28.660  30.191  1.00  0.00     0.009 A 
ATOM     67  C   UNL A   1      38.526  29.372  27.880  1.00  0.00     0.009 A 
ATOM     68  C   UNL A   1      37.244  28.964  30.327  1.00  0.00     0.001 A 
ATOM     69  C   UNL A   1      37.178  29.701  28.026  1.00  0.00     0.001 A 
ATOM     70  C   UNL A   1      36.537  29.491  29.247  1.00  0.00     0.000 A 
ENDBRANCH  51  65
BRANCH  52  71
ATOM     71  C   UNL A   1      48.913  26.522  27.980  1.00  0.00    -0.014 A 
ATOM     72  C   UNL A   1      49.546  26.539  26.727  1.00  0.00     0.009 A 
ATOM     73  C   UNL A   1      49.661  26.170  29.112  1.00  0.00     0.009 A 
ATOM     74  C   UNL A   1      50.894  26.191  26.609  1.00  0.00     0.001 A 
ATOM     75  C   UNL A   1      51.016  25.849  28.996  1.00  0.00     0.001 A 
ATOM     76  C   UNL A   1      51.628  25.850  27.743  1.00  0.00     0.000 A 
ENDBRANCH  52  71
BRANCH  64  77
ATOM     77  C   UNL A   1      45.503  32.287  29.895  1.00  0.00    -0.014 A 
ATOM     78  C   UNL A   1      45.849  32.539  31.231  1.00  0.00     0.009 A 
ATOM     79  C   UNL A   1      45.672  33.303  28.942  1.00  0.00     0.009 A 
ATOM     80  C   UNL A   1      46.338  33.791  31.608  1.00  0.00     0.001 A 
ATOM     81  C   UNL A   1      46.187  34.545  29.316  1.00  0.00     0.001 A 
ATOM     82  C   UNL A   1      46.514  34.789  30.649  1.00  0.00     0.000 A 
ENDBRANCH  64  77
ENDBRANCH  38  39
ENDBRANCH  30  33
ENDBRANCH  28  29
ENDBRANCH  27  28
ENDBRANCH  26  27
ENDBRANCH   1  26
TORSDOF 16
ENDMDL
