MODEL 1
REMARK VINA RESULT:     -10.4      0.000      0.000
REMARK SMILES [NH3+][C@](CCC[P@TB4](=O)([O-])[O-])(Cc1ccccc1)C(=O)NCCCCCCNC(=O)c1ccc(-c2c3nc(c(-c4ccccc4)c4ccc([nH]4)c(-c4ccccc4)c4nc(c(-c5ccccc5)c5ccc2[nH]5)C=C4)C=C3)cc1
REMARK SMILES IDX 21 1 20 2 19 3 17 4 18 5 2 7 1 8 10 12 11 13 12 14 16 15
REMARK SMILES IDX 13 16 15 17 14 18 3 19 4 20 5 21 6 22 7 23 8 24 9 25 22 26
REMARK SMILES IDX 23 27 24 28 25 29 26 30 27 31 28 33 29 34 30 35 76 36 31 37
REMARK SMILES IDX 75 38 32 39 33 40 34 41 69 42 35 43 74 44 68 45 70 46 36 47
REMARK SMILES IDX 73 48 67 49 66 50 37 52 59 53 44 54 58 55 45 56 48 57 57 58
REMARK SMILES IDX 71 59 46 60 47 61 56 63 72 64 49 65 38 66 39 67 43 68 40 69
REMARK SMILES IDX 42 70 41 71 60 72 61 73 65 74 62 75 64 76 63 77 50 78 51 79
REMARK SMILES IDX 55 80 52 81 54 82 53 83
REMARK H PARENT 19 6 1 9 1 10 1 11 26 32 70 51 48 62
REMARK Flexibility Score: inf
ROOT
ATOM      1  C   UNL A   1      34.669  25.205  25.314  1.00  0.00       nan C 
ENDROOT
BRANCH   1   2
ATOM      2  C   UNL A   1      34.905  23.736  25.633  1.00  0.00       nan C 
BRANCH   2   3
ATOM      3  N   UNL A   1      33.717  23.206  26.244  1.00  0.00       nan N 
ATOM      4  C   UNL A   1      32.855  22.271  25.788  1.00  0.00       nan C 
ATOM      5  O   UNL A   1      31.742  22.307  26.326  1.00  0.00       nan OA
ATOM      6  H   UNL A   1      33.498  23.582  27.128  1.00  0.00       nan HD
BRANCH   4   7
ATOM      7  C   UNL A   1      33.250  21.138  24.795  1.00  0.00       nan C 
BRANCH   7   8
ATOM      8  N   UNL A   1      34.721  21.015  24.560  1.00  0.00       nan N 
ATOM      9  H   UNL A   1      35.034  20.087  24.843  1.00  0.00       nan HD
ATOM     10  H   UNL A   1      35.212  21.721  25.108  1.00  0.00       nan HD
ATOM     11  H   UNL A   1      34.920  21.155  23.570  1.00  0.00       nan HD
ENDBRANCH   7   8
BRANCH   7  12
ATOM     12  C   UNL A   1      32.624  21.409  23.404  1.00  0.00       nan C 
BRANCH  12  13
ATOM     13  C   UNL A   1      32.351  22.847  23.040  1.00  0.00       nan A 
ATOM     14  C   UNL A   1      33.289  23.605  22.329  1.00  0.00       nan A 
ATOM     15  C   UNL A   1      31.134  23.442  23.402  1.00  0.00       nan A 
ATOM     16  C   UNL A   1      33.003  24.920  21.963  1.00  0.00       nan A 
ATOM     17  C   UNL A   1      30.852  24.758  23.043  1.00  0.00       nan A 
ATOM     18  C   UNL A   1      31.785  25.496  22.318  1.00  0.00       nan A 
ENDBRANCH  12  13
ENDBRANCH   7  12
BRANCH   7  19
ATOM     19  C   UNL A   1      32.773  19.808  25.441  1.00  0.00       nan C 
BRANCH  19  20
ATOM     20  C   UNL A   1      32.536  18.645  24.458  1.00  0.00       nan C 
BRANCH  20  21
ATOM     21  C   UNL A   1      32.457  17.227  25.037  1.00  0.00       nan C 
BRANCH  21  22
ATOM     22  P   UNL A   1      33.915  16.122  25.040  1.00  0.00       nan P 
ATOM     23  O   UNL A   1      33.050  14.879  25.279  1.00  0.00       nan OA
ATOM     24  O   UNL A   1      34.005  16.157  23.405  1.00  0.00       nan OA
ATOM     25  O   UNL A   1      35.294  15.077  25.044  1.00  0.00       nan OA
ENDBRANCH  21  22
ENDBRANCH  20  21
ENDBRANCH  19  20
ENDBRANCH   7  19
ENDBRANCH   4   7
ENDBRANCH   2   3
ENDBRANCH   1   2
BRANCH   1  26
ATOM     26  C   UNL A   1      33.346  25.752  25.865  1.00  0.00       nan C 
BRANCH  26  27
ATOM     27  C   UNL A   1      32.928  27.117  25.310  1.00  0.00       nan C 
BRANCH  27  28
ATOM     28  C   UNL A   1      33.779  28.291  25.794  1.00  0.00       nan C 
BRANCH  28  29
ATOM     29  C   UNL A   1      33.732  28.517  27.298  1.00  0.00       inf C 
BRANCH  29  30
ATOM     30  N   UNL A   1      33.615  29.923  27.633  1.00  0.00    -0.352 N 
ATOM     31  C   UNL A   1      34.535  30.722  28.256  1.00  0.00     0.251 C 
ATOM     32  H   UNL A   1      32.767  30.355  27.383  1.00  0.00     0.163 HD
ATOM     33  O   UNL A   1      34.223  31.847  28.645  1.00  0.00    -0.269 OA
BRANCH  31  34
ATOM     34  C   UNL A   1      35.904  30.215  28.476  1.00  0.00     0.039 A 
ATOM     35  C   UNL A   1      36.830  30.308  27.436  1.00  0.00     0.014 A 
ATOM     36  C   UNL A   1      36.272  29.654  29.704  1.00  0.00     0.014 A 
ATOM     37  C   UNL A   1      38.137  29.863  27.637  1.00  0.00     0.010 A 
ATOM     38  C   UNL A   1      37.596  29.291  29.929  1.00  0.00     0.010 A 
ATOM     39  C   UNL A   1      38.536  29.369  28.890  1.00  0.00    -0.014 A 
BRANCH  39  40
ATOM     40  C   UNL A   1      39.922  28.890  29.114  1.00  0.00     0.031 A 
ATOM     41  C   UNL A   1      40.932  29.794  29.768  1.00  0.00     0.074 A 
ATOM     42  C   UNL A   1      40.280  27.659  28.703  1.00  0.00     0.049 A 
ATOM     43  N   UNL A   1      42.192  29.565  30.038  1.00  0.00    -0.248 NA
ATOM     44  C   UNL A   1      40.473  31.141  30.149  1.00  0.00     0.031 C 
ATOM     45  C   UNL A   1      39.404  26.701  28.025  1.00  0.00     0.029 A 
ATOM     46  N   UNL A   1      41.479  27.000  28.801  1.00  0.00    -0.354 N 
ATOM     47  C   UNL A   1      42.675  30.738  30.604  1.00  0.00     0.074 A 
ATOM     48  C   UNL A   1      41.594  31.697  30.584  1.00  0.00     0.031 C 
ATOM     49  C   UNL A   1      40.084  25.566  27.802  1.00  0.00     0.029 A 
ATOM     50  C   UNL A   1      41.452  25.728  28.284  1.00  0.00     0.049 A 
ATOM     51  H   UNL A   1      42.283  27.401  29.206  1.00  0.00     0.167 HD
ATOM     52  C   UNL A   1      43.903  30.989  31.119  1.00  0.00     0.031 A 
ATOM     53  C   UNL A   1      42.422  24.797  28.206  1.00  0.00     0.031 A 
ATOM     54  C   UNL A   1      44.976  30.033  31.147  1.00  0.00     0.049 A 
ATOM     55  C   UNL A   1      43.782  25.107  28.770  1.00  0.00     0.074 A 
ATOM     56  C   UNL A   1      46.243  30.174  31.685  1.00  0.00     0.029 A 
ATOM     57  N   UNL A   1      44.909  28.756  30.611  1.00  0.00    -0.354 N 
ATOM     58  N   UNL A   1      44.204  26.200  29.360  1.00  0.00    -0.248 NA
ATOM     59  C   UNL A   1      44.793  24.047  28.671  1.00  0.00     0.031 C 
ATOM     60  C   UNL A   1      46.960  29.002  31.427  1.00  0.00     0.029 A 
ATOM     61  C   UNL A   1      46.118  28.106  30.788  1.00  0.00     0.049 A 
ATOM     62  H   UNL A   1      44.118  28.369  30.170  1.00  0.00     0.167 HD
ATOM     63  C   UNL A   1      45.516  25.944  29.736  1.00  0.00     0.074 A 
ATOM     64  C   UNL A   1      45.814  24.589  29.321  1.00  0.00     0.031 C 
ATOM     65  C   UNL A   1      46.396  26.755  30.372  1.00  0.00     0.031 A 
BRANCH  52  66
ATOM     66  C   UNL A   1      44.147  32.360  31.689  1.00  0.00    -0.014 A 
ATOM     67  C   UNL A   1      43.767  32.683  33.002  1.00  0.00     0.009 A 
ATOM     68  C   UNL A   1      44.796  33.333  30.914  1.00  0.00     0.009 A 
ATOM     69  C   UNL A   1      43.996  33.962  33.512  1.00  0.00     0.001 A 
ATOM     70  C   UNL A   1      45.054  34.602  31.438  1.00  0.00     0.001 A 
ATOM     71  C   UNL A   1      44.644  34.918  32.732  1.00  0.00     0.000 A 
ENDBRANCH  52  66
BRANCH  53  72
ATOM     72  C   UNL A   1      42.142  23.473  27.591  1.00  0.00    -0.014 A 
ATOM     73  C   UNL A   1      41.565  22.442  28.347  1.00  0.00     0.009 A 
ATOM     74  C   UNL A   1      42.468  23.227  26.248  1.00  0.00     0.009 A 
ATOM     75  C   UNL A   1      41.353  21.181  27.783  1.00  0.00     0.001 A 
ATOM     76  C   UNL A   1      42.225  21.976  25.677  1.00  0.00     0.001 A 
ATOM     77  C   UNL A   1      41.680  20.951  26.448  1.00  0.00     0.000 A 
ENDBRANCH  53  72
BRANCH  65  78
ATOM     78  C   UNL A   1      47.745  26.180  30.705  1.00  0.00    -0.014 A 
ATOM     79  C   UNL A   1      48.036  25.679  31.983  1.00  0.00     0.009 A 
ATOM     80  C   UNL A   1      48.732  26.115  29.708  1.00  0.00     0.009 A 
ATOM     81  C   UNL A   1      49.303  25.163  32.266  1.00  0.00     0.001 A 
ATOM     82  C   UNL A   1      49.985  25.567  29.984  1.00  0.00     0.001 A 
ATOM     83  C   UNL A   1      50.274  25.103  31.266  1.00  0.00     0.000 A 
ENDBRANCH  65  78
ENDBRANCH  39  40
ENDBRANCH  31  34
ENDBRANCH  29  30
ENDBRANCH  28  29
ENDBRANCH  27  28
ENDBRANCH  26  27
ENDBRANCH   1  26
TORSDOF 20
ENDMDL
MODEL 2
REMARK VINA RESULT:     -10.2      3.820      5.903
REMARK SMILES [NH3+][C@](CCC[P@TB4](=O)([O-])[O-])(Cc1ccccc1)C(=O)NCCCCCCNC(=O)c1ccc(-c2c3nc(c(-c4ccccc4)c4ccc([nH]4)c(-c4ccccc4)c4nc(c(-c5ccccc5)c5ccc2[nH]5)C=C4)C=C3)cc1
REMARK SMILES IDX 21 1 20 2 19 3 17 4 18 5 2 7 1 8 10 12 11 13 12 14 16 15
REMARK SMILES IDX 13 16 15 17 14 18 3 19 4 20 5 21 6 22 7 23 8 24 9 25 22 26
REMARK SMILES IDX 23 27 24 28 25 29 26 30 27 31 28 33 29 34 30 35 76 36 31 37
REMARK SMILES IDX 75 38 32 39 33 40 34 41 69 42 35 43 74 44 68 45 70 46 36 47
REMARK SMILES IDX 73 48 67 49 66 50 37 52 59 53 44 54 58 55 45 56 48 57 57 58
REMARK SMILES IDX 71 59 46 60 47 61 56 63 72 64 49 65 38 66 39 67 43 68 40 69
REMARK SMILES IDX 42 70 41 71 60 72 61 73 65 74 62 75 64 76 63 77 50 78 51 79
REMARK SMILES IDX 55 80 52 81 54 82 53 83
REMARK H PARENT 19 6 1 9 1 10 1 11 26 32 70 51 48 62
REMARK Flexibility Score: inf
ROOT
ATOM      1  C   UNL A   1      32.820  28.535  27.163  1.00  0.00       nan C 
ENDROOT
BRANCH   1   2
ATOM      2  C   UNL A   1      31.416  27.950  27.161  1.00  0.00       nan C 
BRANCH   2   3
ATOM      3  N   UNL A   1      31.517  26.523  27.013  1.00  0.00       nan N 
ATOM      4  C   UNL A   1      31.249  25.747  25.940  1.00  0.00       nan C 
ATOM      5  O   UNL A   1      31.046  24.559  26.216  1.00  0.00       nan OA
ATOM      6  H   UNL A   1      31.827  26.040  27.812  1.00  0.00       nan HD
BRANCH   4   7
ATOM      7  C   UNL A   1      31.342  26.242  24.466  1.00  0.00       nan C 
BRANCH   7   8
ATOM      8  N   UNL A   1      30.896  25.237  23.453  1.00  0.00       nan N 
ATOM      9  H   UNL A   1      31.215  24.309  23.731  1.00  0.00       nan HD
ATOM     10  H   UNL A   1      31.292  25.474  22.543  1.00  0.00       nan HD
ATOM     11  H   UNL A   1      29.878  25.244  23.393  1.00  0.00       nan HD
ENDBRANCH   7   8
BRANCH   7  12
ATOM     12  C   UNL A   1      32.813  26.573  24.108  1.00  0.00       nan C 
BRANCH  12  13
ATOM     13  C   UNL A   1      33.821  25.458  24.241  1.00  0.00       nan A 
ATOM     14  C   UNL A   1      34.543  25.272  25.425  1.00  0.00       nan A 
ATOM     15  C   UNL A   1      34.035  24.578  23.171  1.00  0.00       nan A 
ATOM     16  C   UNL A   1      35.439  24.209  25.547  1.00  0.00       nan A 
ATOM     17  C   UNL A   1      34.936  23.521  23.290  1.00  0.00       nan A 
ATOM     18  C   UNL A   1      35.634  23.334  24.480  1.00  0.00       nan A 
ENDBRANCH  12  13
ENDBRANCH   7  12
BRANCH   7  19
ATOM     19  C   UNL A   1      30.388  27.462  24.356  1.00  0.00       nan C 
BRANCH  19  20
ATOM     20  C   UNL A   1      29.890  27.785  22.934  1.00  0.00       nan C 
BRANCH  20  21
ATOM     21  C   UNL A   1      28.590  28.589  22.799  1.00  0.00       nan C 
BRANCH  21  22
ATOM     22  P   UNL A   1      28.618  30.378  22.419  1.00  0.00       nan P 
ATOM     23  O   UNL A   1      28.080  30.149  21.002  1.00  0.00       nan OA
ATOM     24  O   UNL A   1      27.238  30.629  23.265  1.00  0.00       nan OA
ATOM     25  O   UNL A   1      28.646  32.070  22.059  1.00  0.00       nan OA
ENDBRANCH  21  22
ENDBRANCH  20  21
ENDBRANCH  19  20
ENDBRANCH   7  19
ENDBRANCH   4   7
ENDBRANCH   2   3
ENDBRANCH   1   2
BRANCH   1  26
ATOM     26  C   UNL A   1      32.904  29.943  26.559  1.00  0.00       nan C 
BRANCH  26  27
ATOM     27  C   UNL A   1      31.554  30.588  26.231  1.00  0.00       nan C 
BRANCH  27  28
ATOM     28  C   UNL A   1      31.390  32.020  26.742  1.00  0.00       nan C 
BRANCH  28  29
ATOM     29  C   UNL A   1      32.699  32.711  27.092  1.00  0.00       inf C 
BRANCH  29  30
ATOM     30  N   UNL A   1      32.483  33.994  27.731  1.00  0.00    -0.352 N 
ATOM     31  C   UNL A   1      33.214  34.574  28.732  1.00  0.00     0.251 C 
ATOM     32  H   UNL A   1      31.713  34.513  27.404  1.00  0.00     0.163 HD
ATOM     33  O   UNL A   1      32.800  35.580  29.306  1.00  0.00    -0.269 OA
BRANCH  31  34
ATOM     34  C   UNL A   1      34.498  33.967  29.136  1.00  0.00     0.039 A 
ATOM     35  C   UNL A   1      34.501  33.027  30.167  1.00  0.00     0.014 A 
ATOM     36  C   UNL A   1      35.691  34.321  28.497  1.00  0.00     0.014 A 
ATOM     37  C   UNL A   1      35.700  32.419  30.540  1.00  0.00     0.010 A 
ATOM     38  C   UNL A   1      36.870  33.652  28.813  1.00  0.00     0.010 A 
ATOM     39  C   UNL A   1      36.891  32.713  29.854  1.00  0.00    -0.014 A 
BRANCH  39  40
ATOM     40  C   UNL A   1      38.172  32.074  30.244  1.00  0.00     0.031 A 
ATOM     41  C   UNL A   1      39.077  32.753  31.237  1.00  0.00     0.074 A 
ATOM     42  C   UNL A   1      38.534  30.903  29.687  1.00  0.00     0.049 A 
ATOM     43  N   UNL A   1      40.240  32.364  31.694  1.00  0.00    -0.248 NA
ATOM     44  C   UNL A   1      38.629  34.052  31.767  1.00  0.00     0.031 C 
ATOM     45  C   UNL A   1      37.761  30.163  28.687  1.00  0.00     0.029 A 
ATOM     46  N   UNL A   1      39.647  30.127  29.887  1.00  0.00    -0.354 N 
ATOM     47  C   UNL A   1      40.665  33.371  32.551  1.00  0.00     0.074 A 
ATOM     48  C   UNL A   1      39.668  34.417  32.505  1.00  0.00     0.031 C 
ATOM     49  C   UNL A   1      38.405  29.024  28.391  1.00  0.00     0.029 A 
ATOM     50  C   UNL A   1      39.653  28.971  29.146  1.00  0.00     0.049 A 
ATOM     51  H   UNL A   1      40.373  30.376  30.505  1.00  0.00     0.167 HD
ATOM     52  C   UNL A   1      41.773  33.414  33.328  1.00  0.00     0.031 A 
ATOM     53  C   UNL A   1      40.562  27.980  29.082  1.00  0.00     0.031 A 
ATOM     54  C   UNL A   1      42.761  32.370  33.381  1.00  0.00     0.049 A 
ATOM     55  C   UNL A   1      41.794  28.060  29.943  1.00  0.00     0.074 A 
ATOM     56  C   UNL A   1      43.896  32.297  34.168  1.00  0.00     0.029 A 
ATOM     57  N   UNL A   1      42.730  31.216  32.613  1.00  0.00    -0.354 N 
ATOM     58  N   UNL A   1      42.149  28.990  30.796  1.00  0.00    -0.248 NA
ATOM     59  C   UNL A   1      42.740  26.941  29.842  1.00  0.00     0.031 C 
ATOM     60  C   UNL A   1      44.582  31.124  33.838  1.00  0.00     0.029 A 
ATOM     61  C   UNL A   1      43.838  30.434  32.894  1.00  0.00     0.049 A 
ATOM     62  H   UNL A   1      42.025  30.986  31.966  1.00  0.00     0.167 HD
ATOM     63  C   UNL A   1      43.339  28.551  31.361  1.00  0.00     0.074 A 
ATOM     64  C   UNL A   1      43.636  27.265  30.764  1.00  0.00     0.031 C 
ATOM     65  C   UNL A   1      44.116  29.155  32.293  1.00  0.00     0.031 A 
BRANCH  52  66
ATOM     66  C   UNL A   1      41.975  34.637  34.180  1.00  0.00    -0.014 A 
ATOM     67  C   UNL A   1      42.563  35.801  33.660  1.00  0.00     0.009 A 
ATOM     68  C   UNL A   1      41.543  34.637  35.516  1.00  0.00     0.009 A 
ATOM     69  C   UNL A   1      42.749  36.924  34.468  1.00  0.00     0.001 A 
ATOM     70  C   UNL A   1      41.699  35.773  36.313  1.00  0.00     0.001 A 
ATOM     71  C   UNL A   1      42.312  36.911  35.791  1.00  0.00     0.000 A 
ENDBRANCH  52  66
BRANCH  53  72
ATOM     72  C   UNL A   1      40.337  26.813  28.188  1.00  0.00    -0.014 A 
ATOM     73  C   UNL A   1      40.820  26.820  26.871  1.00  0.00     0.009 A 
ATOM     74  C   UNL A   1      39.623  25.694  28.643  1.00  0.00     0.009 A 
ATOM     75  C   UNL A   1      40.560  25.747  26.015  1.00  0.00     0.001 A 
ATOM     76  C   UNL A   1      39.393  24.608  27.796  1.00  0.00     0.001 A 
ATOM     77  C   UNL A   1      39.851  24.641  26.480  1.00  0.00     0.000 A 
ENDBRANCH  53  72
BRANCH  65  78
ATOM     78  C   UNL A   1      45.332  28.406  32.764  1.00  0.00    -0.014 A 
ATOM     79  C   UNL A   1      46.585  28.581  32.157  1.00  0.00     0.009 A 
ATOM     80  C   UNL A   1      45.223  27.533  33.859  1.00  0.00     0.009 A 
ATOM     81  C   UNL A   1      47.694  27.861  32.608  1.00  0.00     0.001 A 
ATOM     82  C   UNL A   1      46.340  26.842  34.330  1.00  0.00     0.001 A 
ATOM     83  C   UNL A   1      47.572  26.997  33.696  1.00  0.00     0.000 A 
ENDBRANCH  65  78
ENDBRANCH  39  40
ENDBRANCH  31  34
ENDBRANCH  29  30
ENDBRANCH  28  29
ENDBRANCH  27  28
ENDBRANCH  26  27
ENDBRANCH   1  26
TORSDOF 20
ENDMDL
MODEL 3
REMARK VINA RESULT:      -9.9      3.866      5.546
REMARK SMILES [NH3+][C@](CCC[P@TB4](=O)([O-])[O-])(Cc1ccccc1)C(=O)NCCCCCCNC(=O)c1ccc(-c2c3nc(c(-c4ccccc4)c4ccc([nH]4)c(-c4ccccc4)c4nc(c(-c5ccccc5)c5ccc2[nH]5)C=C4)C=C3)cc1
REMARK SMILES IDX 21 1 20 2 19 3 17 4 18 5 2 7 1 8 10 12 11 13 12 14 16 15
REMARK SMILES IDX 13 16 15 17 14 18 3 19 4 20 5 21 6 22 7 23 8 24 9 25 22 26
REMARK SMILES IDX 23 27 24 28 25 29 26 30 27 31 28 33 29 34 30 35 76 36 31 37
REMARK SMILES IDX 75 38 32 39 33 40 34 41 69 42 35 43 74 44 68 45 70 46 36 47
REMARK SMILES IDX 73 48 67 49 66 50 37 52 59 53 44 54 58 55 45 56 48 57 57 58
REMARK SMILES IDX 71 59 46 60 47 61 56 63 72 64 49 65 38 66 39 67 43 68 40 69
REMARK SMILES IDX 42 70 41 71 60 72 61 73 65 74 62 75 64 76 63 77 50 78 51 79
REMARK SMILES IDX 55 80 52 81 54 82 53 83
REMARK H PARENT 19 6 1 9 1 10 1 11 26 32 70 51 48 62
REMARK Flexibility Score: inf
ROOT
ATOM      1  C   UNL A   1      33.654  29.503  26.120  1.00  0.00       nan C 
ENDROOT
BRANCH   1   2
ATOM      2  C   UNL A   1      33.353  28.179  25.433  1.00  0.00       nan C 
BRANCH   2   3
ATOM      3  N   UNL A   1      33.696  28.299  24.042  1.00  0.00       nan N 
ATOM      4  C   UNL A   1      33.348  27.518  22.996  1.00  0.00       nan C 
ATOM      5  O   UNL A   1      34.094  27.625  22.016  1.00  0.00       nan OA
ATOM      6  H   UNL A   1      34.272  29.066  23.818  1.00  0.00       nan HD
BRANCH   4   7
ATOM      7  C   UNL A   1      32.041  26.671  22.943  1.00  0.00       nan C 
BRANCH   7   8
ATOM      8  N   UNL A   1      31.342  26.706  21.623  1.00  0.00       nan N 
ATOM      9  H   UNL A   1      31.902  27.238  20.956  1.00  0.00       nan HD
ATOM     10  H   UNL A   1      30.431  27.150  21.733  1.00  0.00       nan HD
ATOM     11  H   UNL A   1      31.217  25.754  21.280  1.00  0.00       nan HD
ENDBRANCH   7   8
BRANCH   7  12
ATOM     12  C   UNL A   1      31.017  27.211  23.974  1.00  0.00       nan C 
BRANCH  12  13
ATOM     13  C   UNL A   1      29.954  28.150  23.461  1.00  0.00       nan A 
ATOM     14  C   UNL A   1      30.277  29.436  23.015  1.00  0.00       nan A 
ATOM     15  C   UNL A   1      28.617  27.731  23.411  1.00  0.00       nan A 
ATOM     16  C   UNL A   1      29.288  30.276  22.503  1.00  0.00       nan A 
ATOM     17  C   UNL A   1      27.627  28.573  22.906  1.00  0.00       nan A 
ATOM     18  C   UNL A   1      27.964  29.844  22.447  1.00  0.00       nan A 
ENDBRANCH  12  13
ENDBRANCH   7  12
BRANCH   7  19
ATOM     19  C   UNL A   1      32.465  25.200  23.203  1.00  0.00       nan C 
BRANCH  19  20
ATOM     20  C   UNL A   1      33.459  24.994  24.362  1.00  0.00       nan C 
BRANCH  20  21
ATOM     21  C   UNL A   1      33.016  24.110  25.534  1.00  0.00       nan C 
BRANCH  21  22
ATOM     22  P   UNL A   1      31.323  24.224  26.219  1.00  0.00       nan P 
ATOM     23  O   UNL A   1      31.635  23.208  27.325  1.00  0.00       nan OA
ATOM     24  O   UNL A   1      31.666  25.643  26.962  1.00  0.00       nan OA
ATOM     25  O   UNL A   1      29.722  24.330  26.866  1.00  0.00       nan OA
ENDBRANCH  21  22
ENDBRANCH  20  21
ENDBRANCH  19  20
ENDBRANCH   7  19
ENDBRANCH   4   7
ENDBRANCH   2   3
ENDBRANCH   1   2
BRANCH   1  26
ATOM     26  C   UNL A   1      32.507  30.018  26.998  1.00  0.00       nan C 
BRANCH  26  27
ATOM     27  C   UNL A   1      31.407  30.776  26.249  1.00  0.00       nan C 
BRANCH  27  28
ATOM     28  C   UNL A   1      31.359  32.277  26.532  1.00  0.00       nan C 
BRANCH  28  29
ATOM     29  C   UNL A   1      32.655  32.850  27.084  1.00  0.00       inf C 
BRANCH  29  30
ATOM     30  N   UNL A   1      32.465  34.162  27.670  1.00  0.00    -0.352 N 
ATOM     31  C   UNL A   1      33.134  34.722  28.724  1.00  0.00     0.251 C 
ATOM     32  H   UNL A   1      31.766  34.720  27.258  1.00  0.00     0.163 HD
ATOM     33  O   UNL A   1      32.735  35.770  29.231  1.00  0.00    -0.269 OA
BRANCH  31  34
ATOM     34  C   UNL A   1      34.330  34.046  29.265  1.00  0.00     0.039 A 
ATOM     35  C   UNL A   1      34.156  32.993  30.164  1.00  0.00     0.014 A 
ATOM     36  C   UNL A   1      35.615  34.447  28.883  1.00  0.00     0.014 A 
ATOM     37  C   UNL A   1      35.274  32.321  30.660  1.00  0.00     0.010 A 
ATOM     38  C   UNL A   1      36.722  33.722  29.313  1.00  0.00     0.010 A 
ATOM     39  C   UNL A   1      36.564  32.668  30.225  1.00  0.00    -0.014 A 
BRANCH  39  40
ATOM     40  C   UNL A   1      37.759  31.962  30.748  1.00  0.00     0.031 A 
ATOM     41  C   UNL A   1      38.312  32.323  32.101  1.00  0.00     0.074 A 
ATOM     42  C   UNL A   1      38.364  31.021  29.998  1.00  0.00     0.049 A 
ATOM     43  N   UNL A   1      39.352  31.832  32.726  1.00  0.00    -0.248 NA
ATOM     44  C   UNL A   1      37.619  33.392  32.840  1.00  0.00     0.031 C 
ATOM     45  C   UNL A   1      37.947  30.606  28.657  1.00  0.00     0.029 A 
ATOM     46  N   UNL A   1      39.459  30.239  30.262  1.00  0.00    -0.354 N 
ATOM     47  C   UNL A   1      39.444  32.539  33.918  1.00  0.00     0.074 A 
ATOM     48  C   UNL A   1      38.395  33.533  33.904  1.00  0.00     0.031 C 
ATOM     49  C   UNL A   1      38.753  29.621  28.232  1.00  0.00     0.029 A 
ATOM     50  C   UNL A   1      39.766  29.362  29.251  1.00  0.00     0.049 A 
ATOM     51  H   UNL A   1      39.976  30.300  31.099  1.00  0.00     0.167 HD
ATOM     52  C   UNL A   1      40.309  32.362  34.945  1.00  0.00     0.031 A 
ATOM     53  C   UNL A   1      40.753  28.452  29.155  1.00  0.00     0.031 A 
ATOM     54  C   UNL A   1      41.347  31.367  34.963  1.00  0.00     0.049 A 
ATOM     55  C   UNL A   1      41.711  28.286  30.303  1.00  0.00     0.074 A 
ATOM     56  C   UNL A   1      42.246  31.077  35.973  1.00  0.00     0.029 A 
ATOM     57  N   UNL A   1      41.625  30.500  33.918  1.00  0.00    -0.354 N 
ATOM     58  N   UNL A   1      41.745  28.921  31.450  1.00  0.00    -0.248 NA
ATOM     59  C   UNL A   1      42.757  27.266  30.147  1.00  0.00     0.031 C 
ATOM     60  C   UNL A   1      43.104  30.071  35.519  1.00  0.00     0.029 A 
ATOM     61  C   UNL A   1      42.696  29.688  34.251  1.00  0.00     0.049 A 
ATOM     62  H   UNL A   1      41.134  30.466  33.065  1.00  0.00     0.167 HD
ATOM     63  C   UNL A   1      42.790  28.350  32.167  1.00  0.00     0.074 A 
ATOM     64  C   UNL A   1      43.352  27.310  31.330  1.00  0.00     0.031 C 
ATOM     65  C   UNL A   1      43.241  28.655  33.408  1.00  0.00     0.031 A 
BRANCH  52  66
ATOM     66  C   UNL A   1      40.167  33.272  36.134  1.00  0.00    -0.014 A 
ATOM     67  C   UNL A   1      39.323  32.945  37.208  1.00  0.00     0.009 A 
ATOM     68  C   UNL A   1      40.912  34.460  36.198  1.00  0.00     0.009 A 
ATOM     69  C   UNL A   1      39.199  33.805  38.301  1.00  0.00     0.001 A 
ATOM     70  C   UNL A   1      40.811  35.303  37.307  1.00  0.00     0.001 A 
ATOM     71  C   UNL A   1      39.947  34.980  38.352  1.00  0.00     0.000 A 
ENDBRANCH  52  66
BRANCH  53  72
ATOM     72  C   UNL A   1      40.878  27.607  27.937  1.00  0.00    -0.014 A 
ATOM     73  C   UNL A   1      40.243  26.358  27.867  1.00  0.00     0.009 A 
ATOM     74  C   UNL A   1      41.649  28.038  26.846  1.00  0.00     0.009 A 
ATOM     75  C   UNL A   1      40.407  25.541  26.744  1.00  0.00     0.001 A 
ATOM     76  C   UNL A   1      41.784  27.235  25.712  1.00  0.00     0.001 A 
ATOM     77  C   UNL A   1      41.174  25.983  25.667  1.00  0.00     0.000 A 
ENDBRANCH  53  72
BRANCH  65  78
ATOM     78  C   UNL A   1      44.364  27.819  33.957  1.00  0.00    -0.014 A 
ATOM     79  C   UNL A   1      44.122  26.619  34.642  1.00  0.00     0.009 A 
ATOM     80  C   UNL A   1      45.692  28.231  33.754  1.00  0.00     0.009 A 
ATOM     81  C   UNL A   1      45.185  25.871  35.152  1.00  0.00     0.001 A 
ATOM     82  C   UNL A   1      46.754  27.463  34.234  1.00  0.00     0.001 A 
ATOM     83  C   UNL A   1      46.499  26.291  34.943  1.00  0.00     0.000 A 
ENDBRANCH  65  78
ENDBRANCH  39  40
ENDBRANCH  31  34
ENDBRANCH  29  30
ENDBRANCH  28  29
ENDBRANCH  27  28
ENDBRANCH  26  27
ENDBRANCH   1  26
TORSDOF 20
ENDMDL
