MODEL 1
REMARK VINA RESULT:     -11.7      0.000      0.000
REMARK SMILES Cc1c[nH]c(C[N@@H+](C)[C@@H](C(=O)NCCCCCCNC(=O)c2ccc(-c3c4nc(c(-c5ccccc5)c5ccc([nH]5)c(-c5ccccc5)c5nc(c(-c6ccccc6)c6ccc3[nH]6)C=C5)C=C4)cc2)c2ccc(NC(=O)N3CCCC3)cc2)n1
REMARK SMILES IDX 15 1 14 2 13 3 12 4 10 5 11 6 9 8 7 9 8 10 6 12 5 13 1 14
REMARK SMILES IDX 2 15 3 16 84 17 4 18 70 20 71 21 83 22 72 23 82 24 73 25
REMARK SMILES IDX 74 26 75 27 76 29 77 30 78 31 81 32 79 33 80 34 16 35 17 36
REMARK SMILES IDX 18 37 19 38 20 39 21 41 22 42 23 43 69 44 24 45 68 46 25 47
REMARK SMILES IDX 26 48 27 49 62 50 28 51 67 52 61 53 63 54 29 55 66 56 60 57
REMARK SMILES IDX 59 58 30 60 52 61 37 62 51 63 38 64 41 65 50 66 64 67 39 68
REMARK SMILES IDX 40 69 49 71 65 72 42 73 31 74 32 75 36 76 33 77 35 78 34 79
REMARK SMILES IDX 53 80 54 81 58 82 55 83 57 84 56 85 43 86 44 87 48 88 45 89
REMARK SMILES IDX 47 90 46 91
REMARK H PARENT 12 7 7 11 4 19 74 28 19 40 63 59 41 70
REMARK Flexibility Score: inf
ROOT
ATOM      1  C   UNL A   1      36.864  21.883  25.717  1.00  0.00     0.002 C 
ENDROOT
BRANCH   1   2
ATOM      2  C   UNL A   1      37.174  23.385  25.661  1.00  0.00     0.021 C 
BRANCH   2   3
ATOM      3  C   UNL A   1      35.931  24.263  25.492  1.00  0.00     0.116 C 
BRANCH   3   4
ATOM      4  N   UNL A   1      35.288  23.936  24.238  1.00  0.00    -0.351 N 
ATOM      5  C   UNL A   1      34.088  23.309  24.053  1.00  0.00     0.283 C 
ATOM      6  O   UNL A   1      33.960  22.658  23.008  1.00  0.00    -0.268 OA
ATOM      7  H   UNL A   1      35.773  24.196  23.421  1.00  0.00     0.163 HD
BRANCH   5   8
ATOM      8  C   UNL A   1      32.940  23.477  25.106  1.00  0.00     0.305 C 
BRANCH   8   9
ATOM      9  N   UNL A   1      32.271  22.179  25.404  1.00  0.00    -0.317 N 
ATOM     10  C   UNL A   1      30.888  22.269  25.825  1.00  0.00     0.334 C 
ATOM     11  H   UNL A   1      32.262  21.788  24.462  1.00  0.00     0.349 HD
BRANCH   9  12
ATOM     12  C   UNL A   1      33.025  21.187  26.187  1.00  0.00     0.339 C 
BRANCH  12  13
ATOM     13  C   UNL A   1      32.955  19.806  25.619  1.00  0.00     0.161 A 
ATOM     14  C   UNL A   1      33.176  17.368  23.046  1.00  0.00     0.068 C 
ATOM     15  C   UNL A   1      32.974  18.094  24.317  1.00  0.00     0.056 A 
ATOM     16  C   UNL A   1      32.803  17.598  25.589  1.00  0.00     0.107 A 
ATOM     17  N   UNL A   1      32.990  19.467  24.343  1.00  0.00    -0.233 NA
ATOM     18  N   UNL A   1      32.831  18.691  26.411  1.00  0.00    -0.344 N 
ATOM     19  H   UNL A   1      32.771  18.681  27.393  1.00  0.00     0.167 HD
ENDBRANCH  12  13
ENDBRANCH   9  12
ENDBRANCH   8   9
BRANCH   8  20
ATOM     20  C   UNL A   1      31.936  24.564  24.680  1.00  0.00     0.019 A 
ATOM     21  C   UNL A   1      31.153  25.257  25.612  1.00  0.00     0.012 A 
ATOM     22  C   UNL A   1      31.791  24.916  23.330  1.00  0.00     0.012 A 
ATOM     23  C   UNL A   1      30.493  26.429  25.246  1.00  0.00     0.027 A 
ATOM     24  C   UNL A   1      31.147  26.101  22.969  1.00  0.00     0.027 A 
ATOM     25  C   UNL A   1      30.628  26.933  23.956  1.00  0.00     0.042 A 
BRANCH  25  26
ATOM     26  N   UNL A   1      30.303  28.255  23.610  1.00  0.00    -0.308 N 
ATOM     27  C   UNL A   1      30.632  29.438  24.202  1.00  0.00     0.321 C 
ATOM     28  H   UNL A   1      29.744  28.341  22.804  1.00  0.00     0.171 HD
ATOM     29  O   UNL A   1      29.904  30.414  24.009  1.00  0.00    -0.248 OA
ATOM     30  N   UNL A   1      31.753  29.529  24.978  1.00  0.00    -0.325 N 
ATOM     31  C   UNL A   1      33.063  28.964  24.712  1.00  0.00     0.121 C 
ATOM     32  C   UNL A   1      31.870  30.543  26.000  1.00  0.00     0.121 C 
ATOM     33  C   UNL A   1      33.715  28.948  26.081  1.00  0.00     0.023 C 
ATOM     34  C   UNL A   1      33.136  30.182  26.777  1.00  0.00     0.023 C 
ENDBRANCH  25  26
ENDBRANCH   8  20
ENDBRANCH   5   8
ENDBRANCH   3   4
ENDBRANCH   2   3
ENDBRANCH   1   2
BRANCH   1  35
ATOM     35  C   UNL A   1      37.303  21.094  24.481  1.00  0.00     0.002 C 
BRANCH  35  36
ATOM     36  C   UNL A   1      38.125  19.838  24.781  1.00  0.00     0.021 C 
BRANCH  36  37
ATOM     37  C   UNL A   1      38.986  19.935  26.036  1.00  0.00     0.116 C 
BRANCH  37  38
ATOM     38  N   UNL A   1      40.215  19.168  25.910  1.00  0.00    -0.352 N 
ATOM     39  C   UNL A   1      41.515  19.593  26.006  1.00  0.00     0.251 C 
ATOM     40  H   UNL A   1      40.095  18.207  25.731  1.00  0.00     0.163 HD
ATOM     41  O   UNL A   1      42.434  18.862  25.653  1.00  0.00    -0.269 OA
BRANCH  39  42
ATOM     42  C   UNL A   1      41.803  20.946  26.524  1.00  0.00     0.039 A 
ATOM     43  C   UNL A   1      41.854  21.145  27.906  1.00  0.00     0.014 A 
ATOM     44  C   UNL A   1      42.016  22.013  25.647  1.00  0.00     0.014 A 
ATOM     45  C   UNL A   1      42.172  22.407  28.408  1.00  0.00     0.010 A 
ATOM     46  C   UNL A   1      42.402  23.253  26.149  1.00  0.00     0.010 A 
ATOM     47  C   UNL A   1      42.478  23.463  27.533  1.00  0.00    -0.014 A 
BRANCH  47  48
ATOM     48  C   UNL A   1      42.876  24.796  28.051  1.00  0.00     0.031 A 
ATOM     49  C   UNL A   1      41.836  25.853  28.296  1.00  0.00     0.074 A 
ATOM     50  C   UNL A   1      44.180  25.071  28.246  1.00  0.00     0.049 A 
ATOM     51  N   UNL A   1      41.996  27.088  28.701  1.00  0.00    -0.248 NA
ATOM     52  C   UNL A   1      40.437  25.483  28.031  1.00  0.00     0.031 C 
ATOM     53  C   UNL A   1      45.289  24.144  28.009  1.00  0.00     0.029 A 
ATOM     54  N   UNL A   1      44.794  26.218  28.684  1.00  0.00    -0.354 N 
ATOM     55  C   UNL A   1      40.722  27.644  28.725  1.00  0.00     0.074 A 
ATOM     56  C   UNL A   1      39.808  26.631  28.246  1.00  0.00     0.031 C 
ATOM     57  C   UNL A   1      46.444  24.749  28.331  1.00  0.00     0.029 A 
ATOM     58  C   UNL A   1      46.162  26.116  28.758  1.00  0.00     0.049 A 
ATOM     59  H   UNL A   1      44.301  27.035  28.924  1.00  0.00     0.167 HD
ATOM     60  C   UNL A   1      40.345  28.880  29.127  1.00  0.00     0.031 A 
ATOM     61  C   UNL A   1      47.087  27.023  29.122  1.00  0.00     0.031 A 
ATOM     62  C   UNL A   1      41.252  29.886  29.613  1.00  0.00     0.049 A 
ATOM     63  C   UNL A   1      46.644  28.396  29.544  1.00  0.00     0.074 A 
ATOM     64  C   UNL A   1      40.960  31.148  30.098  1.00  0.00     0.029 A 
ATOM     65  N   UNL A   1      42.629  29.743  29.669  1.00  0.00    -0.354 N 
ATOM     66  N   UNL A   1      45.429  28.882  29.629  1.00  0.00    -0.248 NA
ATOM     67  C   UNL A   1      47.700  29.342  29.930  1.00  0.00     0.031 C 
ATOM     68  C   UNL A   1      42.165  31.790  30.400  1.00  0.00     0.029 A 
ATOM     69  C   UNL A   1      43.204  30.906  30.155  1.00  0.00     0.049 A 
ATOM     70  H   UNL A   1      43.126  28.935  29.404  1.00  0.00     0.167 HD
ATOM     71  C   UNL A   1      45.572  30.180  30.100  1.00  0.00     0.074 A 
ATOM     72  C   UNL A   1      46.990  30.399  30.301  1.00  0.00     0.031 C 
ATOM     73  C   UNL A   1      44.616  31.109  30.346  1.00  0.00     0.031 A 
BRANCH  60  74
ATOM     74  C   UNL A   1      38.881  29.216  29.053  1.00  0.00    -0.014 A 
ATOM     75  C   UNL A   1      38.305  29.697  27.866  1.00  0.00     0.009 A 
ATOM     76  C   UNL A   1      38.059  29.014  30.172  1.00  0.00     0.009 A 
ATOM     77  C   UNL A   1      36.943  30.003  27.813  1.00  0.00     0.001 A 
ATOM     78  C   UNL A   1      36.693  29.294  30.108  1.00  0.00     0.001 A 
ATOM     79  C   UNL A   1      36.138  29.796  28.932  1.00  0.00     0.000 A 
ENDBRANCH  60  74
BRANCH  61  80
ATOM     80  C   UNL A   1      48.530  26.663  29.115  1.00  0.00    -0.014 A 
ATOM     81  C   UNL A   1      49.123  26.077  30.243  1.00  0.00     0.009 A 
ATOM     82  C   UNL A   1      49.322  26.913  27.983  1.00  0.00     0.009 A 
ATOM     83  C   UNL A   1      50.487  25.775  30.249  1.00  0.00     0.001 A 
ATOM     84  C   UNL A   1      50.680  26.584  27.982  1.00  0.00     0.001 A 
ATOM     85  C   UNL A   1      51.263  26.025  29.118  1.00  0.00     0.000 A 
ENDBRANCH  61  80
BRANCH  73  86
ATOM     86  C   UNL A   1      45.070  32.436  30.883  1.00  0.00    -0.014 A 
ATOM     87  C   UNL A   1      45.396  33.496  30.025  1.00  0.00     0.009 A 
ATOM     88  C   UNL A   1      45.130  32.640  32.271  1.00  0.00     0.009 A 
ATOM     89  C   UNL A   1      45.804  34.726  30.546  1.00  0.00     0.001 A 
ATOM     90  C   UNL A   1      45.509  33.878  32.789  1.00  0.00     0.001 A 
ATOM     91  C   UNL A   1      45.854  34.917  31.927  1.00  0.00     0.000 A 
ENDBRANCH  73  86
ENDBRANCH  47  48
ENDBRANCH  39  42
ENDBRANCH  37  38
ENDBRANCH  36  37
ENDBRANCH  35  36
ENDBRANCH   1  35
TORSDOF 18
ENDMDL
MODEL 2
REMARK VINA RESULT:     -11.6      0.852      5.676
REMARK SMILES Cc1c[nH]c(C[N@@H+](C)[C@@H](C(=O)NCCCCCCNC(=O)c2ccc(-c3c4nc(c(-c5ccccc5)c5ccc([nH]5)c(-c5ccccc5)c5nc(c(-c6ccccc6)c6ccc3[nH]6)C=C5)C=C4)cc2)c2ccc(NC(=O)N3CCCC3)cc2)n1
REMARK SMILES IDX 15 1 14 2 13 3 12 4 10 5 11 6 9 8 7 9 8 10 6 12 5 13 1 14
REMARK SMILES IDX 2 15 3 16 84 17 4 18 70 20 71 21 83 22 72 23 82 24 73 25
REMARK SMILES IDX 74 26 75 27 76 29 77 30 78 31 81 32 79 33 80 34 16 35 17 36
REMARK SMILES IDX 18 37 19 38 20 39 21 41 22 42 23 43 69 44 24 45 68 46 25 47
REMARK SMILES IDX 26 48 27 49 62 50 28 51 67 52 61 53 63 54 29 55 66 56 60 57
REMARK SMILES IDX 59 58 30 60 52 61 37 62 51 63 38 64 41 65 50 66 64 67 39 68
REMARK SMILES IDX 40 69 49 71 65 72 42 73 31 74 32 75 36 76 33 77 35 78 34 79
REMARK SMILES IDX 53 80 54 81 58 82 55 83 57 84 56 85 43 86 44 87 48 88 45 89
REMARK SMILES IDX 47 90 46 91
REMARK H PARENT 12 7 7 11 4 19 74 28 19 40 63 59 41 70
REMARK Flexibility Score: inf
ROOT
ATOM      1  C   UNL A   1      38.658  22.313  25.981  1.00  0.00     0.002 C 
ENDROOT
BRANCH   1   2
ATOM      2  C   UNL A   1      37.907  23.645  26.098  1.00  0.00     0.021 C 
BRANCH   2   3
ATOM      3  C   UNL A   1      36.404  23.530  25.826  1.00  0.00     0.116 C 
BRANCH   3   4
ATOM      4  N   UNL A   1      36.157  23.798  24.426  1.00  0.00    -0.351 N 
ATOM      5  C   UNL A   1      35.103  23.369  23.668  1.00  0.00     0.283 C 
ATOM      6  O   UNL A   1      35.316  23.228  22.457  1.00  0.00    -0.268 OA
ATOM      7  H   UNL A   1      36.825  24.354  23.965  1.00  0.00     0.163 HD
BRANCH   5   8
ATOM      8  C   UNL A   1      33.702  23.131  24.326  1.00  0.00     0.305 C 
BRANCH   8   9
ATOM      9  N   UNL A   1      33.222  21.737  24.114  1.00  0.00    -0.317 N 
ATOM     10  C   UNL A   1      32.289  21.554  23.021  1.00  0.00     0.334 C 
ATOM     11  H   UNL A   1      34.101  21.312  23.819  1.00  0.00     0.349 HD
BRANCH   9  12
ATOM     12  C   UNL A   1      32.839  20.959  25.304  1.00  0.00     0.339 C 
BRANCH  12  13
ATOM     13  C   UNL A   1      33.184  19.508  25.200  1.00  0.00     0.161 A 
ATOM     14  C   UNL A   1      32.521  16.022  25.345  1.00  0.00     0.068 C 
ATOM     15  C   UNL A   1      33.140  17.358  25.219  1.00  0.00     0.056 A 
ATOM     16  C   UNL A   1      34.374  17.705  24.717  1.00  0.00     0.107 A 
ATOM     17  N   UNL A   1      32.444  18.484  25.584  1.00  0.00    -0.233 NA
ATOM     18  N   UNL A   1      34.375  19.072  24.674  1.00  0.00    -0.344 N 
ATOM     19  H   UNL A   1      35.101  19.642  24.330  1.00  0.00     0.167 HD
ENDBRANCH  12  13
ENDBRANCH   9  12
ENDBRANCH   8   9
BRANCH   8  20
ATOM     20  C   UNL A   1      32.673  24.177  23.859  1.00  0.00     0.019 A 
ATOM     21  C   UNL A   1      31.581  24.551  24.653  1.00  0.00     0.012 A 
ATOM     22  C   UNL A   1      32.814  24.816  22.618  1.00  0.00     0.012 A 
ATOM     23  C   UNL A   1      30.852  25.701  24.354  1.00  0.00     0.027 A 
ATOM     24  C   UNL A   1      32.096  25.979  22.331  1.00  0.00     0.027 A 
ATOM     25  C   UNL A   1      31.220  26.501  23.278  1.00  0.00     0.042 A 
BRANCH  25  26
ATOM     26  N   UNL A   1      30.782  27.827  23.120  1.00  0.00    -0.308 N 
ATOM     27  C   UNL A   1      30.919  28.913  23.932  1.00  0.00     0.321 C 
ATOM     28  H   UNL A   1      30.294  28.000  22.283  1.00  0.00     0.171 HD
ATOM     29  O   UNL A   1      30.106  29.834  23.823  1.00  0.00    -0.248 OA
ATOM     30  N   UNL A   1      31.945  28.972  24.833  1.00  0.00    -0.325 N 
ATOM     31  C   UNL A   1      33.330  28.590  24.625  1.00  0.00     0.121 C 
ATOM     32  C   UNL A   1      31.850  29.798  26.015  1.00  0.00     0.121 C 
ATOM     33  C   UNL A   1      33.848  28.396  26.037  1.00  0.00     0.023 C 
ATOM     34  C   UNL A   1      33.071  29.427  26.858  1.00  0.00     0.023 C 
ENDBRANCH  25  26
ENDBRANCH   8  20
ENDBRANCH   5   8
ENDBRANCH   3   4
ENDBRANCH   2   3
ENDBRANCH   1   2
BRANCH   1  35
ATOM     35  C   UNL A   1      37.902  21.217  25.224  1.00  0.00     0.002 C 
BRANCH  35  36
ATOM     36  C   UNL A   1      38.669  19.903  25.064  1.00  0.00     0.021 C 
BRANCH  36  37
ATOM     37  C   UNL A   1      39.544  19.535  26.258  1.00  0.00     0.116 C 
BRANCH  37  38
ATOM     38  N   UNL A   1      40.836  19.015  25.843  1.00  0.00    -0.352 N 
ATOM     39  C   UNL A   1      42.039  19.665  25.735  1.00  0.00     0.251 C 
ATOM     40  H   UNL A   1      40.849  18.059  25.606  1.00  0.00     0.163 HD
ATOM     41  O   UNL A   1      42.982  19.136  25.158  1.00  0.00    -0.269 OA
BRANCH  39  42
ATOM     42  C   UNL A   1      42.188  21.019  26.308  1.00  0.00     0.039 A 
ATOM     43  C   UNL A   1      42.040  21.192  27.686  1.00  0.00     0.014 A 
ATOM     44  C   UNL A   1      42.467  22.113  25.483  1.00  0.00     0.014 A 
ATOM     45  C   UNL A   1      42.227  22.457  28.245  1.00  0.00     0.010 A 
ATOM     46  C   UNL A   1      42.722  23.358  26.051  1.00  0.00     0.010 A 
ATOM     47  C   UNL A   1      42.598  23.543  27.435  1.00  0.00    -0.014 A 
BRANCH  47  48
ATOM     48  C   UNL A   1      42.858  24.882  28.022  1.00  0.00     0.031 A 
ATOM     49  C   UNL A   1      44.241  25.248  28.483  1.00  0.00     0.074 A 
ATOM     50  C   UNL A   1      41.838  25.744  28.190  1.00  0.00     0.049 A 
ATOM     51  N   UNL A   1      44.652  26.349  29.061  1.00  0.00    -0.248 NA
ATOM     52  C   UNL A   1      45.295  24.239  28.292  1.00  0.00     0.031 C 
ATOM     53  C   UNL A   1      40.443  25.494  27.818  1.00  0.00     0.029 A 
ATOM     54  N   UNL A   1      41.817  27.009  28.723  1.00  0.00    -0.354 N 
ATOM     55  C   UNL A   1      46.005  26.158  29.314  1.00  0.00     0.074 A 
ATOM     56  C   UNL A   1      46.334  24.820  28.875  1.00  0.00     0.031 C 
ATOM     57  C   UNL A   1      39.709  26.580  28.110  1.00  0.00     0.029 A 
ATOM     58  C   UNL A   1      40.570  27.585  28.723  1.00  0.00     0.049 A 
ATOM     59  H   UNL A   1      42.619  27.459  29.072  1.00  0.00     0.167 HD
ATOM     60  C   UNL A   1      46.898  27.026  29.847  1.00  0.00     0.031 A 
ATOM     61  C   UNL A   1      40.164  28.787  29.173  1.00  0.00     0.031 A 
ATOM     62  C   UNL A   1      46.574  28.360  30.275  1.00  0.00     0.049 A 
ATOM     63  C   UNL A   1      41.171  29.723  29.779  1.00  0.00     0.074 A 
ATOM     64  C   UNL A   1      47.420  29.335  30.774  1.00  0.00     0.029 A 
ATOM     65  N   UNL A   1      45.299  28.904  30.260  1.00  0.00    -0.354 N 
ATOM     66  N   UNL A   1      42.461  29.555  29.945  1.00  0.00    -0.248 NA
ATOM     67  C   UNL A   1      40.667  31.021  30.252  1.00  0.00     0.031 C 
ATOM     68  C   UNL A   1      46.649  30.452  31.110  1.00  0.00     0.029 A 
ATOM     69  C   UNL A   1      45.331  30.193  30.767  1.00  0.00     0.049 A 
ATOM     70  H   UNL A   1      44.491  28.445  29.936  1.00  0.00     0.167 HD
ATOM     71  C   UNL A   1      42.926  30.731  30.518  1.00  0.00     0.074 A 
ATOM     72  C   UNL A   1      41.784  31.612  30.653  1.00  0.00     0.031 C 
ATOM     73  C   UNL A   1      44.186  31.054  30.898  1.00  0.00     0.031 A 
BRANCH  60  74
ATOM     74  C   UNL A   1      48.317  26.552  30.001  1.00  0.00    -0.014 A 
ATOM     75  C   UNL A   1      48.739  25.886  31.163  1.00  0.00     0.009 A 
ATOM     76  C   UNL A   1      49.235  26.742  28.956  1.00  0.00     0.009 A 
ATOM     77  C   UNL A   1      50.060  25.451  31.289  1.00  0.00     0.001 A 
ATOM     78  C   UNL A   1      50.547  26.280  29.073  1.00  0.00     0.001 A 
ATOM     79  C   UNL A   1      50.961  25.643  30.243  1.00  0.00     0.000 A 
ENDBRANCH  60  74
BRANCH  61  80
ATOM     80  C   UNL A   1      38.735  29.183  29.058  1.00  0.00    -0.014 A 
ATOM     81  C   UNL A   1      38.240  29.727  27.864  1.00  0.00     0.009 A 
ATOM     82  C   UNL A   1      37.862  29.029  30.147  1.00  0.00     0.009 A 
ATOM     83  C   UNL A   1      36.907  30.134  27.770  1.00  0.00     0.001 A 
ATOM     84  C   UNL A   1      36.523  29.412  30.042  1.00  0.00     0.001 A 
ATOM     85  C   UNL A   1      36.049  29.973  28.857  1.00  0.00     0.000 A 
ENDBRANCH  61  80
BRANCH  73  86
ATOM     86  C   UNL A   1      44.400  32.427  31.471  1.00  0.00    -0.014 A 
ATOM     87  C   UNL A   1      44.681  33.525  30.645  1.00  0.00     0.009 A 
ATOM     88  C   UNL A   1      44.276  32.629  32.855  1.00  0.00     0.009 A 
ATOM     89  C   UNL A   1      44.865  34.794  31.198  1.00  0.00     0.001 A 
ATOM     90  C   UNL A   1      44.430  33.903  33.401  1.00  0.00     0.001 A 
ATOM     91  C   UNL A   1      44.733  34.983  32.574  1.00  0.00     0.000 A 
ENDBRANCH  73  86
ENDBRANCH  47  48
ENDBRANCH  39  42
ENDBRANCH  37  38
ENDBRANCH  36  37
ENDBRANCH  35  36
ENDBRANCH   1  35
TORSDOF 18
ENDMDL
MODEL 3
REMARK VINA RESULT:     -11.3      3.420      9.378
REMARK SMILES Cc1c[nH]c(C[N@@H+](C)[C@@H](C(=O)NCCCCCCNC(=O)c2ccc(-c3c4nc(c(-c5ccccc5)c5ccc([nH]5)c(-c5ccccc5)c5nc(c(-c6ccccc6)c6ccc3[nH]6)C=C5)C=C4)cc2)c2ccc(NC(=O)N3CCCC3)cc2)n1
REMARK SMILES IDX 15 1 14 2 13 3 12 4 10 5 11 6 9 8 7 9 8 10 6 12 5 13 1 14
REMARK SMILES IDX 2 15 3 16 84 17 4 18 70 20 71 21 83 22 72 23 82 24 73 25
REMARK SMILES IDX 74 26 75 27 76 29 77 30 78 31 81 32 79 33 80 34 16 35 17 36
REMARK SMILES IDX 18 37 19 38 20 39 21 41 22 42 23 43 69 44 24 45 68 46 25 47
REMARK SMILES IDX 26 48 27 49 62 50 28 51 67 52 61 53 63 54 29 55 66 56 60 57
REMARK SMILES IDX 59 58 30 60 52 61 37 62 51 63 38 64 41 65 50 66 64 67 39 68
REMARK SMILES IDX 40 69 49 71 65 72 42 73 31 74 32 75 36 76 33 77 35 78 34 79
REMARK SMILES IDX 53 80 54 81 58 82 55 83 57 84 56 85 43 86 44 87 48 88 45 89
REMARK SMILES IDX 47 90 46 91
REMARK H PARENT 12 7 7 11 4 19 74 28 19 40 63 59 41 70
REMARK Flexibility Score: inf
ROOT
ATOM      1  C   UNL A   1      34.901  30.106  28.161  1.00  0.00     0.002 C 
ENDROOT
BRANCH   1   2
ATOM      2  C   UNL A   1      34.924  29.024  27.075  1.00  0.00     0.021 C 
BRANCH   2   3
ATOM      3  C   UNL A   1      33.607  28.896  26.304  1.00  0.00     0.116 C 
BRANCH   3   4
ATOM      4  N   UNL A   1      32.837  27.807  26.862  1.00  0.00    -0.351 N 
ATOM      5  C   UNL A   1      31.948  26.996  26.215  1.00  0.00     0.283 C 
ATOM      6  O   UNL A   1      31.034  26.520  26.901  1.00  0.00    -0.268 OA
ATOM      7  H   UNL A   1      32.970  27.628  27.821  1.00  0.00     0.163 HD
BRANCH   5   8
ATOM      8  C   UNL A   1      32.140  26.667  24.696  1.00  0.00     0.305 C 
BRANCH   8   9
ATOM      9  N   UNL A   1      31.138  27.370  23.847  1.00  0.00    -0.317 N 
ATOM     10  C   UNL A   1      30.322  26.520  23.005  1.00  0.00     0.334 C 
ATOM     11  H   UNL A   1      30.526  27.720  24.585  1.00  0.00     0.349 HD
BRANCH   9  12
ATOM     12  C   UNL A   1      31.573  28.590  23.147  1.00  0.00     0.339 C 
BRANCH  12  13
ATOM     13  C   UNL A   1      30.447  29.516  22.815  1.00  0.00     0.161 A 
ATOM     14  C   UNL A   1      27.650  31.577  23.551  1.00  0.00     0.068 C 
ATOM     15  C   UNL A   1      28.730  30.807  22.898  1.00  0.00     0.056 A 
ATOM     16  C   UNL A   1      29.187  30.872  21.601  1.00  0.00     0.107 A 
ATOM     17  N   UNL A   1      29.474  29.906  23.618  1.00  0.00    -0.233 NA
ATOM     18  N   UNL A   1      30.300  30.078  21.571  1.00  0.00    -0.344 N 
ATOM     19  H   UNL A   1      30.890  29.934  20.796  1.00  0.00     0.167 HD
ENDBRANCH  12  13
ENDBRANCH   9  12
ENDBRANCH   8   9
BRANCH   8  20
ATOM     20  C   UNL A   1      32.152  25.148  24.443  1.00  0.00     0.019 A 
ATOM     21  C   UNL A   1      32.919  24.570  23.423  1.00  0.00     0.012 A 
ATOM     22  C   UNL A   1      31.403  24.281  25.254  1.00  0.00     0.012 A 
ATOM     23  C   UNL A   1      33.155  23.196  23.410  1.00  0.00     0.027 A 
ATOM     24  C   UNL A   1      31.658  22.908  25.252  1.00  0.00     0.027 A 
ATOM     25  C   UNL A   1      32.650  22.391  24.425  1.00  0.00     0.042 A 
BRANCH  25  26
ATOM     26  N   UNL A   1      33.123  21.093  24.683  1.00  0.00    -0.308 N 
ATOM     27  C   UNL A   1      34.391  20.624  24.848  1.00  0.00     0.321 C 
ATOM     28  H   UNL A   1      32.419  20.409  24.758  1.00  0.00     0.171 HD
ATOM     29  O   UNL A   1      34.609  19.430  24.626  1.00  0.00    -0.248 OA
ATOM     30  N   UNL A   1      35.387  21.463  25.262  1.00  0.00    -0.325 N 
ATOM     31  C   UNL A   1      35.317  22.476  26.299  1.00  0.00     0.121 C 
ATOM     32  C   UNL A   1      36.772  21.178  24.967  1.00  0.00     0.121 C 
ATOM     33  C   UNL A   1      36.488  23.383  25.973  1.00  0.00     0.023 C 
ATOM     34  C   UNL A   1      37.537  22.433  25.390  1.00  0.00     0.023 C 
ENDBRANCH  25  26
ENDBRANCH   8  20
ENDBRANCH   5   8
ENDBRANCH   3   4
ENDBRANCH   2   3
ENDBRANCH   1   2
BRANCH   1  35
ATOM     35  C   UNL A   1      34.935  31.543  27.633  1.00  0.00     0.002 C 
BRANCH  35  36
ATOM     36  C   UNL A   1      33.675  32.362  27.921  1.00  0.00     0.021 C 
BRANCH  36  37
ATOM     37  C   UNL A   1      33.869  33.872  27.820  1.00  0.00     0.116 C 
BRANCH  37  38
ATOM     38  N   UNL A   1      33.311  34.568  28.968  1.00  0.00    -0.352 N 
ATOM     39  C   UNL A   1      33.653  34.467  30.292  1.00  0.00     0.251 C 
ATOM     40  H   UNL A   1      32.585  35.202  28.764  1.00  0.00     0.163 HD
ATOM     41  O   UNL A   1      32.935  34.957  31.157  1.00  0.00    -0.269 OA
BRANCH  39  42
ATOM     42  C   UNL A   1      34.887  33.751  30.674  1.00  0.00     0.039 A 
ATOM     43  C   UNL A   1      34.790  32.625  31.493  1.00  0.00     0.014 A 
ATOM     44  C   UNL A   1      36.135  34.197  30.228  1.00  0.00     0.014 A 
ATOM     45  C   UNL A   1      35.944  31.911  31.822  1.00  0.00     0.010 A 
ATOM     46  C   UNL A   1      37.274  33.445  30.499  1.00  0.00     0.010 A 
ATOM     47  C   UNL A   1      37.190  32.299  31.303  1.00  0.00    -0.014 A 
BRANCH  47  48
ATOM     48  C   UNL A   1      38.418  31.517  31.594  1.00  0.00     0.031 A 
ATOM     49  C   UNL A   1      39.295  31.892  32.756  1.00  0.00     0.074 A 
ATOM     50  C   UNL A   1      38.771  30.505  30.778  1.00  0.00     0.049 A 
ATOM     51  N   UNL A   1      40.428  31.359  33.139  1.00  0.00    -0.248 NA
ATOM     52  C   UNL A   1      38.855  33.029  33.581  1.00  0.00     0.031 C 
ATOM     53  C   UNL A   1      38.026  30.066  29.597  1.00  0.00     0.029 A 
ATOM     54  N   UNL A   1      39.855  29.664  30.818  1.00  0.00    -0.354 N 
ATOM     55  C   UNL A   1      40.841  32.103  34.238  1.00  0.00     0.074 A 
ATOM     56  C   UNL A   1      39.866  33.154  34.429  1.00  0.00     0.031 C 
ATOM     57  C   UNL A   1      38.659  29.020  29.041  1.00  0.00     0.029 A 
ATOM     58  C   UNL A   1      39.872  28.741  29.801  1.00  0.00     0.049 A 
ATOM     59  H   UNL A   1      40.553  29.717  31.510  1.00  0.00     0.167 HD
ATOM     60  C   UNL A   1      41.924  31.916  35.029  1.00  0.00     0.031 A 
ATOM     61  C   UNL A   1      40.769  27.780  29.509  1.00  0.00     0.031 A 
ATOM     62  C   UNL A   1      42.889  30.865  34.845  1.00  0.00     0.049 A 
ATOM     63  C   UNL A   1      41.974  27.607  30.391  1.00  0.00     0.074 A 
ATOM     64  C   UNL A   1      43.988  30.558  35.628  1.00  0.00     0.029 A 
ATOM     65  N   UNL A   1      42.871  29.953  33.802  1.00  0.00    -0.354 N 
ATOM     66  N   UNL A   1      42.312  28.273  31.468  1.00  0.00    -0.248 NA
ATOM     67  C   UNL A   1      42.917  26.542  30.020  1.00  0.00     0.031 C 
ATOM     68  C   UNL A   1      44.666  29.492  35.029  1.00  0.00     0.029 A 
ATOM     69  C   UNL A   1      43.957  29.099  33.905  1.00  0.00     0.049 A 
ATOM     70  H   UNL A   1      42.188  29.916  33.094  1.00  0.00     0.167 HD
ATOM     71  C   UNL A   1      43.491  27.694  31.918  1.00  0.00     0.074 A 
ATOM     72  C   UNL A   1      43.799  26.610  31.008  1.00  0.00     0.031 C 
ATOM     73  C   UNL A   1      44.251  28.028  32.989  1.00  0.00     0.031 A 
BRANCH  60  74
ATOM     74  C   UNL A   1      42.125  32.878  36.167  1.00  0.00    -0.014 A 
ATOM     75  C   UNL A   1      41.591  32.621  37.440  1.00  0.00     0.009 A 
ATOM     76  C   UNL A   1      42.889  34.040  35.973  1.00  0.00     0.009 A 
ATOM     77  C   UNL A   1      41.788  33.526  38.486  1.00  0.00     0.001 A 
ATOM     78  C   UNL A   1      43.109  34.927  37.028  1.00  0.00     0.001 A 
ATOM     79  C   UNL A   1      42.552  34.674  38.281  1.00  0.00     0.000 A 
ENDBRANCH  60  74
BRANCH  61  80
ATOM     80  C   UNL A   1      40.559  26.896  28.332  1.00  0.00    -0.014 A 
ATOM     81  C   UNL A   1      39.742  25.760  28.431  1.00  0.00     0.009 A 
ATOM     82  C   UNL A   1      41.184  27.178  27.107  1.00  0.00     0.009 A 
ATOM     83  C   UNL A   1      39.577  24.909  27.336  1.00  0.00     0.001 A 
ATOM     84  C   UNL A   1      40.995  26.341  26.005  1.00  0.00     0.001 A 
ATOM     85  C   UNL A   1      40.200  25.202  26.123  1.00  0.00     0.000 A 
ENDBRANCH  61  80
BRANCH  73  86
ATOM     86  C   UNL A   1      45.475  27.196  33.250  1.00  0.00    -0.014 A 
ATOM     87  C   UNL A   1      45.411  26.031  34.029  1.00  0.00     0.009 A 
ATOM     88  C   UNL A   1      46.700  27.562  32.671  1.00  0.00     0.009 A 
ATOM     89  C   UNL A   1      46.558  25.267  34.249  1.00  0.00     0.001 A 
ATOM     90  C   UNL A   1      47.837  26.780  32.868  1.00  0.00     0.001 A 
ATOM     91  C   UNL A   1      47.768  25.638  33.663  1.00  0.00     0.000 A 
ENDBRANCH  73  86
ENDBRANCH  47  48
ENDBRANCH  39  42
ENDBRANCH  37  38
ENDBRANCH  36  37
ENDBRANCH  35  36
ENDBRANCH   1  35
TORSDOF 18
ENDMDL
