MODEL 1
REMARK VINA RESULT:      -8.5      0.000      0.000
REMARK SMILES COc1cc(Cl)cc(/C=C/C(=O)NCCCCCCNC(=O)c2ccc(-c3c4nc(c(-c5ccccc5)c5ccc([nH]5)c(-c5ccccc5)c5nc(c(-c6ccccc6)c6ccc3[nH]6)C=C5)C=C4)cc2)c1OC
REMARK SMILES IDX 16 1 15 2 14 3 13 4 11 5 12 6 10 8 9 9 8 10 3 11 4 12 71 13
REMARK SMILES IDX 5 14 6 15 7 16 2 17 1 18 72 19 73 20 17 21 18 22 19 23 20 24
REMARK SMILES IDX 21 25 22 27 23 28 24 29 70 30 25 31 69 32 26 33 27 34 28 35
REMARK SMILES IDX 63 36 29 37 68 38 62 39 64 40 30 41 67 42 61 43 60 44 31 46
REMARK SMILES IDX 53 47 38 48 52 49 39 50 42 51 51 52 65 53 40 54 41 55 50 57
REMARK SMILES IDX 66 58 43 59 32 60 33 61 37 62 34 63 36 64 35 65 54 66 55 67
REMARK SMILES IDX 59 68 56 69 58 70 57 71 44 72 45 73 49 74 46 75 48 76 47 77
REMARK H PARENT 13 7 20 26 64 45 42 56
REMARK Flexibility Score: inf
ROOT
ATOM      1  C   UNL A   1      34.773  35.713  32.942  1.00  0.00     0.002 C 
ENDROOT
BRANCH   1   2
ATOM      2  C   UNL A   1      34.233  34.419  33.568  1.00  0.00     0.021 C 
BRANCH   2   3
ATOM      3  C   UNL A   1      35.322  33.403  33.909  1.00  0.00     0.116 C 
BRANCH   3   4
ATOM      4  N   UNL A   1      36.349  34.019  34.729  1.00  0.00    -0.353 N 
ATOM      5  C   UNL A   1      37.588  33.584  35.075  1.00  0.00     0.244 C 
ATOM      6  O   UNL A   1      38.326  34.311  35.736  1.00  0.00    -0.270 OA
ATOM      7  H   UNL A   1      36.107  34.900  35.096  1.00  0.00     0.163 HD
BRANCH   5   8
ATOM      8  C   UNL A   1      38.105  32.289  34.584  1.00  0.00     0.072 C 
ATOM      9  C   UNL A   1      39.310  31.781  34.881  1.00  0.00     0.018 C 
BRANCH   9  10
ATOM     10  C   UNL A   1      39.784  30.481  34.365  1.00  0.00     0.022 A 
ATOM     11  C   UNL A   1      41.464  28.724  34.213  1.00  0.00     0.162 A 
ATOM     12  C   UNL A   1      40.636  28.025  33.324  1.00  0.00     0.071 A 
ATOM     13  C   UNL A   1      41.040  29.951  34.762  1.00  0.00     0.168 A 
ATOM     14  C   UNL A   1      39.415  28.562  32.935  1.00  0.00     0.045 A 
ATOM     15  Cl  UNL A   1      38.419  27.703  31.826  1.00  0.00    -0.084 Cl
ATOM     16  C   UNL A   1      38.991  29.785  33.439  1.00  0.00     0.032 A 
BRANCH  11  17
ATOM     17  O   UNL A   1      42.646  28.147  34.605  1.00  0.00    -0.493 OA
ATOM     18  C   UNL A   1      42.586  26.720  34.645  1.00  0.00     0.278 C 
ENDBRANCH  11  17
BRANCH  13  19
ATOM     19  O   UNL A   1      41.716  30.725  35.674  1.00  0.00    -0.492 OA
ATOM     20  C   UNL A   1      42.766  30.153  36.439  1.00  0.00     0.278 C 
ENDBRANCH  13  19
ENDBRANCH   9  10
ENDBRANCH   5   8
ENDBRANCH   3   4
ENDBRANCH   2   3
ENDBRANCH   1   2
BRANCH   1  21
ATOM     21  C   UNL A   1      33.769  36.872  32.879  1.00  0.00     0.002 C 
BRANCH  21  22
ATOM     22  C   UNL A   1      32.884  36.898  31.630  1.00  0.00     0.021 C 
BRANCH  22  23
ATOM     23  C   UNL A   1      33.606  36.537  30.336  1.00  0.00     0.116 C 
BRANCH  23  24
ATOM     24  N   UNL A   1      32.795  35.683  29.482  1.00  0.00    -0.352 N 
ATOM     25  C   UNL A   1      33.137  34.527  28.828  1.00  0.00     0.251 C 
ATOM     26  H   UNL A   1      31.865  35.978  29.356  1.00  0.00     0.163 HD
ATOM     27  O   UNL A   1      32.388  34.052  27.981  1.00  0.00    -0.269 OA
BRANCH  25  28
ATOM     28  C   UNL A   1      34.419  33.855  29.133  1.00  0.00     0.039 A 
ATOM     29  C   UNL A   1      35.523  34.110  28.316  1.00  0.00     0.014 A 
ATOM     30  C   UNL A   1      34.526  32.958  30.200  1.00  0.00     0.014 A 
ATOM     31  C   UNL A   1      36.749  33.505  28.601  1.00  0.00     0.010 A 
ATOM     32  C   UNL A   1      35.764  32.409  30.523  1.00  0.00     0.010 A 
ATOM     33  C   UNL A   1      36.886  32.673  29.724  1.00  0.00    -0.014 A 
BRANCH  33  34
ATOM     34  C   UNL A   1      38.200  32.078  30.075  1.00  0.00     0.031 A 
ATOM     35  C   UNL A   1      39.151  32.809  30.981  1.00  0.00     0.074 A 
ATOM     36  C   UNL A   1      38.557  30.895  29.536  1.00  0.00     0.049 A 
ATOM     37  N   UNL A   1      40.349  32.456  31.377  1.00  0.00    -0.248 NA
ATOM     38  C   UNL A   1      38.711  34.117  31.492  1.00  0.00     0.031 C 
ATOM     39  C   UNL A   1      37.742  30.107  28.609  1.00  0.00     0.029 A 
ATOM     40  N   UNL A   1      39.700  30.152  29.689  1.00  0.00    -0.354 N 
ATOM     41  C   UNL A   1      40.807  33.500  32.170  1.00  0.00     0.074 A 
ATOM     42  C   UNL A   1      39.782  34.521  32.160  1.00  0.00     0.031 C 
ATOM     43  C   UNL A   1      38.397  28.976  28.302  1.00  0.00     0.029 A 
ATOM     44  C   UNL A   1      39.690  28.976  28.978  1.00  0.00     0.049 A 
ATOM     45  H   UNL A   1      40.454  30.434  30.254  1.00  0.00     0.167 HD
ATOM     46  C   UNL A   1      41.968  33.594  32.862  1.00  0.00     0.031 A 
ATOM     47  C   UNL A   1      40.619  28.007  28.882  1.00  0.00     0.031 A 
ATOM     48  C   UNL A   1      42.984  32.576  32.881  1.00  0.00     0.049 A 
ATOM     49  C   UNL A   1      41.901  28.138  29.655  1.00  0.00     0.074 A 
ATOM     50  C   UNL A   1      44.171  32.555  33.593  1.00  0.00     0.029 A 
ATOM     51  N   UNL A   1      42.933  31.397  32.153  1.00  0.00    -0.354 N 
ATOM     52  N   UNL A   1      42.288  29.102  30.454  1.00  0.00    -0.248 NA
ATOM     53  C   UNL A   1      42.866  27.038  29.522  1.00  0.00     0.031 C 
ATOM     54  C   UNL A   1      44.862  31.385  33.258  1.00  0.00     0.029 A 
ATOM     55  C   UNL A   1      44.079  30.652  32.380  1.00  0.00     0.049 A 
ATOM     56  H   UNL A   1      42.194  31.130  31.561  1.00  0.00     0.167 HD
ATOM     57  C   UNL A   1      43.530  28.712  30.941  1.00  0.00     0.074 A 
ATOM     58  C   UNL A   1      43.819  27.416  30.361  1.00  0.00     0.031 C 
ATOM     59  C   UNL A   1      44.354  29.367  31.793  1.00  0.00     0.031 A 
BRANCH  46  60
ATOM     60  C   UNL A   1      42.202  34.850  33.655  1.00  0.00    -0.014 A 
ATOM     61  C   UNL A   1      42.891  35.942  33.102  1.00  0.00     0.009 A 
ATOM     62  C   UNL A   1      41.695  34.960  34.958  1.00  0.00     0.009 A 
ATOM     63  C   UNL A   1      43.097  37.102  33.850  1.00  0.00     0.001 A 
ATOM     64  C   UNL A   1      41.877  36.133  35.695  1.00  0.00     0.001 A 
ATOM     65  C   UNL A   1      42.586  37.199  35.143  1.00  0.00     0.000 A 
ENDBRANCH  46  60
BRANCH  47  66
ATOM     66  C   UNL A   1      40.363  26.812  28.036  1.00  0.00    -0.014 A 
ATOM     67  C   UNL A   1      39.605  25.739  28.530  1.00  0.00     0.009 A 
ATOM     68  C   UNL A   1      40.882  26.733  26.735  1.00  0.00     0.009 A 
ATOM     69  C   UNL A   1      39.397  24.600  27.750  1.00  0.00     0.001 A 
ATOM     70  C   UNL A   1      40.648  25.604  25.945  1.00  0.00     0.001 A 
ATOM     71  C   UNL A   1      39.915  24.535  26.458  1.00  0.00     0.000 A 
ENDBRANCH  47  66
BRANCH  59  72
ATOM     72  C   UNL A   1      45.633  28.677  32.173  1.00  0.00    -0.014 A 
ATOM     73  C   UNL A   1      45.703  27.829  33.289  1.00  0.00     0.009 A 
ATOM     74  C   UNL A   1      46.780  28.856  31.383  1.00  0.00     0.009 A 
ATOM     75  C   UNL A   1      46.904  27.206  33.629  1.00  0.00     0.001 A 
ATOM     76  C   UNL A   1      47.973  28.209  31.708  1.00  0.00     0.001 A 
ATOM     77  C   UNL A   1      48.037  27.393  32.836  1.00  0.00     0.000 A 
ENDBRANCH  59  72
ENDBRANCH  33  34
ENDBRANCH  25  28
ENDBRANCH  23  24
ENDBRANCH  22  23
ENDBRANCH  21  22
ENDBRANCH   1  21
TORSDOF 16
ENDMDL
MODEL 2
REMARK VINA RESULT:      -8.2      0.425      6.048
REMARK SMILES COc1cc(Cl)cc(/C=C/C(=O)NCCCCCCNC(=O)c2ccc(-c3c4nc(c(-c5ccccc5)c5ccc([nH]5)c(-c5ccccc5)c5nc(c(-c6ccccc6)c6ccc3[nH]6)C=C5)C=C4)cc2)c1OC
REMARK SMILES IDX 16 1 15 2 14 3 13 4 11 5 12 6 10 8 9 9 8 10 3 11 4 12 71 13
REMARK SMILES IDX 5 14 6 15 7 16 2 17 1 18 72 19 73 20 17 21 18 22 19 23 20 24
REMARK SMILES IDX 21 25 22 27 23 28 24 29 70 30 25 31 69 32 26 33 27 34 28 35
REMARK SMILES IDX 63 36 29 37 68 38 62 39 64 40 30 41 67 42 61 43 60 44 31 46
REMARK SMILES IDX 53 47 38 48 52 49 39 50 42 51 51 52 65 53 40 54 41 55 50 57
REMARK SMILES IDX 66 58 43 59 32 60 33 61 37 62 34 63 36 64 35 65 54 66 55 67
REMARK SMILES IDX 59 68 56 69 58 70 57 71 44 72 45 73 49 74 46 75 48 76 47 77
REMARK H PARENT 13 7 20 26 64 45 42 56
REMARK Flexibility Score: inf
ROOT
ATOM      1  C   UNL A   1      34.967  35.532  32.606  1.00  0.00     0.002 C 
ENDROOT
BRANCH   1   2
ATOM      2  C   UNL A   1      34.701  34.504  33.715  1.00  0.00     0.021 C 
BRANCH   2   3
ATOM      3  C   UNL A   1      35.838  33.501  33.904  1.00  0.00     0.116 C 
BRANCH   3   4
ATOM      4  N   UNL A   1      36.739  33.950  34.951  1.00  0.00    -0.353 N 
ATOM      5  C   UNL A   1      37.849  33.371  35.474  1.00  0.00     0.244 C 
ATOM      6  O   UNL A   1      38.506  33.970  36.324  1.00  0.00    -0.270 OA
ATOM      7  H   UNL A   1      36.505  34.820  35.347  1.00  0.00     0.163 HD
BRANCH   5   8
ATOM      8  C   UNL A   1      38.342  32.072  34.969  1.00  0.00     0.072 C 
ATOM      9  C   UNL A   1      39.634  31.751  34.808  1.00  0.00     0.018 C 
BRANCH   9  10
ATOM     10  C   UNL A   1      40.079  30.438  34.298  1.00  0.00     0.022 A 
ATOM     11  C   UNL A   1      41.753  28.682  34.086  1.00  0.00     0.162 A 
ATOM     12  C   UNL A   1      40.872  27.957  33.271  1.00  0.00     0.071 A 
ATOM     13  C   UNL A   1      41.360  29.922  34.628  1.00  0.00     0.168 A 
ATOM     14  C   UNL A   1      39.626  28.480  32.948  1.00  0.00     0.045 A 
ATOM     15  Cl  UNL A   1      38.564  27.590  31.929  1.00  0.00    -0.084 Cl
ATOM     16  C   UNL A   1      39.231  29.716  33.445  1.00  0.00     0.032 A 
BRANCH  11  17
ATOM     17  O   UNL A   1      42.960  28.118  34.415  1.00  0.00    -0.493 OA
ATOM     18  C   UNL A   1      43.021  26.719  34.134  1.00  0.00     0.278 C 
ENDBRANCH  11  17
BRANCH  13  19
ATOM     19  O   UNL A   1      42.091  30.723  35.473  1.00  0.00    -0.492 OA
ATOM     20  C   UNL A   1      42.636  30.173  36.663  1.00  0.00     0.278 C 
ENDBRANCH  13  19
ENDBRANCH   9  10
ENDBRANCH   5   8
ENDBRANCH   3   4
ENDBRANCH   2   3
ENDBRANCH   1   2
BRANCH   1  21
ATOM     21  C   UNL A   1      33.834  36.542  32.373  1.00  0.00     0.002 C 
BRANCH  21  22
ATOM     22  C   UNL A   1      32.769  36.102  31.365  1.00  0.00     0.021 C 
BRANCH  22  23
ATOM     23  C   UNL A   1      33.171  36.273  29.904  1.00  0.00     0.116 C 
BRANCH  23  24
ATOM     24  N   UNL A   1      32.563  35.263  29.052  1.00  0.00    -0.352 N 
ATOM     25  C   UNL A   1      33.124  34.146  28.486  1.00  0.00     0.251 C 
ATOM     26  H   UNL A   1      31.609  35.401  28.853  1.00  0.00     0.163 HD
ATOM     27  O   UNL A   1      32.518  33.520  27.623  1.00  0.00    -0.269 OA
BRANCH  25  28
ATOM     28  C   UNL A   1      34.471  33.700  28.906  1.00  0.00     0.039 A 
ATOM     29  C   UNL A   1      34.585  32.864  30.020  1.00  0.00     0.014 A 
ATOM     30  C   UNL A   1      35.615  34.124  28.224  1.00  0.00     0.014 A 
ATOM     31  C   UNL A   1      35.844  32.411  30.418  1.00  0.00     0.010 A 
ATOM     32  C   UNL A   1      36.862  33.617  28.582  1.00  0.00     0.010 A 
ATOM     33  C   UNL A   1      36.990  32.760  29.685  1.00  0.00    -0.014 A 
BRANCH  33  34
ATOM     34  C   UNL A   1      38.325  32.231  30.059  1.00  0.00     0.031 A 
ATOM     35  C   UNL A   1      38.787  30.895  29.547  1.00  0.00     0.074 A 
ATOM     36  C   UNL A   1      39.103  32.936  30.904  1.00  0.00     0.049 A 
ATOM     37  N   UNL A   1      39.909  30.263  29.787  1.00  0.00    -0.248 NA
ATOM     38  C   UNL A   1      37.861  30.163  28.668  1.00  0.00     0.031 C 
ATOM     39  C   UNL A   1      38.752  34.224  31.505  1.00  0.00     0.029 A 
ATOM     40  N   UNL A   1      40.352  32.665  31.404  1.00  0.00    -0.354 N 
ATOM     41  C   UNL A   1      39.817  29.059  29.102  1.00  0.00     0.074 A 
ATOM     42  C   UNL A   1      38.513  29.024  28.478  1.00  0.00     0.031 C 
ATOM     43  C   UNL A   1      39.774  34.647  32.266  1.00  0.00     0.029 A 
ATOM     44  C   UNL A   1      40.834  33.645  32.238  1.00  0.00     0.049 A 
ATOM     45  H   UNL A   1      40.854  31.847  31.187  1.00  0.00     0.167 HD
ATOM     46  C   UNL A   1      40.743  28.077  28.986  1.00  0.00     0.031 A 
ATOM     47  C   UNL A   1      42.000  33.728  32.905  1.00  0.00     0.031 A 
ATOM     48  C   UNL A   1      42.044  28.113  29.598  1.00  0.00     0.049 A 
ATOM     49  C   UNL A   1      43.008  32.622  32.763  1.00  0.00     0.074 A 
ATOM     50  C   UNL A   1      43.072  27.190  29.495  1.00  0.00     0.029 A 
ATOM     51  N   UNL A   1      42.496  29.126  30.429  1.00  0.00    -0.354 N 
ATOM     52  N   UNL A   1      42.932  31.521  32.055  1.00  0.00    -0.248 NA
ATOM     53  C   UNL A   1      44.268  32.780  33.502  1.00  0.00     0.031 C 
ATOM     54  C   UNL A   1      44.129  27.622  30.304  1.00  0.00     0.029 A 
ATOM     55  C   UNL A   1      43.780  28.840  30.865  1.00  0.00     0.049 A 
ATOM     56  H   UNL A   1      41.982  29.928  30.674  1.00  0.00     0.167 HD
ATOM     57  C   UNL A   1      44.144  30.868  32.241  1.00  0.00     0.074 A 
ATOM     58  C   UNL A   1      44.942  31.706  33.113  1.00  0.00     0.031 C 
ATOM     59  C   UNL A   1      44.559  29.682  31.735  1.00  0.00     0.031 A 
BRANCH  46  60
ATOM     60  C   UNL A   1      40.375  26.871  28.163  1.00  0.00    -0.014 A 
ATOM     61  C   UNL A   1      39.554  25.859  28.685  1.00  0.00     0.009 A 
ATOM     62  C   UNL A   1      40.822  26.766  26.838  1.00  0.00     0.009 A 
ATOM     63  C   UNL A   1      39.218  24.749  27.907  1.00  0.00     0.001 A 
ATOM     64  C   UNL A   1      40.462  25.668  26.053  1.00  0.00     0.001 A 
ATOM     65  C   UNL A   1      39.668  24.657  26.592  1.00  0.00     0.000 A 
ENDBRANCH  46  60
BRANCH  47  66
ATOM     66  C   UNL A   1      42.291  34.913  33.752  1.00  0.00    -0.014 A 
ATOM     67  C   UNL A   1      41.830  34.972  35.077  1.00  0.00     0.009 A 
ATOM     68  C   UNL A   1      43.022  35.996  33.240  1.00  0.00     0.009 A 
ATOM     69  C   UNL A   1      42.070  36.102  35.861  1.00  0.00     0.001 A 
ATOM     70  C   UNL A   1      43.286  37.113  34.036  1.00  0.00     0.001 A 
ATOM     71  C   UNL A   1      42.800  37.170  35.341  1.00  0.00     0.000 A 
ENDBRANCH  47  66
BRANCH  59  72
ATOM     72  C   UNL A   1      45.951  29.239  32.086  1.00  0.00    -0.014 A 
ATOM     73  C   UNL A   1      47.053  29.595  31.294  1.00  0.00     0.009 A 
ATOM     74  C   UNL A   1      46.165  28.476  33.246  1.00  0.00     0.009 A 
ATOM     75  C   UNL A   1      48.336  29.162  31.634  1.00  0.00     0.001 A 
ATOM     76  C   UNL A   1      47.452  28.070  33.599  1.00  0.00     0.001 A 
ATOM     77  C   UNL A   1      48.535  28.404  32.788  1.00  0.00     0.000 A 
ENDBRANCH  59  72
ENDBRANCH  33  34
ENDBRANCH  25  28
ENDBRANCH  23  24
ENDBRANCH  22  23
ENDBRANCH  21  22
ENDBRANCH   1  21
TORSDOF 16
ENDMDL
MODEL 3
REMARK VINA RESULT:      -7.8      4.951      8.095
REMARK SMILES COc1cc(Cl)cc(/C=C/C(=O)NCCCCCCNC(=O)c2ccc(-c3c4nc(c(-c5ccccc5)c5ccc([nH]5)c(-c5ccccc5)c5nc(c(-c6ccccc6)c6ccc3[nH]6)C=C5)C=C4)cc2)c1OC
REMARK SMILES IDX 16 1 15 2 14 3 13 4 11 5 12 6 10 8 9 9 8 10 3 11 4 12 71 13
REMARK SMILES IDX 5 14 6 15 7 16 2 17 1 18 72 19 73 20 17 21 18 22 19 23 20 24
REMARK SMILES IDX 21 25 22 27 23 28 24 29 70 30 25 31 69 32 26 33 27 34 28 35
REMARK SMILES IDX 63 36 29 37 68 38 62 39 64 40 30 41 67 42 61 43 60 44 31 46
REMARK SMILES IDX 53 47 38 48 52 49 39 50 42 51 51 52 65 53 40 54 41 55 50 57
REMARK SMILES IDX 66 58 43 59 32 60 33 61 37 62 34 63 36 64 35 65 54 66 55 67
REMARK SMILES IDX 59 68 56 69 58 70 57 71 44 72 45 73 49 74 46 75 48 76 47 77
REMARK H PARENT 13 7 20 26 64 45 42 56
REMARK Flexibility Score: inf
ROOT
ATOM      1  C   UNL A   1      31.228  28.642  24.748  1.00  0.00     0.002 C 
ENDROOT
BRANCH   1   2
ATOM      2  C   UNL A   1      30.788  28.151  23.361  1.00  0.00     0.021 C 
BRANCH   2   3
ATOM      3  C   UNL A   1      31.116  26.682  23.099  1.00  0.00     0.116 C 
BRANCH   3   4
ATOM      4  N   UNL A   1      31.784  26.533  21.819  1.00  0.00    -0.353 N 
ATOM      5  C   UNL A   1      32.747  25.665  21.417  1.00  0.00     0.244 C 
ATOM      6  O   UNL A   1      33.128  25.677  20.247  1.00  0.00    -0.270 OA
ATOM      7  H   UNL A   1      31.489  27.167  21.127  1.00  0.00     0.163 HD
BRANCH   5   8
ATOM      8  C   UNL A   1      33.278  24.636  22.336  1.00  0.00     0.072 C 
ATOM      9  C   UNL A   1      33.958  24.890  23.463  1.00  0.00     0.018 C 
BRANCH   9  10
ATOM     10  C   UNL A   1      34.470  23.826  24.351  1.00  0.00     0.022 A 
ATOM     11  C   UNL A   1      34.125  21.890  25.788  1.00  0.00     0.162 A 
ATOM     12  C   UNL A   1      35.502  21.855  26.050  1.00  0.00     0.071 A 
ATOM     13  C   UNL A   1      33.594  22.863  24.917  1.00  0.00     0.168 A 
ATOM     14  C   UNL A   1      36.345  22.811  25.498  1.00  0.00     0.045 A 
ATOM     15  Cl  UNL A   1      38.029  22.769  25.846  1.00  0.00    -0.084 Cl
ATOM     16  C   UNL A   1      35.837  23.798  24.663  1.00  0.00     0.032 A 
BRANCH  11  17
ATOM     17  O   UNL A   1      33.328  20.908  26.320  1.00  0.00    -0.493 OA
ATOM     18  C   UNL A   1      33.120  19.811  25.428  1.00  0.00     0.278 C 
ENDBRANCH  11  17
BRANCH  13  19
ATOM     19  O   UNL A   1      32.282  22.996  24.531  1.00  0.00    -0.492 OA
ATOM     20  C   UNL A   1      31.304  23.379  25.487  1.00  0.00     0.278 C 
ENDBRANCH  13  19
ENDBRANCH   9  10
ENDBRANCH   5   8
ENDBRANCH   3   4
ENDBRANCH   2   3
ENDBRANCH   1   2
BRANCH   1  21
ATOM     21  C   UNL A   1      31.838  27.564  25.653  1.00  0.00     0.002 C 
BRANCH  21  22
ATOM     22  C   UNL A   1      32.196  28.029  27.067  1.00  0.00     0.021 C 
BRANCH  22  23
ATOM     23  C   UNL A   1      33.598  28.612  27.205  1.00  0.00     0.116 C 
BRANCH  23  24
ATOM     24  N   UNL A   1      33.567  30.019  27.571  1.00  0.00    -0.352 N 
ATOM     25  C   UNL A   1      34.508  30.770  28.229  1.00  0.00     0.251 C 
ATOM     26  H   UNL A   1      32.752  30.504  27.307  1.00  0.00     0.163 HD
ATOM     27  O   UNL A   1      34.225  31.891  28.641  1.00  0.00    -0.269 OA
BRANCH  25  28
ATOM     28  C   UNL A   1      35.864  30.225  28.457  1.00  0.00     0.039 A 
ATOM     29  C   UNL A   1      36.793  30.278  27.414  1.00  0.00     0.014 A 
ATOM     30  C   UNL A   1      36.210  29.643  29.679  1.00  0.00     0.014 A 
ATOM     31  C   UNL A   1      38.087  29.791  27.617  1.00  0.00     0.010 A 
ATOM     32  C   UNL A   1      37.519  29.220  29.900  1.00  0.00     0.010 A 
ATOM     33  C   UNL A   1      38.468  29.286  28.870  1.00  0.00    -0.014 A 
BRANCH  33  34
ATOM     34  C   UNL A   1      39.858  28.828  29.116  1.00  0.00     0.031 A 
ATOM     35  C   UNL A   1      40.859  29.743  29.765  1.00  0.00     0.074 A 
ATOM     36  C   UNL A   1      40.233  27.599  28.708  1.00  0.00     0.049 A 
ATOM     37  N   UNL A   1      42.122  29.525  30.036  1.00  0.00    -0.248 NA
ATOM     38  C   UNL A   1      40.389  31.087  30.138  1.00  0.00     0.031 C 
ATOM     39  C   UNL A   1      39.368  26.633  28.028  1.00  0.00     0.029 A 
ATOM     40  N   UNL A   1      41.440  26.956  28.806  1.00  0.00    -0.354 N 
ATOM     41  C   UNL A   1      42.596  30.703  30.598  1.00  0.00     0.074 A 
ATOM     42  C   UNL A   1      41.503  31.650  30.584  1.00  0.00     0.031 C 
ATOM     43  C   UNL A   1      40.064  25.507  27.799  1.00  0.00     0.029 A 
ATOM     44  C   UNL A   1      41.430  25.686  28.280  1.00  0.00     0.049 A 
ATOM     45  H   UNL A   1      42.238  27.364  29.213  1.00  0.00     0.167 HD
ATOM     46  C   UNL A   1      43.826  30.968  31.099  1.00  0.00     0.031 A 
ATOM     47  C   UNL A   1      42.411  24.768  28.196  1.00  0.00     0.031 A 
ATOM     48  C   UNL A   1      44.913  30.025  31.123  1.00  0.00     0.049 A 
ATOM     49  C   UNL A   1      43.768  25.090  28.755  1.00  0.00     0.074 A 
ATOM     50  C   UNL A   1      46.180  30.182  31.657  1.00  0.00     0.029 A 
ATOM     51  N   UNL A   1      44.860  28.748  30.586  1.00  0.00    -0.354 N 
ATOM     52  N   UNL A   1      44.180  26.185  29.344  1.00  0.00    -0.248 NA
ATOM     53  C   UNL A   1      44.790  24.039  28.648  1.00  0.00     0.031 C 
ATOM     54  C   UNL A   1      46.910  29.016  31.401  1.00  0.00     0.029 A 
ATOM     55  C   UNL A   1      46.079  28.113  30.757  1.00  0.00     0.049 A 
ATOM     56  H   UNL A   1      44.073  28.351  30.149  1.00  0.00     0.167 HD
ATOM     57  C   UNL A   1      45.500  25.947  29.704  1.00  0.00     0.074 A 
ATOM     58  C   UNL A   1      45.812  24.596  29.282  1.00  0.00     0.031 C 
ATOM     59  C   UNL A   1      46.375  26.771  30.328  1.00  0.00     0.031 A 
BRANCH  46  60
ATOM     60  C   UNL A   1      44.064  32.343  31.662  1.00  0.00    -0.014 A 
ATOM     61  C   UNL A   1      43.833  32.622  33.019  1.00  0.00     0.009 A 
ATOM     62  C   UNL A   1      44.563  33.361  30.836  1.00  0.00     0.009 A 
ATOM     63  C   UNL A   1      44.062  33.902  33.527  1.00  0.00     0.001 A 
ATOM     64  C   UNL A   1      44.818  34.633  31.354  1.00  0.00     0.001 A 
ATOM     65  C   UNL A   1      44.559  34.904  32.696  1.00  0.00     0.000 A 
ENDBRANCH  46  60
BRANCH  47  66
ATOM     66  C   UNL A   1      42.141  23.445  27.576  1.00  0.00    -0.014 A 
ATOM     67  C   UNL A   1      41.558  22.412  28.327  1.00  0.00     0.009 A 
ATOM     68  C   UNL A   1      42.472  23.203  26.233  1.00  0.00     0.009 A 
ATOM     69  C   UNL A   1      41.340  21.157  27.756  1.00  0.00     0.001 A 
ATOM     70  C   UNL A   1      42.226  21.955  25.656  1.00  0.00     0.001 A 
ATOM     71  C   UNL A   1      41.671  20.931  26.420  1.00  0.00     0.000 A 
ENDBRANCH  47  66
BRANCH  59  72
ATOM     72  C   UNL A   1      47.743  26.222  30.621  1.00  0.00    -0.014 A 
ATOM     73  C   UNL A   1      48.069  25.711  31.886  1.00  0.00     0.009 A 
ATOM     74  C   UNL A   1      48.710  26.191  29.604  1.00  0.00     0.009 A 
ATOM     75  C   UNL A   1      49.349  25.215  32.138  1.00  0.00     0.001 A 
ATOM     76  C   UNL A   1      49.980  25.667  29.850  1.00  0.00     0.001 A 
ATOM     77  C   UNL A   1      50.302  25.189  31.120  1.00  0.00     0.000 A 
ENDBRANCH  59  72
ENDBRANCH  33  34
ENDBRANCH  25  28
ENDBRANCH  23  24
ENDBRANCH  22  23
ENDBRANCH  21  22
ENDBRANCH   1  21
TORSDOF 16
ENDMDL
