MODEL 1
REMARK VINA RESULT:     -10.6      0.000      0.000
REMARK SMILES C[C@H](CCc1ccco1)NC(=O)c1cccn1CC(=O)NCCCCCCNC(=O)c1ccc(-c2c3nc(c(-c4ccccc4)c4ccc([nH]4)c(-c4ccccc4)c4nc(c(-c5ccccc5)c5ccc2[nH]5)C=C4)C=C3)cc1
REMARK SMILES IDX 22 1 21 2 19 3 20 4 18 6 17 7 13 8 14 9 15 10 16 11 11 12
REMARK SMILES IDX 10 13 12 15 2 16 1 17 3 18 4 19 5 20 6 21 9 22 7 23 8 24
REMARK SMILES IDX 23 25 24 26 25 27 26 28 27 29 28 30 29 31 30 33 31 34 32 35
REMARK SMILES IDX 78 36 33 37 77 38 34 39 35 40 36 41 71 42 37 43 76 44 70 45
REMARK SMILES IDX 72 46 38 47 75 48 69 49 68 50 39 52 61 53 46 54 60 55 47 56
REMARK SMILES IDX 50 57 59 58 73 59 48 60 49 61 58 63 74 64 51 65 40 66 41 67
REMARK SMILES IDX 45 68 42 69 44 70 43 71 62 72 63 73 67 74 64 75 66 76 65 77
REMARK SMILES IDX 52 78 53 79 57 80 54 81 56 82 55 83
REMARK H PARENT 21 5 10 14 28 32 72 51 50 62
REMARK Flexibility Score: inf
ROOT
ATOM      1  C   UNL A   1      33.195  28.265  23.232  1.00  0.00     0.116 C 
ENDROOT
BRANCH   1   2
ATOM      2  N   UNL A   1      33.052  27.605  21.953  1.00  0.00    -0.355 N 
ATOM      3  C   UNL A   1      33.269  26.292  21.643  1.00  0.00     0.239 C 
ATOM      4  O   UNL A   1      33.189  25.956  20.459  1.00  0.00    -0.273 OA
ATOM      5  H   UNL A   1      32.759  28.177  21.207  1.00  0.00     0.163 HD
BRANCH   3   6
ATOM      6  C   UNL A   1      33.510  25.273  22.738  1.00  0.00     0.222 C 
BRANCH   6   7
ATOM      7  N   UNL A   1      32.353  25.022  23.594  1.00  0.00    -0.334 N 
ATOM      8  C   UNL A   1      32.371  24.773  24.964  1.00  0.00     0.107 A 
ATOM      9  C   UNL A   1      31.040  24.700  25.351  1.00  0.00     0.033 A 
ATOM     10  C   UNL A   1      30.223  24.812  24.203  1.00  0.00     0.020 A 
ATOM     11  C   UNL A   1      31.058  25.018  23.133  1.00  0.00     0.087 A 
BRANCH   8  12
ATOM     12  C   UNL A   1      33.596  24.660  25.741  1.00  0.00     0.268 C 
ATOM     13  N   UNL A   1      34.168  23.428  25.956  1.00  0.00    -0.348 N 
ATOM     14  H   UNL A   1      35.139  23.445  26.118  1.00  0.00     0.164 HD
ATOM     15  O   UNL A   1      34.235  25.633  26.122  1.00  0.00    -0.268 OA
BRANCH  13  16
ATOM     16  C   UNL A   1      33.567  22.096  25.981  1.00  0.00     0.079 C 
ATOM     17  C   UNL A   1      34.054  21.431  27.268  1.00  0.00     0.031 C 
BRANCH  16  18
ATOM     18  C   UNL A   1      33.902  21.319  24.691  1.00  0.00     0.032 C 
BRANCH  18  19
ATOM     19  C   UNL A   1      34.781  20.066  24.825  1.00  0.00     0.077 C 
BRANCH  19  20
ATOM     20  C   UNL A   1      34.045  18.787  24.672  1.00  0.00     0.103 A 
ATOM     21  C   UNL A   1      34.393  17.577  24.106  1.00  0.00     0.045 A 
ATOM     22  O   UNL A   1      32.819  18.697  25.257  1.00  0.00    -0.469 OA
ATOM     23  C   UNL A   1      33.357  16.674  24.435  1.00  0.00     0.042 A 
ATOM     24  C   UNL A   1      32.416  17.404  25.122  1.00  0.00     0.195 A 
ENDBRANCH  19  20
ENDBRANCH  18  19
ENDBRANCH  16  18
ENDBRANCH  13  16
ENDBRANCH   8  12
ENDBRANCH   6   7
ENDBRANCH   3   6
ENDBRANCH   1   2
BRANCH   1  25
ATOM     25  C   UNL A   1      31.897  28.960  23.638  1.00  0.00     0.021 C 
BRANCH  25  26
ATOM     26  C   UNL A   1      31.230  28.343  24.871  1.00  0.00     0.002 C 
BRANCH  26  27
ATOM     27  C   UNL A   1      32.123  28.243  26.115  1.00  0.00     0.002 C 
BRANCH  27  28
ATOM     28  C   UNL A   1      32.512  29.582  26.759  1.00  0.00     0.021 C 
BRANCH  28  29
ATOM     29  C   UNL A   1      33.930  29.595  27.324  1.00  0.00     0.116 C 
BRANCH  29  30
ATOM     30  N   UNL A   1      34.160  30.808  28.090  1.00  0.00    -0.352 N 
ATOM     31  C   UNL A   1      35.163  31.122  28.965  1.00  0.00     0.251 C 
ATOM     32  H   UNL A   1      33.488  31.515  27.958  1.00  0.00     0.163 HD
ATOM     33  O   UNL A   1      34.991  32.033  29.771  1.00  0.00    -0.269 OA
BRANCH  31  34
ATOM     34  C   UNL A   1      36.442  30.385  28.967  1.00  0.00     0.039 A 
ATOM     35  C   UNL A   1      37.183  30.362  27.780  1.00  0.00     0.014 A 
ATOM     36  C   UNL A   1      36.860  29.637  30.074  1.00  0.00     0.014 A 
ATOM     37  C   UNL A   1      38.364  29.633  27.718  1.00  0.00     0.010 A 
ATOM     38  C   UNL A   1      38.054  28.929  30.027  1.00  0.00     0.010 A 
ATOM     39  C   UNL A   1      38.808  28.934  28.851  1.00  0.00    -0.014 A 
BRANCH  39  40
ATOM     40  C   UNL A   1      40.165  28.352  28.824  1.00  0.00     0.031 A 
ATOM     41  C   UNL A   1      41.240  29.445  28.975  1.00  0.00     0.074 A 
ATOM     42  C   UNL A   1      40.253  27.003  28.606  1.00  0.00     0.049 A 
ATOM     43  N   UNL A   1      42.459  29.474  28.535  1.00  0.00    -0.248 NA
ATOM     44  C   UNL A   1      40.898  30.723  29.664  1.00  0.00     0.031 C 
ATOM     45  C   UNL A   1      39.094  26.078  28.561  1.00  0.00     0.029 A 
ATOM     46  N   UNL A   1      41.297  26.129  28.372  1.00  0.00    -0.354 N 
ATOM     47  C   UNL A   1      43.061  30.673  28.981  1.00  0.00     0.074 A 
ATOM     48  C   UNL A   1      42.027  31.436  29.611  1.00  0.00     0.031 C 
ATOM     49  C   UNL A   1      39.483  24.824  28.238  1.00  0.00     0.029 A 
ATOM     50  C   UNL A   1      40.916  24.801  28.032  1.00  0.00     0.049 A 
ATOM     51  H   UNL A   1      42.240  26.406  28.436  1.00  0.00     0.167 HD
ATOM     52  C   UNL A   1      44.403  30.911  28.884  1.00  0.00     0.031 A 
ATOM     53  C   UNL A   1      41.688  23.773  27.559  1.00  0.00     0.031 A 
ATOM     54  C   UNL A   1      45.036  29.842  28.195  1.00  0.00     0.049 A 
ATOM     55  C   UNL A   1      43.070  24.266  27.592  1.00  0.00     0.074 A 
ATOM     56  C   UNL A   1      45.048  29.479  26.874  1.00  0.00     0.029 A 
ATOM     57  N   UNL A   1      45.452  28.784  28.964  1.00  0.00    -0.354 N 
ATOM     58  N   UNL A   1      43.783  24.401  28.666  1.00  0.00    -0.248 NA
ATOM     59  C   UNL A   1      43.692  24.709  26.339  1.00  0.00     0.031 C 
ATOM     60  C   UNL A   1      44.964  28.073  26.936  1.00  0.00     0.029 A 
ATOM     61  C   UNL A   1      45.158  27.648  28.255  1.00  0.00     0.049 A 
ATOM     62  H   UNL A   1      45.879  28.831  29.850  1.00  0.00     0.167 HD
ATOM     63  C   UNL A   1      44.732  25.306  28.263  1.00  0.00     0.074 A 
ATOM     64  C   UNL A   1      44.839  25.178  26.824  1.00  0.00     0.031 C 
ATOM     65  C   UNL A   1      44.933  26.431  28.995  1.00  0.00     0.031 A 
BRANCH  52  66
ATOM     66  C   UNL A   1      45.310  31.921  29.530  1.00  0.00    -0.014 A 
ATOM     67  C   UNL A   1      45.412  31.889  30.944  1.00  0.00     0.009 A 
ATOM     68  C   UNL A   1      45.759  33.074  28.881  1.00  0.00     0.009 A 
ATOM     69  C   UNL A   1      45.811  33.004  31.683  1.00  0.00     0.001 A 
ATOM     70  C   UNL A   1      46.197  34.182  29.623  1.00  0.00     0.001 A 
ATOM     71  C   UNL A   1      46.184  34.161  31.019  1.00  0.00     0.000 A 
ENDBRANCH  52  66
BRANCH  53  72
ATOM     72  C   UNL A   1      41.511  22.398  26.959  1.00  0.00    -0.014 A 
ATOM     73  C   UNL A   1      42.522  21.471  26.696  1.00  0.00     0.009 A 
ATOM     74  C   UNL A   1      40.189  21.948  26.676  1.00  0.00     0.009 A 
ATOM     75  C   UNL A   1      42.213  20.156  26.275  1.00  0.00     0.001 A 
ATOM     76  C   UNL A   1      39.872  20.638  26.306  1.00  0.00     0.001 A 
ATOM     77  C   UNL A   1      40.893  19.730  26.118  1.00  0.00     0.000 A 
ENDBRANCH  53  72
BRANCH  65  78
ATOM     78  C   UNL A   1      44.477  26.345  30.447  1.00  0.00    -0.014 A 
ATOM     79  C   UNL A   1      43.477  27.215  30.912  1.00  0.00     0.009 A 
ATOM     80  C   UNL A   1      45.098  25.522  31.404  1.00  0.00     0.009 A 
ATOM     81  C   UNL A   1      43.135  27.284  32.269  1.00  0.00     0.001 A 
ATOM     82  C   UNL A   1      44.757  25.583  32.765  1.00  0.00     0.001 A 
ATOM     83  C   UNL A   1      43.777  26.469  33.198  1.00  0.00     0.000 A 
ENDBRANCH  65  78
ENDBRANCH  39  40
ENDBRANCH  31  34
ENDBRANCH  29  30
ENDBRANCH  28  29
ENDBRANCH  27  28
ENDBRANCH  26  27
ENDBRANCH  25  26
ENDBRANCH   1  25
TORSDOF 19
ENDMDL
MODEL 2
REMARK VINA RESULT:     -10.5      2.978      7.759
REMARK SMILES C[C@H](CCc1ccco1)NC(=O)c1cccn1CC(=O)NCCCCCCNC(=O)c1ccc(-c2c3nc(c(-c4ccccc4)c4ccc([nH]4)c(-c4ccccc4)c4nc(c(-c5ccccc5)c5ccc2[nH]5)C=C4)C=C3)cc1
REMARK SMILES IDX 22 1 21 2 19 3 20 4 18 6 17 7 13 8 14 9 15 10 16 11 11 12
REMARK SMILES IDX 10 13 12 15 2 16 1 17 3 18 4 19 5 20 6 21 9 22 7 23 8 24
REMARK SMILES IDX 23 25 24 26 25 27 26 28 27 29 28 30 29 31 30 33 31 34 32 35
REMARK SMILES IDX 78 36 33 37 77 38 34 39 35 40 36 41 71 42 37 43 76 44 70 45
REMARK SMILES IDX 72 46 38 47 75 48 69 49 68 50 39 52 61 53 46 54 60 55 47 56
REMARK SMILES IDX 50 57 59 58 73 59 48 60 49 61 58 63 74 64 51 65 40 66 41 67
REMARK SMILES IDX 45 68 42 69 44 70 43 71 62 72 63 73 67 74 64 75 66 76 65 77
REMARK SMILES IDX 52 78 53 79 57 80 54 81 56 82 55 83
REMARK H PARENT 21 5 10 14 28 32 72 51 50 62
REMARK Flexibility Score: inf
ROOT
ATOM      1  C   UNL A   1      34.377  21.665  27.068  1.00  0.00     0.116 C 
ENDROOT
BRANCH   1   2
ATOM      2  N   UNL A   1      33.007  21.930  27.449  1.00  0.00    -0.355 N 
ATOM      3  C   UNL A   1      32.218  22.993  27.109  1.00  0.00     0.239 C 
ATOM      4  O   UNL A   1      31.104  23.077  27.631  1.00  0.00    -0.273 OA
ATOM      5  H   UNL A   1      32.587  21.256  28.030  1.00  0.00     0.163 HD
BRANCH   3   6
ATOM      6  C   UNL A   1      32.671  23.980  26.052  1.00  0.00     0.222 C 
BRANCH   6   7
ATOM      7  N   UNL A   1      31.725  24.168  24.956  1.00  0.00    -0.334 N 
ATOM      8  C   UNL A   1      30.957  25.302  24.705  1.00  0.00     0.107 A 
ATOM      9  C   UNL A   1      30.297  25.054  23.509  1.00  0.00     0.033 A 
ATOM     10  C   UNL A   1      30.594  23.738  23.088  1.00  0.00     0.020 A 
ATOM     11  C   UNL A   1      31.484  23.216  23.993  1.00  0.00     0.087 A 
BRANCH   8  12
ATOM     12  C   UNL A   1      30.946  26.469  25.574  1.00  0.00     0.268 C 
ATOM     13  N   UNL A   1      31.296  27.704  25.078  1.00  0.00    -0.348 N 
ATOM     14  H   UNL A   1      30.903  28.469  25.559  1.00  0.00     0.164 HD
ATOM     15  O   UNL A   1      30.513  26.443  26.719  1.00  0.00    -0.268 OA
BRANCH  13  16
ATOM     16  C   UNL A   1      32.157  28.065  23.954  1.00  0.00     0.079 C 
ATOM     17  C   UNL A   1      33.317  28.866  24.543  1.00  0.00     0.031 C 
BRANCH  16  18
ATOM     18  C   UNL A   1      31.353  28.805  22.865  1.00  0.00     0.032 C 
BRANCH  18  19
ATOM     19  C   UNL A   1      29.838  28.560  22.812  1.00  0.00     0.077 C 
BRANCH  19  20
ATOM     20  C   UNL A   1      29.016  29.770  23.061  1.00  0.00     0.103 A 
ATOM     21  C   UNL A   1      27.659  30.005  22.977  1.00  0.00     0.045 A 
ATOM     22  O   UNL A   1      29.653  30.868  23.554  1.00  0.00    -0.469 OA
ATOM     23  C   UNL A   1      27.444  31.289  23.526  1.00  0.00     0.042 A 
ATOM     24  C   UNL A   1      28.687  31.780  23.848  1.00  0.00     0.195 A 
ENDBRANCH  19  20
ENDBRANCH  18  19
ENDBRANCH  16  18
ENDBRANCH  13  16
ENDBRANCH   8  12
ENDBRANCH   6   7
ENDBRANCH   3   6
ENDBRANCH   1   2
BRANCH   1  25
ATOM     25  C   UNL A   1      34.440  20.770  25.832  1.00  0.00     0.021 C 
BRANCH  25  26
ATOM     26  C   UNL A   1      34.889  21.504  24.565  1.00  0.00     0.002 C 
BRANCH  26  27
ATOM     27  C   UNL A   1      36.396  21.779  24.470  1.00  0.00     0.002 C 
BRANCH  27  28
ATOM     28  C   UNL A   1      37.308  20.626  24.916  1.00  0.00     0.021 C 
BRANCH  28  29
ATOM     29  C   UNL A   1      38.537  21.089  25.693  1.00  0.00     0.116 C 
BRANCH  29  30
ATOM     30  N   UNL A   1      39.486  19.998  25.840  1.00  0.00    -0.352 N 
ATOM     31  C   UNL A   1      40.841  20.025  26.014  1.00  0.00     0.251 C 
ATOM     32  H   UNL A   1      39.089  19.097  25.811  1.00  0.00     0.163 HD
ATOM     33  O   UNL A   1      41.498  19.019  25.759  1.00  0.00    -0.269 OA
BRANCH  31  34
ATOM     34  C   UNL A   1      41.533  21.238  26.493  1.00  0.00     0.039 A 
ATOM     35  C   UNL A   1      42.024  22.130  25.533  1.00  0.00     0.014 A 
ATOM     36  C   UNL A   1      41.794  21.449  27.851  1.00  0.00     0.014 A 
ATOM     37  C   UNL A   1      42.732  23.256  25.935  1.00  0.00     0.010 A 
ATOM     38  C   UNL A   1      42.477  22.587  28.261  1.00  0.00     0.010 A 
ATOM     39  C   UNL A   1      42.939  23.493  27.303  1.00  0.00    -0.014 A 
BRANCH  39  40
ATOM     40  C   UNL A   1      43.500  24.798  27.708  1.00  0.00     0.031 A 
ATOM     41  C   UNL A   1      42.383  25.834  27.937  1.00  0.00     0.074 A 
ATOM     42  C   UNL A   1      44.865  24.897  27.744  1.00  0.00     0.049 A 
ATOM     43  N   UNL A   1      42.412  27.124  27.813  1.00  0.00    -0.248 NA
ATOM     44  C   UNL A   1      41.012  25.370  28.300  1.00  0.00     0.031 C 
ATOM     45  C   UNL A   1      45.799  23.759  27.568  1.00  0.00     0.029 A 
ATOM     46  N   UNL A   1      45.752  25.941  27.922  1.00  0.00    -0.354 N 
ATOM     47  C   UNL A   1      41.148  27.632  28.189  1.00  0.00     0.074 A 
ATOM     48  C   UNL A   1      40.304  26.498  28.410  1.00  0.00     0.031 C 
ATOM     49  C   UNL A   1      47.084  24.179  27.562  1.00  0.00     0.029 A 
ATOM     50  C   UNL A   1      47.123  25.617  27.723  1.00  0.00     0.049 A 
ATOM     51  H   UNL A   1      45.456  26.847  28.171  1.00  0.00     0.167 HD
ATOM     52  C   UNL A   1      40.911  28.963  28.389  1.00  0.00     0.031 A 
ATOM     53  C   UNL A   1      48.205  26.452  27.631  1.00  0.00     0.031 A 
ATOM     54  C   UNL A   1      42.073  29.715  28.063  1.00  0.00     0.049 A 
ATOM     55  C   UNL A   1      47.696  27.797  27.922  1.00  0.00     0.074 A 
ATOM     56  C   UNL A   1      42.651  30.040  26.865  1.00  0.00     0.029 A 
ATOM     57  N   UNL A   1      42.982  29.899  29.075  1.00  0.00    -0.354 N 
ATOM     58  N   UNL A   1      47.374  28.228  29.101  1.00  0.00    -0.248 NA
ATOM     59  C   UNL A   1      47.461  28.720  26.806  1.00  0.00     0.031 C 
ATOM     60  C   UNL A   1      44.028  29.903  27.136  1.00  0.00     0.029 A 
ATOM     61  C   UNL A   1      44.224  29.755  28.513  1.00  0.00     0.049 A 
ATOM     62  H   UNL A   1      42.782  30.096  30.019  1.00  0.00     0.167 HD
ATOM     63  C   UNL A   1      46.538  29.273  28.802  1.00  0.00     0.074 A 
ATOM     64  C   UNL A   1      46.902  29.726  27.475  1.00  0.00     0.031 C 
ATOM     65  C   UNL A   1      45.303  29.320  29.365  1.00  0.00     0.031 A 
BRANCH  52  66
ATOM     66  C   UNL A   1      39.797  29.712  29.063  1.00  0.00    -0.014 A 
ATOM     67  C   UNL A   1      38.480  29.477  28.592  1.00  0.00     0.009 A 
ATOM     68  C   UNL A   1      40.004  30.850  29.849  1.00  0.00     0.009 A 
ATOM     69  C   UNL A   1      37.452  30.403  28.777  1.00  0.00     0.001 A 
ATOM     70  C   UNL A   1      38.958  31.761  30.067  1.00  0.00     0.001 A 
ATOM     71  C   UNL A   1      37.699  31.559  29.500  1.00  0.00     0.000 A 
ENDBRANCH  52  66
BRANCH  53  72
ATOM     72  C   UNL A   1      49.664  26.388  27.242  1.00  0.00    -0.014 A 
ATOM     73  C   UNL A   1      50.756  26.388  28.111  1.00  0.00     0.009 A 
ATOM     74  C   UNL A   1      49.989  26.256  25.860  1.00  0.00     0.009 A 
ATOM     75  C   UNL A   1      52.069  26.170  27.631  1.00  0.00     0.001 A 
ATOM     76  C   UNL A   1      51.277  25.993  25.384  1.00  0.00     0.001 A 
ATOM     77  C   UNL A   1      52.323  25.934  26.280  1.00  0.00     0.000 A 
ENDBRANCH  53  72
BRANCH  65  78
ATOM     78  C   UNL A   1      45.151  28.520  30.653  1.00  0.00    -0.014 A 
ATOM     79  C   UNL A   1      45.716  29.007  31.844  1.00  0.00     0.009 A 
ATOM     80  C   UNL A   1      44.583  27.233  30.699  1.00  0.00     0.009 A 
ATOM     81  C   UNL A   1      45.740  28.238  33.014  1.00  0.00     0.001 A 
ATOM     82  C   UNL A   1      44.601  26.459  31.871  1.00  0.00     0.001 A 
ATOM     83  C   UNL A   1      45.185  26.961  33.028  1.00  0.00     0.000 A 
ENDBRANCH  65  78
ENDBRANCH  39  40
ENDBRANCH  31  34
ENDBRANCH  29  30
ENDBRANCH  28  29
ENDBRANCH  27  28
ENDBRANCH  26  27
ENDBRANCH  25  26
ENDBRANCH   1  25
TORSDOF 19
ENDMDL
MODEL 3
REMARK VINA RESULT:     -10.4      1.497      2.218
REMARK SMILES C[C@H](CCc1ccco1)NC(=O)c1cccn1CC(=O)NCCCCCCNC(=O)c1ccc(-c2c3nc(c(-c4ccccc4)c4ccc([nH]4)c(-c4ccccc4)c4nc(c(-c5ccccc5)c5ccc2[nH]5)C=C4)C=C3)cc1
REMARK SMILES IDX 22 1 21 2 19 3 20 4 18 6 17 7 13 8 14 9 15 10 16 11 11 12
REMARK SMILES IDX 10 13 12 15 2 16 1 17 3 18 4 19 5 20 6 21 9 22 7 23 8 24
REMARK SMILES IDX 23 25 24 26 25 27 26 28 27 29 28 30 29 31 30 33 31 34 32 35
REMARK SMILES IDX 78 36 33 37 77 38 34 39 35 40 36 41 71 42 37 43 76 44 70 45
REMARK SMILES IDX 72 46 38 47 75 48 69 49 68 50 39 52 61 53 46 54 60 55 47 56
REMARK SMILES IDX 50 57 59 58 73 59 48 60 49 61 58 63 74 64 51 65 40 66 41 67
REMARK SMILES IDX 45 68 42 69 44 70 43 71 62 72 63 73 67 74 64 75 66 76 65 77
REMARK SMILES IDX 52 78 53 79 57 80 54 81 56 82 55 83
REMARK H PARENT 21 5 10 14 28 32 72 51 50 62
REMARK Flexibility Score: inf
ROOT
ATOM      1  C   UNL A   1      33.915  27.646  23.859  1.00  0.00     0.116 C 
ENDROOT
BRANCH   1   2
ATOM      2  N   UNL A   1      33.635  27.392  22.463  1.00  0.00    -0.355 N 
ATOM      3  C   UNL A   1      33.275  26.217  21.866  1.00  0.00     0.239 C 
ATOM      4  O   UNL A   1      33.185  26.196  20.636  1.00  0.00    -0.273 OA
ATOM      5  H   UNL A   1      33.715  28.169  21.863  1.00  0.00     0.163 HD
BRANCH   3   6
ATOM      6  C   UNL A   1      32.909  25.009  22.704  1.00  0.00     0.222 C 
BRANCH   6   7
ATOM      7  N   UNL A   1      31.844  25.247  23.674  1.00  0.00    -0.334 N 
ATOM      8  C   UNL A   1      31.854  24.899  25.023  1.00  0.00     0.107 A 
ATOM      9  C   UNL A   1      30.681  25.417  25.555  1.00  0.00     0.033 A 
ATOM     10  C   UNL A   1      29.922  25.994  24.511  1.00  0.00     0.020 A 
ATOM     11  C   UNL A   1      30.666  25.884  23.363  1.00  0.00     0.087 A 
BRANCH   8  12
ATOM     12  C   UNL A   1      32.941  24.164  25.651  1.00  0.00     0.268 C 
ATOM     13  N   UNL A   1      33.224  22.877  25.258  1.00  0.00    -0.348 N 
ATOM     14  H   UNL A   1      34.156  22.594  25.407  1.00  0.00     0.164 HD
ATOM     15  O   UNL A   1      33.721  24.677  26.445  1.00  0.00    -0.268 OA
BRANCH  13  16
ATOM     16  C   UNL A   1      32.366  21.860  24.654  1.00  0.00     0.079 C 
ATOM     17  C   UNL A   1      31.170  21.698  25.591  1.00  0.00     0.031 C 
BRANCH  16  18
ATOM     18  C   UNL A   1      33.157  20.561  24.391  1.00  0.00     0.032 C 
BRANCH  18  19
ATOM     19  C   UNL A   1      32.454  19.452  23.594  1.00  0.00     0.077 C 
BRANCH  19  20
ATOM     20  C   UNL A   1      32.694  18.083  24.114  1.00  0.00     0.103 A 
ATOM     21  C   UNL A   1      33.368  16.997  23.593  1.00  0.00     0.045 A 
ATOM     22  O   UNL A   1      32.268  17.810  25.378  1.00  0.00    -0.469 OA
ATOM     23  C   UNL A   1      33.429  16.037  24.628  1.00  0.00     0.042 A 
ATOM     24  C   UNL A   1      32.733  16.570  25.687  1.00  0.00     0.195 A 
ENDBRANCH  19  20
ENDBRANCH  18  19
ENDBRANCH  16  18
ENDBRANCH  13  16
ENDBRANCH   8  12
ENDBRANCH   6   7
ENDBRANCH   3   6
ENDBRANCH   1   2
BRANCH   1  25
ATOM     25  C   UNL A   1      33.291  28.964  24.313  1.00  0.00     0.021 C 
BRANCH  25  26
ATOM     26  C   UNL A   1      32.083  28.786  25.236  1.00  0.00     0.002 C 
BRANCH  26  27
ATOM     27  C   UNL A   1      32.318  29.174  26.702  1.00  0.00     0.002 C 
BRANCH  27  28
ATOM     28  C   UNL A   1      33.332  30.306  26.931  1.00  0.00     0.021 C 
BRANCH  28  29
ATOM     29  C   UNL A   1      34.579  29.858  27.689  1.00  0.00     0.116 C 
BRANCH  29  30
ATOM     30  N   UNL A   1      35.029  30.906  28.590  1.00  0.00    -0.352 N 
ATOM     31  C   UNL A   1      36.182  31.009  29.317  1.00  0.00     0.251 C 
ATOM     32  H   UNL A   1      34.405  31.661  28.693  1.00  0.00     0.163 HD
ATOM     33  O   UNL A   1      36.219  31.774  30.278  1.00  0.00    -0.269 OA
BRANCH  31  34
ATOM     34  C   UNL A   1      37.380  30.216  28.978  1.00  0.00     0.039 A 
ATOM     35  C   UNL A   1      38.093  29.629  30.031  1.00  0.00     0.014 A 
ATOM     36  C   UNL A   1      37.864  30.135  27.668  1.00  0.00     0.014 A 
ATOM     37  C   UNL A   1      39.259  28.923  29.765  1.00  0.00     0.010 A 
ATOM     38  C   UNL A   1      39.014  29.407  27.392  1.00  0.00     0.010 A 
ATOM     39  C   UNL A   1      39.706  28.795  28.441  1.00  0.00    -0.014 A 
BRANCH  39  40
ATOM     40  C   UNL A   1      40.819  27.863  28.166  1.00  0.00     0.031 A 
ATOM     41  C   UNL A   1      42.150  28.623  28.008  1.00  0.00     0.074 A 
ATOM     42  C   UNL A   1      40.495  26.540  28.029  1.00  0.00     0.049 A 
ATOM     43  N   UNL A   1      43.203  28.313  27.319  1.00  0.00    -0.248 NA
ATOM     44  C   UNL A   1      42.322  29.952  28.664  1.00  0.00     0.031 C 
ATOM     45  C   UNL A   1      39.154  25.967  28.297  1.00  0.00     0.029 A 
ATOM     46  N   UNL A   1      41.191  25.412  27.640  1.00  0.00    -0.354 N 
ATOM     47  C   UNL A   1      44.185  29.306  27.541  1.00  0.00     0.074 A 
ATOM     48  C   UNL A   1      43.558  30.328  28.322  1.00  0.00     0.031 C 
ATOM     49  C   UNL A   1      39.114  24.652  27.987  1.00  0.00     0.029 A 
ATOM     50  C   UNL A   1      40.407  24.236  27.483  1.00  0.00     0.049 A 
ATOM     51  H   UNL A   1      42.164  25.421  27.483  1.00  0.00     0.167 HD
ATOM     52  C   UNL A   1      45.485  29.167  27.145  1.00  0.00     0.031 A 
ATOM     53  C   UNL A   1      40.753  23.031  26.929  1.00  0.00     0.031 A 
ATOM     54  C   UNL A   1      45.641  27.958  26.413  1.00  0.00     0.049 A 
ATOM     55  C   UNL A   1      42.186  23.128  26.633  1.00  0.00     0.074 A 
ATOM     56  C   UNL A   1      45.261  27.594  25.149  1.00  0.00     0.029 A 
ATOM     57  N   UNL A   1      45.924  26.834  27.148  1.00  0.00    -0.354 N 
ATOM     58  N   UNL A   1      43.132  23.073  27.518  1.00  0.00    -0.248 NA
ATOM     59  C   UNL A   1      42.608  23.372  25.248  1.00  0.00     0.031 C 
ATOM     60  C   UNL A   1      44.824  26.265  25.325  1.00  0.00     0.029 A 
ATOM     61  C   UNL A   1      45.189  25.816  26.599  1.00  0.00     0.049 A 
ATOM     62  H   UNL A   1      46.535  26.771  27.917  1.00  0.00     0.167 HD
ATOM     63  C   UNL A   1      44.171  23.679  26.861  1.00  0.00     0.074 A 
ATOM     64  C   UNL A   1      43.916  23.515  25.445  1.00  0.00     0.031 C 
ATOM     65  C   UNL A   1      44.822  24.713  27.453  1.00  0.00     0.031 A 
BRANCH  52  66
ATOM     66  C   UNL A   1      46.747  29.896  27.511  1.00  0.00    -0.014 A 
ATOM     67  C   UNL A   1      47.975  29.294  27.135  1.00  0.00     0.009 A 
ATOM     68  C   UNL A   1      46.796  30.905  28.476  1.00  0.00     0.009 A 
ATOM     69  C   UNL A   1      49.173  29.586  27.789  1.00  0.00     0.001 A 
ATOM     70  C   UNL A   1      48.009  31.225  29.107  1.00  0.00     0.001 A 
ATOM     71  C   UNL A   1      49.184  30.540  28.793  1.00  0.00     0.000 A 
ENDBRANCH  52  66
BRANCH  53  72
ATOM     72  C   UNL A   1      40.089  21.752  26.478  1.00  0.00    -0.014 A 
ATOM     73  C   UNL A   1      38.846  21.637  25.852  1.00  0.00     0.009 A 
ATOM     74  C   UNL A   1      40.801  20.527  26.641  1.00  0.00     0.009 A 
ATOM     75  C   UNL A   1      38.401  20.396  25.338  1.00  0.00     0.001 A 
ATOM     76  C   UNL A   1      40.390  19.308  26.095  1.00  0.00     0.001 A 
ATOM     77  C   UNL A   1      39.186  19.245  25.425  1.00  0.00     0.000 A 
ENDBRANCH  53  72
BRANCH  65  78
ATOM     78  C   UNL A   1      44.696  24.769  28.971  1.00  0.00    -0.014 A 
ATOM     79  C   UNL A   1      44.707  23.575  29.712  1.00  0.00     0.009 A 
ATOM     80  C   UNL A   1      44.432  25.955  29.680  1.00  0.00     0.009 A 
ATOM     81  C   UNL A   1      44.438  23.561  31.087  1.00  0.00     0.001 A 
ATOM     82  C   UNL A   1      44.166  25.948  31.059  1.00  0.00     0.001 A 
ATOM     83  C   UNL A   1      44.164  24.748  31.761  1.00  0.00     0.000 A 
ENDBRANCH  65  78
ENDBRANCH  39  40
ENDBRANCH  31  34
ENDBRANCH  29  30
ENDBRANCH  28  29
ENDBRANCH  27  28
ENDBRANCH  26  27
ENDBRANCH  25  26
ENDBRANCH   1  25
TORSDOF 19
ENDMDL
