MODEL 1
REMARK VINA RESULT:     -11.2      0.000      0.000
REMARK SMILES C[C@H]1[C@@H](C(=O)NCCCCCCNC(=O)c2ccc(-c3c4nc(c(-c5ccccc5)c5ccc([nH]5)c(-c5ccccc5)c5nc(c(-c6ccccc6)c6ccc3[nH]6)C=C5)C=C4)cc2)CCN1C(=O)N[C@@H]1CC[N@H+]2CCCC[C@H]12
REMARK SMILES IDX 9 1 8 2 7 3 6 4 4 5 5 6 3 8 1 9 2 10 66 11 64 12 65 13 67 14
REMARK SMILES IDX 68 15 69 16 70 18 71 19 78 20 72 21 73 22 77 23 74 24 76 26
REMARK SMILES IDX 75 27 10 28 11 29 12 30 13 31 14 32 15 34 16 35 17 36 63 37
REMARK SMILES IDX 18 38 62 39 19 40 20 41 21 42 56 43 22 44 61 45 55 46 57 47
REMARK SMILES IDX 23 48 60 49 54 50 53 51 24 53 46 54 31 55 45 56 32 57 35 58
REMARK SMILES IDX 44 59 58 60 33 61 34 62 43 64 59 65 36 66 25 67 26 68 30 69
REMARK SMILES IDX 27 70 29 71 28 72 47 73 48 74 52 75 49 76 51 77 50 78 37 79
REMARK SMILES IDX 38 80 42 81 39 82 41 83 40 84
REMARK H PARENT 6 7 69 17 73 25 13 33 57 52 35 63
REMARK Flexibility Score: inf
ROOT
ATOM      1  C   UNL A   1      36.274  21.632  26.188  1.00  0.00     0.002 C 
ENDROOT
BRANCH   1   2
ATOM      2  C   UNL A   1      34.862  21.996  26.667  1.00  0.00     0.021 C 
BRANCH   2   3
ATOM      3  C   UNL A   1      33.796  20.954  26.338  1.00  0.00     0.116 C 
BRANCH   3   4
ATOM      4  N   UNL A   1      32.465  21.525  26.353  1.00  0.00    -0.356 N 
ATOM      5  C   UNL A   1      31.818  22.290  25.435  1.00  0.00     0.225 C 
ATOM      6  O   UNL A   1      30.620  22.491  25.617  1.00  0.00    -0.275 OA
ATOM      7  H   UNL A   1      31.941  21.326  27.163  1.00  0.00     0.163 HD
BRANCH   5   8
ATOM      8  C   UNL A   1      32.575  22.763  24.207  1.00  0.00     0.102 C 
ATOM      9  C   UNL A   1      33.212  24.869  25.598  1.00  0.00     0.032 C 
ATOM     10  C   UNL A   1      33.233  24.159  24.250  1.00  0.00     0.096 C 
ATOM     11  N   UNL A   1      32.584  24.941  23.202  1.00  0.00    -0.321 N 
ATOM     12  C   UNL A   1      31.613  22.812  23.017  1.00  0.00     0.037 C 
ATOM     13  C   UNL A   1      31.339  24.292  22.827  1.00  0.00     0.122 C 
BRANCH  11  14
ATOM     14  C   UNL A   1      32.909  26.135  22.633  1.00  0.00     0.318 C 
ATOM     15  O   UNL A   1      33.845  26.221  21.830  1.00  0.00    -0.249 OA
ATOM     16  N   UNL A   1      32.267  27.288  22.900  1.00  0.00    -0.329 N 
ATOM     17  H   UNL A   1      32.570  28.014  22.309  1.00  0.00     0.165 HD
BRANCH  16  18
ATOM     18  C   UNL A   1      31.241  27.751  23.831  1.00  0.00     0.147 C 
ATOM     19  C   UNL A   1      30.342  28.832  23.199  1.00  0.00     0.092 C 
ATOM     20  C   UNL A   1      31.781  28.446  25.100  1.00  0.00     0.207 C 
ATOM     21  C   UNL A   1      30.319  29.991  24.183  1.00  0.00     0.264 C 
ATOM     22  N   UNL A   1      31.623  29.880  24.818  1.00  0.00    -0.331 N 
ATOM     23  C   UNL A   1      33.212  28.170  25.546  1.00  0.00     0.067 C 
ATOM     24  C   UNL A   1      31.759  30.675  26.034  1.00  0.00     0.262 C 
ATOM     25  H   UNL A   1      32.349  30.251  24.204  1.00  0.00     0.348 HD
ATOM     26  C   UNL A   1      33.500  28.979  26.816  1.00  0.00     0.012 C 
ATOM     27  C   UNL A   1      33.153  30.461  26.634  1.00  0.00     0.062 C 
ENDBRANCH  16  18
ENDBRANCH  11  14
ENDBRANCH   5   8
ENDBRANCH   3   4
ENDBRANCH   2   3
ENDBRANCH   1   2
BRANCH   1  28
ATOM     28  C   UNL A   1      36.336  20.619  25.039  1.00  0.00     0.002 C 
BRANCH  28  29
ATOM     29  C   UNL A   1      37.745  20.187  24.634  1.00  0.00     0.021 C 
BRANCH  29  30
ATOM     30  C   UNL A   1      38.820  20.519  25.658  1.00  0.00     0.116 C 
BRANCH  30  31
ATOM     31  N   UNL A   1      39.808  19.460  25.774  1.00  0.00    -0.352 N 
ATOM     32  C   UNL A   1      41.138  19.552  26.097  1.00  0.00     0.251 C 
ATOM     33  H   UNL A   1      39.477  18.550  25.597  1.00  0.00     0.163 HD
ATOM     34  O   UNL A   1      41.881  18.585  25.955  1.00  0.00    -0.269 OA
BRANCH  32  35
ATOM     35  C   UNL A   1      41.677  20.833  26.595  1.00  0.00     0.039 A 
ATOM     36  C   UNL A   1      42.210  21.744  25.682  1.00  0.00     0.014 A 
ATOM     37  C   UNL A   1      41.645  21.136  27.961  1.00  0.00     0.014 A 
ATOM     38  C   UNL A   1      42.658  22.987  26.133  1.00  0.00     0.010 A 
ATOM     39  C   UNL A   1      42.014  22.405  28.394  1.00  0.00     0.010 A 
ATOM     40  C   UNL A   1      42.530  23.340  27.487  1.00  0.00    -0.014 A 
BRANCH  40  41
ATOM     41  C   UNL A   1      42.932  24.685  27.969  1.00  0.00     0.031 A 
ATOM     42  C   UNL A   1      41.891  25.739  28.225  1.00  0.00     0.074 A 
ATOM     43  C   UNL A   1      44.239  24.973  28.124  1.00  0.00     0.049 A 
ATOM     44  N   UNL A   1      42.052  26.980  28.612  1.00  0.00    -0.248 NA
ATOM     45  C   UNL A   1      40.488  25.358  27.996  1.00  0.00     0.031 C 
ATOM     46  C   UNL A   1      45.348  24.050  27.875  1.00  0.00     0.029 A 
ATOM     47  N   UNL A   1      44.855  26.130  28.532  1.00  0.00    -0.354 N 
ATOM     48  C   UNL A   1      40.775  27.527  28.660  1.00  0.00     0.074 A 
ATOM     49  C   UNL A   1      39.858  26.504  28.207  1.00  0.00     0.031 C 
ATOM     50  C   UNL A   1      46.506  24.665  28.166  1.00  0.00     0.029 A 
ATOM     51  C   UNL A   1      46.226  26.036  28.578  1.00  0.00     0.049 A 
ATOM     52  H   UNL A   1      44.363  26.949  28.767  1.00  0.00     0.167 HD
ATOM     53  C   UNL A   1      40.398  28.763  29.064  1.00  0.00     0.031 A 
ATOM     54  C   UNL A   1      47.154  26.953  28.909  1.00  0.00     0.031 A 
ATOM     55  C   UNL A   1      41.309  29.780  29.513  1.00  0.00     0.049 A 
ATOM     56  C   UNL A   1      46.710  28.330  29.320  1.00  0.00     0.074 A 
ATOM     57  C   UNL A   1      41.021  31.046  29.991  1.00  0.00     0.029 A 
ATOM     58  N   UNL A   1      42.690  29.650  29.534  1.00  0.00    -0.354 N 
ATOM     59  N   UNL A   1      45.495  28.809  29.428  1.00  0.00    -0.248 NA
ATOM     60  C   UNL A   1      47.769  29.289  29.663  1.00  0.00     0.031 C 
ATOM     61  C   UNL A   1      42.229  31.705  30.240  1.00  0.00     0.029 A 
ATOM     62  C   UNL A   1      43.268  30.824  29.984  1.00  0.00     0.049 A 
ATOM     63  H   UNL A   1      43.185  28.842  29.268  1.00  0.00     0.167 HD
ATOM     64  C   UNL A   1      45.641  30.115  29.879  1.00  0.00     0.074 A 
ATOM     65  C   UNL A   1      47.062  30.344  30.041  1.00  0.00     0.031 C 
ATOM     66  C   UNL A   1      44.684  31.041  30.135  1.00  0.00     0.031 A 
BRANCH  53  67
ATOM     67  C   UNL A   1      38.928  29.084  29.022  1.00  0.00    -0.014 A 
ATOM     68  C   UNL A   1      38.115  28.938  30.159  1.00  0.00     0.009 A 
ATOM     69  C   UNL A   1      38.352  29.572  27.838  1.00  0.00     0.009 A 
ATOM     70  C   UNL A   1      36.751  29.230  30.098  1.00  0.00     0.001 A 
ATOM     71  C   UNL A   1      36.996  29.896  27.789  1.00  0.00     0.001 A 
ATOM     72  C   UNL A   1      36.194  29.715  28.915  1.00  0.00     0.000 A 
ENDBRANCH  53  67
BRANCH  54  73
ATOM     73  C   UNL A   1      48.598  26.599  28.876  1.00  0.00    -0.014 A 
ATOM     74  C   UNL A   1      49.227  26.063  30.011  1.00  0.00     0.009 A 
ATOM     75  C   UNL A   1      49.358  26.803  27.713  1.00  0.00     0.009 A 
ATOM     76  C   UNL A   1      50.591  25.767  29.991  1.00  0.00     0.001 A 
ATOM     77  C   UNL A   1      50.715  26.476  27.687  1.00  0.00     0.001 A 
ATOM     78  C   UNL A   1      51.333  25.968  28.828  1.00  0.00     0.000 A 
ENDBRANCH  54  73
BRANCH  66  79
ATOM     79  C   UNL A   1      45.141  32.378  30.652  1.00  0.00    -0.014 A 
ATOM     80  C   UNL A   1      45.314  32.611  32.025  1.00  0.00     0.009 A 
ATOM     81  C   UNL A   1      45.443  33.406  29.745  1.00  0.00     0.009 A 
ATOM     82  C   UNL A   1      45.744  33.860  32.480  1.00  0.00     0.001 A 
ATOM     83  C   UNL A   1      45.905  34.641  30.200  1.00  0.00     0.001 A 
ATOM     84  C   UNL A   1      46.044  34.870  31.567  1.00  0.00     0.000 A 
ENDBRANCH  66  79
ENDBRANCH  40  41
ENDBRANCH  32  35
ENDBRANCH  30  31
ENDBRANCH  29  30
ENDBRANCH  28  29
ENDBRANCH   1  28
TORSDOF 15
ENDMDL
MODEL 2
REMARK VINA RESULT:     -11.0      4.966     10.002
REMARK SMILES C[C@H]1[C@@H](C(=O)NCCCCCCNC(=O)c2ccc(-c3c4nc(c(-c5ccccc5)c5ccc([nH]5)c(-c5ccccc5)c5nc(c(-c6ccccc6)c6ccc3[nH]6)C=C5)C=C4)cc2)CCN1C(=O)N[C@@H]1CC[N@H+]2CCCC[C@H]12
REMARK SMILES IDX 9 1 8 2 7 3 6 4 4 5 5 6 3 8 1 9 2 10 66 11 64 12 65 13 67 14
REMARK SMILES IDX 68 15 69 16 70 18 71 19 78 20 72 21 73 22 77 23 74 24 76 26
REMARK SMILES IDX 75 27 10 28 11 29 12 30 13 31 14 32 15 34 16 35 17 36 63 37
REMARK SMILES IDX 18 38 62 39 19 40 20 41 21 42 56 43 22 44 61 45 55 46 57 47
REMARK SMILES IDX 23 48 60 49 54 50 53 51 24 53 46 54 31 55 45 56 32 57 35 58
REMARK SMILES IDX 44 59 58 60 33 61 34 62 43 64 59 65 36 66 25 67 26 68 30 69
REMARK SMILES IDX 27 70 29 71 28 72 47 73 48 74 52 75 49 76 51 77 50 78 37 79
REMARK SMILES IDX 38 80 42 81 39 82 41 83 40 84
REMARK H PARENT 6 7 69 17 73 25 13 33 57 52 35 63
REMARK Flexibility Score: inf
ROOT
ATOM      1  C   UNL A   1      34.798  32.346  28.795  1.00  0.00     0.002 C 
ENDROOT
BRANCH   1   2
ATOM      2  C   UNL A   1      35.040  31.227  27.772  1.00  0.00     0.021 C 
BRANCH   2   3
ATOM      3  C   UNL A   1      33.769  30.543  27.273  1.00  0.00     0.116 C 
BRANCH   3   4
ATOM      4  N   UNL A   1      33.905  30.096  25.902  1.00  0.00    -0.356 N 
ATOM      5  C   UNL A   1      33.040  29.419  25.102  1.00  0.00     0.225 C 
ATOM      6  O   UNL A   1      33.335  29.323  23.912  1.00  0.00    -0.275 OA
ATOM      7  H   UNL A   1      34.766  30.319  25.479  1.00  0.00     0.163 HD
BRANCH   5   8
ATOM      8  C   UNL A   1      31.735  28.913  25.689  1.00  0.00     0.102 C 
ATOM      9  C   UNL A   1      33.068  26.810  26.448  1.00  0.00     0.032 C 
ATOM     10  C   UNL A   1      31.717  27.503  26.318  1.00  0.00     0.096 C 
ATOM     11  N   UNL A   1      30.770  26.723  25.526  1.00  0.00    -0.321 N 
ATOM     12  C   UNL A   1      30.674  28.872  24.586  1.00  0.00     0.037 C 
ATOM     13  C   UNL A   1      30.542  27.397  24.259  1.00  0.00     0.122 C 
BRANCH  11  14
ATOM     14  C   UNL A   1      30.183  25.515  25.752  1.00  0.00     0.318 C 
ATOM     15  O   UNL A   1      29.201  25.416  26.496  1.00  0.00    -0.249 OA
ATOM     16  N   UNL A   1      30.619  24.362  25.210  1.00  0.00    -0.329 N 
ATOM     17  H   UNL A   1      30.000  23.620  25.399  1.00  0.00     0.165 HD
BRANCH  16  18
ATOM     18  C   UNL A   1      31.762  23.915  24.420  1.00  0.00     0.147 C 
ATOM     19  C   UNL A   1      31.330  23.002  23.256  1.00  0.00     0.092 C 
ATOM     20  C   UNL A   1      32.782  23.045  25.186  1.00  0.00     0.207 C 
ATOM     21  C   UNL A   1      32.201  21.758  23.349  1.00  0.00     0.264 C 
ATOM     22  N   UNL A   1      32.457  21.670  24.779  1.00  0.00    -0.331 N 
ATOM     23  C   UNL A   1      32.834  23.126  26.707  1.00  0.00     0.067 C 
ATOM     24  C   UNL A   1      33.532  20.748  25.132  1.00  0.00     0.262 C 
ATOM     25  H   UNL A   1      31.643  21.290  25.262  1.00  0.00     0.348 HD
ATOM     26  C   UNL A   1      33.917  22.169  27.218  1.00  0.00     0.012 C 
ATOM     27  C   UNL A   1      33.737  20.756  26.651  1.00  0.00     0.062 C 
ENDBRANCH  16  18
ENDBRANCH  11  14
ENDBRANCH   5   8
ENDBRANCH   3   4
ENDBRANCH   2   3
ENDBRANCH   1   2
BRANCH   1  28
ATOM     28  C   UNL A   1      35.344  33.723  28.400  1.00  0.00     0.002 C 
BRANCH  28  29
ATOM     29  C   UNL A   1      34.434  34.902  28.746  1.00  0.00     0.021 C 
BRANCH  29  30
ATOM     30  C   UNL A   1      33.091  34.502  29.338  1.00  0.00     0.116 C 
BRANCH  30  31
ATOM     31  N   UNL A   1      32.640  35.442  30.351  1.00  0.00    -0.352 N 
ATOM     32  C   UNL A   1      33.054  35.575  31.650  1.00  0.00     0.251 C 
ATOM     33  H   UNL A   1      31.938  36.071  30.063  1.00  0.00     0.163 HD
ATOM     34  O   UNL A   1      32.430  36.286  32.433  1.00  0.00    -0.269 OA
BRANCH  32  35
ATOM     35  C   UNL A   1      34.247  34.838  32.111  1.00  0.00     0.039 A 
ATOM     36  C   UNL A   1      34.098  33.526  32.566  1.00  0.00     0.014 A 
ATOM     37  C   UNL A   1      35.511  35.437  32.083  1.00  0.00     0.014 A 
ATOM     38  C   UNL A   1      35.227  32.795  32.937  1.00  0.00     0.010 A 
ATOM     39  C   UNL A   1      36.641  34.679  32.373  1.00  0.00     0.010 A 
ATOM     40  C   UNL A   1      36.510  33.354  32.810  1.00  0.00    -0.014 A 
BRANCH  40  41
ATOM     41  C   UNL A   1      37.725  32.564  33.130  1.00  0.00     0.031 A 
ATOM     42  C   UNL A   1      38.473  32.812  34.411  1.00  0.00     0.074 A 
ATOM     43  C   UNL A   1      38.185  31.661  32.242  1.00  0.00     0.049 A 
ATOM     44  N   UNL A   1      39.574  32.250  34.845  1.00  0.00    -0.248 NA
ATOM     45  C   UNL A   1      37.928  33.841  35.311  1.00  0.00     0.031 C 
ATOM     46  C   UNL A   1      37.571  31.353  30.949  1.00  0.00     0.029 A 
ATOM     47  N   UNL A   1      39.280  30.835  32.295  1.00  0.00    -0.354 N 
ATOM     48  C   UNL A   1      39.856  32.865  36.059  1.00  0.00     0.074 A 
ATOM     49  C   UNL A   1      38.848  33.881  36.264  1.00  0.00     0.031 C 
ATOM     50  C   UNL A   1      38.278  30.383  30.346  1.00  0.00     0.029 A 
ATOM     51  C   UNL A   1      39.418  30.033  31.188  1.00  0.00     0.049 A 
ATOM     52  H   UNL A   1      39.907  30.818  33.053  1.00  0.00     0.167 HD
ATOM     53  C   UNL A   1      40.853  32.593  36.934  1.00  0.00     0.031 A 
ATOM     54  C   UNL A   1      40.360  29.123  30.880  1.00  0.00     0.031 A 
ATOM     55  C   UNL A   1      41.855  31.583  36.730  1.00  0.00     0.049 A 
ATOM     56  C   UNL A   1      41.477  28.866  31.853  1.00  0.00     0.074 A 
ATOM     57  C   UNL A   1      42.876  31.197  37.580  1.00  0.00     0.029 A 
ATOM     58  N   UNL A   1      41.967  30.801  35.590  1.00  0.00    -0.354 N 
ATOM     59  N   UNL A   1      41.690  29.405  33.029  1.00  0.00    -0.248 NA
ATOM     60  C   UNL A   1      42.479  27.866  31.459  1.00  0.00     0.031 C 
ATOM     61  C   UNL A   1      43.645  30.228  36.929  1.00  0.00     0.029 A 
ATOM     62  C   UNL A   1      43.061  29.959  35.700  1.00  0.00     0.049 A 
ATOM     63  H   UNL A   1      41.360  30.839  34.817  1.00  0.00     0.167 HD
ATOM     64  C   UNL A   1      42.831  28.791  33.526  1.00  0.00     0.074 A 
ATOM     65  C   UNL A   1      43.254  27.825  32.533  1.00  0.00     0.031 C 
ATOM     66  C   UNL A   1      43.473  29.007  34.702  1.00  0.00     0.031 A 
BRANCH  53  67
ATOM     67  C   UNL A   1      40.912  33.419  38.191  1.00  0.00    -0.014 A 
ATOM     68  C   UNL A   1      40.210  33.040  39.348  1.00  0.00     0.009 A 
ATOM     69  C   UNL A   1      41.707  34.575  38.231  1.00  0.00     0.009 A 
ATOM     70  C   UNL A   1      40.267  33.824  40.501  1.00  0.00     0.001 A 
ATOM     71  C   UNL A   1      41.789  35.339  39.396  1.00  0.00     0.001 A 
ATOM     72  C   UNL A   1      41.062  34.970  40.527  1.00  0.00     0.000 A 
ENDBRANCH  53  67
BRANCH  54  73
ATOM     73  C   UNL A   1      40.286  28.377  29.595  1.00  0.00    -0.014 A 
ATOM     74  C   UNL A   1      39.591  27.160  29.516  1.00  0.00     0.009 A 
ATOM     75  C   UNL A   1      40.916  28.873  28.443  1.00  0.00     0.009 A 
ATOM     76  C   UNL A   1      39.554  26.441  28.320  1.00  0.00     0.001 A 
ATOM     77  C   UNL A   1      40.850  28.167  27.239  1.00  0.00     0.001 A 
ATOM     78  C   UNL A   1      40.179  26.947  27.181  1.00  0.00     0.000 A 
ENDBRANCH  54  73
BRANCH  66  79
ATOM     79  C   UNL A   1      44.681  28.159  34.992  1.00  0.00    -0.014 A 
ATOM     80  C   UNL A   1      45.973  28.582  34.642  1.00  0.00     0.009 A 
ATOM     81  C   UNL A   1      44.525  26.935  35.662  1.00  0.00     0.009 A 
ATOM     82  C   UNL A   1      47.080  27.779  34.927  1.00  0.00     0.001 A 
ATOM     83  C   UNL A   1      45.636  26.151  35.974  1.00  0.00     0.001 A 
ATOM     84  C   UNL A   1      46.911  26.569  35.597  1.00  0.00     0.000 A 
ENDBRANCH  66  79
ENDBRANCH  40  41
ENDBRANCH  32  35
ENDBRANCH  30  31
ENDBRANCH  29  30
ENDBRANCH  28  29
ENDBRANCH   1  28
TORSDOF 15
ENDMDL
MODEL 3
REMARK VINA RESULT:     -11.0      3.868      7.339
REMARK SMILES C[C@H]1[C@@H](C(=O)NCCCCCCNC(=O)c2ccc(-c3c4nc(c(-c5ccccc5)c5ccc([nH]5)c(-c5ccccc5)c5nc(c(-c6ccccc6)c6ccc3[nH]6)C=C5)C=C4)cc2)CCN1C(=O)N[C@@H]1CC[N@H+]2CCCC[C@H]12
REMARK SMILES IDX 9 1 8 2 7 3 6 4 4 5 5 6 3 8 1 9 2 10 66 11 64 12 65 13 67 14
REMARK SMILES IDX 68 15 69 16 70 18 71 19 78 20 72 21 73 22 77 23 74 24 76 26
REMARK SMILES IDX 75 27 10 28 11 29 12 30 13 31 14 32 15 34 16 35 17 36 63 37
REMARK SMILES IDX 18 38 62 39 19 40 20 41 21 42 56 43 22 44 61 45 55 46 57 47
REMARK SMILES IDX 23 48 60 49 54 50 53 51 24 53 46 54 31 55 45 56 32 57 35 58
REMARK SMILES IDX 44 59 58 60 33 61 34 62 43 64 59 65 36 66 25 67 26 68 30 69
REMARK SMILES IDX 27 70 29 71 28 72 47 73 48 74 52 75 49 76 51 77 50 78 37 79
REMARK SMILES IDX 38 80 42 81 39 82 41 83 40 84
REMARK H PARENT 6 7 69 17 73 25 13 33 57 52 35 63
REMARK Flexibility Score: inf
ROOT
ATOM      1  C   UNL A   1      39.647  22.417  26.745  1.00  0.00     0.002 C 
ENDROOT
BRANCH   1   2
ATOM      2  C   UNL A   1      38.706  21.722  25.751  1.00  0.00     0.021 C 
BRANCH   2   3
ATOM      3  C   UNL A   1      37.282  22.272  25.740  1.00  0.00     0.116 C 
BRANCH   3   4
ATOM      4  N   UNL A   1      36.301  21.218  25.584  1.00  0.00    -0.356 N 
ATOM      5  C   UNL A   1      34.991  21.272  25.224  1.00  0.00     0.225 C 
ATOM      6  O   UNL A   1      34.430  20.204  24.989  1.00  0.00    -0.275 OA
ATOM      7  H   UNL A   1      36.638  20.311  25.769  1.00  0.00     0.163 HD
BRANCH   5   8
ATOM      8  C   UNL A   1      34.335  22.627  25.039  1.00  0.00     0.102 C 
ATOM      9  C   UNL A   1      34.049  22.672  27.626  1.00  0.00     0.032 C 
ATOM     10  C   UNL A   1      33.752  23.331  26.284  1.00  0.00     0.096 C 
ATOM     11  N   UNL A   1      32.319  23.462  26.037  1.00  0.00    -0.321 N 
ATOM     12  C   UNL A   1      33.155  22.482  24.074  1.00  0.00     0.037 C 
ATOM     13  C   UNL A   1      31.934  22.549  24.974  1.00  0.00     0.122 C 
BRANCH  11  14
ATOM     14  C   UNL A   1      31.358  24.195  26.665  1.00  0.00     0.318 C 
ATOM     15  O   UNL A   1      30.372  23.647  27.170  1.00  0.00    -0.249 OA
ATOM     16  N   UNL A   1      31.396  25.536  26.774  1.00  0.00    -0.329 N 
ATOM     17  H   UNL A   1      30.677  25.870  27.358  1.00  0.00     0.165 HD
BRANCH  16  18
ATOM     18  C   UNL A   1      32.216  26.629  26.258  1.00  0.00     0.147 C 
ATOM     19  C   UNL A   1      32.201  27.848  27.201  1.00  0.00     0.092 C 
ATOM     20  C   UNL A   1      31.738  27.222  24.915  1.00  0.00     0.207 C 
ATOM     21  C   UNL A   1      31.856  29.050  26.335  1.00  0.00     0.264 C 
ATOM     22  N   UNL A   1      31.028  28.452  25.298  1.00  0.00    -0.331 N 
ATOM     23  C   UNL A   1      30.847  26.383  24.007  1.00  0.00     0.067 C 
ATOM     24  C   UNL A   1      30.809  29.316  24.143  1.00  0.00     0.262 C 
ATOM     25  H   UNL A   1      30.087  28.278  25.652  1.00  0.00     0.348 HD
ATOM     26  C   UNL A   1      30.513  27.196  22.751  1.00  0.00     0.012 C 
ATOM     27  C   UNL A   1      29.955  28.580  23.105  1.00  0.00     0.062 C 
ENDBRANCH  16  18
ENDBRANCH  11  14
ENDBRANCH   5   8
ENDBRANCH   3   4
ENDBRANCH   2   3
ENDBRANCH   1   2
BRANCH   1  28
ATOM     28  C   UNL A   1      40.840  21.578  27.214  1.00  0.00     0.002 C 
BRANCH  28  29
ATOM     29  C   UNL A   1      41.923  21.350  26.160  1.00  0.00     0.021 C 
BRANCH  29  30
ATOM     30  C   UNL A   1      42.306  22.597  25.376  1.00  0.00     0.116 C 
BRANCH  30  31
ATOM     31  N   UNL A   1      43.743  22.706  25.191  1.00  0.00    -0.352 N 
ATOM     32  C   UNL A   1      44.620  23.597  25.752  1.00  0.00     0.251 C 
ATOM     33  H   UNL A   1      44.142  22.047  24.577  1.00  0.00     0.163 HD
ATOM     34  O   UNL A   1      45.772  23.682  25.336  1.00  0.00    -0.269 OA
BRANCH  32  35
ATOM     35  C   UNL A   1      44.163  24.474  26.848  1.00  0.00     0.039 A 
ATOM     36  C   UNL A   1      44.323  25.855  26.721  1.00  0.00     0.014 A 
ATOM     37  C   UNL A   1      43.567  23.933  27.992  1.00  0.00     0.014 A 
ATOM     38  C   UNL A   1      43.831  26.699  27.718  1.00  0.00     0.010 A 
ATOM     39  C   UNL A   1      43.004  24.779  28.942  1.00  0.00     0.010 A 
ATOM     40  C   UNL A   1      43.136  26.169  28.819  1.00  0.00    -0.014 A 
BRANCH  40  41
ATOM     41  C   UNL A   1      42.542  27.056  29.849  1.00  0.00     0.031 A 
ATOM     42  C   UNL A   1      43.182  27.177  31.204  1.00  0.00     0.074 A 
ATOM     43  C   UNL A   1      41.397  27.713  29.582  1.00  0.00     0.049 A 
ATOM     44  N   UNL A   1      42.789  27.870  32.243  1.00  0.00    -0.248 NA
ATOM     45  C   UNL A   1      44.411  26.399  31.431  1.00  0.00     0.031 C 
ATOM     46  C   UNL A   1      40.658  27.652  28.319  1.00  0.00     0.029 A 
ATOM     47  N   UNL A   1      40.652  28.562  30.361  1.00  0.00    -0.354 N 
ATOM     48  C   UNL A   1      43.714  27.602  33.245  1.00  0.00     0.074 A 
ATOM     49  C   UNL A   1      44.652  26.640  32.712  1.00  0.00     0.031 C 
ATOM     50  C   UNL A   1      39.585  28.456  28.397  1.00  0.00     0.029 A 
ATOM     51  C   UNL A   1      39.535  29.053  29.729  1.00  0.00     0.049 A 
ATOM     52  H   UNL A   1      40.894  28.797  31.286  1.00  0.00     0.167 HD
ATOM     53  C   UNL A   1      43.788  28.126  34.492  1.00  0.00     0.031 A 
ATOM     54  C   UNL A   1      38.573  29.884  30.172  1.00  0.00     0.031 A 
ATOM     55  C   UNL A   1      42.855  29.084  35.023  1.00  0.00     0.049 A 
ATOM     56  C   UNL A   1      38.660  30.424  31.572  1.00  0.00     0.074 A 
ATOM     57  C   UNL A   1      42.873  29.712  36.255  1.00  0.00     0.029 A 
ATOM     58  N   UNL A   1      41.732  29.545  34.355  1.00  0.00    -0.354 N 
ATOM     59  N   UNL A   1      39.579  30.216  32.484  1.00  0.00    -0.248 NA
ATOM     60  C   UNL A   1      37.578  31.321  32.001  1.00  0.00     0.031 C 
ATOM     61  C   UNL A   1      41.727  30.505  36.359  1.00  0.00     0.029 A 
ATOM     62  C   UNL A   1      41.030  30.425  35.163  1.00  0.00     0.049 A 
ATOM     63  H   UNL A   1      41.471  29.286  33.442  1.00  0.00     0.167 HD
ATOM     64  C   UNL A   1      39.203  30.979  33.582  1.00  0.00     0.074 A 
ATOM     65  C   UNL A   1      37.982  31.667  33.215  1.00  0.00     0.031 C 
ATOM     66  C   UNL A   1      39.814  31.098  34.787  1.00  0.00     0.031 A 
BRANCH  53  67
ATOM     67  C   UNL A   1      44.916  27.659  35.372  1.00  0.00    -0.014 A 
ATOM     68  C   UNL A   1      46.150  28.330  35.396  1.00  0.00     0.009 A 
ATOM     69  C   UNL A   1      44.732  26.551  36.214  1.00  0.00     0.009 A 
ATOM     70  C   UNL A   1      47.189  27.875  36.211  1.00  0.00     0.001 A 
ATOM     71  C   UNL A   1      45.761  26.118  37.052  1.00  0.00     0.001 A 
ATOM     72  C   UNL A   1      46.992  26.773  37.043  1.00  0.00     0.000 A 
ENDBRANCH  53  67
BRANCH  54  73
ATOM     73  C   UNL A   1      37.448  30.267  29.279  1.00  0.00    -0.014 A 
ATOM     74  C   UNL A   1      37.341  31.578  28.789  1.00  0.00     0.009 A 
ATOM     75  C   UNL A   1      36.470  29.327  28.916  1.00  0.00     0.009 A 
ATOM     76  C   UNL A   1      36.263  31.947  27.981  1.00  0.00     0.001 A 
ATOM     77  C   UNL A   1      35.411  29.691  28.082  1.00  0.00     0.001 A 
ATOM     78  C   UNL A   1      35.302  31.003  27.624  1.00  0.00     0.000 A 
ENDBRANCH  54  73
BRANCH  66  79
ATOM     79  C   UNL A   1      39.189  32.034  35.785  1.00  0.00    -0.014 A 
ATOM     80  C   UNL A   1      38.224  31.587  36.702  1.00  0.00     0.009 A 
ATOM     81  C   UNL A   1      39.603  33.374  35.833  1.00  0.00     0.009 A 
ATOM     82  C   UNL A   1      37.662  32.474  37.622  1.00  0.00     0.001 A 
ATOM     83  C   UNL A   1      39.063  34.250  36.777  1.00  0.00     0.001 A 
ATOM     84  C   UNL A   1      38.086  33.802  37.662  1.00  0.00     0.000 A 
ENDBRANCH  66  79
ENDBRANCH  40  41
ENDBRANCH  32  35
ENDBRANCH  30  31
ENDBRANCH  29  30
ENDBRANCH  28  29
ENDBRANCH   1  28
TORSDOF 15
ENDMDL
