MODEL 1
REMARK VINA RESULT:     -11.7      0.000      0.000
REMARK SMILES COC(=O)c1c(NC(=O)[C@@H]2[C@H]3CC[C@H](CC3)[C@H]2C(=O)NCCCCCCNC(=O)c2ccc(-c3c4nc(c(-c5ccccc5)c5ccc([nH]5)c(-c5ccccc5)c5nc(c(-c6ccccc6)c6ccc3[nH]6)C=C5)C=C4)cc2)sc(C)c1-c1ccc(C)cc1
REMARK SMILES IDX 22 1 21 2 20 3 18 4 19 5 17 7 10 8 11 9 16 10 12 11 14 12
REMARK SMILES IDX 15 13 13 14 8 15 7 16 9 18 6 19 5 20 81 21 78 22 79 23 80 24
REMARK SMILES IDX 3 25 4 26 2 27 1 28 82 29 83 30 88 31 84 32 87 33 85 34
REMARK SMILES IDX 86 35 23 36 24 37 25 38 26 39 27 40 28 41 29 43 30 44 31 45
REMARK SMILES IDX 77 46 32 47 76 48 33 49 34 50 35 51 70 52 36 53 75 54 69 55
REMARK SMILES IDX 71 56 37 57 74 58 68 59 67 60 38 62 60 63 45 64 59 65 46 66
REMARK SMILES IDX 49 67 58 68 72 69 47 70 48 71 57 73 73 74 50 75 39 76 40 77
REMARK SMILES IDX 44 78 41 79 43 80 42 81 61 82 62 83 66 84 63 85 65 86 64 87
REMARK SMILES IDX 51 88 52 89 56 90 53 91 55 92 54 93
REMARK H PARENT 20 6 7 17 27 42 71 61 49 72
REMARK Flexibility Score: inf
ROOT
ATOM      1  C   UNL A   1      35.755  24.236  24.800  1.00  0.00     0.021 C 
ENDROOT
BRANCH   1   2
ATOM      2  C   UNL A   1      34.654  25.253  25.050  1.00  0.00     0.116 C 
BRANCH   2   3
ATOM      3  N   UNL A   1      34.284  25.994  23.872  1.00  0.00    -0.356 N 
ATOM      4  C   UNL A   1      33.484  27.074  23.697  1.00  0.00     0.224 C 
ATOM      5  O   UNL A   1      33.449  27.525  22.544  1.00  0.00    -0.275 OA
ATOM      6  H   UNL A   1      34.687  25.655  23.040  1.00  0.00     0.163 HD
BRANCH   4   7
ATOM      7  C   UNL A   1      32.774  27.847  24.820  1.00  0.00     0.094 C 
ATOM      8  C   UNL A   1      32.538  27.213  26.242  1.00  0.00     0.094 C 
ATOM      9  C   UNL A   1      33.032  28.268  27.232  1.00  0.00     0.002 C 
ATOM     10  C   UNL A   1      34.510  28.618  27.083  1.00  0.00     0.005 C 
ATOM     11  C   UNL A   1      32.179  29.541  27.064  1.00  0.00     0.005 C 
ATOM     12  C   UNL A   1      33.432  29.275  24.930  1.00  0.00     0.002 C 
ATOM     13  C   UNL A   1      34.739  29.287  25.744  1.00  0.00     0.005 C 
ATOM     14  C   UNL A   1      32.452  30.173  25.701  1.00  0.00     0.005 C 
BRANCH   8  15
ATOM     15  C   UNL A   1      31.073  26.693  26.485  1.00  0.00     0.229 C 
ATOM     16  N   UNL A   1      30.386  25.718  25.776  1.00  0.00    -0.317 N 
ATOM     17  H   UNL A   1      29.413  25.849  25.697  1.00  0.00     0.170 HD
ATOM     18  O   UNL A   1      30.389  27.290  27.334  1.00  0.00    -0.274 OA
BRANCH  16  19
ATOM     19  C   UNL A   1      30.895  24.585  25.163  1.00  0.00     0.111 A 
ATOM     20  C   UNL A   1      31.350  23.372  25.685  1.00  0.00     0.102 A 
ATOM     21  C   UNL A   1      32.142  22.708  24.662  1.00  0.00     0.012 A 
ATOM     22  S   UNL A   1      30.519  24.244  23.515  1.00  0.00    -0.122 S 
ATOM     23  C   UNL A   1      32.003  23.354  23.441  1.00  0.00     0.012 A 
ATOM     24  C   UNL A   1      32.832  23.274  22.204  1.00  0.00     0.057 C 
BRANCH  20  25
ATOM     25  C   UNL A   1      31.095  22.940  27.057  1.00  0.00     0.341 C 
ATOM     26  O   UNL A   1      31.949  22.439  27.758  1.00  0.00    -0.246 OA
BRANCH  25  27
ATOM     27  O   UNL A   1      29.834  23.260  27.470  1.00  0.00    -0.465 OA
ATOM     28  C   UNL A   1      28.842  22.255  27.271  1.00  0.00     0.282 C 
ENDBRANCH  25  27
ENDBRANCH  20  25
BRANCH  21  29
ATOM     29  C   UNL A   1      32.866  21.447  24.707  1.00  0.00    -0.016 A 
ATOM     30  C   UNL A   1      32.167  20.297  24.326  1.00  0.00     0.009 A 
ATOM     31  C   UNL A   1      34.228  21.365  25.008  1.00  0.00     0.009 A 
ATOM     32  C   UNL A   1      32.822  19.073  24.230  1.00  0.00     0.004 A 
ATOM     33  C   UNL A   1      34.886  20.130  24.913  1.00  0.00     0.004 A 
ATOM     34  C   UNL A   1      34.189  18.980  24.513  1.00  0.00    -0.051 A 
ATOM     35  C   UNL A   1      34.870  17.651  24.377  1.00  0.00     0.044 C 
ENDBRANCH  21  29
ENDBRANCH  16  19
ENDBRANCH   8  15
ENDBRANCH   4   7
ENDBRANCH   2   3
ENDBRANCH   1   2
BRANCH   1  36
ATOM     36  C   UNL A   1      36.393  23.692  26.079  1.00  0.00     0.002 C 
BRANCH  36  37
ATOM     37  C   UNL A   1      37.929  23.650  26.098  1.00  0.00     0.002 C 
BRANCH  37  38
ATOM     38  C   UNL A   1      38.575  22.305  25.749  1.00  0.00     0.021 C 
BRANCH  38  39
ATOM     39  C   UNL A   1      39.791  21.925  26.590  1.00  0.00     0.116 C 
BRANCH  39  40
ATOM     40  N   UNL A   1      41.041  22.114  25.875  1.00  0.00    -0.352 N 
ATOM     41  C   UNL A   1      41.853  23.214  25.778  1.00  0.00     0.251 C 
ATOM     42  H   UNL A   1      41.356  21.325  25.377  1.00  0.00     0.163 HD
ATOM     43  O   UNL A   1      42.782  23.219  24.976  1.00  0.00    -0.269 OA
BRANCH  41  44
ATOM     44  C   UNL A   1      41.602  24.401  26.618  1.00  0.00     0.039 A 
ATOM     45  C   UNL A   1      41.049  24.212  27.887  1.00  0.00     0.014 A 
ATOM     46  C   UNL A   1      41.886  25.689  26.158  1.00  0.00     0.014 A 
ATOM     47  C   UNL A   1      40.850  25.310  28.725  1.00  0.00     0.010 A 
ATOM     48  C   UNL A   1      41.745  26.777  27.017  1.00  0.00     0.010 A 
ATOM     49  C   UNL A   1      41.236  26.595  28.311  1.00  0.00    -0.014 A 
BRANCH  49  50
ATOM     50  C   UNL A   1      41.164  27.746  29.243  1.00  0.00     0.031 A 
ATOM     51  C   UNL A   1      42.151  27.888  30.365  1.00  0.00     0.074 A 
ATOM     52  C   UNL A   1      40.155  28.631  29.112  1.00  0.00     0.049 A 
ATOM     53  N   UNL A   1      42.204  28.799  31.305  1.00  0.00    -0.248 NA
ATOM     54  C   UNL A   1      43.206  26.867  30.459  1.00  0.00     0.031 C 
ATOM     55  C   UNL A   1      39.110  28.577  28.087  1.00  0.00     0.029 A 
ATOM     56  N   UNL A   1      39.838  29.743  29.850  1.00  0.00    -0.354 N 
ATOM     57  C   UNL A   1      43.284  28.455  32.106  1.00  0.00     0.074 A 
ATOM     58  C   UNL A   1      43.838  27.230  31.567  1.00  0.00     0.031 C 
ATOM     59  C   UNL A   1      38.280  29.619  28.249  1.00  0.00     0.029 A 
ATOM     60  C   UNL A   1      38.705  30.388  29.414  1.00  0.00     0.049 A 
ATOM     61  H   UNL A   1      40.371  30.049  30.620  1.00  0.00     0.167 HD
ATOM     62  C   UNL A   1      43.778  29.107  33.185  1.00  0.00     0.031 A 
ATOM     63  C   UNL A   1      38.069  31.467  29.906  1.00  0.00     0.031 A 
ATOM     64  C   UNL A   1      43.230  30.327  33.715  1.00  0.00     0.049 A 
ATOM     65  C   UNL A   1      38.626  32.154  31.121  1.00  0.00     0.074 A 
ATOM     66  C   UNL A   1      43.702  31.099  34.763  1.00  0.00     0.029 A 
ATOM     67  N   UNL A   1      42.082  30.947  33.248  1.00  0.00    -0.354 N 
ATOM     68  N   UNL A   1      39.698  31.862  31.816  1.00  0.00    -0.248 NA
ATOM     69  C   UNL A   1      37.885  33.322  31.616  1.00  0.00     0.031 C 
ATOM     70  C   UNL A   1      42.805  32.152  34.969  1.00  0.00     0.029 A 
ATOM     71  C   UNL A   1      41.808  32.069  34.011  1.00  0.00     0.049 A 
ATOM     72  H   UNL A   1      41.541  30.636  32.486  1.00  0.00     0.167 HD
ATOM     73  C   UNL A   1      39.771  32.820  32.818  1.00  0.00     0.074 A 
ATOM     74  C   UNL A   1      38.649  33.716  32.625  1.00  0.00     0.031 C 
ATOM     75  C   UNL A   1      40.682  32.945  33.813  1.00  0.00     0.031 A 
BRANCH  62  76
ATOM     76  C   UNL A   1      44.972  28.511  33.878  1.00  0.00    -0.014 A 
ATOM     77  C   UNL A   1      46.279  28.878  33.522  1.00  0.00     0.009 A 
ATOM     78  C   UNL A   1      44.783  27.620  34.946  1.00  0.00     0.009 A 
ATOM     79  C   UNL A   1      47.374  28.345  34.206  1.00  0.00     0.001 A 
ATOM     80  C   UNL A   1      45.878  27.110  35.646  1.00  0.00     0.001 A 
ATOM     81  C   UNL A   1      47.173  27.468  35.272  1.00  0.00     0.000 A 
ENDBRANCH  62  76
BRANCH  63  82
ATOM     82  C   UNL A   1      36.824  31.959  29.261  1.00  0.00    -0.014 A 
ATOM     83  C   UNL A   1      36.857  33.054  28.385  1.00  0.00     0.009 A 
ATOM     84  C   UNL A   1      35.590  31.346  29.535  1.00  0.00     0.009 A 
ATOM     85  C   UNL A   1      35.676  33.546  27.822  1.00  0.00     0.001 A 
ATOM     86  C   UNL A   1      34.416  31.819  28.945  1.00  0.00     0.001 A 
ATOM     87  C   UNL A   1      34.459  32.926  28.099  1.00  0.00     0.000 A 
ENDBRANCH  63  82
BRANCH  75  88
ATOM     88  C   UNL A   1      40.509  34.099  34.759  1.00  0.00    -0.014 A 
ATOM     89  C   UNL A   1      39.768  33.962  35.942  1.00  0.00     0.009 A 
ATOM     90  C   UNL A   1      41.125  35.329  34.479  1.00  0.00     0.009 A 
ATOM     91  C   UNL A   1      39.619  35.044  36.811  1.00  0.00     0.001 A 
ATOM     92  C   UNL A   1      41.000  36.400  35.364  1.00  0.00     0.001 A 
ATOM     93  C   UNL A   1      40.240  36.260  36.524  1.00  0.00     0.000 A 
ENDBRANCH  75  88
ENDBRANCH  49  50
ENDBRANCH  41  44
ENDBRANCH  39  40
ENDBRANCH  38  39
ENDBRANCH  37  38
ENDBRANCH  36  37
ENDBRANCH   1  36
TORSDOF 18
ENDMDL
MODEL 2
REMARK VINA RESULT:     -11.5      3.308      7.600
REMARK SMILES COC(=O)c1c(NC(=O)[C@@H]2[C@H]3CC[C@H](CC3)[C@H]2C(=O)NCCCCCCNC(=O)c2ccc(-c3c4nc(c(-c5ccccc5)c5ccc([nH]5)c(-c5ccccc5)c5nc(c(-c6ccccc6)c6ccc3[nH]6)C=C5)C=C4)cc2)sc(C)c1-c1ccc(C)cc1
REMARK SMILES IDX 22 1 21 2 20 3 18 4 19 5 17 7 10 8 11 9 16 10 12 11 14 12
REMARK SMILES IDX 15 13 13 14 8 15 7 16 9 18 6 19 5 20 81 21 78 22 79 23 80 24
REMARK SMILES IDX 3 25 4 26 2 27 1 28 82 29 83 30 88 31 84 32 87 33 85 34
REMARK SMILES IDX 86 35 23 36 24 37 25 38 26 39 27 40 28 41 29 43 30 44 31 45
REMARK SMILES IDX 77 46 32 47 76 48 33 49 34 50 35 51 70 52 36 53 75 54 69 55
REMARK SMILES IDX 71 56 37 57 74 58 68 59 67 60 38 62 60 63 45 64 59 65 46 66
REMARK SMILES IDX 49 67 58 68 72 69 47 70 48 71 57 73 73 74 50 75 39 76 40 77
REMARK SMILES IDX 44 78 41 79 43 80 42 81 61 82 62 83 66 84 63 85 65 86 64 87
REMARK SMILES IDX 51 88 52 89 56 90 53 91 55 92 54 93
REMARK H PARENT 20 6 7 17 27 42 71 61 49 72
REMARK Flexibility Score: inf
ROOT
ATOM      1  C   UNL A   1      37.704  21.898  25.241  1.00  0.00     0.021 C 
ENDROOT
BRANCH   1   2
ATOM      2  C   UNL A   1      36.899  22.765  24.287  1.00  0.00     0.116 C 
BRANCH   2   3
ATOM      3  N   UNL A   1      36.326  23.926  24.917  1.00  0.00    -0.356 N 
ATOM      4  C   UNL A   1      35.041  24.325  25.080  1.00  0.00     0.224 C 
ATOM      5  O   UNL A   1      34.888  25.349  25.759  1.00  0.00    -0.275 OA
ATOM      6  H   UNL A   1      36.990  24.543  25.301  1.00  0.00     0.163 HD
BRANCH   4   7
ATOM      7  C   UNL A   1      33.800  23.534  24.637  1.00  0.00     0.094 C 
ATOM      8  C   UNL A   1      33.815  22.619  23.355  1.00  0.00     0.094 C 
ATOM      9  C   UNL A   1      33.231  21.283  23.815  1.00  0.00     0.002 C 
ATOM     10  C   UNL A   1      34.034  20.601  24.921  1.00  0.00     0.005 C 
ATOM     11  C   UNL A   1      31.784  21.514  24.294  1.00  0.00     0.005 C 
ATOM     12  C   UNL A   1      33.235  22.759  25.888  1.00  0.00     0.002 C 
ATOM     13  C   UNL A   1      33.976  21.441  26.180  1.00  0.00     0.005 C 
ATOM     14  C   UNL A   1      31.786  22.361  25.565  1.00  0.00     0.005 C 
BRANCH   8  15
ATOM     15  C   UNL A   1      33.122  23.259  22.095  1.00  0.00     0.229 C 
ATOM     16  N   UNL A   1      32.031  24.116  22.066  1.00  0.00    -0.317 N 
ATOM     17  H   UNL A   1      31.437  24.028  21.286  1.00  0.00     0.170 HD
ATOM     18  O   UNL A   1      33.507  22.877  20.977  1.00  0.00    -0.274 OA
BRANCH  16  19
ATOM     19  C   UNL A   1      31.673  25.079  22.995  1.00  0.00     0.111 A 
ATOM     20  C   UNL A   1      32.217  26.330  23.292  1.00  0.00     0.102 A 
ATOM     21  C   UNL A   1      31.725  26.737  24.600  1.00  0.00     0.012 A 
ATOM     22  S   UNL A   1      30.061  25.141  23.605  1.00  0.00    -0.122 S 
ATOM     23  C   UNL A   1      30.709  25.893  25.024  1.00  0.00     0.012 A 
ATOM     24  C   UNL A   1      30.126  25.686  26.381  1.00  0.00     0.057 C 
BRANCH  20  25
ATOM     25  C   UNL A   1      33.167  27.022  22.425  1.00  0.00     0.341 C 
ATOM     26  O   UNL A   1      33.848  26.446  21.602  1.00  0.00    -0.246 OA
BRANCH  25  27
ATOM     27  O   UNL A   1      33.115  28.377  22.584  1.00  0.00    -0.465 OA
ATOM     28  C   UNL A   1      34.329  29.000  22.996  1.00  0.00     0.282 C 
ENDBRANCH  25  27
ENDBRANCH  20  25
BRANCH  21  29
ATOM     29  C   UNL A   1      32.016  27.929  25.381  1.00  0.00    -0.016 A 
ATOM     30  C   UNL A   1      33.064  27.847  26.304  1.00  0.00     0.009 A 
ATOM     31  C   UNL A   1      31.369  29.150  25.172  1.00  0.00     0.009 A 
ATOM     32  C   UNL A   1      33.479  28.975  27.004  1.00  0.00     0.004 A 
ATOM     33  C   UNL A   1      31.788  30.286  25.880  1.00  0.00     0.004 A 
ATOM     34  C   UNL A   1      32.851  30.207  26.791  1.00  0.00    -0.051 A 
ATOM     35  C   UNL A   1      33.338  31.410  27.544  1.00  0.00     0.044 C 
ENDBRANCH  21  29
ENDBRANCH  16  19
ENDBRANCH   8  15
ENDBRANCH   4   7
ENDBRANCH   2   3
ENDBRANCH   1   2
BRANCH   1  36
ATOM     36  C   UNL A   1      38.683  22.685  26.112  1.00  0.00     0.002 C 
BRANCH  36  37
ATOM     37  C   UNL A   1      39.817  21.870  26.755  1.00  0.00     0.002 C 
BRANCH  37  38
ATOM     38  C   UNL A   1      40.127  20.515  26.109  1.00  0.00     0.021 C 
BRANCH  38  39
ATOM     39  C   UNL A   1      41.260  19.725  26.759  1.00  0.00     0.116 C 
BRANCH  39  40
ATOM     40  N   UNL A   1      42.415  19.594  25.888  1.00  0.00    -0.352 N 
ATOM     41  C   UNL A   1      43.305  20.536  25.443  1.00  0.00     0.251 C 
ATOM     42  H   UNL A   1      42.586  18.680  25.564  1.00  0.00     0.163 HD
ATOM     43  O   UNL A   1      44.115  20.246  24.568  1.00  0.00    -0.269 OA
BRANCH  41  44
ATOM     44  C   UNL A   1      43.278  21.905  25.995  1.00  0.00     0.039 A 
ATOM     45  C   UNL A   1      43.451  22.069  27.371  1.00  0.00     0.014 A 
ATOM     46  C   UNL A   1      43.065  23.014  25.173  1.00  0.00     0.014 A 
ATOM     47  C   UNL A   1      43.485  23.354  27.915  1.00  0.00     0.010 A 
ATOM     48  C   UNL A   1      43.161  24.298  25.707  1.00  0.00     0.010 A 
ATOM     49  C   UNL A   1      43.382  24.478  27.080  1.00  0.00    -0.014 A 
BRANCH  49  50
ATOM     50  C   UNL A   1      43.560  25.847  27.624  1.00  0.00     0.031 A 
ATOM     51  C   UNL A   1      42.372  26.678  28.014  1.00  0.00     0.074 A 
ATOM     52  C   UNL A   1      44.804  26.363  27.699  1.00  0.00     0.049 A 
ATOM     53  N   UNL A   1      42.340  27.911  28.454  1.00  0.00    -0.248 NA
ATOM     54  C   UNL A   1      41.047  26.054  27.877  1.00  0.00     0.031 C 
ATOM     55  C   UNL A   1      46.034  25.669  27.311  1.00  0.00     0.029 A 
ATOM     56  N   UNL A   1      45.237  27.595  28.118  1.00  0.00    -0.354 N 
ATOM     57  C   UNL A   1      40.996  28.213  28.633  1.00  0.00     0.074 A 
ATOM     58  C   UNL A   1      40.241  27.050  28.218  1.00  0.00     0.031 C 
ATOM     59  C   UNL A   1      47.083  26.477  27.528  1.00  0.00     0.029 A 
ATOM     60  C   UNL A   1      46.598  27.760  28.027  1.00  0.00     0.049 A 
ATOM     61  H   UNL A   1      44.630  28.295  28.453  1.00  0.00     0.167 HD
ATOM     62  C   UNL A   1      40.443  29.353  29.112  1.00  0.00     0.031 A 
ATOM     63  C   UNL A   1      47.370  28.829  28.297  1.00  0.00     0.031 A 
ATOM     64  C   UNL A   1      41.197  30.506  29.529  1.00  0.00     0.049 A 
ATOM     65  C   UNL A   1      46.725  30.089  28.801  1.00  0.00     0.074 A 
ATOM     66  C   UNL A   1      40.730  31.682  30.092  1.00  0.00     0.029 A 
ATOM     67  N   UNL A   1      42.572  30.635  29.418  1.00  0.00    -0.354 N 
ATOM     68  N   UNL A   1      45.459  30.328  29.044  1.00  0.00    -0.248 NA
ATOM     69  C   UNL A   1      47.617  31.225  29.072  1.00  0.00     0.031 C 
ATOM     70  C   UNL A   1      41.816  32.546  30.264  1.00  0.00     0.029 A 
ATOM     71  C   UNL A   1      42.966  31.885  29.865  1.00  0.00     0.049 A 
ATOM     72  H   UNL A   1      43.179  29.941  29.073  1.00  0.00     0.167 HD
ATOM     73  C   UNL A   1      45.405  31.633  29.513  1.00  0.00     0.074 A 
ATOM     74  C   UNL A   1      46.768  32.126  29.545  1.00  0.00     0.031 C 
ATOM     75  C   UNL A   1      44.324  32.363  29.880  1.00  0.00     0.031 A 
BRANCH  62  76
ATOM     76  C   UNL A   1      38.944  29.419  29.205  1.00  0.00    -0.014 A 
ATOM     77  C   UNL A   1      38.278  29.165  30.413  1.00  0.00     0.009 A 
ATOM     78  C   UNL A   1      38.194  29.805  28.082  1.00  0.00     0.009 A 
ATOM     79  C   UNL A   1      36.887  29.273  30.489  1.00  0.00     0.001 A 
ATOM     80  C   UNL A   1      36.807  29.939  28.168  1.00  0.00     0.001 A 
ATOM     81  C   UNL A   1      36.154  29.666  29.369  1.00  0.00     0.000 A 
ENDBRANCH  62  76
BRANCH  63  82
ATOM     82  C   UNL A   1      48.839  28.763  28.082  1.00  0.00    -0.014 A 
ATOM     83  C   UNL A   1      49.698  28.385  29.125  1.00  0.00     0.009 A 
ATOM     84  C   UNL A   1      49.392  29.099  26.836  1.00  0.00     0.009 A 
ATOM     85  C   UNL A   1      51.082  28.375  28.934  1.00  0.00     0.001 A 
ATOM     86  C   UNL A   1      50.774  29.057  26.638  1.00  0.00     0.001 A 
ATOM     87  C   UNL A   1      51.618  28.707  27.691  1.00  0.00     0.000 A 
ENDBRANCH  63  82
BRANCH  75  88
ATOM     88  C   UNL A   1      44.574  33.764  30.361  1.00  0.00    -0.014 A 
ATOM     89  C   UNL A   1      44.853  34.029  31.710  1.00  0.00     0.009 A 
ATOM     90  C   UNL A   1      44.566  34.828  29.444  1.00  0.00     0.009 A 
ATOM     91  C   UNL A   1      45.085  35.337  32.139  1.00  0.00     0.001 A 
ATOM     92  C   UNL A   1      44.829  36.131  29.871  1.00  0.00     0.001 A 
ATOM     93  C   UNL A   1      45.078  36.385  31.219  1.00  0.00     0.000 A 
ENDBRANCH  75  88
ENDBRANCH  49  50
ENDBRANCH  41  44
ENDBRANCH  39  40
ENDBRANCH  38  39
ENDBRANCH  37  38
ENDBRANCH  36  37
ENDBRANCH   1  36
TORSDOF 18
ENDMDL
MODEL 3
REMARK VINA RESULT:     -11.4      2.063      7.946
REMARK SMILES COC(=O)c1c(NC(=O)[C@@H]2[C@H]3CC[C@H](CC3)[C@H]2C(=O)NCCCCCCNC(=O)c2ccc(-c3c4nc(c(-c5ccccc5)c5ccc([nH]5)c(-c5ccccc5)c5nc(c(-c6ccccc6)c6ccc3[nH]6)C=C5)C=C4)cc2)sc(C)c1-c1ccc(C)cc1
REMARK SMILES IDX 22 1 21 2 20 3 18 4 19 5 17 7 10 8 11 9 16 10 12 11 14 12
REMARK SMILES IDX 15 13 13 14 8 15 7 16 9 18 6 19 5 20 81 21 78 22 79 23 80 24
REMARK SMILES IDX 3 25 4 26 2 27 1 28 82 29 83 30 88 31 84 32 87 33 85 34
REMARK SMILES IDX 86 35 23 36 24 37 25 38 26 39 27 40 28 41 29 43 30 44 31 45
REMARK SMILES IDX 77 46 32 47 76 48 33 49 34 50 35 51 70 52 36 53 75 54 69 55
REMARK SMILES IDX 71 56 37 57 74 58 68 59 67 60 38 62 60 63 45 64 59 65 46 66
REMARK SMILES IDX 49 67 58 68 72 69 47 70 48 71 57 73 73 74 50 75 39 76 40 77
REMARK SMILES IDX 44 78 41 79 43 80 42 81 61 82 62 83 66 84 63 85 65 86 64 87
REMARK SMILES IDX 51 88 52 89 56 90 53 91 55 92 54 93
REMARK H PARENT 20 6 7 17 27 42 71 61 49 72
REMARK Flexibility Score: inf
ROOT
ATOM      1  C   UNL A   1      33.452  27.691  26.118  1.00  0.00     0.021 C 
ENDROOT
BRANCH   1   2
ATOM      2  C   UNL A   1      33.934  26.299  25.744  1.00  0.00     0.116 C 
BRANCH   2   3
ATOM      3  N   UNL A   1      33.221  25.247  26.421  1.00  0.00    -0.356 N 
ATOM      4  C   UNL A   1      33.321  23.897  26.354  1.00  0.00     0.224 C 
ATOM      5  O   UNL A   1      32.606  23.274  27.149  1.00  0.00    -0.275 OA
ATOM      6  H   UNL A   1      32.532  25.568  27.048  1.00  0.00     0.163 HD
BRANCH   4   7
ATOM      7  C   UNL A   1      34.344  23.122  25.508  1.00  0.00     0.094 C 
ATOM      8  C   UNL A   1      35.048  23.772  24.258  1.00  0.00     0.094 C 
ATOM      9  C   UNL A   1      36.538  23.490  24.453  1.00  0.00     0.002 C 
ATOM     10  C   UNL A   1      37.126  24.097  25.725  1.00  0.00     0.005 C 
ATOM     11  C   UNL A   1      36.756  21.964  24.459  1.00  0.00     0.005 C 
ATOM     12  C   UNL A   1      35.395  22.465  26.482  1.00  0.00     0.002 C 
ATOM     13  C   UNL A   1      36.501  23.435  26.936  1.00  0.00     0.005 C 
ATOM     14  C   UNL A   1      36.111  21.352  25.700  1.00  0.00     0.005 C 
BRANCH   8  15
ATOM     15  C   UNL A   1      34.453  23.322  22.872  1.00  0.00     0.229 C 
ATOM     16  N   UNL A   1      33.119  23.273  22.494  1.00  0.00    -0.317 N 
ATOM     17  H   UNL A   1      32.877  22.556  21.865  1.00  0.00     0.170 HD
ATOM     18  O   UNL A   1      35.242  22.843  22.041  1.00  0.00    -0.274 OA
BRANCH  16  19
ATOM     19  C   UNL A   1      32.084  24.106  22.890  1.00  0.00     0.111 A 
ATOM     20  C   UNL A   1      31.677  25.361  22.436  1.00  0.00     0.102 A 
ATOM     21  C   UNL A   1      30.815  25.951  23.449  1.00  0.00     0.012 A 
ATOM     22  S   UNL A   1      30.701  23.453  23.687  1.00  0.00    -0.122 S 
ATOM     23  C   UNL A   1      30.482  25.010  24.413  1.00  0.00     0.012 A 
ATOM     24  C   UNL A   1      29.919  25.187  25.783  1.00  0.00     0.057 C 
BRANCH  20  25
ATOM     25  C   UNL A   1      32.134  25.950  21.179  1.00  0.00     0.341 C 
ATOM     26  O   UNL A   1      31.383  26.205  20.261  1.00  0.00    -0.246 OA
BRANCH  25  27
ATOM     27  O   UNL A   1      33.462  26.266  21.213  1.00  0.00    -0.465 OA
ATOM     28  C   UNL A   1      33.810  27.395  22.011  1.00  0.00     0.282 C 
ENDBRANCH  25  27
ENDBRANCH  20  25
BRANCH  21  29
ATOM     29  C   UNL A   1      30.164  27.251  23.485  1.00  0.00    -0.016 A 
ATOM     30  C   UNL A   1      30.984  28.370  23.662  1.00  0.00     0.009 A 
ATOM     31  C   UNL A   1      28.797  27.421  23.249  1.00  0.00     0.009 A 
ATOM     32  C   UNL A   1      30.451  29.653  23.590  1.00  0.00     0.004 A 
ATOM     33  C   UNL A   1      28.262  28.716  23.179  1.00  0.00     0.004 A 
ATOM     34  C   UNL A   1      29.088  29.838  23.338  1.00  0.00    -0.051 A 
ATOM     35  C   UNL A   1      28.550  31.235  23.243  1.00  0.00     0.044 C 
ENDBRANCH  21  29
ENDBRANCH  16  19
ENDBRANCH   8  15
ENDBRANCH   4   7
ENDBRANCH   2   3
ENDBRANCH   1   2
BRANCH   1  36
ATOM     36  C   UNL A   1      32.135  27.699  26.895  1.00  0.00     0.002 C 
BRANCH  36  37
ATOM     37  C   UNL A   1      31.826  28.983  27.680  1.00  0.00     0.002 C 
BRANCH  37  38
ATOM     38  C   UNL A   1      31.649  30.259  26.850  1.00  0.00     0.021 C 
BRANCH  38  39
ATOM     39  C   UNL A   1      32.844  31.209  26.847  1.00  0.00     0.116 C 
BRANCH  39  40
ATOM     40  N   UNL A   1      32.475  32.565  27.216  1.00  0.00    -0.352 N 
ATOM     41  C   UNL A   1      33.092  33.457  28.054  1.00  0.00     0.251 C 
ATOM     42  H   UNL A   1      31.648  32.896  26.798  1.00  0.00     0.163 HD
ATOM     43  O   UNL A   1      32.520  34.496  28.367  1.00  0.00    -0.269 OA
BRANCH  41  44
ATOM     44  C   UNL A   1      34.431  33.162  28.600  1.00  0.00     0.039 A 
ATOM     45  C   UNL A   1      34.516  32.483  29.819  1.00  0.00     0.014 A 
ATOM     46  C   UNL A   1      35.591  33.564  27.935  1.00  0.00     0.014 A 
ATOM     47  C   UNL A   1      35.766  32.143  30.335  1.00  0.00     0.010 A 
ATOM     48  C   UNL A   1      36.837  33.169  28.418  1.00  0.00     0.010 A 
ATOM     49  C   UNL A   1      36.934  32.446  29.616  1.00  0.00    -0.014 A 
BRANCH  49  50
ATOM     50  C   UNL A   1      38.258  31.964  30.080  1.00  0.00     0.031 A 
ATOM     51  C   UNL A   1      38.842  30.689  29.543  1.00  0.00     0.074 A 
ATOM     52  C   UNL A   1      38.902  32.651  31.046  1.00  0.00     0.049 A 
ATOM     53  N   UNL A   1      39.959  30.092  29.875  1.00  0.00    -0.248 NA
ATOM     54  C   UNL A   1      38.066  29.982  28.512  1.00  0.00     0.031 C 
ATOM     55  C   UNL A   1      38.417  33.881  31.676  1.00  0.00     0.029 A 
ATOM     56  N   UNL A   1      40.098  32.407  31.671  1.00  0.00    -0.354 N 
ATOM     57  C   UNL A   1      40.013  28.936  29.107  1.00  0.00     0.074 A 
ATOM     58  C   UNL A   1      38.799  28.895  28.319  1.00  0.00     0.031 C 
ATOM     59  C   UNL A   1      39.315  34.294  32.584  1.00  0.00     0.029 A 
ATOM     60  C   UNL A   1      40.415  33.337  32.632  1.00  0.00     0.049 A 
ATOM     61  H   UNL A   1      40.674  31.639  31.453  1.00  0.00     0.167 HD
ATOM     62  C   UNL A   1      40.991  28.002  29.054  1.00  0.00     0.031 A 
ATOM     63  C   UNL A   1      41.465  33.403  33.472  1.00  0.00     0.031 A 
ATOM     64  C   UNL A   1      42.200  28.048  29.835  1.00  0.00     0.049 A 
ATOM     65  C   UNL A   1      42.522  32.336  33.409  1.00  0.00     0.074 A 
ATOM     66  C   UNL A   1      43.280  27.184  29.800  1.00  0.00     0.029 A 
ATOM     67  N   UNL A   1      42.482  29.004  30.798  1.00  0.00    -0.354 N 
ATOM     68  N   UNL A   1      42.597  31.295  32.616  1.00  0.00    -0.248 NA
ATOM     69  C   UNL A   1      43.640  32.458  34.354  1.00  0.00     0.031 C 
ATOM     70  C   UNL A   1      44.190  27.581  30.786  1.00  0.00     0.029 A 
ATOM     71  C   UNL A   1      43.702  28.727  31.392  1.00  0.00     0.049 A 
ATOM     72  H   UNL A   1      41.902  29.766  31.026  1.00  0.00     0.167 HD
ATOM     73  C   UNL A   1      43.778  30.649  32.954  1.00  0.00     0.074 A 
ATOM     74  C   UNL A   1      44.399  31.429  34.005  1.00  0.00     0.031 C 
ATOM     75  C   UNL A   1      44.301  29.507  32.444  1.00  0.00     0.031 A 
BRANCH  62  76
ATOM     76  C   UNL A   1      40.796  26.835  28.126  1.00  0.00    -0.014 A 
ATOM     77  C   UNL A   1      41.264  26.872  26.803  1.00  0.00     0.009 A 
ATOM     78  C   UNL A   1      40.196  25.659  28.602  1.00  0.00     0.009 A 
ATOM     79  C   UNL A   1      41.110  25.762  25.969  1.00  0.00     0.001 A 
ATOM     80  C   UNL A   1      40.069  24.542  27.775  1.00  0.00     0.001 A 
ATOM     81  C   UNL A   1      40.520  24.597  26.457  1.00  0.00     0.000 A 
ENDBRANCH  62  76
BRANCH  63  82
ATOM     82  C   UNL A   1      41.565  34.511  34.458  1.00  0.00    -0.014 A 
ATOM     83  C   UNL A   1      41.041  34.366  35.751  1.00  0.00     0.009 A 
ATOM     84  C   UNL A   1      42.168  35.729  34.103  1.00  0.00     0.009 A 
ATOM     85  C   UNL A   1      41.090  35.428  36.658  1.00  0.00     0.001 A 
ATOM     86  C   UNL A   1      42.244  36.777  35.022  1.00  0.00     0.001 A 
ATOM     87  C   UNL A   1      41.694  36.630  36.294  1.00  0.00     0.000 A 
ENDBRANCH  63  82
BRANCH  75  88
ATOM     88  C   UNL A   1      45.614  29.044  33.007  1.00  0.00    -0.014 A 
ATOM     89  C   UNL A   1      46.831  29.486  32.467  1.00  0.00     0.009 A 
ATOM     90  C   UNL A   1      45.633  28.181  34.115  1.00  0.00     0.009 A 
ATOM     91  C   UNL A   1      48.043  29.047  33.004  1.00  0.00     0.001 A 
ATOM     92  C   UNL A   1      46.846  27.769  34.669  1.00  0.00     0.001 A 
ATOM     93  C   UNL A   1      48.049  28.194  34.107  1.00  0.00     0.000 A 
ENDBRANCH  75  88
ENDBRANCH  49  50
ENDBRANCH  41  44
ENDBRANCH  39  40
ENDBRANCH  38  39
ENDBRANCH  37  38
ENDBRANCH  36  37
ENDBRANCH   1  36
TORSDOF 18
ENDMDL
