MODEL 1
REMARK VINA RESULT:     -11.5      0.000      0.000
REMARK SMILES O=C(NCCCCCCNC(=O)c1ccc(-c2ccc(Cl)cc2)cc1F)c1ccc(-c2c3nc(c(-c4ccccc4)c4ccc([nH]4)c(-c4ccccc4)c4nc(c(-c5ccccc5)c5ccc2[nH]5)C=C4)C=C3)cc1
REMARK SMILES IDX 6 1 5 2 4 3 3 4 1 5 2 6 27 8 28 9 74 10 29 11 73 12 30 13
REMARK SMILES IDX 31 14 32 15 67 16 33 17 72 18 66 19 68 20 34 21 71 22 65 23
REMARK SMILES IDX 64 24 35 26 57 27 42 28 56 29 43 30 46 31 55 32 69 33 44 34
REMARK SMILES IDX 45 35 54 37 70 38 47 39 36 40 37 41 41 42 38 43 40 44 39 45
REMARK SMILES IDX 58 46 59 47 63 48 60 49 62 50 61 51 48 52 49 53 53 54 50 55
REMARK SMILES IDX 52 56 51 57 7 58 8 59 9 60 10 61 11 62 12 64 13 65 14 66
REMARK SMILES IDX 25 67 15 68 24 69 26 70 16 71 17 72 18 73 23 74 19 75 22 76
REMARK SMILES IDX 20 77 21 78
REMARK H PARENT 3 7 68 25 46 36 10 63
REMARK Flexibility Score: inf
ROOT
ATOM      1  C   UNL A   1      31.837  27.256  26.381  1.00  0.00     0.002 C 
ENDROOT
BRANCH   1   2
ATOM      2  C   UNL A   1      32.816  28.405  26.138  1.00  0.00     0.021 C 
BRANCH   2   3
ATOM      3  C   UNL A   1      33.708  28.733  27.325  1.00  0.00     0.116 C 
BRANCH   3   4
ATOM      4  N   UNL A   1      33.662  30.143  27.674  1.00  0.00    -0.352 N 
ATOM      5  O   UNL A   1      34.360  32.031  28.704  1.00  0.00    -0.269 OA
ATOM      6  C   UNL A   1      34.615  30.895  28.312  1.00  0.00     0.251 C 
ATOM      7  H   UNL A   1      32.840  30.621  27.421  1.00  0.00     0.163 HD
BRANCH   6   8
ATOM      8  C   UNL A   1      35.958  30.321  28.533  1.00  0.00     0.039 A 
ATOM      9  C   UNL A   1      36.925  30.390  27.526  1.00  0.00     0.014 A 
ATOM     10  C   UNL A   1      36.258  29.729  29.762  1.00  0.00     0.014 A 
ATOM     11  C   UNL A   1      38.157  29.778  27.708  1.00  0.00     0.010 A 
ATOM     12  C   UNL A   1      37.528  29.190  29.976  1.00  0.00     0.010 A 
ATOM     13  C   UNL A   1      38.485  29.211  28.951  1.00  0.00    -0.014 A 
BRANCH  13  14
ATOM     14  C   UNL A   1      39.884  28.791  29.202  1.00  0.00     0.031 A 
ATOM     15  C   UNL A   1      40.891  29.724  29.806  1.00  0.00     0.074 A 
ATOM     16  C   UNL A   1      40.234  27.537  28.852  1.00  0.00     0.049 A 
ATOM     17  N   UNL A   1      42.157  29.506  30.059  1.00  0.00    -0.248 NA
ATOM     18  C   UNL A   1      40.430  31.073  30.171  1.00  0.00     0.031 C 
ATOM     19  C   UNL A   1      39.336  26.550  28.242  1.00  0.00     0.029 A 
ATOM     20  N   UNL A   1      41.429  26.873  28.956  1.00  0.00    -0.354 N 
ATOM     21  C   UNL A   1      42.650  30.691  30.589  1.00  0.00     0.074 A 
ATOM     22  C   UNL A   1      41.550  31.632  30.615  1.00  0.00     0.031 C 
ATOM     23  C   UNL A   1      40.002  25.403  28.054  1.00  0.00     0.029 A 
ATOM     24  C   UNL A   1      41.389  25.595  28.457  1.00  0.00     0.049 A 
ATOM     25  H   UNL A   1      42.237  27.274  29.351  1.00  0.00     0.167 HD
ATOM     26  C   UNL A   1      43.908  30.962  31.009  1.00  0.00     0.031 A 
ATOM     27  C   UNL A   1      42.367  24.685  28.295  1.00  0.00     0.031 A 
ATOM     28  C   UNL A   1      44.994  30.015  30.978  1.00  0.00     0.049 A 
ATOM     29  C   UNL A   1      43.759  25.043  28.724  1.00  0.00     0.074 A 
ATOM     30  C   UNL A   1      46.288  30.179  31.444  1.00  0.00     0.029 A 
ATOM     31  N   UNL A   1      44.922  28.742  30.437  1.00  0.00    -0.354 N 
ATOM     32  N   UNL A   1      44.188  26.139  29.300  1.00  0.00    -0.248 NA
ATOM     33  C   UNL A   1      44.804  24.041  28.474  1.00  0.00     0.031 C 
ATOM     34  C   UNL A   1      47.018  29.032  31.117  1.00  0.00     0.029 A 
ATOM     35  C   UNL A   1      46.162  28.129  30.509  1.00  0.00     0.049 A 
ATOM     36  H   UNL A   1      44.110  28.333  30.059  1.00  0.00     0.167 HD
ATOM     37  C   UNL A   1      45.550  25.954  29.490  1.00  0.00     0.074 A 
ATOM     38  C   UNL A   1      45.867  24.628  29.003  1.00  0.00     0.031 C 
ATOM     39  C   UNL A   1      46.460  26.811  30.012  1.00  0.00     0.031 A 
BRANCH  26  40
ATOM     40  C   UNL A   1      44.211  32.347  31.512  1.00  0.00    -0.014 A 
ATOM     41  C   UNL A   1      44.173  32.655  32.879  1.00  0.00     0.009 A 
ATOM     42  C   UNL A   1      44.651  33.327  30.606  1.00  0.00     0.009 A 
ATOM     43  C   UNL A   1      44.559  33.922  33.328  1.00  0.00     0.001 A 
ATOM     44  C   UNL A   1      45.058  34.582  31.060  1.00  0.00     0.001 A 
ATOM     45  C   UNL A   1      45.010  34.879  32.420  1.00  0.00     0.000 A 
ENDBRANCH  26  40
BRANCH  27  46
ATOM     46  C   UNL A   1      42.078  23.382  27.642  1.00  0.00    -0.014 A 
ATOM     47  C   UNL A   1      42.293  23.200  26.269  1.00  0.00     0.009 A 
ATOM     48  C   UNL A   1      41.557  22.315  28.395  1.00  0.00     0.009 A 
ATOM     49  C   UNL A   1      41.954  21.991  25.656  1.00  0.00     0.001 A 
ATOM     50  C   UNL A   1      41.257  21.096  27.787  1.00  0.00     0.001 A 
ATOM     51  C   UNL A   1      41.442  20.940  26.415  1.00  0.00     0.000 A 
ENDBRANCH  27  46
BRANCH  39  52
ATOM     52  C   UNL A   1      47.880  26.332  30.090  1.00  0.00    -0.014 A 
ATOM     53  C   UNL A   1      48.388  25.765  31.269  1.00  0.00     0.009 A 
ATOM     54  C   UNL A   1      48.710  26.416  28.962  1.00  0.00     0.009 A 
ATOM     55  C   UNL A   1      49.710  25.320  31.326  1.00  0.00     0.001 A 
ATOM     56  C   UNL A   1      50.020  25.940  29.011  1.00  0.00     0.001 A 
ATOM     57  C   UNL A   1      50.522  25.401  30.194  1.00  0.00     0.000 A 
ENDBRANCH  39  52
ENDBRANCH  13  14
ENDBRANCH   6   8
ENDBRANCH   3   4
ENDBRANCH   2   3
ENDBRANCH   1   2
BRANCH   1  58
ATOM     58  C   UNL A   1      30.852  26.990  25.238  1.00  0.00     0.002 C 
BRANCH  58  59
ATOM     59  C   UNL A   1      30.677  28.144  24.246  1.00  0.00     0.021 C 
BRANCH  59  60
ATOM     60  C   UNL A   1      30.861  27.758  22.781  1.00  0.00     0.116 C 
BRANCH  60  61
ATOM     61  N   UNL A   1      32.118  28.252  22.247  1.00  0.00    -0.352 N 
ATOM     62  C   UNL A   1      33.321  27.603  22.148  1.00  0.00     0.254 C 
ATOM     63  H   UNL A   1      32.104  29.177  21.910  1.00  0.00     0.163 HD
ATOM     64  O   UNL A   1      34.332  28.207  21.801  1.00  0.00    -0.269 OA
BRANCH  62  65
ATOM     65  C   UNL A   1      33.414  26.184  22.515  1.00  0.00     0.075 A 
ATOM     66  C   UNL A   1      33.949  25.837  23.756  1.00  0.00     0.017 A 
ATOM     67  C   UNL A   1      32.970  25.190  21.647  1.00  0.00     0.136 A 
ATOM     68  C   UNL A   1      33.976  24.494  24.145  1.00  0.00     0.010 A 
ATOM     69  C   UNL A   1      32.989  23.856  22.036  1.00  0.00     0.048 A 
ATOM     70  F   UNL A   1      32.476  25.498  20.439  1.00  0.00    -0.206 F 
ATOM     71  C   UNL A   1      33.481  23.485  23.297  1.00  0.00    -0.015 A 
BRANCH  71  72
ATOM     72  C   UNL A   1      33.465  22.076  23.715  1.00  0.00    -0.018 A 
ATOM     73  C   UNL A   1      32.427  21.218  23.309  1.00  0.00     0.010 A 
ATOM     74  C   UNL A   1      34.466  21.556  24.553  1.00  0.00     0.010 A 
ATOM     75  C   UNL A   1      32.388  19.887  23.732  1.00  0.00     0.021 A 
ATOM     76  C   UNL A   1      34.428  20.224  24.977  1.00  0.00     0.021 A 
ATOM     77  C   UNL A   1      33.388  19.397  24.564  1.00  0.00     0.041 A 
ATOM     78  Cl  UNL A   1      33.335  17.760  25.092  1.00  0.00    -0.084 Cl
ENDBRANCH  71  72
ENDBRANCH  62  65
ENDBRANCH  60  61
ENDBRANCH  59  60
ENDBRANCH  58  59
ENDBRANCH   1  58
TORSDOF 14
ENDMDL
MODEL 2
REMARK VINA RESULT:     -11.3      3.225      7.956
REMARK SMILES O=C(NCCCCCCNC(=O)c1ccc(-c2ccc(Cl)cc2)cc1F)c1ccc(-c2c3nc(c(-c4ccccc4)c4ccc([nH]4)c(-c4ccccc4)c4nc(c(-c5ccccc5)c5ccc2[nH]5)C=C4)C=C3)cc1
REMARK SMILES IDX 6 1 5 2 4 3 3 4 1 5 2 6 27 8 28 9 74 10 29 11 73 12 30 13
REMARK SMILES IDX 31 14 32 15 67 16 33 17 72 18 66 19 68 20 34 21 71 22 65 23
REMARK SMILES IDX 64 24 35 26 57 27 42 28 56 29 43 30 46 31 55 32 69 33 44 34
REMARK SMILES IDX 45 35 54 37 70 38 47 39 36 40 37 41 41 42 38 43 40 44 39 45
REMARK SMILES IDX 58 46 59 47 63 48 60 49 62 50 61 51 48 52 49 53 53 54 50 55
REMARK SMILES IDX 52 56 51 57 7 58 8 59 9 60 10 61 11 62 12 64 13 65 14 66
REMARK SMILES IDX 25 67 15 68 24 69 26 70 16 71 17 72 18 73 23 74 19 75 22 76
REMARK SMILES IDX 20 77 21 78
REMARK H PARENT 3 7 68 25 46 36 10 63
REMARK Flexibility Score: inf
ROOT
ATOM      1  C   UNL A   1      36.733  20.986  24.621  1.00  0.00     0.002 C 
ENDROOT
BRANCH   1   2
ATOM      2  C   UNL A   1      37.770  19.896  24.892  1.00  0.00     0.021 C 
BRANCH   2   3
ATOM      3  C   UNL A   1      38.950  20.348  25.740  1.00  0.00     0.116 C 
BRANCH   3   4
ATOM      4  N   UNL A   1      39.996  19.341  25.807  1.00  0.00    -0.352 N 
ATOM      5  O   UNL A   1      42.125  18.594  25.941  1.00  0.00    -0.269 OA
ATOM      6  C   UNL A   1      41.324  19.510  26.103  1.00  0.00     0.251 C 
ATOM      7  H   UNL A   1      39.714  18.418  25.615  1.00  0.00     0.163 HD
BRANCH   6   8
ATOM      8  C   UNL A   1      41.788  20.816  26.614  1.00  0.00     0.039 A 
ATOM      9  C   UNL A   1      42.223  21.803  25.725  1.00  0.00     0.014 A 
ATOM     10  C   UNL A   1      41.771  21.060  27.989  1.00  0.00     0.014 A 
ATOM     11  C   UNL A   1      42.735  22.997  26.214  1.00  0.00     0.010 A 
ATOM     12  C   UNL A   1      42.204  22.295  28.475  1.00  0.00     0.010 A 
ATOM     13  C   UNL A   1      42.689  23.271  27.591  1.00  0.00    -0.014 A 
BRANCH  13  14
ATOM     14  C   UNL A   1      43.005  24.640  28.062  1.00  0.00     0.031 A 
ATOM     15  C   UNL A   1      41.931  25.657  28.309  1.00  0.00     0.074 A 
ATOM     16  C   UNL A   1      44.303  24.955  28.248  1.00  0.00     0.049 A 
ATOM     17  N   UNL A   1      42.058  26.902  28.695  1.00  0.00    -0.248 NA
ATOM     18  C   UNL A   1      40.538  25.235  28.093  1.00  0.00     0.031 C 
ATOM     19  C   UNL A   1      45.432  24.045  28.024  1.00  0.00     0.029 A 
ATOM     20  N   UNL A   1      44.897  26.116  28.668  1.00  0.00    -0.354 N 
ATOM     21  C   UNL A   1      40.770  27.418  28.747  1.00  0.00     0.074 A 
ATOM     22  C   UNL A   1      39.872  26.356  28.344  1.00  0.00     0.031 C 
ATOM     23  C   UNL A   1      46.574  24.672  28.334  1.00  0.00     0.029 A 
ATOM     24  C   UNL A   1      46.268  26.047  28.705  1.00  0.00     0.049 A 
ATOM     25  H   UNL A   1      44.389  26.923  28.918  1.00  0.00     0.167 HD
ATOM     26  C   UNL A   1      40.381  28.668  29.096  1.00  0.00     0.031 A 
ATOM     27  C   UNL A   1      47.187  26.994  28.965  1.00  0.00     0.031 A 
ATOM     28  C   UNL A   1      41.286  29.715  29.496  1.00  0.00     0.049 A 
ATOM     29  C   UNL A   1      46.719  28.380  29.295  1.00  0.00     0.074 A 
ATOM     30  C   UNL A   1      40.979  30.994  29.931  1.00  0.00     0.029 A 
ATOM     31  N   UNL A   1      42.668  29.615  29.491  1.00  0.00    -0.354 N 
ATOM     32  N   UNL A   1      45.493  28.828  29.420  1.00  0.00    -0.248 NA
ATOM     33  C   UNL A   1      47.759  29.394  29.513  1.00  0.00     0.031 C 
ATOM     34  C   UNL A   1      42.177  31.691  30.117  1.00  0.00     0.029 A 
ATOM     35  C   UNL A   1      43.229  30.826  29.863  1.00  0.00     0.049 A 
ATOM     36  H   UNL A   1      43.176  28.804  29.258  1.00  0.00     0.167 HD
ATOM     37  C   UNL A   1      45.616  30.171  29.741  1.00  0.00     0.074 A 
ATOM     38  C   UNL A   1      47.033  30.456  29.828  1.00  0.00     0.031 C 
ATOM     39  C   UNL A   1      44.642  31.092  29.936  1.00  0.00     0.031 A 
BRANCH  26  40
ATOM     40  C   UNL A   1      38.916  29.003  29.035  1.00  0.00    -0.014 A 
ATOM     41  C   UNL A   1      38.097  28.921  30.169  1.00  0.00     0.009 A 
ATOM     42  C   UNL A   1      38.378  29.519  27.843  1.00  0.00     0.009 A 
ATOM     43  C   UNL A   1      36.764  29.338  30.109  1.00  0.00     0.001 A 
ATOM     44  C   UNL A   1      37.054  29.956  27.793  1.00  0.00     0.001 A 
ATOM     45  C   UNL A   1      36.247  29.863  28.926  1.00  0.00     0.000 A 
ENDBRANCH  26  40
BRANCH  27  46
ATOM     46  C   UNL A   1      48.636  26.682  28.857  1.00  0.00    -0.014 A 
ATOM     47  C   UNL A   1      49.351  26.186  29.955  1.00  0.00     0.009 A 
ATOM     48  C   UNL A   1      49.319  26.906  27.649  1.00  0.00     0.009 A 
ATOM     49  C   UNL A   1      50.726  25.960  29.858  1.00  0.00     0.001 A 
ATOM     50  C   UNL A   1      50.684  26.643  27.543  1.00  0.00     0.001 A 
ATOM     51  C   UNL A   1      51.390  26.184  28.653  1.00  0.00     0.000 A 
ENDBRANCH  27  46
BRANCH  39  52
ATOM     52  C   UNL A   1      45.080  32.488  30.272  1.00  0.00    -0.014 A 
ATOM     53  C   UNL A   1      45.272  33.448  29.267  1.00  0.00     0.009 A 
ATOM     54  C   UNL A   1      45.270  32.858  31.613  1.00  0.00     0.009 A 
ATOM     55  C   UNL A   1      45.675  34.743  29.595  1.00  0.00     0.001 A 
ATOM     56  C   UNL A   1      45.641  34.161  31.940  1.00  0.00     0.001 A 
ATOM     57  C   UNL A   1      45.852  35.100  30.932  1.00  0.00     0.000 A 
ENDBRANCH  39  52
ENDBRANCH  13  14
ENDBRANCH   6   8
ENDBRANCH   3   4
ENDBRANCH   2   3
ENDBRANCH   1   2
BRANCH   1  58
ATOM     58  C   UNL A   1      35.296  20.624  25.009  1.00  0.00     0.002 C 
BRANCH  58  59
ATOM     59  C   UNL A   1      34.205  21.431  24.299  1.00  0.00     0.021 C 
BRANCH  59  60
ATOM     60  C   UNL A   1      32.822  21.331  24.937  1.00  0.00     0.116 C 
BRANCH  60  61
ATOM     61  N   UNL A   1      32.889  21.411  26.386  1.00  0.00    -0.352 N 
ATOM     62  C   UNL A   1      32.635  22.486  27.197  1.00  0.00     0.254 C 
ATOM     63  H   UNL A   1      33.152  20.582  26.847  1.00  0.00     0.163 HD
ATOM     64  O   UNL A   1      32.873  22.435  28.400  1.00  0.00    -0.269 OA
BRANCH  62  65
ATOM     65  C   UNL A   1      32.124  23.734  26.612  1.00  0.00     0.075 A 
ATOM     66  C   UNL A   1      33.031  24.688  26.150  1.00  0.00     0.017 A 
ATOM     67  C   UNL A   1      30.755  23.967  26.508  1.00  0.00     0.136 A 
ATOM     68  C   UNL A   1      32.555  25.846  25.527  1.00  0.00     0.010 A 
ATOM     69  C   UNL A   1      30.283  25.113  25.882  1.00  0.00     0.048 A 
ATOM     70  F   UNL A   1      29.865  23.076  26.969  1.00  0.00    -0.206 F 
ATOM     71  C   UNL A   1      31.174  26.069  25.369  1.00  0.00    -0.015 A 
BRANCH  71  72
ATOM     72  C   UNL A   1      30.667  27.261  24.676  1.00  0.00    -0.018 A 
ATOM     73  C   UNL A   1      29.640  27.155  23.721  1.00  0.00     0.010 A 
ATOM     74  C   UNL A   1      31.211  28.532  24.926  1.00  0.00     0.010 A 
ATOM     75  C   UNL A   1      29.177  28.280  23.034  1.00  0.00     0.021 A 
ATOM     76  C   UNL A   1      30.749  29.660  24.239  1.00  0.00     0.021 A 
ATOM     77  C   UNL A   1      29.735  29.527  23.295  1.00  0.00     0.041 A 
ATOM     78  Cl  UNL A   1      29.172  30.912  22.444  1.00  0.00    -0.084 Cl
ENDBRANCH  71  72
ENDBRANCH  62  65
ENDBRANCH  60  61
ENDBRANCH  59  60
ENDBRANCH  58  59
ENDBRANCH   1  58
TORSDOF 14
ENDMDL
MODEL 3
REMARK VINA RESULT:     -11.3      2.460      4.009
REMARK SMILES O=C(NCCCCCCNC(=O)c1ccc(-c2ccc(Cl)cc2)cc1F)c1ccc(-c2c3nc(c(-c4ccccc4)c4ccc([nH]4)c(-c4ccccc4)c4nc(c(-c5ccccc5)c5ccc2[nH]5)C=C4)C=C3)cc1
REMARK SMILES IDX 6 1 5 2 4 3 3 4 1 5 2 6 27 8 28 9 74 10 29 11 73 12 30 13
REMARK SMILES IDX 31 14 32 15 67 16 33 17 72 18 66 19 68 20 34 21 71 22 65 23
REMARK SMILES IDX 64 24 35 26 57 27 42 28 56 29 43 30 46 31 55 32 69 33 44 34
REMARK SMILES IDX 45 35 54 37 70 38 47 39 36 40 37 41 41 42 38 43 40 44 39 45
REMARK SMILES IDX 58 46 59 47 63 48 60 49 62 50 61 51 48 52 49 53 53 54 50 55
REMARK SMILES IDX 52 56 51 57 7 58 8 59 9 60 10 61 11 62 12 64 13 65 14 66
REMARK SMILES IDX 25 67 15 68 24 69 26 70 16 71 17 72 18 73 23 74 19 75 22 76
REMARK SMILES IDX 20 77 21 78
REMARK H PARENT 3 7 68 25 46 36 10 63
REMARK Flexibility Score: inf
ROOT
ATOM      1  C   UNL A   1      33.235  27.208  25.232  1.00  0.00     0.002 C 
ENDROOT
BRANCH   1   2
ATOM      2  C   UNL A   1      34.029  28.351  25.863  1.00  0.00     0.021 C 
BRANCH   2   3
ATOM      3  C   UNL A   1      33.713  28.602  27.329  1.00  0.00     0.116 C 
BRANCH   3   4
ATOM      4  N   UNL A   1      33.661  30.020  27.645  1.00  0.00    -0.352 N 
ATOM      5  O   UNL A   1      34.350  31.935  28.630  1.00  0.00    -0.269 OA
ATOM      6  C   UNL A   1      34.610  30.791  28.264  1.00  0.00     0.251 C 
ATOM      7  H   UNL A   1      32.836  30.487  27.381  1.00  0.00     0.163 HD
BRANCH   6   8
ATOM      8  C   UNL A   1      35.956  30.229  28.497  1.00  0.00     0.039 A 
ATOM      9  C   UNL A   1      36.921  30.277  27.487  1.00  0.00     0.014 A 
ATOM     10  C   UNL A   1      36.261  29.669  29.740  1.00  0.00     0.014 A 
ATOM     11  C   UNL A   1      38.156  29.675  27.682  1.00  0.00     0.010 A 
ATOM     12  C   UNL A   1      37.534  29.142  29.965  1.00  0.00     0.010 A 
ATOM     13  C   UNL A   1      38.489  29.141  28.938  1.00  0.00    -0.014 A 
BRANCH  13  14
ATOM     14  C   UNL A   1      39.890  28.735  29.197  1.00  0.00     0.031 A 
ATOM     15  C   UNL A   1      40.881  29.670  29.823  1.00  0.00     0.074 A 
ATOM     16  C   UNL A   1      40.258  27.489  28.835  1.00  0.00     0.049 A 
ATOM     17  N   UNL A   1      42.147  29.464  30.085  1.00  0.00    -0.248 NA
ATOM     18  C   UNL A   1      40.401  31.009  30.200  1.00  0.00     0.031 C 
ATOM     19  C   UNL A   1      39.377  26.500  28.204  1.00  0.00     0.029 A 
ATOM     20  N   UNL A   1      41.459  26.838  28.942  1.00  0.00    -0.354 N 
ATOM     21  C   UNL A   1      42.621  30.647  30.635  1.00  0.00     0.074 A 
ATOM     22  C   UNL A   1      41.510  31.575  30.663  1.00  0.00     0.031 C 
ATOM     23  C   UNL A   1      40.058  25.363  28.008  1.00  0.00     0.029 A 
ATOM     24  C   UNL A   1      41.439  25.565  28.426  1.00  0.00     0.049 A 
ATOM     25  H   UNL A   1      42.259  27.243  29.349  1.00  0.00     0.167 HD
ATOM     26  C   UNL A   1      43.872  30.928  31.071  1.00  0.00     0.031 A 
ATOM     27  C   UNL A   1      42.429  24.669  28.262  1.00  0.00     0.031 A 
ATOM     28  C   UNL A   1      44.969  29.994  31.038  1.00  0.00     0.049 A 
ATOM     29  C   UNL A   1      43.813  25.037  28.708  1.00  0.00     0.074 A 
ATOM     30  C   UNL A   1      46.257  30.166  31.518  1.00  0.00     0.029 A 
ATOM     31  N   UNL A   1      44.916  28.727  30.480  1.00  0.00    -0.354 N 
ATOM     32  N   UNL A   1      44.224  26.130  29.302  1.00  0.00    -0.248 NA
ATOM     33  C   UNL A   1      44.871  24.050  28.456  1.00  0.00     0.031 C 
ATOM     34  C   UNL A   1      47.003  29.032  31.184  1.00  0.00     0.029 A 
ATOM     35  C   UNL A   1      46.163  28.127  30.556  1.00  0.00     0.049 A 
ATOM     36  H   UNL A   1      44.113  28.314  30.088  1.00  0.00     0.167 HD
ATOM     37  C   UNL A   1      45.585  25.959  29.504  1.00  0.00     0.074 A 
ATOM     38  C   UNL A   1      45.923  24.643  29.002  1.00  0.00     0.031 C 
ATOM     39  C   UNL A   1      46.480  26.819  30.045  1.00  0.00     0.031 A 
BRANCH  26  40
ATOM     40  C   UNL A   1      44.154  32.309  31.594  1.00  0.00    -0.014 A 
ATOM     41  C   UNL A   1      44.541  33.352  30.740  1.00  0.00     0.009 A 
ATOM     42  C   UNL A   1      43.916  32.594  32.950  1.00  0.00     0.009 A 
ATOM     43  C   UNL A   1      44.695  34.650  31.236  1.00  0.00     0.001 A 
ATOM     44  C   UNL A   1      44.048  33.895  33.436  1.00  0.00     0.001 A 
ATOM     45  C   UNL A   1      44.440  34.921  32.579  1.00  0.00     0.000 A 
ENDBRANCH  26  40
BRANCH  27  46
ATOM     46  C   UNL A   1      42.161  23.372  27.590  1.00  0.00    -0.014 A 
ATOM     47  C   UNL A   1      41.644  22.282  28.304  1.00  0.00     0.009 A 
ATOM     48  C   UNL A   1      42.451  23.211  26.224  1.00  0.00     0.009 A 
ATOM     49  C   UNL A   1      41.460  21.048  27.674  1.00  0.00     0.001 A 
ATOM     50  C   UNL A   1      42.230  21.989  25.588  1.00  0.00     0.001 A 
ATOM     51  C   UNL A   1      41.749  20.905  26.318  1.00  0.00     0.000 A 
ENDBRANCH  27  46
BRANCH  39  52
ATOM     52  C   UNL A   1      47.906  26.356  30.131  1.00  0.00    -0.014 A 
ATOM     53  C   UNL A   1      48.790  26.532  29.055  1.00  0.00     0.009 A 
ATOM     54  C   UNL A   1      48.380  25.767  31.313  1.00  0.00     0.009 A 
ATOM     55  C   UNL A   1      50.114  26.100  29.151  1.00  0.00     0.001 A 
ATOM     56  C   UNL A   1      49.711  25.367  31.418  1.00  0.00     0.001 A 
ATOM     57  C   UNL A   1      50.575  25.525  30.335  1.00  0.00     0.000 A 
ENDBRANCH  39  52
ENDBRANCH  13  14
ENDBRANCH   6   8
ENDBRANCH   3   4
ENDBRANCH   2   3
ENDBRANCH   1   2
BRANCH   1  58
ATOM     58  C   UNL A   1      34.054  25.959  24.893  1.00  0.00     0.002 C 
BRANCH  58  59
ATOM     59  C   UNL A   1      33.812  24.753  25.805  1.00  0.00     0.021 C 
BRANCH  59  60
ATOM     60  C   UNL A   1      33.802  23.405  25.089  1.00  0.00     0.116 C 
BRANCH  60  61
ATOM     61  N   UNL A   1      32.743  22.541  25.582  1.00  0.00    -0.352 N 
ATOM     62  C   UNL A   1      31.393  22.773  25.611  1.00  0.00     0.254 C 
ATOM     63  H   UNL A   1      33.034  21.672  25.942  1.00  0.00     0.163 HD
ATOM     64  O   UNL A   1      30.636  21.999  26.191  1.00  0.00    -0.269 OA
BRANCH  62  65
ATOM     65  C   UNL A   1      30.850  23.989  24.990  1.00  0.00     0.075 A 
ATOM     66  C   UNL A   1      30.300  24.979  25.806  1.00  0.00     0.017 A 
ATOM     67  C   UNL A   1      30.886  24.164  23.610  1.00  0.00     0.136 A 
ATOM     68  C   UNL A   1      29.846  26.171  25.231  1.00  0.00     0.010 A 
ATOM     69  C   UNL A   1      30.443  25.352  23.040  1.00  0.00     0.048 A 
ATOM     70  F   UNL A   1      31.385  23.215  22.805  1.00  0.00    -0.206 F 
ATOM     71  C   UNL A   1      29.926  26.381  23.842  1.00  0.00    -0.015 A 
BRANCH  71  72
ATOM     72  C   UNL A   1      29.492  27.648  23.235  1.00  0.00    -0.018 A 
ATOM     73  C   UNL A   1      28.142  28.037  23.271  1.00  0.00     0.010 A 
ATOM     74  C   UNL A   1      30.408  28.489  22.579  1.00  0.00     0.010 A 
ATOM     75  C   UNL A   1      27.718  29.223  22.666  1.00  0.00     0.021 A 
ATOM     76  C   UNL A   1      29.986  29.677  21.973  1.00  0.00     0.021 A 
ATOM     77  C   UNL A   1      28.642  30.037  22.019  1.00  0.00     0.041 A 
ATOM     78  Cl  UNL A   1      28.121  31.493  21.267  1.00  0.00    -0.084 Cl
ENDBRANCH  71  72
ENDBRANCH  62  65
ENDBRANCH  60  61
ENDBRANCH  59  60
ENDBRANCH  58  59
ENDBRANCH   1  58
TORSDOF 14
ENDMDL
