MODEL 1
REMARK VINA RESULT:     -11.4      0.000      0.000
REMARK SMILES CCOC(=O)c1ccc(NC(=O)[C@H]2CC(C)=C(C)C[C@@H]2C(=O)NCCCCCCNC(=O)c2ccc(-c3c4nc(c(-c5ccccc5)c5ccc([nH]5)c(-c5ccccc5)c5nc(c(-c6ccccc6)c6ccc3[nH]6)C=C5)C=C4)cc2)cc1
REMARK SMILES IDX 25 1 24 2 23 3 21 4 22 5 20 7 13 8 14 9 15 10 19 11 16 12
REMARK SMILES IDX 17 13 18 14 11 15 10 16 12 18 9 19 6 20 7 21 82 22 8 23
REMARK SMILES IDX 81 24 4 25 5 26 3 27 2 28 1 29 26 30 27 31 28 32 29 33 30 34
REMARK SMILES IDX 31 35 32 37 33 38 34 39 80 40 35 41 79 42 36 43 37 44 38 45
REMARK SMILES IDX 73 46 39 47 78 48 72 49 74 50 40 51 77 52 71 53 70 54 41 56
REMARK SMILES IDX 63 57 48 58 62 59 49 60 52 61 61 62 75 63 50 64 51 65 60 67
REMARK SMILES IDX 76 68 53 69 42 70 43 71 47 72 44 73 46 74 45 75 64 76 65 77
REMARK SMILES IDX 69 78 66 79 68 80 67 81 54 82 55 83 59 84 56 85 58 86 57 87
REMARK H PARENT 23 6 10 17 30 36 74 55 52 66
REMARK Flexibility Score: inf
ROOT
ATOM      1  C   UNL A   1      33.084  21.174  24.267  1.00  0.00     0.021 C 
ENDROOT
BRANCH   1   2
ATOM      2  C   UNL A   1      31.764  21.750  24.771  1.00  0.00     0.116 C 
BRANCH   2   3
ATOM      3  N   UNL A   1      31.889  22.312  26.103  1.00  0.00    -0.356 N 
ATOM      4  C   UNL A   1      31.829  23.614  26.508  1.00  0.00     0.224 C 
ATOM      5  O   UNL A   1      31.930  23.852  27.712  1.00  0.00    -0.275 OA
ATOM      6  H   UNL A   1      32.038  21.656  26.823  1.00  0.00     0.163 HD
BRANCH   4   7
ATOM      7  C   UNL A   1      31.598  24.701  25.461  1.00  0.00     0.095 C 
ATOM      8  C   UNL A   1      32.881  24.987  24.666  1.00  0.00     0.095 C 
ATOM      9  C   UNL A   1      33.812  26.040  25.269  1.00  0.00     0.045 C 
ATOM     10  C   UNL A   1      33.192  27.084  26.176  1.00  0.00    -0.074 C 
ATOM     11  C   UNL A   1      30.971  25.920  26.147  1.00  0.00     0.045 C 
ATOM     12  C   UNL A   1      34.154  28.189  26.544  1.00  0.00     0.039 C 
ATOM     13  C   UNL A   1      31.902  27.030  26.572  1.00  0.00    -0.074 C 
ATOM     14  C   UNL A   1      31.236  28.058  27.454  1.00  0.00     0.039 C 
BRANCH   8  15
ATOM     15  C   UNL A   1      32.618  24.933  23.150  1.00  0.00     0.228 C 
ATOM     16  N   UNL A   1      32.039  25.909  22.404  1.00  0.00    -0.326 N 
ATOM     17  H   UNL A   1      32.246  25.850  21.444  1.00  0.00     0.169 HD
ATOM     18  O   UNL A   1      33.041  23.953  22.518  1.00  0.00    -0.274 OA
BRANCH  16  19
ATOM     19  C   UNL A   1      31.210  26.979  22.735  1.00  0.00     0.041 A 
ATOM     20  C   UNL A   1      29.416  29.067  23.125  1.00  0.00     0.060 A 
ATOM     21  C   UNL A   1      30.775  29.347  22.980  1.00  0.00     0.018 A 
ATOM     22  C   UNL A   1      28.967  27.747  23.197  1.00  0.00     0.018 A 
ATOM     23  C   UNL A   1      31.669  28.291  22.799  1.00  0.00     0.027 A 
ATOM     24  C   UNL A   1      29.874  26.700  23.037  1.00  0.00     0.027 A 
BRANCH  20  25
ATOM     25  C   UNL A   1      28.424  30.146  23.043  1.00  0.00     0.338 C 
ATOM     26  O   UNL A   1      27.331  30.073  23.579  1.00  0.00    -0.246 OA
BRANCH  25  27
ATOM     27  O   UNL A   1      28.928  31.178  22.329  1.00  0.00    -0.462 OA
BRANCH  27  28
ATOM     28  C   UNL A   1      28.388  31.300  21.005  1.00  0.00     0.230 C 
ATOM     29  C   UNL A   1      27.735  32.661  20.851  1.00  0.00     0.049 C 
ENDBRANCH  27  28
ENDBRANCH  25  27
ENDBRANCH  20  25
ENDBRANCH  16  19
ENDBRANCH   8  15
ENDBRANCH   4   7
ENDBRANCH   2   3
ENDBRANCH   1   2
BRANCH   1  30
ATOM     30  C   UNL A   1      34.187  21.073  25.326  1.00  0.00     0.002 C 
BRANCH  30  31
ATOM     31  C   UNL A   1      34.961  22.367  25.600  1.00  0.00     0.002 C 
BRANCH  31  32
ATOM     32  C   UNL A   1      35.904  22.821  24.485  1.00  0.00     0.021 C 
BRANCH  32  33
ATOM     33  C   UNL A   1      37.198  23.478  24.954  1.00  0.00     0.116 C 
BRANCH  33  34
ATOM     34  N   UNL A   1      38.177  22.516  25.431  1.00  0.00    -0.352 N 
ATOM     35  C   UNL A   1      39.287  22.729  26.213  1.00  0.00     0.251 C 
ATOM     36  H   UNL A   1      38.024  21.583  25.157  1.00  0.00     0.163 HD
ATOM     37  O   UNL A   1      40.083  21.821  26.425  1.00  0.00    -0.269 OA
BRANCH  35  38
ATOM     38  C   UNL A   1      39.539  24.075  26.772  1.00  0.00     0.039 A 
ATOM     39  C   UNL A   1      39.072  24.368  28.057  1.00  0.00     0.014 A 
ATOM     40  C   UNL A   1      40.235  25.040  26.038  1.00  0.00     0.014 A 
ATOM     41  C   UNL A   1      39.363  25.605  28.633  1.00  0.00     0.010 A 
ATOM     42  C   UNL A   1      40.571  26.252  26.634  1.00  0.00     0.010 A 
ATOM     43  C   UNL A   1      40.142  26.544  27.939  1.00  0.00    -0.014 A 
BRANCH  43  44
ATOM     44  C   UNL A   1      40.531  27.834  28.559  1.00  0.00     0.031 A 
ATOM     45  C   UNL A   1      41.918  28.021  29.107  1.00  0.00     0.074 A 
ATOM     46  C   UNL A   1      39.614  28.809  28.701  1.00  0.00     0.049 A 
ATOM     47  N   UNL A   1      42.414  29.039  29.763  1.00  0.00    -0.248 NA
ATOM     48  C   UNL A   1      42.860  26.908  28.914  1.00  0.00     0.031 C 
ATOM     49  C   UNL A   1      38.225  28.743  28.241  1.00  0.00     0.029 A 
ATOM     50  N   UNL A   1      39.713  30.047  29.286  1.00  0.00    -0.354 N 
ATOM     51  C   UNL A   1      43.715  28.677  30.088  1.00  0.00     0.074 A 
ATOM     52  C   UNL A   1      43.922  27.337  29.581  1.00  0.00     0.031 C 
ATOM     53  C   UNL A   1      37.609  29.899  28.539  1.00  0.00     0.029 A 
ATOM     54  C   UNL A   1      38.546  30.770  29.241  1.00  0.00     0.049 A 
ATOM     55  H   UNL A   1      40.541  30.384  29.696  1.00  0.00     0.167 HD
ATOM     56  C   UNL A   1      44.657  29.398  30.742  1.00  0.00     0.031 A 
ATOM     57  C   UNL A   1      38.261  31.996  29.718  1.00  0.00     0.031 A 
ATOM     58  C   UNL A   1      44.466  30.740  31.221  1.00  0.00     0.049 A 
ATOM     59  C   UNL A   1      39.324  32.778  30.434  1.00  0.00     0.074 A 
ATOM     60  C   UNL A   1      45.386  31.579  31.827  1.00  0.00     0.029 A 
ATOM     61  N   UNL A   1      43.272  31.440  31.148  1.00  0.00    -0.354 N 
ATOM     62  N   UNL A   1      40.566  32.443  30.684  1.00  0.00    -0.248 NA
ATOM     63  C   UNL A   1      38.945  34.109  30.927  1.00  0.00     0.031 C 
ATOM     64  C   UNL A   1      44.738  32.776  32.152  1.00  0.00     0.029 A 
ATOM     65  C   UNL A   1      43.426  32.694  31.716  1.00  0.00     0.049 A 
ATOM     66  H   UNL A   1      42.440  31.098  30.751  1.00  0.00     0.167 HD
ATOM     67  C   UNL A   1      41.124  33.531  31.342  1.00  0.00     0.074 A 
ATOM     68  C   UNL A   1      40.087  34.537  31.446  1.00  0.00     0.031 C 
ATOM     69  C   UNL A   1      42.386  33.683  31.813  1.00  0.00     0.031 A 
BRANCH  56  70
ATOM     70  C   UNL A   1      45.981  28.734  30.988  1.00  0.00    -0.014 A 
ATOM     71  C   UNL A   1      46.224  28.008  32.164  1.00  0.00     0.009 A 
ATOM     72  C   UNL A   1      46.991  28.819  30.018  1.00  0.00     0.009 A 
ATOM     73  C   UNL A   1      47.468  27.413  32.381  1.00  0.00     0.001 A 
ATOM     74  C   UNL A   1      48.226  28.203  30.226  1.00  0.00     0.001 A 
ATOM     75  C   UNL A   1      48.467  27.509  31.411  1.00  0.00     0.000 A 
ENDBRANCH  56  70
BRANCH  57  76
ATOM     76  C   UNL A   1      36.911  32.574  29.509  1.00  0.00    -0.014 A 
ATOM     77  C   UNL A   1      35.925  32.432  30.497  1.00  0.00     0.009 A 
ATOM     78  C   UNL A   1      36.602  33.271  28.332  1.00  0.00     0.009 A 
ATOM     79  C   UNL A   1      34.648  32.961  30.303  1.00  0.00     0.001 A 
ATOM     80  C   UNL A   1      35.330  33.817  28.149  1.00  0.00     0.001 A 
ATOM     81  C   UNL A   1      34.353  33.657  29.131  1.00  0.00     0.000 A 
ENDBRANCH  57  76
BRANCH  69  82
ATOM     82  C   UNL A   1      42.722  34.997  32.453  1.00  0.00    -0.014 A 
ATOM     83  C   UNL A   1      43.401  35.997  31.740  1.00  0.00     0.009 A 
ATOM     84  C   UNL A   1      42.323  35.249  33.774  1.00  0.00     0.009 A 
ATOM     85  C   UNL A   1      43.695  37.218  32.350  1.00  0.00     0.001 A 
ATOM     86  C   UNL A   1      42.600  36.478  34.373  1.00  0.00     0.001 A 
ATOM     87  C   UNL A   1      43.291  37.459  33.663  1.00  0.00     0.000 A 
ENDBRANCH  69  82
ENDBRANCH  43  44
ENDBRANCH  35  38
ENDBRANCH  33  34
ENDBRANCH  32  33
ENDBRANCH  31  32
ENDBRANCH  30  31
ENDBRANCH   1  30
TORSDOF 18
ENDMDL
MODEL 2
REMARK VINA RESULT:     -11.3      2.365      7.680
REMARK SMILES CCOC(=O)c1ccc(NC(=O)[C@H]2CC(C)=C(C)C[C@@H]2C(=O)NCCCCCCNC(=O)c2ccc(-c3c4nc(c(-c5ccccc5)c5ccc([nH]5)c(-c5ccccc5)c5nc(c(-c6ccccc6)c6ccc3[nH]6)C=C5)C=C4)cc2)cc1
REMARK SMILES IDX 25 1 24 2 23 3 21 4 22 5 20 7 13 8 14 9 15 10 19 11 16 12
REMARK SMILES IDX 17 13 18 14 11 15 10 16 12 18 9 19 6 20 7 21 82 22 8 23
REMARK SMILES IDX 81 24 4 25 5 26 3 27 2 28 1 29 26 30 27 31 28 32 29 33 30 34
REMARK SMILES IDX 31 35 32 37 33 38 34 39 80 40 35 41 79 42 36 43 37 44 38 45
REMARK SMILES IDX 73 46 39 47 78 48 72 49 74 50 40 51 77 52 71 53 70 54 41 56
REMARK SMILES IDX 63 57 48 58 62 59 49 60 52 61 61 62 75 63 50 64 51 65 60 67
REMARK SMILES IDX 76 68 53 69 42 70 43 71 47 72 44 73 46 74 45 75 64 76 65 77
REMARK SMILES IDX 69 78 66 79 68 80 67 81 54 82 55 83 59 84 56 85 58 86 57 87
REMARK H PARENT 23 6 10 17 30 36 74 55 52 66
REMARK Flexibility Score: inf
ROOT
ATOM      1  C   UNL A   1      34.740  23.322  23.502  1.00  0.00     0.021 C 
ENDROOT
BRANCH   1   2
ATOM      2  C   UNL A   1      34.053  24.677  23.640  1.00  0.00     0.116 C 
BRANCH   2   3
ATOM      3  N   UNL A   1      33.130  24.932  22.549  1.00  0.00    -0.356 N 
ATOM      4  C   UNL A   1      32.096  25.820  22.473  1.00  0.00     0.224 C 
ATOM      5  O   UNL A   1      31.464  25.884  21.418  1.00  0.00    -0.275 OA
ATOM      6  H   UNL A   1      33.272  24.383  21.743  1.00  0.00     0.163 HD
BRANCH   4   7
ATOM      7  C   UNL A   1      31.803  26.715  23.675  1.00  0.00     0.095 C 
ATOM      8  C   UNL A   1      30.701  26.113  24.558  1.00  0.00     0.095 C 
ATOM      9  C   UNL A   1      29.268  26.490  24.178  1.00  0.00     0.045 C 
ATOM     10  C   UNL A   1      29.063  27.793  23.431  1.00  0.00    -0.074 C 
ATOM     11  C   UNL A   1      31.534  28.139  23.174  1.00  0.00     0.045 C 
ATOM     12  C   UNL A   1      27.606  28.167  23.291  1.00  0.00     0.039 C 
ATOM     13  C   UNL A   1      30.092  28.542  22.978  1.00  0.00    -0.074 C 
ATOM     14  C   UNL A   1      29.936  29.855  22.251  1.00  0.00     0.039 C 
BRANCH   8  15
ATOM     15  C   UNL A   1      31.142  26.055  26.032  1.00  0.00     0.228 C 
ATOM     16  N   UNL A   1      31.835  25.044  26.620  1.00  0.00    -0.326 N 
ATOM     17  H   UNL A   1      32.304  25.311  27.443  1.00  0.00     0.169 HD
ATOM     18  O   UNL A   1      30.931  27.047  26.746  1.00  0.00    -0.274 OA
BRANCH  16  19
ATOM     19  C   UNL A   1      32.010  23.704  26.282  1.00  0.00     0.041 A 
ATOM     20  C   UNL A   1      32.637  21.111  25.499  1.00  0.00     0.060 A 
ATOM     21  C   UNL A   1      31.593  21.786  24.866  1.00  0.00     0.018 A 
ATOM     22  C   UNL A   1      33.286  21.677  26.597  1.00  0.00     0.018 A 
ATOM     23  C   UNL A   1      31.277  23.083  25.276  1.00  0.00     0.027 A 
ATOM     24  C   UNL A   1      32.946  22.965  27.011  1.00  0.00     0.027 A 
BRANCH  20  25
ATOM     25  C   UNL A   1      33.174  19.871  24.924  1.00  0.00     0.338 C 
ATOM     26  O   UNL A   1      34.355  19.730  24.660  1.00  0.00    -0.246 OA
BRANCH  25  27
ATOM     27  O   UNL A   1      32.179  18.966  24.778  1.00  0.00    -0.462 OA
BRANCH  27  28
ATOM     28  C   UNL A   1      32.562  17.777  24.071  1.00  0.00     0.230 C 
ATOM     29  C   UNL A   1      32.429  18.014  22.579  1.00  0.00     0.049 C 
ENDBRANCH  27  28
ENDBRANCH  25  27
ENDBRANCH  20  25
ENDBRANCH  16  19
ENDBRANCH   8  15
ENDBRANCH   4   7
ENDBRANCH   2   3
ENDBRANCH   1   2
BRANCH   1  30
ATOM     30  C   UNL A   1      35.945  23.115  24.427  1.00  0.00     0.002 C 
BRANCH  30  31
ATOM     31  C   UNL A   1      37.093  22.286  23.842  1.00  0.00     0.002 C 
BRANCH  31  32
ATOM     32  C   UNL A   1      37.376  20.960  24.549  1.00  0.00     0.021 C 
BRANCH  32  33
ATOM     33  C   UNL A   1      38.399  21.030  25.678  1.00  0.00     0.116 C 
BRANCH  33  34
ATOM     34  N   UNL A   1      39.390  19.969  25.608  1.00  0.00    -0.352 N 
ATOM     35  C   UNL A   1      40.719  20.005  25.954  1.00  0.00     0.251 C 
ATOM     36  H   UNL A   1      39.063  19.106  25.267  1.00  0.00     0.163 HD
ATOM     37  O   UNL A   1      41.450  19.050  25.717  1.00  0.00    -0.269 OA
BRANCH  35  38
ATOM     38  C   UNL A   1      41.277  21.220  26.586  1.00  0.00     0.039 A 
ATOM     39  C   UNL A   1      41.841  22.205  25.770  1.00  0.00     0.014 A 
ATOM     40  C   UNL A   1      41.241  21.390  27.973  1.00  0.00     0.014 A 
ATOM     41  C   UNL A   1      42.307  23.391  26.338  1.00  0.00     0.010 A 
ATOM     42  C   UNL A   1      41.656  22.595  28.532  1.00  0.00     0.010 A 
ATOM     43  C   UNL A   1      42.188  23.609  27.720  1.00  0.00    -0.014 A 
BRANCH  43  44
ATOM     44  C   UNL A   1      42.603  24.892  28.338  1.00  0.00     0.031 A 
ATOM     45  C   UNL A   1      41.588  25.969  28.596  1.00  0.00     0.074 A 
ATOM     46  C   UNL A   1      43.905  25.118  28.593  1.00  0.00     0.049 A 
ATOM     47  N   UNL A   1      41.773  27.185  29.042  1.00  0.00    -0.248 NA
ATOM     48  C   UNL A   1      40.187  25.645  28.288  1.00  0.00     0.031 C 
ATOM     49  C   UNL A   1      44.995  24.169  28.360  1.00  0.00     0.029 A 
ATOM     50  N   UNL A   1      44.534  26.229  29.097  1.00  0.00    -0.354 N 
ATOM     51  C   UNL A   1      40.518  27.781  29.039  1.00  0.00     0.074 A 
ATOM     52  C   UNL A   1      39.585  26.802  28.521  1.00  0.00     0.031 C 
ATOM     53  C   UNL A   1      46.155  24.728  28.744  1.00  0.00     0.029 A 
ATOM     54  C   UNL A   1      45.895  26.085  29.213  1.00  0.00     0.049 A 
ATOM     55  H   UNL A   1      44.055  27.051  29.352  1.00  0.00     0.167 HD
ATOM     56  C   UNL A   1      40.170  29.027  29.439  1.00  0.00     0.031 A 
ATOM     57  C   UNL A   1      46.830  26.951  29.645  1.00  0.00     0.031 A 
ATOM     58  C   UNL A   1      41.087  29.992  29.981  1.00  0.00     0.049 A 
ATOM     59  C   UNL A   1      46.418  28.325  30.089  1.00  0.00     0.074 A 
ATOM     60  C   UNL A   1      40.815  31.253  30.485  1.00  0.00     0.029 A 
ATOM     61  N   UNL A   1      42.456  29.804  30.091  1.00  0.00    -0.354 N 
ATOM     62  N   UNL A   1      45.220  28.854  30.132  1.00  0.00    -0.248 NA
ATOM     63  C   UNL A   1      47.491  29.219  30.549  1.00  0.00     0.031 C 
ATOM     64  C   UNL A   1      42.026  31.841  30.868  1.00  0.00     0.029 A 
ATOM     65  C   UNL A   1      43.045  30.932  30.636  1.00  0.00     0.049 A 
ATOM     66  H   UNL A   1      42.937  28.989  29.822  1.00  0.00     0.167 HD
ATOM     67  C   UNL A   1      45.390  30.131  30.646  1.00  0.00     0.074 A 
ATOM     68  C   UNL A   1      46.805  30.297  30.906  1.00  0.00     0.031 C 
ATOM     69  C   UNL A   1      44.453  31.081  30.887  1.00  0.00     0.031 A 
BRANCH  56  70
ATOM     70  C   UNL A   1      38.728  29.418  29.288  1.00  0.00    -0.014 A 
ATOM     71  C   UNL A   1      38.243  29.960  28.089  1.00  0.00     0.009 A 
ATOM     72  C   UNL A   1      37.840  29.222  30.357  1.00  0.00     0.009 A 
ATOM     73  C   UNL A   1      36.902  30.334  27.975  1.00  0.00     0.001 A 
ATOM     74  C   UNL A   1      36.496  29.574  30.232  1.00  0.00     0.001 A 
ATOM     75  C   UNL A   1      36.030  30.138  29.046  1.00  0.00     0.000 A 
ENDBRANCH  56  70
BRANCH  57  76
ATOM     76  C   UNL A   1      48.252  26.534  29.704  1.00  0.00    -0.014 A 
ATOM     77  C   UNL A   1      48.791  26.045  30.903  1.00  0.00     0.009 A 
ATOM     78  C   UNL A   1      49.074  26.619  28.571  1.00  0.00     0.009 A 
ATOM     79  C   UNL A   1      50.132  25.663  30.972  1.00  0.00     0.001 A 
ATOM     80  C   UNL A   1      50.410  26.218  28.637  1.00  0.00     0.001 A 
ATOM     81  C   UNL A   1      50.939  25.747  29.838  1.00  0.00     0.000 A 
ENDBRANCH  57  76
BRANCH  69  82
ATOM     82  C   UNL A   1      44.928  32.370  31.490  1.00  0.00    -0.014 A 
ATOM     83  C   UNL A   1      45.002  32.534  32.881  1.00  0.00     0.009 A 
ATOM     84  C   UNL A   1      45.338  33.420  30.654  1.00  0.00     0.009 A 
ATOM     85  C   UNL A   1      45.458  33.738  33.424  1.00  0.00     0.001 A 
ATOM     86  C   UNL A   1      45.812  34.613  31.199  1.00  0.00     0.001 A 
ATOM     87  C   UNL A   1      45.865  34.774  32.583  1.00  0.00     0.000 A 
ENDBRANCH  69  82
ENDBRANCH  43  44
ENDBRANCH  35  38
ENDBRANCH  33  34
ENDBRANCH  32  33
ENDBRANCH  31  32
ENDBRANCH  30  31
ENDBRANCH   1  30
TORSDOF 18
ENDMDL
MODEL 3
REMARK VINA RESULT:     -11.2      1.940      6.841
REMARK SMILES CCOC(=O)c1ccc(NC(=O)[C@H]2CC(C)=C(C)C[C@@H]2C(=O)NCCCCCCNC(=O)c2ccc(-c3c4nc(c(-c5ccccc5)c5ccc([nH]5)c(-c5ccccc5)c5nc(c(-c6ccccc6)c6ccc3[nH]6)C=C5)C=C4)cc2)cc1
REMARK SMILES IDX 25 1 24 2 23 3 21 4 22 5 20 7 13 8 14 9 15 10 19 11 16 12
REMARK SMILES IDX 17 13 18 14 11 15 10 16 12 18 9 19 6 20 7 21 82 22 8 23
REMARK SMILES IDX 81 24 4 25 5 26 3 27 2 28 1 29 26 30 27 31 28 32 29 33 30 34
REMARK SMILES IDX 31 35 32 37 33 38 34 39 80 40 35 41 79 42 36 43 37 44 38 45
REMARK SMILES IDX 73 46 39 47 78 48 72 49 74 50 40 51 77 52 71 53 70 54 41 56
REMARK SMILES IDX 63 57 48 58 62 59 49 60 52 61 61 62 75 63 50 64 51 65 60 67
REMARK SMILES IDX 76 68 53 69 42 70 43 71 47 72 44 73 46 74 45 75 64 76 65 77
REMARK SMILES IDX 69 78 66 79 68 80 67 81 54 82 55 83 59 84 56 85 58 86 57 87
REMARK H PARENT 23 6 10 17 30 36 74 55 52 66
REMARK Flexibility Score: inf
ROOT
ATOM      1  C   UNL A   1      31.075  27.219  26.322  1.00  0.00     0.021 C 
ENDROOT
BRANCH   1   2
ATOM      2  C   UNL A   1      31.850  25.924  26.547  1.00  0.00     0.116 C 
BRANCH   2   3
ATOM      3  N   UNL A   1      30.980  24.762  26.539  1.00  0.00    -0.356 N 
ATOM      4  C   UNL A   1      31.239  23.483  26.138  1.00  0.00     0.224 C 
ATOM      5  O   UNL A   1      30.345  22.646  26.257  1.00  0.00    -0.275 OA
ATOM      6  H   UNL A   1      30.067  24.919  26.874  1.00  0.00     0.163 HD
BRANCH   4   7
ATOM      7  C   UNL A   1      32.630  23.146  25.605  1.00  0.00     0.095 C 
ATOM      8  C   UNL A   1      32.751  23.489  24.113  1.00  0.00     0.095 C 
ATOM      9  C   UNL A   1      32.326  22.385  23.144  1.00  0.00     0.045 C 
ATOM     10  C   UNL A   1      32.404  20.954  23.637  1.00  0.00    -0.074 C 
ATOM     11  C   UNL A   1      32.956  21.692  25.969  1.00  0.00     0.045 C 
ATOM     12  C   UNL A   1      32.166  19.941  22.542  1.00  0.00     0.039 C 
ATOM     13  C   UNL A   1      32.692  20.640  24.919  1.00  0.00    -0.074 C 
ATOM     14  C   UNL A   1      32.803  19.232  25.448  1.00  0.00     0.039 C 
BRANCH   8  15
ATOM     15  C   UNL A   1      33.999  24.349  23.842  1.00  0.00     0.228 C 
ATOM     16  N   UNL A   1      34.009  25.681  23.575  1.00  0.00    -0.326 N 
ATOM     17  H   UNL A   1      34.875  26.114  23.753  1.00  0.00     0.169 HD
ATOM     18  O   UNL A   1      35.113  23.815  23.956  1.00  0.00    -0.274 OA
BRANCH  16  19
ATOM     19  C   UNL A   1      33.032  26.552  23.098  1.00  0.00     0.041 A 
ATOM     20  C   UNL A   1      31.101  28.434  22.420  1.00  0.00     0.060 A 
ATOM     21  C   UNL A   1      30.737  27.094  22.552  1.00  0.00     0.018 A 
ATOM     22  C   UNL A   1      32.441  28.818  22.505  1.00  0.00     0.018 A 
ATOM     23  C   UNL A   1      31.716  26.155  22.880  1.00  0.00     0.027 A 
ATOM     24  C   UNL A   1      33.413  27.865  22.811  1.00  0.00     0.027 A 
BRANCH  20  25
ATOM     25  C   UNL A   1      30.072  29.479  22.349  1.00  0.00     0.338 C 
ATOM     26  O   UNL A   1      29.688  29.949  21.292  1.00  0.00    -0.246 OA
BRANCH  25  27
ATOM     27  O   UNL A   1      29.641  29.781  23.595  1.00  0.00    -0.462 OA
BRANCH  27  28
ATOM     28  C   UNL A   1      29.272  31.157  23.775  1.00  0.00     0.230 C 
ATOM     29  C   UNL A   1      27.766  31.293  23.664  1.00  0.00     0.049 C 
ENDBRANCH  27  28
ENDBRANCH  25  27
ENDBRANCH  20  25
ENDBRANCH  16  19
ENDBRANCH   8  15
ENDBRANCH   4   7
ENDBRANCH   2   3
ENDBRANCH   1   2
BRANCH   1  30
ATOM     30  C   UNL A   1      31.947  28.469  26.154  1.00  0.00     0.002 C 
BRANCH  30  31
ATOM     31  C   UNL A   1      31.771  29.547  27.229  1.00  0.00     0.002 C 
BRANCH  31  32
ATOM     32  C   UNL A   1      31.643  30.981  26.711  1.00  0.00     0.021 C 
BRANCH  32  33
ATOM     33  C   UNL A   1      32.849  31.876  26.972  1.00  0.00     0.116 C 
BRANCH  33  34
ATOM     34  N   UNL A   1      32.476  33.199  27.446  1.00  0.00    -0.352 N 
ATOM     35  C   UNL A   1      33.130  34.011  28.340  1.00  0.00     0.251 C 
ATOM     36  H   UNL A   1      31.641  33.563  27.074  1.00  0.00     0.163 HD
ATOM     37  O   UNL A   1      32.614  35.054  28.727  1.00  0.00    -0.269 OA
BRANCH  35  38
ATOM     38  C   UNL A   1      34.452  33.606  28.864  1.00  0.00     0.039 A 
ATOM     39  C   UNL A   1      34.505  32.694  29.923  1.00  0.00     0.014 A 
ATOM     40  C   UNL A   1      35.632  34.117  28.314  1.00  0.00     0.014 A 
ATOM     41  C   UNL A   1      35.742  32.242  30.385  1.00  0.00     0.010 A 
ATOM     42  C   UNL A   1      36.862  33.624  28.739  1.00  0.00     0.010 A 
ATOM     43  C   UNL A   1      36.929  32.679  29.774  1.00  0.00    -0.014 A 
BRANCH  43  44
ATOM     44  C   UNL A   1      38.251  32.153  30.193  1.00  0.00     0.031 A 
ATOM     45  C   UNL A   1      38.756  30.850  29.642  1.00  0.00     0.074 A 
ATOM     46  C   UNL A   1      38.962  32.809  31.130  1.00  0.00     0.049 A 
ATOM     47  N   UNL A   1      39.840  30.187  29.955  1.00  0.00    -0.248 NA
ATOM     48  C   UNL A   1      37.919  30.194  28.625  1.00  0.00     0.031 C 
ATOM     49  C   UNL A   1      38.571  34.067  31.768  1.00  0.00     0.029 A 
ATOM     50  N   UNL A   1      40.163  32.497  31.716  1.00  0.00    -0.354 N 
ATOM     51  C   UNL A   1      39.800  29.024  29.198  1.00  0.00     0.074 A 
ATOM     52  C   UNL A   1      38.572  29.058  28.431  1.00  0.00     0.031 C 
ATOM     53  C   UNL A   1      39.526  34.432  32.640  1.00  0.00     0.029 A 
ATOM     54  C   UNL A   1      40.576  33.419  32.647  1.00  0.00     0.049 A 
ATOM     55  H   UNL A   1      40.680  31.690  31.490  1.00  0.00     0.167 HD
ATOM     56  C   UNL A   1      40.707  28.020  29.139  1.00  0.00     0.031 A 
ATOM     57  C   UNL A   1      41.674  33.442  33.425  1.00  0.00     0.031 A 
ATOM     58  C   UNL A   1      41.941  27.994  29.875  1.00  0.00     0.049 A 
ATOM     59  C   UNL A   1      42.668  32.320  33.336  1.00  0.00     0.074 A 
ATOM     60  C   UNL A   1      42.959  27.057  29.823  1.00  0.00     0.029 A 
ATOM     61  N   UNL A   1      42.326  28.952  30.801  1.00  0.00    -0.354 N 
ATOM     62  N   UNL A   1      42.643  31.254  32.574  1.00  0.00    -0.248 NA
ATOM     63  C   UNL A   1      43.845  32.410  34.212  1.00  0.00     0.031 C 
ATOM     64  C   UNL A   1      43.945  27.430  30.743  1.00  0.00     0.029 A 
ATOM     65  C   UNL A   1      43.557  28.618  31.340  1.00  0.00     0.049 A 
ATOM     66  H   UNL A   1      41.802  29.750  31.038  1.00  0.00     0.167 HD
ATOM     67  C   UNL A   1      43.810  30.559  32.859  1.00  0.00     0.074 A 
ATOM     68  C   UNL A   1      44.523  31.326  33.860  1.00  0.00     0.031 C 
ATOM     69  C   UNL A   1      44.252  29.390  32.335  1.00  0.00     0.031 A 
BRANCH  56  70
ATOM     70  C   UNL A   1      40.383  26.854  28.249  1.00  0.00    -0.014 A 
ATOM     71  C   UNL A   1      39.604  25.782  28.708  1.00  0.00     0.009 A 
ATOM     72  C   UNL A   1      40.849  26.841  26.925  1.00  0.00     0.009 A 
ATOM     73  C   UNL A   1      39.328  24.700  27.870  1.00  0.00     0.001 A 
ATOM     74  C   UNL A   1      40.552  25.770  26.082  1.00  0.00     0.001 A 
ATOM     75  C   UNL A   1      39.802  24.696  26.557  1.00  0.00     0.000 A 
ENDBRANCH  56  70
BRANCH  57  76
ATOM     76  C   UNL A   1      41.907  34.585  34.341  1.00  0.00    -0.014 A 
ATOM     77  C   UNL A   1      41.468  34.520  35.671  1.00  0.00     0.009 A 
ATOM     78  C   UNL A   1      42.568  35.739  33.895  1.00  0.00     0.009 A 
ATOM     79  C   UNL A   1      41.672  35.597  36.536  1.00  0.00     0.001 A 
ATOM     80  C   UNL A   1      42.788  36.807  34.768  1.00  0.00     0.001 A 
ATOM     81  C   UNL A   1      42.334  36.737  36.085  1.00  0.00     0.000 A 
ENDBRANCH  57  76
BRANCH  69  82
ATOM     82  C   UNL A   1      45.585  28.890  32.810  1.00  0.00    -0.014 A 
ATOM     83  C   UNL A   1      46.752  29.125  32.068  1.00  0.00     0.009 A 
ATOM     84  C   UNL A   1      45.675  28.205  34.031  1.00  0.00     0.009 A 
ATOM     85  C   UNL A   1      47.985  28.661  32.533  1.00  0.00     0.001 A 
ATOM     86  C   UNL A   1      46.910  27.761  34.501  1.00  0.00     0.001 A 
ATOM     87  C   UNL A   1      48.063  27.983  33.749  1.00  0.00     0.000 A 
ENDBRANCH  69  82
ENDBRANCH  43  44
ENDBRANCH  35  38
ENDBRANCH  33  34
ENDBRANCH  32  33
ENDBRANCH  31  32
ENDBRANCH  30  31
ENDBRANCH   1  30
TORSDOF 18
ENDMDL
