MODEL 1
REMARK VINA RESULT:     -11.6      0.000      0.000
REMARK SMILES C[C@@]12CC[C@@H]3c4ccc(O)cc4/C(=N\OCC(=O)NCCCCCCNC(=O)c4ccc(-c5c6nc(c(-c7ccccc7)c7ccc([nH]7)c(-c7ccccc7)c7nc(c(-c8ccccc8)c8ccc5[nH]8)C=C7)C=C6)cc4)C[C@H]3[C@@H]1C[C@@H](O)[C@@H]2O
REMARK SMILES IDX 22 1 21 2 20 3 19 4 17 5 18 6 16 8 15 9 14 10 1 11 2 12 3 13
REMARK SMILES IDX 79 14 83 15 4 16 78 17 80 18 81 19 5 20 77 21 6 22 13 23
REMARK SMILES IDX 7 24 12 25 8 26 11 27 9 28 84 29 82 31 10 33 23 35 24 36
REMARK SMILES IDX 25 37 26 38 27 39 28 41 29 42 30 43 76 44 31 45 75 46 32 47
REMARK SMILES IDX 33 48 34 49 69 50 35 51 74 52 68 53 70 54 36 55 73 56 67 57
REMARK SMILES IDX 66 58 37 60 59 61 44 62 58 63 45 64 48 65 57 66 71 67 46 68
REMARK SMILES IDX 47 69 56 71 72 72 49 73 38 74 39 75 43 76 40 77 42 78 41 79
REMARK SMILES IDX 60 80 61 81 65 82 62 83 64 84 63 85 50 86 51 87 55 88 52 89
REMARK SMILES IDX 54 90 53 91
REMARK H PARENT 19 7 84 30 82 32 10 34 26 40 70 59 48 70
REMARK Flexibility Score: inf
ROOT
ATOM      1  C   UNL A   1      40.606  20.510  26.502  1.00  0.00     0.002 C 
ENDROOT
BRANCH   1   2
ATOM      2  C   UNL A   1      40.617  22.036  26.364  1.00  0.00     0.021 C 
BRANCH   2   3
ATOM      3  C   UNL A   1      39.283  22.735  26.615  1.00  0.00     0.116 C 
BRANCH   3   4
ATOM      4  N   UNL A   1      38.544  22.938  25.384  1.00  0.00    -0.353 N 
ATOM      5  C   UNL A   1      37.493  22.225  24.873  1.00  0.00     0.260 C 
ATOM      6  O   UNL A   1      37.030  22.583  23.786  1.00  0.00    -0.271 OA
ATOM      7  H   UNL A   1      38.842  23.699  24.835  1.00  0.00     0.163 HD
BRANCH   5   8
ATOM      8  C   UNL A   1      36.857  21.090  25.677  1.00  0.00     0.363 C 
BRANCH   8   9
ATOM      9  O   UNL A   1      35.603  21.440  26.234  1.00  0.00    -0.385 OA
BRANCH   9  10
ATOM     10  N   UNL A   1      35.503  22.824  26.480  1.00  0.00    -0.090 NA
ATOM     11  C   UNL A   1      33.405  28.954  22.863  1.00  0.00     0.014 C 
ATOM     12  C   UNL A   1      32.945  27.493  23.128  1.00  0.00    -0.001 C 
ATOM     13  C   UNL A   1      33.484  26.684  21.948  1.00  0.00     0.010 C 
ATOM     14  C   UNL A   1      33.472  26.991  24.497  1.00  0.00     0.004 C 
ATOM     15  C   UNL A   1      31.401  27.446  23.332  1.00  0.00     0.149 C 
ATOM     16  C   UNL A   1      33.262  25.201  22.058  1.00  0.00     0.009 C 
ATOM     17  C   UNL A   1      33.473  25.431  24.652  1.00  0.00     0.006 C 
ATOM     18  C   UNL A   1      32.501  27.706  25.498  1.00  0.00     0.039 C 
ATOM     19  C   UNL A   1      31.208  28.068  24.723  1.00  0.00     0.144 C 
ATOM     20  C   UNL A   1      33.817  24.626  23.359  1.00  0.00     0.024 C 
ATOM     21  C   UNL A   1      34.446  24.911  25.750  1.00  0.00     0.065 C 
ATOM     22  C   UNL A   1      33.357  23.195  23.607  1.00  0.00    -0.035 A 
ATOM     23  C   UNL A   1      34.555  23.370  25.764  1.00  0.00     0.088 C 
ATOM     24  C   UNL A   1      32.640  22.436  22.667  1.00  0.00     0.008 A 
ATOM     25  C   UNL A   1      33.630  22.622  24.859  1.00  0.00     0.006 A 
ATOM     26  C   UNL A   1      32.154  21.172  22.991  1.00  0.00     0.046 A 
ATOM     27  C   UNL A   1      33.092  21.375  25.205  1.00  0.00     0.056 A 
ATOM     28  C   UNL A   1      32.372  20.655  24.258  1.00  0.00     0.116 A 
BRANCH  15  29
ATOM     29  O   UNL A   1      30.850  26.130  23.328  1.00  0.00    -0.390 OA
ATOM     30  H   UNL A   1      30.006  26.134  22.851  1.00  0.00     0.211 HD
ENDBRANCH  15  29
BRANCH  19  31
ATOM     31  O   UNL A   1      31.048  29.481  24.629  1.00  0.00    -0.390 OA
ATOM     32  H   UNL A   1      30.295  29.683  24.050  1.00  0.00     0.211 HD
ENDBRANCH  19  31
BRANCH  28  33
ATOM     33  O   UNL A   1      31.912  19.398  24.512  1.00  0.00    -0.508 OA
ATOM     34  H   UNL A   1      31.644  19.164  25.378  1.00  0.00     0.293 HD
ENDBRANCH  28  33
ENDBRANCH   9  10
ENDBRANCH   8   9
ENDBRANCH   5   8
ENDBRANCH   3   4
ENDBRANCH   2   3
ENDBRANCH   1   2
BRANCH   1  35
ATOM     35  C   UNL A   1      41.929  19.873  26.944  1.00  0.00     0.002 C 
BRANCH  35  36
ATOM     36  C   UNL A   1      42.376  18.643  26.151  1.00  0.00     0.021 C 
BRANCH  36  37
ATOM     37  C   UNL A   1      43.886  18.431  26.072  1.00  0.00     0.116 C 
BRANCH  37  38
ATOM     38  N   UNL A   1      44.401  18.508  24.711  1.00  0.00    -0.352 N 
ATOM     39  C   UNL A   1      44.701  19.607  23.943  1.00  0.00     0.251 C 
ATOM     40  H   UNL A   1      44.558  17.638  24.276  1.00  0.00     0.163 HD
ATOM     41  O   UNL A   1      44.993  19.478  22.757  1.00  0.00    -0.269 OA
BRANCH  39  42
ATOM     42  C   UNL A   1      44.634  20.960  24.537  1.00  0.00     0.039 A 
ATOM     43  C   UNL A   1      44.071  22.021  23.827  1.00  0.00     0.014 A 
ATOM     44  C   UNL A   1      45.179  21.177  25.806  1.00  0.00     0.014 A 
ATOM     45  C   UNL A   1      44.233  23.322  24.292  1.00  0.00     0.010 A 
ATOM     46  C   UNL A   1      45.259  22.477  26.314  1.00  0.00     0.010 A 
ATOM     47  C   UNL A   1      44.845  23.568  25.532  1.00  0.00    -0.014 A 
BRANCH  47  48
ATOM     48  C   UNL A   1      45.064  24.969  25.978  1.00  0.00     0.031 A 
ATOM     49  C   UNL A   1      43.946  25.764  26.598  1.00  0.00     0.074 A 
ATOM     50  C   UNL A   1      46.294  25.511  25.878  1.00  0.00     0.049 A 
ATOM     51  N   UNL A   1      43.969  26.986  27.073  1.00  0.00    -0.248 NA
ATOM     52  C   UNL A   1      42.630  25.111  26.702  1.00  0.00     0.031 C 
ATOM     53  C   UNL A   1      47.467  24.835  25.320  1.00  0.00     0.029 A 
ATOM     54  N   UNL A   1      46.771  26.738  26.266  1.00  0.00    -0.354 N 
ATOM     55  C   UNL A   1      42.677  27.249  27.514  1.00  0.00     0.074 A 
ATOM     56  C   UNL A   1      41.884  26.077  27.221  1.00  0.00     0.031 C 
ATOM     57  C   UNL A   1      48.536  25.632  25.452  1.00  0.00     0.029 A 
ATOM     58  C   UNL A   1      48.116  26.901  26.038  1.00  0.00     0.049 A 
ATOM     59  H   UNL A   1      46.204  27.434  26.670  1.00  0.00     0.167 HD
ATOM     60  C   UNL A   1      42.200  28.363  28.119  1.00  0.00     0.031 A 
ATOM     61  C   UNL A   1      48.924  27.956  26.258  1.00  0.00     0.031 A 
ATOM     62  C   UNL A   1      42.996  29.524  28.422  1.00  0.00     0.049 A 
ATOM     63  C   UNL A   1      48.358  29.200  26.878  1.00  0.00     0.074 A 
ATOM     64  C   UNL A   1      42.602  30.688  29.060  1.00  0.00     0.029 A 
ATOM     65  N   UNL A   1      44.338  29.671  28.111  1.00  0.00    -0.354 N 
ATOM     66  N   UNL A   1      47.140  29.424  27.306  1.00  0.00    -0.248 NA
ATOM     67  C   UNL A   1      49.274  30.338  27.049  1.00  0.00     0.031 C 
ATOM     68  C   UNL A   1      43.686  31.567  29.070  1.00  0.00     0.029 A 
ATOM     69  C   UNL A   1      44.778  30.921  28.513  1.00  0.00     0.049 A 
ATOM     70  H   UNL A   1      44.896  28.990  27.670  1.00  0.00     0.167 HD
ATOM     71  C   UNL A   1      47.146  30.717  27.812  1.00  0.00     0.074 A 
ATOM     72  C   UNL A   1      48.495  31.222  27.657  1.00  0.00     0.031 C 
ATOM     73  C   UNL A   1      46.121  31.420  28.354  1.00  0.00     0.031 A 
BRANCH  60  74
ATOM     74  C   UNL A   1      40.743  28.401  28.499  1.00  0.00    -0.014 A 
ATOM     75  C   UNL A   1      39.810  28.966  27.613  1.00  0.00     0.009 A 
ATOM     76  C   UNL A   1      40.308  27.991  29.768  1.00  0.00     0.009 A 
ATOM     77  C   UNL A   1      38.478  29.136  27.996  1.00  0.00     0.001 A 
ATOM     78  C   UNL A   1      38.968  28.133  30.137  1.00  0.00     0.001 A 
ATOM     79  C   UNL A   1      38.058  28.716  29.256  1.00  0.00     0.000 A 
ENDBRANCH  60  74
BRANCH  61  80
ATOM     80  C   UNL A   1      50.362  27.856  25.887  1.00  0.00    -0.014 A 
ATOM     81  C   UNL A   1      50.784  28.152  24.579  1.00  0.00     0.009 A 
ATOM     82  C   UNL A   1      51.309  27.400  26.815  1.00  0.00     0.009 A 
ATOM     83  C   UNL A   1      52.113  27.956  24.199  1.00  0.00     0.001 A 
ATOM     84  C   UNL A   1      52.646  27.239  26.441  1.00  0.00     0.001 A 
ATOM     85  C   UNL A   1      53.044  27.504  25.131  1.00  0.00     0.000 A 
ENDBRANCH  61  80
BRANCH  73  86
ATOM     86  C   UNL A   1      46.398  32.816  28.842  1.00  0.00    -0.014 A 
ATOM     87  C   UNL A   1      46.775  33.024  30.179  1.00  0.00     0.009 A 
ATOM     88  C   UNL A   1      46.172  33.929  28.019  1.00  0.00     0.009 A 
ATOM     89  C   UNL A   1      46.896  34.316  30.690  1.00  0.00     0.001 A 
ATOM     90  C   UNL A   1      46.326  35.223  28.524  1.00  0.00     0.001 A 
ATOM     91  C   UNL A   1      46.675  35.415  29.861  1.00  0.00     0.000 A 
ENDBRANCH  73  86
ENDBRANCH  47  48
ENDBRANCH  39  42
ENDBRANCH  37  38
ENDBRANCH  36  37
ENDBRANCH  35  36
ENDBRANCH   1  35
TORSDOF 18
ENDMDL
MODEL 2
REMARK VINA RESULT:     -11.3      1.225      5.760
REMARK SMILES C[C@@]12CC[C@@H]3c4ccc(O)cc4/C(=N\OCC(=O)NCCCCCCNC(=O)c4ccc(-c5c6nc(c(-c7ccccc7)c7ccc([nH]7)c(-c7ccccc7)c7nc(c(-c8ccccc8)c8ccc5[nH]8)C=C7)C=C6)cc4)C[C@H]3[C@@H]1C[C@@H](O)[C@@H]2O
REMARK SMILES IDX 22 1 21 2 20 3 19 4 17 5 18 6 16 8 15 9 14 10 1 11 2 12 3 13
REMARK SMILES IDX 79 14 83 15 4 16 78 17 80 18 81 19 5 20 77 21 6 22 13 23
REMARK SMILES IDX 7 24 12 25 8 26 11 27 9 28 84 29 82 31 10 33 23 35 24 36
REMARK SMILES IDX 25 37 26 38 27 39 28 41 29 42 30 43 76 44 31 45 75 46 32 47
REMARK SMILES IDX 33 48 34 49 69 50 35 51 74 52 68 53 70 54 36 55 73 56 67 57
REMARK SMILES IDX 66 58 37 60 59 61 44 62 58 63 45 64 48 65 57 66 71 67 46 68
REMARK SMILES IDX 47 69 56 71 72 72 49 73 38 74 39 75 43 76 40 77 42 78 41 79
REMARK SMILES IDX 60 80 61 81 65 82 62 83 64 84 63 85 50 86 51 87 55 88 52 89
REMARK SMILES IDX 54 90 53 91
REMARK H PARENT 19 7 84 30 82 32 10 34 26 40 70 59 48 70
REMARK Flexibility Score: inf
ROOT
ATOM      1  C   UNL A   1      40.127  21.928  26.077  1.00  0.00     0.002 C 
ENDROOT
BRANCH   1   2
ATOM      2  C   UNL A   1      39.762  23.183  26.877  1.00  0.00     0.021 C 
BRANCH   2   3
ATOM      3  C   UNL A   1      38.430  23.836  26.516  1.00  0.00     0.116 C 
BRANCH   3   4
ATOM      4  N   UNL A   1      37.968  23.423  25.205  1.00  0.00    -0.353 N 
ATOM      5  C   UNL A   1      37.263  22.306  24.843  1.00  0.00     0.260 C 
ATOM      6  O   UNL A   1      36.992  22.161  23.648  1.00  0.00    -0.271 OA
ATOM      7  H   UNL A   1      38.196  24.033  24.467  1.00  0.00     0.163 HD
BRANCH   5   8
ATOM      8  C   UNL A   1      36.746  21.334  25.905  1.00  0.00     0.363 C 
BRANCH   8   9
ATOM      9  O   UNL A   1      35.443  21.652  26.360  1.00  0.00    -0.385 OA
BRANCH   9  10
ATOM     10  N   UNL A   1      35.274  23.037  26.553  1.00  0.00    -0.090 NA
ATOM     11  C   UNL A   1      33.091  28.949  22.635  1.00  0.00     0.014 C 
ATOM     12  C   UNL A   1      32.680  27.479  22.930  1.00  0.00    -0.001 C 
ATOM     13  C   UNL A   1      33.305  26.656  21.804  1.00  0.00     0.010 C 
ATOM     14  C   UNL A   1      33.165  27.046  24.338  1.00  0.00     0.004 C 
ATOM     15  C   UNL A   1      31.132  27.373  23.068  1.00  0.00     0.149 C 
ATOM     16  C   UNL A   1      33.140  25.169  21.956  1.00  0.00     0.009 C 
ATOM     17  C   UNL A   1      33.224  25.493  24.547  1.00  0.00     0.006 C 
ATOM     18  C   UNL A   1      32.121  27.752  25.270  1.00  0.00     0.039 C 
ATOM     19  C   UNL A   1      30.850  28.032  24.426  1.00  0.00     0.144 C 
ATOM     20  C   UNL A   1      33.659  24.662  23.299  1.00  0.00     0.024 C 
ATOM     21  C   UNL A   1      34.167  25.053  25.705  1.00  0.00     0.065 C 
ATOM     22  C   UNL A   1      33.248  23.221  23.577  1.00  0.00    -0.035 A 
ATOM     23  C   UNL A   1      34.339  23.519  25.777  1.00  0.00     0.088 C 
ATOM     24  C   UNL A   1      32.606  22.401  22.634  1.00  0.00     0.008 A 
ATOM     25  C   UNL A   1      33.487  22.702  24.859  1.00  0.00     0.006 A 
ATOM     26  C   UNL A   1      32.158  21.129  22.980  1.00  0.00     0.046 A 
ATOM     27  C   UNL A   1      32.986  21.445  25.225  1.00  0.00     0.056 A 
ATOM     28  C   UNL A   1      32.341  20.665  24.273  1.00  0.00     0.116 A 
BRANCH  15  29
ATOM     29  O   UNL A   1      30.637  26.035  23.086  1.00  0.00    -0.390 OA
ATOM     30  H   UNL A   1      31.366  25.418  22.914  1.00  0.00     0.211 HD
ENDBRANCH  15  29
BRANCH  19  31
ATOM     31  O   UNL A   1      30.637  29.432  24.276  1.00  0.00    -0.390 OA
ATOM     32  H   UNL A   1      30.184  29.777  25.062  1.00  0.00     0.211 HD
ENDBRANCH  19  31
BRANCH  28  33
ATOM     33  O   UNL A   1      31.921  19.398  24.550  1.00  0.00    -0.508 OA
ATOM     34  H   UNL A   1      31.231  19.013  24.049  1.00  0.00     0.293 HD
ENDBRANCH  28  33
ENDBRANCH   9  10
ENDBRANCH   8   9
ENDBRANCH   5   8
ENDBRANCH   3   4
ENDBRANCH   2   3
ENDBRANCH   1   2
BRANCH   1  35
ATOM     35  C   UNL A   1      40.512  20.698  26.908  1.00  0.00     0.002 C 
BRANCH  35  36
ATOM     36  C   UNL A   1      41.118  19.529  26.130  1.00  0.00     0.021 C 
BRANCH  36  37
ATOM     37  C   UNL A   1      42.596  19.259  26.405  1.00  0.00     0.116 C 
BRANCH  37  38
ATOM     38  N   UNL A   1      43.432  19.418  25.222  1.00  0.00    -0.352 N 
ATOM     39  C   UNL A   1      43.959  20.558  24.662  1.00  0.00     0.251 C 
ATOM     40  H   UNL A   1      43.654  18.581  24.753  1.00  0.00     0.163 HD
ATOM     41  O   UNL A   1      44.528  20.513  23.574  1.00  0.00    -0.269 OA
BRANCH  39  42
ATOM     42  C   UNL A   1      43.805  21.856  25.355  1.00  0.00     0.039 A 
ATOM     43  C   UNL A   1      43.435  22.999  24.646  1.00  0.00     0.014 A 
ATOM     44  C   UNL A   1      44.077  21.937  26.724  1.00  0.00     0.014 A 
ATOM     45  C   UNL A   1      43.532  24.246  25.255  1.00  0.00     0.010 A 
ATOM     46  C   UNL A   1      44.083  23.183  27.357  1.00  0.00     0.010 A 
ATOM     47  C   UNL A   1      43.874  24.355  26.613  1.00  0.00    -0.014 A 
BRANCH  47  48
ATOM     48  C   UNL A   1      44.034  25.701  27.225  1.00  0.00     0.031 A 
ATOM     49  C   UNL A   1      45.396  26.330  27.358  1.00  0.00     0.074 A 
ATOM     50  C   UNL A   1      42.939  26.388  27.609  1.00  0.00     0.049 A 
ATOM     51  N   UNL A   1      45.715  27.508  27.835  1.00  0.00    -0.248 NA
ATOM     52  C   UNL A   1      46.552  25.541  26.900  1.00  0.00     0.031 C 
ATOM     53  C   UNL A   1      41.563  25.900  27.506  1.00  0.00     0.029 A 
ATOM     54  N   UNL A   1      42.807  27.650  28.132  1.00  0.00    -0.354 N 
ATOM     55  C   UNL A   1      47.100  27.593  27.749  1.00  0.00     0.074 A 
ATOM     56  C   UNL A   1      47.567  26.337  27.206  1.00  0.00     0.031 C 
ATOM     57  C   UNL A   1      40.725  26.868  27.900  1.00  0.00     0.029 A 
ATOM     58  C   UNL A   1      41.502  28.020  28.348  1.00  0.00     0.049 A 
ATOM     59  H   UNL A   1      43.574  28.233  28.332  1.00  0.00     0.167 HD
ATOM     60  C   UNL A   1      47.907  28.629  28.079  1.00  0.00     0.031 A 
ATOM     61  C   UNL A   1      40.982  29.150  28.863  1.00  0.00     0.031 A 
ATOM     62  C   UNL A   1      47.438  29.884  28.606  1.00  0.00     0.049 A 
ATOM     63  C   UNL A   1      41.902  30.263  29.276  1.00  0.00     0.074 A 
ATOM     64  C   UNL A   1      48.182  31.002  28.943  1.00  0.00     0.029 A 
ATOM     65  N   UNL A   1      46.113  30.189  28.873  1.00  0.00    -0.354 N 
ATOM     66  N   UNL A   1      43.206  30.333  29.168  1.00  0.00    -0.248 NA
ATOM     67  C   UNL A   1      41.283  31.453  29.878  1.00  0.00     0.031 C 
ATOM     68  C   UNL A   1      47.317  31.955  29.481  1.00  0.00     0.029 A 
ATOM     69  C   UNL A   1      46.024  31.465  29.404  1.00  0.00     0.049 A 
ATOM     70  H   UNL A   1      45.349  29.589  28.710  1.00  0.00     0.167 HD
ATOM     71  C   UNL A   1      43.563  31.577  29.672  1.00  0.00     0.074 A 
ATOM     72  C   UNL A   1      42.336  32.238  30.066  1.00  0.00     0.031 C 
ATOM     73  C   UNL A   1      44.800  32.118  29.796  1.00  0.00     0.031 A 
BRANCH  60  74
ATOM     74  C   UNL A   1      49.392  28.466  27.893  1.00  0.00    -0.014 A 
ATOM     75  C   UNL A   1      49.959  28.662  26.623  1.00  0.00     0.009 A 
ATOM     76  C   UNL A   1      50.212  28.008  28.936  1.00  0.00     0.009 A 
ATOM     77  C   UNL A   1      51.309  28.386  26.395  1.00  0.00     0.001 A 
ATOM     78  C   UNL A   1      51.570  27.763  28.714  1.00  0.00     0.001 A 
ATOM     79  C   UNL A   1      52.114  27.941  27.442  1.00  0.00     0.000 A 
ENDBRANCH  60  74
BRANCH  61  80
ATOM     80  C   UNL A   1      39.505  29.270  29.002  1.00  0.00    -0.014 A 
ATOM     81  C   UNL A   1      38.874  28.947  30.216  1.00  0.00     0.009 A 
ATOM     82  C   UNL A   1      38.712  29.640  27.906  1.00  0.00     0.009 A 
ATOM     83  C   UNL A   1      37.482  28.955  30.318  1.00  0.00     0.001 A 
ATOM     84  C   UNL A   1      37.320  29.681  28.022  1.00  0.00     0.001 A 
ATOM     85  C   UNL A   1      36.706  29.325  29.223  1.00  0.00     0.000 A 
ENDBRANCH  61  80
BRANCH  73  86
ATOM     86  C   UNL A   1      44.913  33.504  30.369  1.00  0.00    -0.014 A 
ATOM     87  C   UNL A   1      45.014  33.676  31.760  1.00  0.00     0.009 A 
ATOM     88  C   UNL A   1      44.800  34.638  29.551  1.00  0.00     0.009 A 
ATOM     89  C   UNL A   1      44.974  34.952  32.323  1.00  0.00     0.001 A 
ATOM     90  C   UNL A   1      44.794  35.917  30.115  1.00  0.00     0.001 A 
ATOM     91  C   UNL A   1      44.868  36.072  31.499  1.00  0.00     0.000 A 
ENDBRANCH  73  86
ENDBRANCH  47  48
ENDBRANCH  39  42
ENDBRANCH  37  38
ENDBRANCH  36  37
ENDBRANCH  35  36
ENDBRANCH   1  35
TORSDOF 18
ENDMDL
MODEL 3
REMARK VINA RESULT:     -11.1      5.564     12.002
REMARK SMILES C[C@@]12CC[C@@H]3c4ccc(O)cc4/C(=N\OCC(=O)NCCCCCCNC(=O)c4ccc(-c5c6nc(c(-c7ccccc7)c7ccc([nH]7)c(-c7ccccc7)c7nc(c(-c8ccccc8)c8ccc5[nH]8)C=C7)C=C6)cc4)C[C@H]3[C@@H]1C[C@@H](O)[C@@H]2O
REMARK SMILES IDX 22 1 21 2 20 3 19 4 17 5 18 6 16 8 15 9 14 10 1 11 2 12 3 13
REMARK SMILES IDX 79 14 83 15 4 16 78 17 80 18 81 19 5 20 77 21 6 22 13 23
REMARK SMILES IDX 7 24 12 25 8 26 11 27 9 28 84 29 82 31 10 33 23 35 24 36
REMARK SMILES IDX 25 37 26 38 27 39 28 41 29 42 30 43 76 44 31 45 75 46 32 47
REMARK SMILES IDX 33 48 34 49 69 50 35 51 74 52 68 53 70 54 36 55 73 56 67 57
REMARK SMILES IDX 66 58 37 60 59 61 44 62 58 63 45 64 48 65 57 66 71 67 46 68
REMARK SMILES IDX 47 69 56 71 72 72 49 73 38 74 39 75 43 76 40 77 42 78 41 79
REMARK SMILES IDX 60 80 61 81 65 82 62 83 64 84 63 85 50 86 51 87 55 88 52 89
REMARK SMILES IDX 54 90 53 91
REMARK H PARENT 19 7 84 30 82 32 10 34 26 40 70 59 48 70
REMARK Flexibility Score: inf
ROOT
ATOM      1  C   UNL A   1      37.627  33.154  29.412  1.00  0.00     0.002 C 
ENDROOT
BRANCH   1   2
ATOM      2  C   UNL A   1      37.959  33.222  30.907  1.00  0.00     0.021 C 
BRANCH   2   3
ATOM      3  C   UNL A   1      36.821  32.854  31.856  1.00  0.00     0.116 C 
BRANCH   3   4
ATOM      4  N   UNL A   1      37.236  32.922  33.243  1.00  0.00    -0.353 N 
ATOM      5  C   UNL A   1      37.775  31.947  34.039  1.00  0.00     0.260 C 
ATOM      6  O   UNL A   1      38.039  32.241  35.208  1.00  0.00    -0.271 OA
ATOM      7  H   UNL A   1      37.112  33.797  33.677  1.00  0.00     0.163 HD
BRANCH   5   8
ATOM      8  C   UNL A   1      38.127  30.576  33.460  1.00  0.00     0.363 C 
BRANCH   8   9
ATOM      9  O   UNL A   1      39.516  30.303  33.487  1.00  0.00    -0.385 OA
BRANCH   9  10
ATOM     10  N   UNL A   1      39.790  28.936  33.288  1.00  0.00    -0.090 NA
ATOM     11  C   UNL A   1      45.610  24.346  33.637  1.00  0.00     0.014 C 
ATOM     12  C   UNL A   1      44.926  25.489  34.437  1.00  0.00    -0.001 C 
ATOM     13  C   UNL A   1      45.646  26.766  34.005  1.00  0.00     0.010 C 
ATOM     14  C   UNL A   1      43.403  25.526  34.149  1.00  0.00     0.004 C 
ATOM     15  C   UNL A   1      44.965  25.173  35.962  1.00  0.00     0.149 C 
ATOM     16  C   UNL A   1      45.059  28.032  34.567  1.00  0.00     0.009 C 
ATOM     17  C   UNL A   1      42.712  26.885  34.516  1.00  0.00     0.006 C 
ATOM     18  C   UNL A   1      42.883  24.322  35.008  1.00  0.00     0.039 C 
ATOM     19  C   UNL A   1      43.930  24.049  36.119  1.00  0.00     0.144 C 
ATOM     20  C   UNL A   1      43.570  28.165  34.263  1.00  0.00     0.024 C 
ATOM     21  C   UNL A   1      41.363  27.121  33.778  1.00  0.00     0.065 C 
ATOM     22  C   UNL A   1      42.912  29.289  35.056  1.00  0.00    -0.035 A 
ATOM     23  C   UNL A   1      40.792  28.536  34.026  1.00  0.00     0.088 C 
ATOM     24  C   UNL A   1      43.627  30.200  35.850  1.00  0.00     0.008 A 
ATOM     25  C   UNL A   1      41.512  29.388  35.022  1.00  0.00     0.006 A 
ATOM     26  C   UNL A   1      42.961  31.137  36.636  1.00  0.00     0.046 A 
ATOM     27  C   UNL A   1      40.840  30.291  35.856  1.00  0.00     0.056 A 
ATOM     28  C   UNL A   1      41.576  31.170  36.643  1.00  0.00     0.116 A 
BRANCH  15  29
ATOM     29  O   UNL A   1      44.595  26.269  36.797  1.00  0.00    -0.390 OA
ATOM     30  H   UNL A   1      45.263  26.388  37.490  1.00  0.00     0.211 HD
ENDBRANCH  15  29
BRANCH  19  31
ATOM     31  O   UNL A   1      44.538  22.772  35.944  1.00  0.00    -0.390 OA
ATOM     32  H   UNL A   1      43.896  22.161  35.548  1.00  0.00     0.211 HD
ENDBRANCH  19  31
BRANCH  28  33
ATOM     33  O   UNL A   1      40.974  32.132  37.397  1.00  0.00    -0.508 OA
ATOM     34  H   UNL A   1      40.041  32.148  37.478  1.00  0.00     0.293 HD
ENDBRANCH  28  33
ENDBRANCH   9  10
ENDBRANCH   8   9
ENDBRANCH   5   8
ENDBRANCH   3   4
ENDBRANCH   2   3
ENDBRANCH   1   2
BRANCH   1  35
ATOM     35  C   UNL A   1      36.405  33.966  28.966  1.00  0.00     0.002 C 
BRANCH  35  36
ATOM     36  C   UNL A   1      35.333  33.191  28.196  1.00  0.00     0.021 C 
BRANCH  36  37
ATOM     37  C   UNL A   1      34.404  32.336  29.054  1.00  0.00     0.116 C 
BRANCH  37  38
ATOM     38  N   UNL A   1      33.937  31.138  28.367  1.00  0.00    -0.352 N 
ATOM     39  C   UNL A   1      34.634  30.022  27.971  1.00  0.00     0.251 C 
ATOM     40  H   UNL A   1      32.975  31.128  28.156  1.00  0.00     0.163 HD
ATOM     41  O   UNL A   1      34.096  29.167  27.271  1.00  0.00    -0.269 OA
BRANCH  39  42
ATOM     42  C   UNL A   1      36.054  29.866  28.354  1.00  0.00     0.039 A 
ATOM     43  C   UNL A   1      37.069  30.087  27.422  1.00  0.00     0.014 A 
ATOM     44  C   UNL A   1      36.371  29.454  29.652  1.00  0.00     0.014 A 
ATOM     45  C   UNL A   1      38.372  29.703  27.723  1.00  0.00     0.010 A 
ATOM     46  C   UNL A   1      37.696  29.157  29.981  1.00  0.00     0.010 A 
ATOM     47  C   UNL A   1      38.699  29.217  29.000  1.00  0.00    -0.014 A 
BRANCH  47  48
ATOM     48  C   UNL A   1      40.084  28.755  29.277  1.00  0.00     0.031 A 
ATOM     49  C   UNL A   1      40.548  27.396  28.822  1.00  0.00     0.074 A 
ATOM     50  C   UNL A   1      40.950  29.586  29.890  1.00  0.00     0.049 A 
ATOM     51  N   UNL A   1      41.730  26.844  28.949  1.00  0.00    -0.248 NA
ATOM     52  C   UNL A   1      39.564  26.541  28.137  1.00  0.00     0.031 C 
ATOM     53  C   UNL A   1      40.631  30.937  30.355  1.00  0.00     0.029 A 
ATOM     54  N   UNL A   1      42.278  29.432  30.201  1.00  0.00    -0.354 N 
ATOM     55  C   UNL A   1      41.626  25.581  28.378  1.00  0.00     0.074 A 
ATOM     56  C   UNL A   1      40.259  25.431  27.932  1.00  0.00     0.031 C 
ATOM     57  C   UNL A   1      41.743  31.507  30.840  1.00  0.00     0.029 A 
ATOM     58  C   UNL A   1      42.837  30.542  30.787  1.00  0.00     0.049 A 
ATOM     59  H   UNL A   1      42.782  28.606  30.021  1.00  0.00     0.167 HD
ATOM     60  C   UNL A   1      42.587  24.640  28.225  1.00  0.00     0.031 A 
ATOM     61  C   UNL A   1      44.083  30.762  31.247  1.00  0.00     0.031 A 
ATOM     62  C   UNL A   1      43.952  24.798  28.657  1.00  0.00     0.049 A 
ATOM     63  C   UNL A   1      45.116  29.679  31.118  1.00  0.00     0.074 A 
ATOM     64  C   UNL A   1      45.002  23.906  28.519  1.00  0.00     0.029 A 
ATOM     65  N   UNL A   1      44.456  25.913  29.307  1.00  0.00    -0.354 N 
ATOM     66  N   UNL A   1      45.005  28.500  30.558  1.00  0.00    -0.248 NA
ATOM     67  C   UNL A   1      46.446  29.955  31.682  1.00  0.00     0.031 C 
ATOM     68  C   UNL A   1      46.122  24.450  29.149  1.00  0.00     0.029 A 
ATOM     69  C   UNL A   1      45.793  25.716  29.608  1.00  0.00     0.049 A 
ATOM     70  H   UNL A   1      43.941  26.724  29.524  1.00  0.00     0.167 HD
ATOM     71  C   UNL A   1      46.251  27.900  30.685  1.00  0.00     0.074 A 
ATOM     72  C   UNL A   1      47.110  28.853  31.357  1.00  0.00     0.031 C 
ATOM     73  C   UNL A   1      46.643  26.667  30.279  1.00  0.00     0.031 A 
BRANCH  60  74
ATOM     74  C   UNL A   1      42.214  23.336  27.570  1.00  0.00    -0.014 A 
ATOM     75  C   UNL A   1      41.733  22.276  28.357  1.00  0.00     0.009 A 
ATOM     76  C   UNL A   1      42.443  23.114  26.204  1.00  0.00     0.009 A 
ATOM     77  C   UNL A   1      41.507  21.018  27.795  1.00  0.00     0.001 A 
ATOM     78  C   UNL A   1      42.187  21.863  25.638  1.00  0.00     0.001 A 
ATOM     79  C   UNL A   1      41.731  20.814  26.435  1.00  0.00     0.000 A 
ENDBRANCH  60  74
BRANCH  61  80
ATOM     80  C   UNL A   1      44.407  32.077  31.863  1.00  0.00    -0.014 A 
ATOM     81  C   UNL A   1      44.145  32.310  33.224  1.00  0.00     0.009 A 
ATOM     82  C   UNL A   1      44.913  33.126  31.083  1.00  0.00     0.009 A 
ATOM     83  C   UNL A   1      44.347  33.575  33.781  1.00  0.00     0.001 A 
ATOM     84  C   UNL A   1      45.148  34.382  31.652  1.00  0.00     0.001 A 
ATOM     85  C   UNL A   1      44.851  34.608  32.996  1.00  0.00     0.000 A 
ENDBRANCH  61  80
BRANCH  73  86
ATOM     86  C   UNL A   1      48.069  26.258  30.531  1.00  0.00    -0.014 A 
ATOM     87  C   UNL A   1      49.012  26.348  29.494  1.00  0.00     0.009 A 
ATOM     88  C   UNL A   1      48.451  25.674  31.748  1.00  0.00     0.009 A 
ATOM     89  C   UNL A   1      50.301  25.841  29.660  1.00  0.00     0.001 A 
ATOM     90  C   UNL A   1      49.753  25.197  31.923  1.00  0.00     0.001 A 
ATOM     91  C   UNL A   1      50.672  25.269  30.876  1.00  0.00     0.000 A 
ENDBRANCH  73  86
ENDBRANCH  47  48
ENDBRANCH  39  42
ENDBRANCH  37  38
ENDBRANCH  36  37
ENDBRANCH  35  36
ENDBRANCH   1  35
TORSDOF 18
ENDMDL
