MODEL 1
REMARK VINA RESULT:     -12.1      0.000      0.000
REMARK SMILES O=C(NCCCCCCNC(=O)[C@H]1[C@H]2C[C@@H]3[C@@H](OC(=O)[C@@H]31)[C@@H]2Sc1ccccc1)c1ccc(-c2c3nc(c(-c4ccccc4)c4ccc([nH]4)c(-c4ccccc4)c4nc(c(-c5ccccc5)c5ccc2[nH]5)C=C4)C=C3)cc1
REMARK SMILES IDX 6 1 5 2 4 3 3 4 1 5 2 6 30 8 31 9 77 10 32 11 76 12 33 13
REMARK SMILES IDX 34 14 35 15 70 16 36 17 75 18 69 19 71 20 37 21 74 22 68 23
REMARK SMILES IDX 67 24 38 26 60 27 45 28 59 29 46 30 49 31 58 32 72 33 47 34
REMARK SMILES IDX 48 35 57 37 73 38 50 39 39 40 40 41 44 42 41 43 43 44 42 45
REMARK SMILES IDX 61 46 62 47 66 48 63 49 65 50 64 51 51 52 52 53 56 54 53 55
REMARK SMILES IDX 55 56 54 57 7 58 8 59 9 60 10 61 11 62 12 64 13 65 14 66
REMARK SMILES IDX 21 67 15 68 22 69 16 70 19 71 17 72 18 73 20 74 23 75 24 76
REMARK SMILES IDX 25 77 29 78 26 79 28 80 27 81
REMARK H PARENT 3 7 71 25 49 36 10 63
REMARK Flexibility Score: inf
ROOT
ATOM      1  C   UNL A   1      31.708  30.692  26.227  1.00  0.00     0.002 C 
ENDROOT
BRANCH   1   2
ATOM      2  C   UNL A   1      31.441  32.142  26.622  1.00  0.00     0.021 C 
BRANCH   2   3
ATOM      3  C   UNL A   1      32.608  32.835  27.308  1.00  0.00     0.116 C 
BRANCH   3   4
ATOM      4  N   UNL A   1      32.323  34.223  27.640  1.00  0.00    -0.352 N 
ATOM      5  O   UNL A   1      32.462  36.142  28.827  1.00  0.00    -0.269 OA
ATOM      6  C   UNL A   1      32.931  35.039  28.565  1.00  0.00     0.251 C 
ATOM      7  H   UNL A   1      31.589  34.637  27.129  1.00  0.00     0.163 HD
BRANCH   6   8
ATOM      8  C   UNL A   1      34.138  34.558  29.271  1.00  0.00     0.039 A 
ATOM      9  C   UNL A   1      35.392  34.651  28.667  1.00  0.00     0.014 A 
ATOM     10  C   UNL A   1      34.005  33.970  30.531  1.00  0.00     0.014 A 
ATOM     11  C   UNL A   1      36.473  33.986  29.228  1.00  0.00     0.010 A 
ATOM     12  C   UNL A   1      35.122  33.400  31.148  1.00  0.00     0.010 A 
ATOM     13  C   UNL A   1      36.356  33.357  30.479  1.00  0.00    -0.014 A 
BRANCH  13  14
ATOM     14  C   UNL A   1      37.547  32.689  31.066  1.00  0.00     0.031 A 
ATOM     15  C   UNL A   1      38.117  33.127  32.389  1.00  0.00     0.074 A 
ATOM     16  C   UNL A   1      38.088  31.641  30.414  1.00  0.00     0.049 A 
ATOM     17  N   UNL A   1      39.116  32.614  33.065  1.00  0.00    -0.248 NA
ATOM     18  C   UNL A   1      37.496  34.295  33.036  1.00  0.00     0.031 C 
ATOM     19  C   UNL A   1      37.627  31.118  29.126  1.00  0.00     0.029 A 
ATOM     20  N   UNL A   1      39.122  30.809  30.757  1.00  0.00    -0.354 N 
ATOM     21  C   UNL A   1      39.259  33.407  34.197  1.00  0.00     0.074 A 
ATOM     22  C   UNL A   1      38.265  34.454  34.104  1.00  0.00     0.031 C 
ATOM     23  C   UNL A   1      38.329  30.019  28.820  1.00  0.00     0.029 A 
ATOM     24  C   UNL A   1      39.337  29.802  29.848  1.00  0.00     0.049 A 
ATOM     25  H   UNL A   1      39.659  30.922  31.576  1.00  0.00     0.167 HD
ATOM     26  C   UNL A   1      40.137  33.274  35.222  1.00  0.00     0.031 A 
ATOM     27  C   UNL A   1      40.253  28.817  29.833  1.00  0.00     0.031 A 
ATOM     28  C   UNL A   1      41.127  32.230  35.312  1.00  0.00     0.049 A 
ATOM     29  C   UNL A   1      41.237  28.718  30.962  1.00  0.00     0.074 A 
ATOM     30  C   UNL A   1      42.035  31.991  36.328  1.00  0.00     0.029 A 
ATOM     31  N   UNL A   1      41.344  31.260  34.346  1.00  0.00    -0.354 N 
ATOM     32  N   UNL A   1      41.330  29.452  32.044  1.00  0.00    -0.248 NA
ATOM     33  C   UNL A   1      42.236  27.647  30.869  1.00  0.00     0.031 C 
ATOM     34  C   UNL A   1      42.847  30.916  35.947  1.00  0.00     0.029 A 
ATOM     35  C   UNL A   1      42.392  30.438  34.729  1.00  0.00     0.049 A 
ATOM     36  H   UNL A   1      40.830  31.168  33.512  1.00  0.00     0.167 HD
ATOM     37  C   UNL A   1      42.377  28.911  32.778  1.00  0.00     0.074 A 
ATOM     38  C   UNL A   1      42.873  27.776  32.024  1.00  0.00     0.031 C 
ATOM     39  C   UNL A   1      42.879  29.313  33.971  1.00  0.00     0.031 A 
BRANCH  26  40
ATOM     40  C   UNL A   1      40.094  34.308  36.317  1.00  0.00    -0.014 A 
ATOM     41  C   UNL A   1      40.822  35.506  36.231  1.00  0.00     0.009 A 
ATOM     42  C   UNL A   1      39.274  34.098  37.438  1.00  0.00     0.009 A 
ATOM     43  C   UNL A   1      40.762  36.449  37.260  1.00  0.00     0.001 A 
ATOM     44  C   UNL A   1      39.189  35.056  38.450  1.00  0.00     0.001 A 
ATOM     45  C   UNL A   1      39.941  36.226  38.366  1.00  0.00     0.000 A 
ENDBRANCH  26  40
BRANCH  27  46
ATOM     46  C   UNL A   1      40.285  27.848  28.706  1.00  0.00    -0.014 A 
ATOM     47  C   UNL A   1      41.004  28.136  27.536  1.00  0.00     0.009 A 
ATOM     48  C   UNL A   1      39.591  26.631  28.793  1.00  0.00     0.009 A 
ATOM     49  C   UNL A   1      41.000  27.239  26.465  1.00  0.00     0.001 A 
ATOM     50  C   UNL A   1      39.619  25.720  27.735  1.00  0.00     0.001 A 
ATOM     51  C   UNL A   1      40.312  26.031  26.567  1.00  0.00     0.000 A 
ENDBRANCH  27  46
BRANCH  39  52
ATOM     52  C   UNL A   1      43.986  28.484  34.561  1.00  0.00    -0.014 A 
ATOM     53  C   UNL A   1      45.338  28.780  34.324  1.00  0.00     0.009 A 
ATOM     54  C   UNL A   1      43.666  27.391  35.382  1.00  0.00     0.009 A 
ATOM     55  C   UNL A   1      46.343  27.970  34.858  1.00  0.00     0.001 A 
ATOM     56  C   UNL A   1      44.671  26.605  35.944  1.00  0.00     0.001 A 
ATOM     57  C   UNL A   1      46.009  26.886  35.671  1.00  0.00     0.000 A 
ENDBRANCH  39  52
ENDBRANCH  13  14
ENDBRANCH   6   8
ENDBRANCH   3   4
ENDBRANCH   2   3
ENDBRANCH   1   2
BRANCH   1  58
ATOM     58  C   UNL A   1      32.454  29.862  27.276  1.00  0.00     0.002 C 
BRANCH  58  59
ATOM     59  C   UNL A   1      33.900  29.494  26.917  1.00  0.00     0.021 C 
BRANCH  59  60
ATOM     60  C   UNL A   1      34.038  28.254  26.039  1.00  0.00     0.116 C 
BRANCH  60  61
ATOM     61  N   UNL A   1      34.056  28.598  24.628  1.00  0.00    -0.356 N 
ATOM     62  C   UNL A   1      33.056  28.547  23.707  1.00  0.00     0.224 C 
ATOM     63  H   UNL A   1      34.923  28.915  24.287  1.00  0.00     0.163 HD
ATOM     64  O   UNL A   1      33.287  28.938  22.565  1.00  0.00    -0.275 OA
BRANCH  62  65
ATOM     65  C   UNL A   1      31.709  27.998  24.130  1.00  0.00     0.097 C 
ATOM     66  C   UNL A   1      30.584  28.175  23.065  1.00  0.00     0.020 C 
ATOM     67  C   UNL A   1      31.752  26.462  24.301  1.00  0.00     0.119 C 
ATOM     68  C   UNL A   1      30.840  26.977  22.147  1.00  0.00     0.014 C 
ATOM     69  C   UNL A   1      29.268  27.796  23.801  1.00  0.00     0.097 C 
ATOM     70  C   UNL A   1      30.749  25.961  23.262  1.00  0.00     0.047 C 
ATOM     71  C   UNL A   1      31.077  26.059  25.578  1.00  0.00     0.310 C 
ATOM     72  C   UNL A   1      29.440  26.266  23.992  1.00  0.00     0.194 C 
ATOM     73  O   UNL A   1      29.729  25.942  25.361  1.00  0.00    -0.461 OA
ATOM     74  O   UNL A   1      31.621  25.929  26.659  1.00  0.00    -0.252 OA
BRANCH  69  75
ATOM     75  S   UNL A   1      27.679  28.383  23.088  1.00  0.00    -0.119 SA
BRANCH  75  76
ATOM     76  C   UNL A   1      27.983  30.070  22.627  1.00  0.00     0.008 A 
ATOM     77  C   UNL A   1      28.070  30.409  21.272  1.00  0.00     0.015 A 
ATOM     78  C   UNL A   1      28.207  31.058  23.590  1.00  0.00     0.015 A 
ATOM     79  C   UNL A   1      28.322  31.728  20.889  1.00  0.00     0.001 A 
ATOM     80  C   UNL A   1      28.432  32.381  23.208  1.00  0.00     0.001 A 
ATOM     81  C   UNL A   1      28.487  32.717  21.857  1.00  0.00     0.000 A 
ENDBRANCH  75  76
ENDBRANCH  69  75
ENDBRANCH  62  65
ENDBRANCH  60  61
ENDBRANCH  59  60
ENDBRANCH  58  59
ENDBRANCH   1  58
TORSDOF 15
ENDMDL
MODEL 2
REMARK VINA RESULT:     -12.0      0.393      5.864
REMARK SMILES O=C(NCCCCCCNC(=O)[C@H]1[C@H]2C[C@@H]3[C@@H](OC(=O)[C@@H]31)[C@@H]2Sc1ccccc1)c1ccc(-c2c3nc(c(-c4ccccc4)c4ccc([nH]4)c(-c4ccccc4)c4nc(c(-c5ccccc5)c5ccc2[nH]5)C=C4)C=C3)cc1
REMARK SMILES IDX 6 1 5 2 4 3 3 4 1 5 2 6 30 8 31 9 77 10 32 11 76 12 33 13
REMARK SMILES IDX 34 14 35 15 70 16 36 17 75 18 69 19 71 20 37 21 74 22 68 23
REMARK SMILES IDX 67 24 38 26 60 27 45 28 59 29 46 30 49 31 58 32 72 33 47 34
REMARK SMILES IDX 48 35 57 37 73 38 50 39 39 40 40 41 44 42 41 43 43 44 42 45
REMARK SMILES IDX 61 46 62 47 66 48 63 49 65 50 64 51 51 52 52 53 56 54 53 55
REMARK SMILES IDX 55 56 54 57 7 58 8 59 9 60 10 61 11 62 12 64 13 65 14 66
REMARK SMILES IDX 21 67 15 68 22 69 16 70 19 71 17 72 18 73 20 74 23 75 24 76
REMARK SMILES IDX 25 77 29 78 26 79 28 80 27 81
REMARK H PARENT 3 7 71 25 49 36 10 63
REMARK Flexibility Score: inf
ROOT
ATOM      1  C   UNL A   1      31.639  30.825  26.206  1.00  0.00     0.002 C 
ENDROOT
BRANCH   1   2
ATOM      2  C   UNL A   1      31.384  32.267  26.637  1.00  0.00     0.021 C 
BRANCH   2   3
ATOM      3  C   UNL A   1      32.556  32.931  27.344  1.00  0.00     0.116 C 
BRANCH   3   4
ATOM      4  N   UNL A   1      32.317  34.337  27.632  1.00  0.00    -0.352 N 
ATOM      5  O   UNL A   1      32.488  36.277  28.781  1.00  0.00    -0.269 OA
ATOM      6  C   UNL A   1      32.919  35.150  28.565  1.00  0.00     0.251 C 
ATOM      7  H   UNL A   1      31.625  34.769  27.080  1.00  0.00     0.163 HD
BRANCH   6   8
ATOM      8  C   UNL A   1      34.072  34.635  29.335  1.00  0.00     0.039 A 
ATOM      9  C   UNL A   1      35.348  34.625  28.771  1.00  0.00     0.014 A 
ATOM     10  C   UNL A   1      33.864  34.119  30.616  1.00  0.00     0.014 A 
ATOM     11  C   UNL A   1      36.369  33.928  29.400  1.00  0.00     0.010 A 
ATOM     12  C   UNL A   1      34.925  33.517  31.298  1.00  0.00     0.010 A 
ATOM     13  C   UNL A   1      36.175  33.369  30.675  1.00  0.00    -0.014 A 
BRANCH  13  14
ATOM     14  C   UNL A   1      37.304  32.664  31.335  1.00  0.00     0.031 A 
ATOM     15  C   UNL A   1      38.000  31.506  30.670  1.00  0.00     0.074 A 
ATOM     16  C   UNL A   1      37.736  33.111  32.532  1.00  0.00     0.049 A 
ATOM     17  N   UNL A   1      39.036  30.820  31.087  1.00  0.00    -0.248 NA
ATOM     18  C   UNL A   1      37.464  31.050  29.378  1.00  0.00     0.031 C 
ATOM     19  C   UNL A   1      37.147  34.226  33.279  1.00  0.00     0.029 A 
ATOM     20  N   UNL A   1      38.785  32.706  33.316  1.00  0.00    -0.354 N 
ATOM     21  C   UNL A   1      39.258  29.840  30.126  1.00  0.00     0.074 A 
ATOM     22  C   UNL A   1      38.232  30.001  29.119  1.00  0.00     0.031 C 
ATOM     23  C   UNL A   1      37.881  34.457  34.375  1.00  0.00     0.029 A 
ATOM     24  C   UNL A   1      38.943  33.463  34.450  1.00  0.00     0.049 A 
ATOM     25  H   UNL A   1      39.368  31.945  33.087  1.00  0.00     0.167 HD
ATOM     26  C   UNL A   1      40.230  28.896  30.084  1.00  0.00     0.031 A 
ATOM     27  C   UNL A   1      39.837  33.364  35.451  1.00  0.00     0.031 A 
ATOM     28  C   UNL A   1      41.251  28.737  31.089  1.00  0.00     0.049 A 
ATOM     29  C   UNL A   1      40.876  32.283  35.396  1.00  0.00     0.074 A 
ATOM     30  C   UNL A   1      42.300  27.834  31.116  1.00  0.00     0.029 A 
ATOM     31  N   UNL A   1      41.346  29.493  32.247  1.00  0.00    -0.354 N 
ATOM     32  N   UNL A   1      41.096  31.394  34.459  1.00  0.00    -0.248 NA
ATOM     33  C   UNL A   1      41.797  32.201  36.536  1.00  0.00     0.031 C 
ATOM     34  C   UNL A   1      42.989  27.999  32.322  1.00  0.00     0.029 A 
ATOM     35  C   UNL A   1      42.418  29.057  33.010  1.00  0.00     0.049 A 
ATOM     36  H   UNL A   1      40.742  30.231  32.492  1.00  0.00     0.167 HD
ATOM     37  C   UNL A   1      42.201  30.667  34.881  1.00  0.00     0.074 A 
ATOM     38  C   UNL A   1      42.616  31.234  36.148  1.00  0.00     0.031 C 
ATOM     39  C   UNL A   1      42.821  29.627  34.270  1.00  0.00     0.031 A 
BRANCH  26  40
ATOM     40  C   UNL A   1      40.214  27.929  28.930  1.00  0.00    -0.014 A 
ATOM     41  C   UNL A   1      40.871  28.210  27.721  1.00  0.00     0.009 A 
ATOM     42  C   UNL A   1      39.563  26.691  29.070  1.00  0.00     0.009 A 
ATOM     43  C   UNL A   1      40.843  27.292  26.667  1.00  0.00     0.001 A 
ATOM     44  C   UNL A   1      39.564  25.762  28.029  1.00  0.00     0.001 A 
ATOM     45  C   UNL A   1      40.194  26.067  26.824  1.00  0.00     0.000 A 
ENDBRANCH  26  40
BRANCH  27  46
ATOM     46  C   UNL A   1      39.782  34.314  36.593  1.00  0.00    -0.014 A 
ATOM     47  C   UNL A   1      39.087  33.982  37.766  1.00  0.00     0.009 A 
ATOM     48  C   UNL A   1      40.421  35.562  36.513  1.00  0.00     0.009 A 
ATOM     49  C   UNL A   1      39.008  34.893  38.822  1.00  0.00     0.001 A 
ATOM     50  C   UNL A   1      40.370  36.456  37.584  1.00  0.00     0.001 A 
ATOM     51  C   UNL A   1      39.653  36.126  38.732  1.00  0.00     0.000 A 
ENDBRANCH  27  46
BRANCH  39  52
ATOM     52  C   UNL A   1      44.048  29.074  34.941  1.00  0.00    -0.014 A 
ATOM     53  C   UNL A   1      43.973  28.036  35.882  1.00  0.00     0.009 A 
ATOM     54  C   UNL A   1      45.308  29.599  34.610  1.00  0.00     0.009 A 
ATOM     55  C   UNL A   1      45.128  27.569  36.513  1.00  0.00     0.001 A 
ATOM     56  C   UNL A   1      46.465  29.106  35.214  1.00  0.00     0.001 A 
ATOM     57  C   UNL A   1      46.373  28.101  36.176  1.00  0.00     0.000 A 
ENDBRANCH  39  52
ENDBRANCH  13  14
ENDBRANCH   6   8
ENDBRANCH   3   4
ENDBRANCH   2   3
ENDBRANCH   1   2
BRANCH   1  58
ATOM     58  C   UNL A   1      32.365  29.959  27.240  1.00  0.00     0.002 C 
BRANCH  58  59
ATOM     59  C   UNL A   1      33.831  29.639  26.917  1.00  0.00     0.021 C 
BRANCH  59  60
ATOM     60  C   UNL A   1      34.034  28.377  26.083  1.00  0.00     0.116 C 
BRANCH  60  61
ATOM     61  N   UNL A   1      34.073  28.676  24.662  1.00  0.00    -0.356 N 
ATOM     62  C   UNL A   1      33.091  28.583  23.726  1.00  0.00     0.224 C 
ATOM     63  H   UNL A   1      34.942  28.994  24.327  1.00  0.00     0.163 HD
ATOM     64  O   UNL A   1      33.337  28.940  22.576  1.00  0.00    -0.275 OA
BRANCH  62  65
ATOM     65  C   UNL A   1      31.744  28.028  24.142  1.00  0.00     0.097 C 
ATOM     66  C   UNL A   1      30.624  28.199  23.071  1.00  0.00     0.020 C 
ATOM     67  C   UNL A   1      31.792  26.493  24.316  1.00  0.00     0.119 C 
ATOM     68  C   UNL A   1      30.890  27.001  22.156  1.00  0.00     0.014 C 
ATOM     69  C   UNL A   1      29.306  27.816  23.800  1.00  0.00     0.097 C 
ATOM     70  C   UNL A   1      30.797  25.986  23.272  1.00  0.00     0.047 C 
ATOM     71  C   UNL A   1      31.111  26.088  25.590  1.00  0.00     0.310 C 
ATOM     72  C   UNL A   1      29.482  26.287  23.995  1.00  0.00     0.194 C 
ATOM     73  O   UNL A   1      29.766  25.966  25.365  1.00  0.00    -0.461 OA
ATOM     74  O   UNL A   1      31.650  25.963  26.674  1.00  0.00    -0.252 OA
BRANCH  69  75
ATOM     75  S   UNL A   1      27.718  28.395  23.078  1.00  0.00    -0.119 SA
BRANCH  75  76
ATOM     76  C   UNL A   1      28.014  30.087  22.627  1.00  0.00     0.008 A 
ATOM     77  C   UNL A   1      28.092  30.435  21.274  1.00  0.00     0.015 A 
ATOM     78  C   UNL A   1      28.240  31.068  23.596  1.00  0.00     0.015 A 
ATOM     79  C   UNL A   1      28.336  31.758  20.900  1.00  0.00     0.001 A 
ATOM     80  C   UNL A   1      28.458  32.395  23.223  1.00  0.00     0.001 A 
ATOM     81  C   UNL A   1      28.504  32.740  21.875  1.00  0.00     0.000 A 
ENDBRANCH  75  76
ENDBRANCH  69  75
ENDBRANCH  62  65
ENDBRANCH  60  61
ENDBRANCH  59  60
ENDBRANCH  58  59
ENDBRANCH   1  58
TORSDOF 15
ENDMDL
MODEL 3
REMARK VINA RESULT:     -11.5      5.297     10.050
REMARK SMILES O=C(NCCCCCCNC(=O)[C@H]1[C@H]2C[C@@H]3[C@@H](OC(=O)[C@@H]31)[C@@H]2Sc1ccccc1)c1ccc(-c2c3nc(c(-c4ccccc4)c4ccc([nH]4)c(-c4ccccc4)c4nc(c(-c5ccccc5)c5ccc2[nH]5)C=C4)C=C3)cc1
REMARK SMILES IDX 6 1 5 2 4 3 3 4 1 5 2 6 30 8 31 9 77 10 32 11 76 12 33 13
REMARK SMILES IDX 34 14 35 15 70 16 36 17 75 18 69 19 71 20 37 21 74 22 68 23
REMARK SMILES IDX 67 24 38 26 60 27 45 28 59 29 46 30 49 31 58 32 72 33 47 34
REMARK SMILES IDX 48 35 57 37 73 38 50 39 39 40 40 41 44 42 41 43 43 44 42 45
REMARK SMILES IDX 61 46 62 47 66 48 63 49 65 50 64 51 51 52 52 53 56 54 53 55
REMARK SMILES IDX 55 56 54 57 7 58 8 59 9 60 10 61 11 62 12 64 13 65 14 66
REMARK SMILES IDX 21 67 15 68 22 69 16 70 19 71 17 72 18 73 20 74 23 75 24 76
REMARK SMILES IDX 25 77 29 78 26 79 28 80 27 81
REMARK H PARENT 3 7 71 25 49 36 10 63
REMARK Flexibility Score: inf
ROOT
ATOM      1  C   UNL A   1      37.183  21.341  24.311  1.00  0.00     0.002 C 
ENDROOT
BRANCH   1   2
ATOM      2  C   UNL A   1      37.855  20.041  24.743  1.00  0.00     0.021 C 
BRANCH   2   3
ATOM      3  C   UNL A   1      38.923  20.206  25.813  1.00  0.00     0.116 C 
BRANCH   3   4
ATOM      4  N   UNL A   1      39.912  19.139  25.793  1.00  0.00    -0.352 N 
ATOM      5  O   UNL A   1      41.981  18.230  25.760  1.00  0.00    -0.269 OA
ATOM      6  C   UNL A   1      41.275  19.211  25.961  1.00  0.00     0.251 C 
ATOM      7  H   UNL A   1      39.553  18.235  25.636  1.00  0.00     0.163 HD
BRANCH   6   8
ATOM      8  C   UNL A   1      41.887  20.499  26.352  1.00  0.00     0.039 A 
ATOM      9  C   UNL A   1      41.978  20.857  27.698  1.00  0.00     0.014 A 
ATOM     10  C   UNL A   1      42.336  21.374  25.360  1.00  0.00     0.014 A 
ATOM     11  C   UNL A   1      42.330  22.156  28.039  1.00  0.00     0.010 A 
ATOM     12  C   UNL A   1      42.799  22.643  25.716  1.00  0.00     0.010 A 
ATOM     13  C   UNL A   1      42.751  23.065  27.054  1.00  0.00    -0.014 A 
BRANCH  13  14
ATOM     14  C   UNL A   1      43.158  24.435  27.462  1.00  0.00     0.031 A 
ATOM     15  C   UNL A   1      44.596  24.876  27.396  1.00  0.00     0.074 A 
ATOM     16  C   UNL A   1      42.204  25.304  27.852  1.00  0.00     0.049 A 
ATOM     17  N   UNL A   1      45.108  26.053  27.663  1.00  0.00    -0.248 NA
ATOM     18  C   UNL A   1      45.591  23.872  26.988  1.00  0.00     0.031 C 
ATOM     19  C   UNL A   1      40.775  24.999  27.956  1.00  0.00     0.029 A 
ATOM     20  N   UNL A   1      42.286  26.627  28.203  1.00  0.00    -0.354 N 
ATOM     21  C   UNL A   1      46.480  25.923  27.481  1.00  0.00     0.074 A 
ATOM     22  C   UNL A   1      46.725  24.546  27.110  1.00  0.00     0.031 C 
ATOM     23  C   UNL A   1      40.109  26.116  28.280  1.00  0.00     0.029 A 
ATOM     24  C   UNL A   1      41.067  27.195  28.479  1.00  0.00     0.049 A 
ATOM     25  H   UNL A   1      43.137  27.122  28.252  1.00  0.00     0.167 HD
ATOM     26  C   UNL A   1      47.447  26.865  27.608  1.00  0.00     0.031 A 
ATOM     27  C   UNL A   1      40.750  28.445  28.864  1.00  0.00     0.031 A 
ATOM     28  C   UNL A   1      47.200  28.236  27.978  1.00  0.00     0.049 A 
ATOM     29  C   UNL A   1      41.846  29.455  29.034  1.00  0.00     0.074 A 
ATOM     30  C   UNL A   1      48.109  29.273  28.097  1.00  0.00     0.029 A 
ATOM     31  N   UNL A   1      45.957  28.758  28.297  1.00  0.00    -0.354 N 
ATOM     32  N   UNL A   1      43.132  29.325  28.817  1.00  0.00    -0.248 NA
ATOM     33  C   UNL A   1      41.442  30.789  29.495  1.00  0.00     0.031 C 
ATOM     34  C   UNL A   1      47.426  30.405  28.553  1.00  0.00     0.029 A 
ATOM     35  C   UNL A   1      46.079  30.095  28.643  1.00  0.00     0.049 A 
ATOM     36  H   UNL A   1      45.111  28.254  28.282  1.00  0.00     0.167 HD
ATOM     37  C   UNL A   1      43.687  30.570  29.083  1.00  0.00     0.074 A 
ATOM     38  C   UNL A   1      42.593  31.443  29.458  1.00  0.00     0.031 C 
ATOM     39  C   UNL A   1      44.985  30.955  29.016  1.00  0.00     0.031 A 
BRANCH  26  40
ATOM     40  C   UNL A   1      48.873  26.437  27.383  1.00  0.00    -0.014 A 
ATOM     41  C   UNL A   1      49.706  26.051  28.446  1.00  0.00     0.009 A 
ATOM     42  C   UNL A   1      49.381  26.377  26.074  1.00  0.00     0.009 A 
ATOM     43  C   UNL A   1      51.024  25.655  28.208  1.00  0.00     0.001 A 
ATOM     44  C   UNL A   1      50.688  25.949  25.835  1.00  0.00     0.001 A 
ATOM     45  C   UNL A   1      51.513  25.599  26.902  1.00  0.00     0.000 A 
ENDBRANCH  26  40
BRANCH  27  46
ATOM     46  C   UNL A   1      39.331  28.807  29.119  1.00  0.00    -0.014 A 
ATOM     47  C   UNL A   1      38.767  28.633  30.393  1.00  0.00     0.009 A 
ATOM     48  C   UNL A   1      38.530  29.323  28.088  1.00  0.00     0.009 A 
ATOM     49  C   UNL A   1      37.424  28.940  30.619  1.00  0.00     0.001 A 
ATOM     50  C   UNL A   1      37.198  29.662  28.326  1.00  0.00     0.001 A 
ATOM     51  C   UNL A   1      36.642  29.458  29.588  1.00  0.00     0.000 A 
ENDBRANCH  27  46
BRANCH  39  52
ATOM     52  C   UNL A   1      45.283  32.402  29.301  1.00  0.00    -0.014 A 
ATOM     53  C   UNL A   1      45.254  33.376  28.292  1.00  0.00     0.009 A 
ATOM     54  C   UNL A   1      45.586  32.795  30.614  1.00  0.00     0.009 A 
ATOM     55  C   UNL A   1      45.569  34.705  28.583  1.00  0.00     0.001 A 
ATOM     56  C   UNL A   1      45.865  34.130  30.911  1.00  0.00     0.001 A 
ATOM     57  C   UNL A   1      45.870  35.082  29.893  1.00  0.00     0.000 A 
ENDBRANCH  39  52
ENDBRANCH  13  14
ENDBRANCH   6   8
ENDBRANCH   3   4
ENDBRANCH   2   3
ENDBRANCH   1   2
BRANCH   1  58
ATOM     58  C   UNL A   1      35.764  21.547  24.851  1.00  0.00     0.002 C 
BRANCH  58  59
ATOM     59  C   UNL A   1      34.998  20.262  25.192  1.00  0.00     0.021 C 
BRANCH  59  60
ATOM     60  C   UNL A   1      33.502  20.459  25.419  1.00  0.00     0.116 C 
BRANCH  60  61
ATOM     61  N   UNL A   1      32.793  20.660  24.168  1.00  0.00    -0.356 N 
ATOM     62  C   UNL A   1      32.285  21.801  23.629  1.00  0.00     0.224 C 
ATOM     63  H   UNL A   1      32.660  19.848  23.629  1.00  0.00     0.163 HD
ATOM     64  O   UNL A   1      31.760  21.746  22.519  1.00  0.00    -0.275 OA
BRANCH  62  65
ATOM     65  C   UNL A   1      32.378  23.084  24.430  1.00  0.00     0.097 C 
ATOM     66  C   UNL A   1      32.392  24.379  23.562  1.00  0.00     0.020 C 
ATOM     67  C   UNL A   1      31.123  23.297  25.306  1.00  0.00     0.119 C 
ATOM     68  C   UNL A   1      30.898  24.590  23.303  1.00  0.00     0.014 C 
ATOM     69  C   UNL A   1      32.757  25.523  24.549  1.00  0.00     0.097 C 
ATOM     70  C   UNL A   1      30.532  24.600  24.769  1.00  0.00     0.047 C 
ATOM     71  C   UNL A   1      31.517  23.705  26.695  1.00  0.00     0.310 C 
ATOM     72  C   UNL A   1      31.479  25.608  25.424  1.00  0.00     0.194 C 
ATOM     73  O   UNL A   1      31.706  25.061  26.732  1.00  0.00    -0.461 OA
ATOM     74  O   UNL A   1      31.716  22.949  27.627  1.00  0.00    -0.252 OA
BRANCH  69  75
ATOM     75  S   UNL A   1      33.405  27.094  23.850  1.00  0.00    -0.119 SA
BRANCH  75  76
ATOM     76  C   UNL A   1      33.095  28.312  25.104  1.00  0.00     0.008 A 
ATOM     77  C   UNL A   1      33.924  28.368  26.230  1.00  0.00     0.015 A 
ATOM     78  C   UNL A   1      31.998  29.174  25.024  1.00  0.00     0.015 A 
ATOM     79  C   UNL A   1      33.689  29.310  27.234  1.00  0.00     0.001 A 
ATOM     80  C   UNL A   1      31.778  30.133  26.014  1.00  0.00     0.001 A 
ATOM     81  C   UNL A   1      32.625  30.203  27.117  1.00  0.00     0.000 A 
ENDBRANCH  75  76
ENDBRANCH  69  75
ENDBRANCH  62  65
ENDBRANCH  60  61
ENDBRANCH  59  60
ENDBRANCH  58  59
ENDBRANCH   1  58
TORSDOF 15
ENDMDL
