MODEL 1
REMARK VINA RESULT:     -11.5      0.000      0.000
REMARK SMILES CN1C=C/C(=C\C=C/C=N\c2ccc(C(=O)NCCCCCCNC(=O)c3ccc(-c4c5nc(c(-c6ccccc6)c6ccc([nH]6)c(-c6ccccc6)c6nc(c(-c7ccccc7)c7ccc4[nH]7)C=C6)C=C5)cc3)cc2)c2ccccc21
REMARK SMILES IDX 20 1 19 2 18 3 17 4 15 5 16 6 14 8 11 9 12 10 76 11 13 12
REMARK SMILES IDX 75 13 10 14 9 15 8 16 7 17 6 18 1 19 2 20 3 21 82 22 4 23
REMARK SMILES IDX 77 24 81 25 5 26 78 27 80 28 79 29 21 30 22 31 23 32 24 33
REMARK SMILES IDX 25 34 26 36 27 37 28 38 74 39 29 40 73 41 30 42 31 43 32 44
REMARK SMILES IDX 67 45 33 46 72 47 66 48 68 49 34 50 71 51 65 52 64 53 35 55
REMARK SMILES IDX 57 56 42 57 56 58 43 59 46 60 55 61 69 62 44 63 45 64 54 66
REMARK SMILES IDX 70 67 47 68 36 69 37 70 41 71 38 72 40 73 39 74 58 75 59 76
REMARK SMILES IDX 63 77 60 78 62 79 61 80 48 81 49 82 53 83 50 84 52 85 51 86
REMARK H PARENT 17 7 24 35 68 54 46 65
REMARK Flexibility Score: inf
ROOT
ATOM      1  C   UNL A   1      40.461  22.264  26.967  1.00  0.00     0.002 C 
ENDROOT
BRANCH   1   2
ATOM      2  C   UNL A   1      39.271  21.660  26.220  1.00  0.00     0.021 C 
BRANCH   2   3
ATOM      3  C   UNL A   1      38.097  22.582  25.909  1.00  0.00     0.116 C 
BRANCH   3   4
ATOM      4  N   UNL A   1      37.813  22.735  24.497  1.00  0.00    -0.352 N 
ATOM      5  C   UNL A   1      36.627  22.927  23.828  1.00  0.00     0.251 C 
ATOM      6  O   UNL A   1      36.665  23.040  22.604  1.00  0.00    -0.269 OA
ATOM      7  H   UNL A   1      38.606  22.695  23.916  1.00  0.00     0.163 HD
BRANCH   5   8
ATOM      8  C   UNL A   1      35.305  22.920  24.515  1.00  0.00     0.039 A 
ATOM      9  C   UNL A   1      32.717  23.192  25.587  1.00  0.00     0.063 A 
ATOM     10  C   UNL A   1      33.662  24.207  25.758  1.00  0.00     0.029 A 
ATOM     11  C   UNL A   1      33.130  21.982  25.027  1.00  0.00     0.029 A 
ATOM     12  C   UNL A   1      34.935  24.088  25.195  1.00  0.00     0.016 A 
ATOM     13  C   UNL A   1      34.428  21.833  24.525  1.00  0.00     0.016 A 
BRANCH   9  14
ATOM     14  N   UNL A   1      31.380  23.342  25.976  1.00  0.00    -0.257 NA
ATOM     15  C   UNL A   1      30.481  23.732  25.124  1.00  0.00     0.111 C 
BRANCH  15  16
ATOM     16  C   UNL A   1      30.636  24.075  23.682  1.00  0.00     0.020 C 
ATOM     17  C   UNL A   1      31.121  25.225  23.189  1.00  0.00     0.002 C 
BRANCH  17  18
ATOM     18  C   UNL A   1      31.483  26.420  23.928  1.00  0.00     0.009 C 
ATOM     19  C   UNL A   1      28.992  31.502  23.557  1.00  0.00     0.149 C 
ATOM     20  N   UNL A   1      29.668  30.209  23.650  1.00  0.00    -0.351 N 
ATOM     21  C   UNL A   1      29.396  29.187  22.761  1.00  0.00     0.086 C 
ATOM     22  C   UNL A   1      30.654  30.022  24.661  1.00  0.00     0.048 A 
ATOM     23  C   UNL A   1      29.956  27.972  22.788  1.00  0.00     0.026 C 
ATOM     24  C   UNL A   1      31.332  28.766  24.774  1.00  0.00     0.005 A 
ATOM     25  C   UNL A   1      30.993  31.046  25.570  1.00  0.00     0.027 A 
ATOM     26  C   UNL A   1      30.941  27.655  23.822  1.00  0.00    -0.015 C 
ATOM     27  C   UNL A   1      32.309  28.611  25.779  1.00  0.00     0.011 A 
ATOM     28  C   UNL A   1      31.956  30.858  26.562  1.00  0.00     0.002 A 
ATOM     29  C   UNL A   1      32.615  29.644  26.665  1.00  0.00     0.001 A 
ENDBRANCH  17  18
ENDBRANCH  15  16
ENDBRANCH   9  14
ENDBRANCH   5   8
ENDBRANCH   3   4
ENDBRANCH   2   3
ENDBRANCH   1   2
BRANCH   1  30
ATOM     30  C   UNL A   1      41.720  21.402  27.094  1.00  0.00     0.002 C 
BRANCH  30  31
ATOM     31  C   UNL A   1      41.811  20.180  26.181  1.00  0.00     0.021 C 
BRANCH  31  32
ATOM     32  C   UNL A   1      43.081  19.348  26.295  1.00  0.00     0.116 C 
BRANCH  32  33
ATOM     33  N   UNL A   1      43.629  18.930  25.016  1.00  0.00    -0.352 N 
ATOM     34  C   UNL A   1      44.454  19.620  24.152  1.00  0.00     0.251 C 
ATOM     35  H   UNL A   1      43.375  18.024  24.724  1.00  0.00     0.163 HD
ATOM     36  O   UNL A   1      44.763  19.141  23.073  1.00  0.00    -0.269 OA
BRANCH  34  37
ATOM     37  C   UNL A   1      44.921  20.978  24.519  1.00  0.00     0.039 A 
ATOM     38  C   UNL A   1      45.654  21.199  25.687  1.00  0.00     0.014 A 
ATOM     39  C   UNL A   1      44.567  22.053  23.699  1.00  0.00     0.014 A 
ATOM     40  C   UNL A   1      45.869  22.501  26.129  1.00  0.00     0.010 A 
ATOM     41  C   UNL A   1      44.856  23.359  24.106  1.00  0.00     0.010 A 
ATOM     42  C   UNL A   1      45.454  23.596  25.354  1.00  0.00    -0.014 A 
BRANCH  42  43
ATOM     43  C   UNL A   1      45.610  24.979  25.874  1.00  0.00     0.031 A 
ATOM     44  C   UNL A   1      44.438  25.699  26.489  1.00  0.00     0.074 A 
ATOM     45  C   UNL A   1      46.818  25.576  25.839  1.00  0.00     0.049 A 
ATOM     46  N   UNL A   1      44.380  26.913  26.978  1.00  0.00    -0.248 NA
ATOM     47  C   UNL A   1      43.165  24.963  26.570  1.00  0.00     0.031 C 
ATOM     48  C   UNL A   1      48.039  24.971  25.306  1.00  0.00     0.029 A 
ATOM     49  N   UNL A   1      47.220  26.813  26.276  1.00  0.00    -0.354 N 
ATOM     50  C   UNL A   1      43.069  27.092  27.400  1.00  0.00     0.074 A 
ATOM     51  C   UNL A   1      42.354  25.873  27.092  1.00  0.00     0.031 C 
ATOM     52  C   UNL A   1      49.062  25.820  25.489  1.00  0.00     0.029 A 
ATOM     53  C   UNL A   1      48.559  27.053  26.086  1.00  0.00     0.049 A 
ATOM     54  H   UNL A   1      46.607  27.465  26.686  1.00  0.00     0.167 HD
ATOM     55  C   UNL A   1      42.514  28.170  28.001  1.00  0.00     0.031 A 
ATOM     56  C   UNL A   1      49.300  28.148  26.344  1.00  0.00     0.031 A 
ATOM     57  C   UNL A   1      43.229  29.376  28.325  1.00  0.00     0.049 A 
ATOM     58  C   UNL A   1      48.645  29.358  26.947  1.00  0.00     0.074 A 
ATOM     59  C   UNL A   1      42.750  30.512  28.954  1.00  0.00     0.029 A 
ATOM     60  N   UNL A   1      44.567  29.601  28.051  1.00  0.00    -0.354 N 
ATOM     61  N   UNL A   1      47.403  29.510  27.339  1.00  0.00    -0.248 NA
ATOM     62  C   UNL A   1      49.486  30.547  27.138  1.00  0.00     0.031 C 
ATOM     63  C   UNL A   1      43.785  31.447  29.009  1.00  0.00     0.029 A 
ATOM     64  C   UNL A   1      44.924  30.870  28.472  1.00  0.00     0.049 A 
ATOM     65  H   UNL A   1      45.174  28.955  27.621  1.00  0.00     0.167 HD
ATOM     66  C   UNL A   1      47.317  30.804  27.833  1.00  0.00     0.074 A 
ATOM     67  C   UNL A   1      48.635  31.391  27.707  1.00  0.00     0.031 C 
ATOM     68  C   UNL A   1      46.239  31.444  28.344  1.00  0.00     0.031 A 
BRANCH  55  69
ATOM     69  C   UNL A   1      41.051  28.116  28.346  1.00  0.00    -0.014 A 
ATOM     70  C   UNL A   1      40.116  28.754  27.513  1.00  0.00     0.009 A 
ATOM     71  C   UNL A   1      40.606  27.529  29.540  1.00  0.00     0.009 A 
ATOM     72  C   UNL A   1      38.770  28.815  27.873  1.00  0.00     0.001 A 
ATOM     73  C   UNL A   1      39.253  27.568  29.885  1.00  0.00     0.001 A 
ATOM     74  C   UNL A   1      38.338  28.219  29.056  1.00  0.00     0.000 A 
ENDBRANCH  55  69
BRANCH  56  75
ATOM     75  C   UNL A   1      50.751  28.137  26.018  1.00  0.00    -0.014 A 
ATOM     76  C   UNL A   1      51.697  27.778  26.993  1.00  0.00     0.009 A 
ATOM     77  C   UNL A   1      51.200  28.539  24.753  1.00  0.00     0.009 A 
ATOM     78  C   UNL A   1      53.064  27.852  26.717  1.00  0.00     0.001 A 
ATOM     79  C   UNL A   1      52.568  28.583  24.470  1.00  0.00     0.001 A 
ATOM     80  C   UNL A   1      53.498  28.251  25.454  1.00  0.00     0.000 A 
ENDBRANCH  56  75
BRANCH  68  81
ATOM     81  C   UNL A   1      46.417  32.855  28.827  1.00  0.00    -0.014 A 
ATOM     82  C   UNL A   1      46.274  33.923  27.926  1.00  0.00     0.009 A 
ATOM     83  C   UNL A   1      46.852  33.119  30.134  1.00  0.00     0.009 A 
ATOM     84  C   UNL A   1      46.586  35.225  28.316  1.00  0.00     0.001 A 
ATOM     85  C   UNL A   1      47.140  34.427  30.529  1.00  0.00     0.001 A 
ATOM     86  C   UNL A   1      47.019  35.477  29.618  1.00  0.00     0.000 A 
ENDBRANCH  68  81
ENDBRANCH  42  43
ENDBRANCH  34  37
ENDBRANCH  32  33
ENDBRANCH  31  32
ENDBRANCH  30  31
ENDBRANCH   1  30
TORSDOF 16
ENDMDL
MODEL 2
REMARK VINA RESULT:     -11.0      5.494     11.210
REMARK SMILES CN1C=C/C(=C\C=C/C=N\c2ccc(C(=O)NCCCCCCNC(=O)c3ccc(-c4c5nc(c(-c6ccccc6)c6ccc([nH]6)c(-c6ccccc6)c6nc(c(-c7ccccc7)c7ccc4[nH]7)C=C6)C=C5)cc3)cc2)c2ccccc21
REMARK SMILES IDX 20 1 19 2 18 3 17 4 15 5 16 6 14 8 11 9 12 10 76 11 13 12
REMARK SMILES IDX 75 13 10 14 9 15 8 16 7 17 6 18 1 19 2 20 3 21 82 22 4 23
REMARK SMILES IDX 77 24 81 25 5 26 78 27 80 28 79 29 21 30 22 31 23 32 24 33
REMARK SMILES IDX 25 34 26 36 27 37 28 38 74 39 29 40 73 41 30 42 31 43 32 44
REMARK SMILES IDX 67 45 33 46 72 47 66 48 68 49 34 50 71 51 65 52 64 53 35 55
REMARK SMILES IDX 57 56 42 57 56 58 43 59 46 60 55 61 69 62 44 63 45 64 54 66
REMARK SMILES IDX 70 67 47 68 36 69 37 70 41 71 38 72 40 73 39 74 58 75 59 76
REMARK SMILES IDX 63 77 60 78 62 79 61 80 48 81 49 82 53 83 50 84 52 85 51 86
REMARK H PARENT 17 7 24 35 68 54 46 65
REMARK Flexibility Score: inf
ROOT
ATOM      1  C   UNL A   1      33.410  28.182  25.086  1.00  0.00     0.002 C 
ENDROOT
BRANCH   1   2
ATOM      2  C   UNL A   1      32.506  28.978  24.142  1.00  0.00     0.021 C 
BRANCH   2   3
ATOM      3  C   UNL A   1      31.869  28.224  22.979  1.00  0.00     0.116 C 
BRANCH   3   4
ATOM      4  N   UNL A   1      30.431  28.078  23.077  1.00  0.00    -0.352 N 
ATOM      5  C   UNL A   1      29.659  27.105  23.667  1.00  0.00     0.251 C 
ATOM      6  O   UNL A   1      28.436  27.229  23.617  1.00  0.00    -0.269 OA
ATOM      7  H   UNL A   1      29.918  28.800  22.647  1.00  0.00     0.163 HD
BRANCH   5   8
ATOM      8  C   UNL A   1      30.240  25.881  24.286  1.00  0.00     0.039 A 
ATOM      9  C   UNL A   1      31.605  23.593  25.192  1.00  0.00     0.063 A 
ATOM     10  C   UNL A   1      30.988  23.597  23.938  1.00  0.00     0.029 A 
ATOM     11  C   UNL A   1      31.388  24.675  26.046  1.00  0.00     0.029 A 
ATOM     12  C   UNL A   1      30.342  24.744  23.473  1.00  0.00     0.016 A 
ATOM     13  C   UNL A   1      30.680  25.800  25.609  1.00  0.00     0.016 A 
BRANCH   9  14
ATOM     14  N   UNL A   1      32.414  22.535  25.624  1.00  0.00    -0.257 NA
ATOM     15  C   UNL A   1      33.481  22.202  24.963  1.00  0.00     0.111 C 
BRANCH  15  16
ATOM     16  C   UNL A   1      34.045  22.803  23.721  1.00  0.00     0.020 C 
ATOM     17  C   UNL A   1      35.278  23.312  23.576  1.00  0.00     0.002 C 
BRANCH  17  18
ATOM     18  C   UNL A   1      36.281  23.501  24.606  1.00  0.00     0.009 C 
ATOM     19  C   UNL A   1      40.286  19.788  26.139  1.00  0.00     0.149 C 
ATOM     20  N   UNL A   1      39.246  20.751  25.780  1.00  0.00    -0.351 N 
ATOM     21  C   UNL A   1      38.204  20.409  24.939  1.00  0.00     0.086 C 
ATOM     22  C   UNL A   1      39.296  22.058  26.346  1.00  0.00     0.048 A 
ATOM     23  C   UNL A   1      37.225  21.233  24.549  1.00  0.00     0.026 C 
ATOM     24  C   UNL A   1      38.290  23.020  26.012  1.00  0.00     0.005 A 
ATOM     25  C   UNL A   1      40.318  22.445  27.237  1.00  0.00     0.027 A 
ATOM     26  C   UNL A   1      37.214  22.615  25.027  1.00  0.00    -0.015 C 
ATOM     27  C   UNL A   1      38.359  24.303  26.592  1.00  0.00     0.011 A 
ATOM     28  C   UNL A   1      40.368  23.727  27.786  1.00  0.00     0.002 A 
ATOM     29  C   UNL A   1      39.389  24.654  27.466  1.00  0.00     0.001 A 
ENDBRANCH  17  18
ENDBRANCH  15  16
ENDBRANCH   9  14
ENDBRANCH   5   8
ENDBRANCH   3   4
ENDBRANCH   2   3
ENDBRANCH   1   2
BRANCH   1  30
ATOM     30  C   UNL A   1      34.037  28.938  26.259  1.00  0.00     0.002 C 
BRANCH  30  31
ATOM     31  C   UNL A   1      33.260  30.138  26.798  1.00  0.00     0.021 C 
BRANCH  31  32
ATOM     32  C   UNL A   1      34.076  31.198  27.526  1.00  0.00     0.116 C 
BRANCH  32  33
ATOM     33  N   UNL A   1      33.384  32.464  27.693  1.00  0.00    -0.352 N 
ATOM     34  C   UNL A   1      33.646  33.493  28.573  1.00  0.00     0.251 C 
ATOM     35  H   UNL A   1      32.618  32.608  27.090  1.00  0.00     0.163 HD
ATOM     36  O   UNL A   1      32.910  34.465  28.629  1.00  0.00    -0.269 OA
BRANCH  34  37
ATOM     37  C   UNL A   1      34.800  33.386  29.497  1.00  0.00     0.039 A 
ATOM     38  C   UNL A   1      35.984  34.084  29.257  1.00  0.00     0.014 A 
ATOM     39  C   UNL A   1      34.702  32.526  30.594  1.00  0.00     0.014 A 
ATOM     40  C   UNL A   1      37.124  33.783  29.997  1.00  0.00     0.010 A 
ATOM     41  C   UNL A   1      35.828  32.284  31.387  1.00  0.00     0.010 A 
ATOM     42  C   UNL A   1      37.064  32.864  31.057  1.00  0.00    -0.014 A 
BRANCH  42  43
ATOM     43  C   UNL A   1      38.303  32.483  31.784  1.00  0.00     0.031 A 
ATOM     44  C   UNL A   1      39.299  31.544  31.154  1.00  0.00     0.074 A 
ATOM     45  C   UNL A   1      38.561  33.018  32.994  1.00  0.00     0.049 A 
ATOM     46  N   UNL A   1      40.423  31.085  31.644  1.00  0.00    -0.248 NA
ATOM     47  C   UNL A   1      38.997  31.057  29.798  1.00  0.00     0.031 C 
ATOM     48  C   UNL A   1      37.697  33.969  33.694  1.00  0.00     0.029 A 
ATOM     49  N   UNL A   1      39.630  32.853  33.838  1.00  0.00    -0.354 N 
ATOM     50  C   UNL A   1      40.948  30.243  30.672  1.00  0.00     0.074 A 
ATOM     51  C   UNL A   1      40.011  30.233  29.570  1.00  0.00     0.031 C 
ATOM     52  C   UNL A   1      38.292  34.338  34.839  1.00  0.00     0.029 A 
ATOM     53  C   UNL A   1      39.541  33.599  34.987  1.00  0.00     0.049 A 
ATOM     54  H   UNL A   1      40.387  32.256  33.638  1.00  0.00     0.167 HD
ATOM     55  C   UNL A   1      42.111  29.551  30.690  1.00  0.00     0.031 A 
ATOM     56  C   UNL A   1      40.361  33.671  36.054  1.00  0.00     0.031 A 
ATOM     57  C   UNL A   1      43.052  29.575  31.778  1.00  0.00     0.049 A 
ATOM     58  C   UNL A   1      41.611  32.838  36.081  1.00  0.00     0.074 A 
ATOM     59  C   UNL A   1      44.267  28.920  31.873  1.00  0.00     0.029 A 
ATOM     60  N   UNL A   1      42.887  30.291  32.952  1.00  0.00    -0.354 N 
ATOM     61  N   UNL A   1      42.091  32.046  35.152  1.00  0.00    -0.248 NA
ATOM     62  C   UNL A   1      42.429  32.900  37.300  1.00  0.00     0.031 C 
ATOM     63  C   UNL A   1      44.811  29.193  33.129  1.00  0.00     0.029 A 
ATOM     64  C   UNL A   1      43.966  30.069  33.790  1.00  0.00     0.049 A 
ATOM     65  H   UNL A   1      42.118  30.870  33.159  1.00  0.00     0.167 HD
ATOM     66  C   UNL A   1      43.271  31.528  35.669  1.00  0.00     0.074 A 
ATOM     67  C   UNL A   1      43.444  32.105  36.985  1.00  0.00     0.031 C 
ATOM     68  C   UNL A   1      44.129  30.650  35.098  1.00  0.00     0.031 A 
BRANCH  55  69
ATOM     69  C   UNL A   1      42.442  28.688  29.503  1.00  0.00    -0.014 A 
ATOM     70  C   UNL A   1      42.128  27.319  29.530  1.00  0.00     0.009 A 
ATOM     71  C   UNL A   1      43.154  29.200  28.408  1.00  0.00     0.009 A 
ATOM     72  C   UNL A   1      42.528  26.478  28.491  1.00  0.00     0.001 A 
ATOM     73  C   UNL A   1      43.530  28.361  27.357  1.00  0.00     0.001 A 
ATOM     74  C   UNL A   1      43.226  27.000  27.403  1.00  0.00     0.000 A 
ENDBRANCH  55  69
BRANCH  56  75
ATOM     75  C   UNL A   1      40.007  34.568  37.185  1.00  0.00    -0.014 A 
ATOM     76  C   UNL A   1      39.218  34.098  38.248  1.00  0.00     0.009 A 
ATOM     77  C   UNL A   1      40.405  35.912  37.180  1.00  0.00     0.009 A 
ATOM     78  C   UNL A   1      38.810  34.961  39.266  1.00  0.00     0.001 A 
ATOM     79  C   UNL A   1      40.020  36.767  38.216  1.00  0.00     0.001 A 
ATOM     80  C   UNL A   1      39.214  36.295  39.251  1.00  0.00     0.000 A 
ENDBRANCH  56  75
BRANCH  68  81
ATOM     81  C   UNL A   1      45.354  30.253  35.872  1.00  0.00    -0.014 A 
ATOM     82  C   UNL A   1      45.296  29.167  36.759  1.00  0.00     0.009 A 
ATOM     83  C   UNL A   1      46.521  31.031  35.822  1.00  0.00     0.009 A 
ATOM     84  C   UNL A   1      46.372  28.880  37.599  1.00  0.00     0.001 A 
ATOM     85  C   UNL A   1      47.605  30.726  36.646  1.00  0.00     0.001 A 
ATOM     86  C   UNL A   1      47.527  29.660  37.542  1.00  0.00     0.000 A 
ENDBRANCH  68  81
ENDBRANCH  42  43
ENDBRANCH  34  37
ENDBRANCH  32  33
ENDBRANCH  31  32
ENDBRANCH  30  31
ENDBRANCH   1  30
TORSDOF 16
ENDMDL
MODEL 3
REMARK VINA RESULT:     -10.9      5.133     11.476
REMARK SMILES CN1C=C/C(=C\C=C/C=N\c2ccc(C(=O)NCCCCCCNC(=O)c3ccc(-c4c5nc(c(-c6ccccc6)c6ccc([nH]6)c(-c6ccccc6)c6nc(c(-c7ccccc7)c7ccc4[nH]7)C=C6)C=C5)cc3)cc2)c2ccccc21
REMARK SMILES IDX 20 1 19 2 18 3 17 4 15 5 16 6 14 8 11 9 12 10 76 11 13 12
REMARK SMILES IDX 75 13 10 14 9 15 8 16 7 17 6 18 1 19 2 20 3 21 82 22 4 23
REMARK SMILES IDX 77 24 81 25 5 26 78 27 80 28 79 29 21 30 22 31 23 32 24 33
REMARK SMILES IDX 25 34 26 36 27 37 28 38 74 39 29 40 73 41 30 42 31 43 32 44
REMARK SMILES IDX 67 45 33 46 72 47 66 48 68 49 34 50 71 51 65 52 64 53 35 55
REMARK SMILES IDX 57 56 42 57 56 58 43 59 46 60 55 61 69 62 44 63 45 64 54 66
REMARK SMILES IDX 70 67 47 68 36 69 37 70 41 71 38 72 40 73 39 74 58 75 59 76
REMARK SMILES IDX 63 77 60 78 62 79 61 80 48 81 49 82 53 83 50 84 52 85 51 86
REMARK H PARENT 17 7 24 35 68 54 46 65
REMARK Flexibility Score: inf
ROOT
ATOM      1  C   UNL A   1      49.482  33.972  30.339  1.00  0.00     0.002 C 
ENDROOT
BRANCH   1   2
ATOM      2  C   UNL A   1      48.854  32.801  29.580  1.00  0.00     0.021 C 
BRANCH   2   3
ATOM      3  C   UNL A   1      49.093  32.732  28.075  1.00  0.00     0.116 C 
BRANCH   3   4
ATOM      4  N   UNL A   1      48.713  31.474  27.466  1.00  0.00    -0.352 N 
ATOM      5  C   UNL A   1      47.576  31.104  26.787  1.00  0.00     0.251 C 
ATOM      6  O   UNL A   1      47.510  29.956  26.352  1.00  0.00    -0.269 OA
ATOM      7  H   UNL A   1      49.385  30.760  27.554  1.00  0.00     0.163 HD
BRANCH   5   8
ATOM      8  C   UNL A   1      46.402  32.008  26.631  1.00  0.00     0.039 A 
ATOM      9  C   UNL A   1      44.309  33.775  25.987  1.00  0.00     0.063 A 
ATOM     10  C   UNL A   1      45.625  34.238  26.062  1.00  0.00     0.029 A 
ATOM     11  C   UNL A   1      44.035  32.470  26.400  1.00  0.00     0.029 A 
ATOM     12  C   UNL A   1      46.669  33.354  26.345  1.00  0.00     0.016 A 
ATOM     13  C   UNL A   1      45.072  31.600  26.754  1.00  0.00     0.016 A 
BRANCH   9  14
ATOM     14  N   UNL A   1      43.257  34.580  25.532  1.00  0.00    -0.257 NA
ATOM     15  C   UNL A   1      42.813  35.563  26.256  1.00  0.00     0.111 C 
BRANCH  15  16
ATOM     16  C   UNL A   1      43.266  36.023  27.599  1.00  0.00     0.020 C 
ATOM     17  C   UNL A   1      42.660  35.769  28.769  1.00  0.00     0.002 C 
BRANCH  17  18
ATOM     18  C   UNL A   1      41.388  35.106  28.979  1.00  0.00     0.009 C 
ATOM     19  C   UNL A   1      39.156  33.587  33.968  1.00  0.00     0.149 C 
ATOM     20  N   UNL A   1      39.723  33.944  32.668  1.00  0.00    -0.351 N 
ATOM     21  C   UNL A   1      41.029  34.379  32.545  1.00  0.00     0.086 C 
ATOM     22  C   UNL A   1      38.913  33.801  31.505  1.00  0.00     0.048 A 
ATOM     23  C   UNL A   1      41.616  34.741  31.398  1.00  0.00     0.026 C 
ATOM     24  C   UNL A   1      39.444  34.143  30.220  1.00  0.00     0.005 A 
ATOM     25  C   UNL A   1      37.587  33.328  31.574  1.00  0.00     0.027 A 
ATOM     26  C   UNL A   1      40.856  34.687  30.151  1.00  0.00    -0.015 C 
ATOM     27  C   UNL A   1      38.624  33.985  29.084  1.00  0.00     0.011 A 
ATOM     28  C   UNL A   1      36.795  33.194  30.432  1.00  0.00     0.002 A 
ATOM     29  C   UNL A   1      37.313  33.519  29.189  1.00  0.00     0.001 A 
ENDBRANCH  17  18
ENDBRANCH  15  16
ENDBRANCH   9  14
ENDBRANCH   5   8
ENDBRANCH   3   4
ENDBRANCH   2   3
ENDBRANCH   1   2
BRANCH   1  30
ATOM     30  C   UNL A   1      48.999  34.219  31.770  1.00  0.00     0.002 C 
BRANCH  30  31
ATOM     31  C   UNL A   1      48.584  35.647  32.120  1.00  0.00     0.021 C 
BRANCH  31  32
ATOM     32  C   UNL A   1      47.620  35.801  33.289  1.00  0.00     0.116 C 
BRANCH  32  33
ATOM     33  N   UNL A   1      46.398  36.512  32.955  1.00  0.00    -0.352 N 
ATOM     34  C   UNL A   1      45.292  36.068  32.259  1.00  0.00     0.251 C 
ATOM     35  H   UNL A   1      46.352  37.443  33.272  1.00  0.00     0.163 HD
ATOM     36  O   UNL A   1      44.374  36.829  32.002  1.00  0.00    -0.269 OA
BRANCH  34  37
ATOM     37  C   UNL A   1      45.251  34.669  31.772  1.00  0.00     0.039 A 
ATOM     38  C   UNL A   1      45.482  34.365  30.429  1.00  0.00     0.014 A 
ATOM     39  C   UNL A   1      44.923  33.654  32.674  1.00  0.00     0.014 A 
ATOM     40  C   UNL A   1      45.203  33.087  29.954  1.00  0.00     0.010 A 
ATOM     41  C   UNL A   1      44.720  32.351  32.208  1.00  0.00     0.010 A 
ATOM     42  C   UNL A   1      44.798  32.071  30.835  1.00  0.00    -0.014 A 
BRANCH  42  43
ATOM     43  C   UNL A   1      44.418  30.734  30.306  1.00  0.00     0.031 A 
ATOM     44  C   UNL A   1      42.980  30.424  29.982  1.00  0.00     0.074 A 
ATOM     45  C   UNL A   1      45.371  29.812  30.072  1.00  0.00     0.049 A 
ATOM     46  N   UNL A   1      42.459  29.310  29.532  1.00  0.00    -0.248 NA
ATOM     47  C   UNL A   1      41.998  31.502  30.186  1.00  0.00     0.031 C 
ATOM     48  C   UNL A   1      46.803  30.003  30.306  1.00  0.00     0.029 A 
ATOM     49  N   UNL A   1      45.282  28.538  29.567  1.00  0.00    -0.354 N 
ATOM     50  C   UNL A   1      41.094  29.544  29.422  1.00  0.00     0.074 A 
ATOM     51  C   UNL A   1      40.859  30.898  29.873  1.00  0.00     0.031 C 
ATOM     52  C   UNL A   1      47.462  28.905  29.903  1.00  0.00     0.029 A 
ATOM     53  C   UNL A   1      46.497  27.909  29.449  1.00  0.00     0.049 A 
ATOM     54  H   UNL A   1      44.428  28.118  29.315  1.00  0.00     0.167 HD
ATOM     55  C   UNL A   1      40.126  28.711  28.975  1.00  0.00     0.031 A 
ATOM     56  C   UNL A   1      46.804  26.663  29.041  1.00  0.00     0.031 A 
ATOM     57  C   UNL A   1      40.361  27.371  28.508  1.00  0.00     0.049 A 
ATOM     58  C   UNL A   1      45.704  25.732  28.615  1.00  0.00     0.074 A 
ATOM     59  C   UNL A   1      39.441  26.461  28.017  1.00  0.00     0.029 A 
ATOM     60  N   UNL A   1      41.599  26.751  28.472  1.00  0.00    -0.354 N 
ATOM     61  N   UNL A   1      44.418  25.971  28.519  1.00  0.00    -0.248 NA
ATOM     62  C   UNL A   1      46.091  24.363  28.250  1.00  0.00     0.031 C 
ATOM     63  C   UNL A   1      40.113  25.270  27.738  1.00  0.00     0.029 A 
ATOM     64  C   UNL A   1      41.461  25.459  27.994  1.00  0.00     0.049 A 
ATOM     65  H   UNL A   1      42.449  27.166  28.747  1.00  0.00     0.167 HD
ATOM     66  C   UNL A   1      43.846  24.789  28.070  1.00  0.00     0.074 A 
ATOM     67  C   UNL A   1      44.924  23.838  27.898  1.00  0.00     0.031 C 
ATOM     68  C   UNL A   1      42.541  24.521  27.826  1.00  0.00     0.031 A 
BRANCH  55  69
ATOM     69  C   UNL A   1      38.706  29.209  28.972  1.00  0.00    -0.014 A 
ATOM     70  C   UNL A   1      37.911  29.048  30.119  1.00  0.00     0.009 A 
ATOM     71  C   UNL A   1      38.123  29.739  27.811  1.00  0.00     0.009 A 
ATOM     72  C   UNL A   1      36.560  29.396  30.102  1.00  0.00     0.001 A 
ATOM     73  C   UNL A   1      36.777  30.111  27.804  1.00  0.00     0.001 A 
ATOM     74  C   UNL A   1      35.995  29.931  28.946  1.00  0.00     0.000 A 
ENDBRANCH  55  69
BRANCH  56  75
ATOM     75  C   UNL A   1      48.228  26.232  29.026  1.00  0.00    -0.014 A 
ATOM     76  C   UNL A   1      48.819  25.689  30.178  1.00  0.00     0.009 A 
ATOM     77  C   UNL A   1      49.016  26.416  27.882  1.00  0.00     0.009 A 
ATOM     78  C   UNL A   1      50.177  25.366  30.195  1.00  0.00     0.001 A 
ATOM     79  C   UNL A   1      50.368  26.065  27.891  1.00  0.00     0.001 A 
ATOM     80  C   UNL A   1      50.950  25.551  29.050  1.00  0.00     0.000 A 
ENDBRANCH  56  75
BRANCH  68  81
ATOM     81  C   UNL A   1      42.181  23.149  27.329  1.00  0.00    -0.014 A 
ATOM     82  C   UNL A   1      41.446  22.282  28.152  1.00  0.00     0.009 A 
ATOM     83  C   UNL A   1      42.680  22.672  26.108  1.00  0.00     0.009 A 
ATOM     84  C   UNL A   1      41.236  20.955  27.775  1.00  0.00     0.001 A 
ATOM     85  C   UNL A   1      42.446  21.351  25.721  1.00  0.00     0.001 A 
ATOM     86  C   UNL A   1      41.736  20.491  26.558  1.00  0.00     0.000 A 
ENDBRANCH  68  81
ENDBRANCH  42  43
ENDBRANCH  34  37
ENDBRANCH  32  33
ENDBRANCH  31  32
ENDBRANCH  30  31
ENDBRANCH   1  30
TORSDOF 16
ENDMDL
