MODEL 1
REMARK VINA RESULT:     -10.5      0.000      0.000
REMARK SMILES Cc1cc(NCc2ccc(C(=O)NCCCCCCNC(=O)c3ccc(-c4c5nc(c(-c6ccccc6)c6ccc([nH]6)c(-c6ccccc6)c6nc(c(-c7ccccc7)c7ccc4[nH]7)C=C6)C=C5)cc3)o2)ccc1F
REMARK SMILES IDX 16 1 15 2 14 3 13 4 11 5 12 6 10 8 7 9 8 10 71 11 9 12 6 13
REMARK SMILES IDX 5 14 4 16 1 17 2 18 3 19 74 20 73 21 75 22 72 23 17 24 18 25
REMARK SMILES IDX 19 26 20 27 21 28 22 30 23 31 24 32 70 33 25 34 69 35 26 36
REMARK SMILES IDX 27 37 28 38 63 39 29 40 68 41 62 42 64 43 30 44 67 45 61 46
REMARK SMILES IDX 60 47 31 49 53 50 38 51 52 52 39 53 42 54 51 55 65 56 40 57
REMARK SMILES IDX 41 58 50 60 66 61 43 62 32 63 33 64 37 65 34 66 36 67 35 68
REMARK SMILES IDX 54 69 55 70 59 71 56 72 58 73 57 74 44 75 45 76 49 77 46 78
REMARK SMILES IDX 48 79 47 80
REMARK H PARENT 13 7 5 15 20 29 64 48 42 59
REMARK Flexibility Score: inf
ROOT
ATOM      1  C   UNL A   1      31.172  29.068  24.828  1.00  0.00     0.002 C 
ENDROOT
BRANCH   1   2
ATOM      2  C   UNL A   1      30.626  29.244  23.403  1.00  0.00     0.021 C 
BRANCH   2   3
ATOM      3  C   UNL A   1      30.515  27.934  22.623  1.00  0.00     0.116 C 
BRANCH   3   4
ATOM      4  N   UNL A   1      31.769  27.608  21.980  1.00  0.00    -0.349 N 
ATOM      5  C   UNL A   1      32.633  26.551  22.129  1.00  0.00     0.286 C 
ATOM      6  O   UNL A   1      33.595  26.551  21.356  1.00  0.00    -0.266 OA
ATOM      7  H   UNL A   1      32.057  28.269  21.310  1.00  0.00     0.163 HD
BRANCH   5   8
ATOM      8  C   UNL A   1      32.416  25.499  23.108  1.00  0.00     0.191 A 
ATOM      9  C   UNL A   1      32.988  24.421  24.964  1.00  0.00     0.124 A 
ATOM     10  C   UNL A   1      31.857  23.797  24.492  1.00  0.00     0.048 A 
ATOM     11  O   UNL A   1      33.334  25.438  24.130  1.00  0.00    -0.454 OA
ATOM     12  C   UNL A   1      31.474  24.506  23.322  1.00  0.00     0.056 A 
BRANCH   9  13
ATOM     13  C   UNL A   1      33.861  24.227  26.153  1.00  0.00     0.188 C 
BRANCH  13  14
ATOM     14  N   UNL A   1      35.283  24.312  25.861  1.00  0.00    -0.378 N 
ATOM     15  H   UNL A   1      35.676  25.214  25.835  1.00  0.00     0.161 HD
BRANCH  14  16
ATOM     16  C   UNL A   1      36.135  23.255  25.618  1.00  0.00     0.035 A 
ATOM     17  C   UNL A   1      35.737  19.528  24.821  1.00  0.00     0.047 C 
ATOM     18  C   UNL A   1      36.357  20.856  25.132  1.00  0.00    -0.013 A 
ATOM     19  C   UNL A   1      35.571  22.005  25.308  1.00  0.00     0.032 A 
ATOM     20  C   UNL A   1      37.736  20.968  25.280  1.00  0.00     0.126 A 
ATOM     21  C   UNL A   1      38.324  22.186  25.591  1.00  0.00     0.041 A 
ATOM     22  F   UNL A   1      38.516  19.888  25.133  1.00  0.00    -0.207 F 
ATOM     23  C   UNL A   1      37.524  23.321  25.766  1.00  0.00     0.029 A 
ENDBRANCH  14  16
ENDBRANCH  13  14
ENDBRANCH   9  13
ENDBRANCH   5   8
ENDBRANCH   3   4
ENDBRANCH   2   3
ENDBRANCH   1   2
BRANCH   1  24
ATOM     24  C   UNL A   1      32.658  29.406  25.006  1.00  0.00     0.002 C 
BRANCH  24  25
ATOM     25  C   UNL A   1      33.483  28.355  25.756  1.00  0.00     0.021 C 
BRANCH  25  26
ATOM     26  C   UNL A   1      33.572  28.575  27.262  1.00  0.00     0.116 C 
BRANCH  26  27
ATOM     27  N   UNL A   1      33.578  29.988  27.606  1.00  0.00    -0.352 N 
ATOM     28  C   UNL A   1      34.547  30.729  28.235  1.00  0.00     0.251 C 
ATOM     29  H   UNL A   1      32.768  30.486  27.351  1.00  0.00     0.163 HD
ATOM     30  O   UNL A   1      34.299  31.863  28.629  1.00  0.00    -0.269 OA
BRANCH  28  31
ATOM     31  C   UNL A   1      35.892  30.154  28.450  1.00  0.00     0.039 A 
ATOM     32  C   UNL A   1      36.813  30.179  27.399  1.00  0.00     0.014 A 
ATOM     33  C   UNL A   1      36.238  29.574  29.675  1.00  0.00     0.014 A 
ATOM     34  C   UNL A   1      38.101  29.672  27.594  1.00  0.00     0.010 A 
ATOM     35  C   UNL A   1      37.540  29.130  29.888  1.00  0.00     0.010 A 
ATOM     36  C   UNL A   1      38.483  29.172  28.850  1.00  0.00    -0.014 A 
BRANCH  36  37
ATOM     37  C   UNL A   1      39.865  28.691  29.095  1.00  0.00     0.031 A 
ATOM     38  C   UNL A   1      40.887  29.603  29.715  1.00  0.00     0.074 A 
ATOM     39  C   UNL A   1      40.218  27.452  28.702  1.00  0.00     0.049 A 
ATOM     40  N   UNL A   1      42.154  29.381  29.954  1.00  0.00    -0.248 NA
ATOM     41  C   UNL A   1      40.432  30.950  30.094  1.00  0.00     0.031 C 
ATOM     42  C   UNL A   1      39.331  26.482  28.056  1.00  0.00     0.029 A 
ATOM     43  N   UNL A   1      41.422  26.798  28.784  1.00  0.00    -0.354 N 
ATOM     44  C   UNL A   1      42.650  30.561  30.494  1.00  0.00     0.074 A 
ATOM     45  C   UNL A   1      41.559  31.512  30.504  1.00  0.00     0.031 C 
ATOM     46  C   UNL A   1      40.015  25.350  27.824  1.00  0.00     0.029 A 
ATOM     47  C   UNL A   1      41.394  25.526  28.267  1.00  0.00     0.049 A 
ATOM     48  H   UNL A   1      42.229  27.203  29.176  1.00  0.00     0.167 HD
ATOM     49  C   UNL A   1      43.895  30.826  30.957  1.00  0.00     0.031 A 
ATOM     50  C   UNL A   1      42.369  24.605  28.157  1.00  0.00     0.031 A 
ATOM     51  C   UNL A   1      44.977  29.878  30.958  1.00  0.00     0.049 A 
ATOM     52  C   UNL A   1      43.747  24.929  28.664  1.00  0.00     0.074 A 
ATOM     53  C   UNL A   1      46.257  30.032  31.462  1.00  0.00     0.029 A 
ATOM     54  N   UNL A   1      44.906  28.599  30.427  1.00  0.00    -0.354 N 
ATOM     55  N   UNL A   1      44.179  26.026  29.234  1.00  0.00    -0.248 NA
ATOM     56  C   UNL A   1      44.767  23.880  28.518  1.00  0.00     0.031 C 
ATOM     57  C   UNL A   1      46.977  28.863  31.190  1.00  0.00     0.029 A 
ATOM     58  C   UNL A   1      46.128  27.963  30.565  1.00  0.00     0.049 A 
ATOM     59  H   UNL A   1      44.105  28.203  30.013  1.00  0.00     0.167 HD
ATOM     60  C   UNL A   1      45.515  25.793  29.536  1.00  0.00     0.074 A 
ATOM     61  C   UNL A   1      45.815  24.445  29.101  1.00  0.00     0.031 C 
ATOM     62  C   UNL A   1      46.412  26.623  30.122  1.00  0.00     0.031 A 
BRANCH  49  63
ATOM     63  C   UNL A   1      44.153  32.206  31.495  1.00  0.00    -0.014 A 
ATOM     64  C   UNL A   1      44.597  33.241  30.659  1.00  0.00     0.009 A 
ATOM     65  C   UNL A   1      43.917  32.483  32.851  1.00  0.00     0.009 A 
ATOM     66  C   UNL A   1      44.837  34.516  31.176  1.00  0.00     0.001 A 
ATOM     67  C   UNL A   1      44.130  33.764  33.360  1.00  0.00     0.001 A 
ATOM     68  C   UNL A   1      44.599  34.777  32.524  1.00  0.00     0.000 A 
ENDBRANCH  49  63
BRANCH  50  69
ATOM     69  C   UNL A   1      42.076  23.281  27.552  1.00  0.00    -0.014 A 
ATOM     70  C   UNL A   1      41.503  22.258  28.324  1.00  0.00     0.009 A 
ATOM     71  C   UNL A   1      42.370  23.029  26.203  1.00  0.00     0.009 A 
ATOM     72  C   UNL A   1      41.252  21.004  27.763  1.00  0.00     0.001 A 
ATOM     73  C   UNL A   1      42.092  21.783  25.639  1.00  0.00     0.001 A 
ATOM     74  C   UNL A   1      41.542  20.769  26.421  1.00  0.00     0.000 A 
ENDBRANCH  50  69
BRANCH  62  75
ATOM     75  C   UNL A   1      47.796  26.086  30.349  1.00  0.00    -0.014 A 
ATOM     76  C   UNL A   1      48.697  25.926  29.285  1.00  0.00     0.009 A 
ATOM     77  C   UNL A   1      48.218  25.776  31.650  1.00  0.00     0.009 A 
ATOM     78  C   UNL A   1      49.984  25.436  29.517  1.00  0.00     0.001 A 
ATOM     79  C   UNL A   1      49.514  25.312  31.884  1.00  0.00     0.001 A 
ATOM     80  C   UNL A   1      50.392  25.135  30.816  1.00  0.00     0.000 A 
ENDBRANCH  62  75
ENDBRANCH  36  37
ENDBRANCH  28  31
ENDBRANCH  26  27
ENDBRANCH  25  26
ENDBRANCH  24  25
ENDBRANCH   1  24
TORSDOF 16
ENDMDL
MODEL 2
REMARK VINA RESULT:     -10.3      1.413      2.122
REMARK SMILES Cc1cc(NCc2ccc(C(=O)NCCCCCCNC(=O)c3ccc(-c4c5nc(c(-c6ccccc6)c6ccc([nH]6)c(-c6ccccc6)c6nc(c(-c7ccccc7)c7ccc4[nH]7)C=C6)C=C5)cc3)o2)ccc1F
REMARK SMILES IDX 16 1 15 2 14 3 13 4 11 5 12 6 10 8 7 9 8 10 71 11 9 12 6 13
REMARK SMILES IDX 5 14 4 16 1 17 2 18 3 19 74 20 73 21 75 22 72 23 17 24 18 25
REMARK SMILES IDX 19 26 20 27 21 28 22 30 23 31 24 32 70 33 25 34 69 35 26 36
REMARK SMILES IDX 27 37 28 38 63 39 29 40 68 41 62 42 64 43 30 44 67 45 61 46
REMARK SMILES IDX 60 47 31 49 53 50 38 51 52 52 39 53 42 54 51 55 65 56 40 57
REMARK SMILES IDX 41 58 50 60 66 61 43 62 32 63 33 64 37 65 34 66 36 67 35 68
REMARK SMILES IDX 54 69 55 70 59 71 56 72 58 73 57 74 44 75 45 76 49 77 46 78
REMARK SMILES IDX 48 79 47 80
REMARK H PARENT 13 7 5 15 20 29 64 48 42 59
REMARK Flexibility Score: inf
ROOT
ATOM      1  C   UNL A   1      31.114  29.195  24.288  1.00  0.00     0.002 C 
ENDROOT
BRANCH   1   2
ATOM      2  C   UNL A   1      31.629  28.611  22.964  1.00  0.00     0.021 C 
BRANCH   2   3
ATOM      3  C   UNL A   1      30.982  27.277  22.589  1.00  0.00     0.116 C 
BRANCH   3   4
ATOM      4  N   UNL A   1      31.781  26.574  21.609  1.00  0.00    -0.349 N 
ATOM      5  C   UNL A   1      32.797  25.659  21.734  1.00  0.00     0.286 C 
ATOM      6  O   UNL A   1      33.218  25.199  20.669  1.00  0.00    -0.266 OA
ATOM      7  H   UNL A   1      31.552  26.793  20.677  1.00  0.00     0.163 HD
BRANCH   5   8
ATOM      8  C   UNL A   1      33.321  25.248  23.026  1.00  0.00     0.191 A 
ATOM      9  C   UNL A   1      33.728  23.687  24.552  1.00  0.00     0.124 A 
ATOM     10  C   UNL A   1      34.215  24.864  25.069  1.00  0.00     0.048 A 
ATOM     11  O   UNL A   1      33.180  23.914  23.328  1.00  0.00    -0.454 OA
ATOM     12  C   UNL A   1      33.983  25.856  24.080  1.00  0.00     0.056 A 
BRANCH   9  13
ATOM     13  C   UNL A   1      33.692  22.278  25.030  1.00  0.00     0.188 C 
BRANCH  13  14
ATOM     14  N   UNL A   1      32.749  21.435  24.314  1.00  0.00    -0.378 N 
ATOM     15  H   UNL A   1      31.906  21.857  24.028  1.00  0.00     0.161 HD
BRANCH  14  16
ATOM     16  C   UNL A   1      32.916  20.104  23.994  1.00  0.00     0.035 A 
ATOM     17  C   UNL A   1      35.381  17.333  24.961  1.00  0.00     0.047 C 
ATOM     18  C   UNL A   1      34.256  18.065  24.295  1.00  0.00    -0.013 A 
ATOM     19  C   UNL A   1      33.957  19.396  24.623  1.00  0.00     0.032 A 
ATOM     20  C   UNL A   1      33.499  17.439  23.310  1.00  0.00     0.126 A 
ATOM     21  C   UNL A   1      32.468  18.111  22.668  1.00  0.00     0.041 A 
ATOM     22  F   UNL A   1      33.766  16.173  22.962  1.00  0.00    -0.207 F 
ATOM     23  C   UNL A   1      32.186  19.439  23.005  1.00  0.00     0.029 A 
ENDBRANCH  14  16
ENDBRANCH  13  14
ENDBRANCH   9  13
ENDBRANCH   5   8
ENDBRANCH   3   4
ENDBRANCH   2   3
ENDBRANCH   1   2
BRANCH   1  24
ATOM     24  C   UNL A   1      31.675  28.538  25.556  1.00  0.00     0.002 C 
BRANCH  24  25
ATOM     25  C   UNL A   1      33.190  28.661  25.741  1.00  0.00     0.021 C 
BRANCH  25  26
ATOM     26  C   UNL A   1      33.644  28.784  27.193  1.00  0.00     0.116 C 
BRANCH  26  27
ATOM     27  N   UNL A   1      33.612  30.162  27.657  1.00  0.00    -0.352 N 
ATOM     28  C   UNL A   1      34.553  30.863  28.370  1.00  0.00     0.251 C 
ATOM     29  H   UNL A   1      32.798  30.664  27.427  1.00  0.00     0.163 HD
ATOM     30  O   UNL A   1      34.272  31.954  28.855  1.00  0.00    -0.269 OA
BRANCH  28  31
ATOM     31  C   UNL A   1      35.904  30.297  28.567  1.00  0.00     0.039 A 
ATOM     32  C   UNL A   1      36.819  30.353  27.511  1.00  0.00     0.014 A 
ATOM     33  C   UNL A   1      36.262  29.695  29.777  1.00  0.00     0.014 A 
ATOM     34  C   UNL A   1      38.112  29.856  27.689  1.00  0.00     0.010 A 
ATOM     35  C   UNL A   1      37.569  29.261  29.974  1.00  0.00     0.010 A 
ATOM     36  C   UNL A   1      38.506  29.333  28.932  1.00  0.00    -0.014 A 
BRANCH  36  37
ATOM     37  C   UNL A   1      39.894  28.860  29.160  1.00  0.00     0.031 A 
ATOM     38  C   UNL A   1      40.917  29.778  29.771  1.00  0.00     0.074 A 
ATOM     39  C   UNL A   1      40.251  27.626  28.759  1.00  0.00     0.049 A 
ATOM     40  N   UNL A   1      42.189  29.563  29.995  1.00  0.00    -0.248 NA
ATOM     41  C   UNL A   1      40.457  31.120  30.160  1.00  0.00     0.031 C 
ATOM     42  C   UNL A   1      39.364  26.652  28.120  1.00  0.00     0.029 A 
ATOM     43  N   UNL A   1      41.461  26.979  28.825  1.00  0.00    -0.354 N 
ATOM     44  C   UNL A   1      42.682  30.745  30.534  1.00  0.00     0.074 A 
ATOM     45  C   UNL A   1      41.585  31.688  30.559  1.00  0.00     0.031 C 
ATOM     46  C   UNL A   1      40.052  25.525  27.876  1.00  0.00     0.029 A 
ATOM     47  C   UNL A   1      41.435  25.709  28.304  1.00  0.00     0.049 A 
ATOM     48  H   UNL A   1      42.269  27.389  29.209  1.00  0.00     0.167 HD
ATOM     49  C   UNL A   1      43.930  31.017  30.983  1.00  0.00     0.031 A 
ATOM     50  C   UNL A   1      42.415  24.795  28.180  1.00  0.00     0.031 A 
ATOM     51  C   UNL A   1      45.019  30.076  30.969  1.00  0.00     0.049 A 
ATOM     52  C   UNL A   1      43.796  25.126  28.672  1.00  0.00     0.074 A 
ATOM     53  C   UNL A   1      46.304  30.237  31.458  1.00  0.00     0.029 A 
ATOM     54  N   UNL A   1      44.950  28.799  30.435  1.00  0.00    -0.354 N 
ATOM     55  N   UNL A   1      44.228  26.225  29.241  1.00  0.00    -0.248 NA
ATOM     56  C   UNL A   1      44.822  24.085  28.511  1.00  0.00     0.031 C 
ATOM     57  C   UNL A   1      47.028  29.074  31.174  1.00  0.00     0.029 A 
ATOM     58  C   UNL A   1      46.179  28.171  30.557  1.00  0.00     0.049 A 
ATOM     59  H   UNL A   1      44.148  28.398  30.028  1.00  0.00     0.167 HD
ATOM     60  C   UNL A   1      45.568  26.000  29.527  1.00  0.00     0.074 A 
ATOM     61  C   UNL A   1      45.873  24.655  29.085  1.00  0.00     0.031 C 
ATOM     62  C   UNL A   1      46.467  26.834  30.106  1.00  0.00     0.031 A 
BRANCH  49  63
ATOM     63  C   UNL A   1      44.185  32.397  31.523  1.00  0.00    -0.014 A 
ATOM     64  C   UNL A   1      44.685  33.418  30.701  1.00  0.00     0.009 A 
ATOM     65  C   UNL A   1      43.890  32.688  32.864  1.00  0.00     0.009 A 
ATOM     66  C   UNL A   1      44.921  34.693  31.220  1.00  0.00     0.001 A 
ATOM     67  C   UNL A   1      44.100  33.970  33.373  1.00  0.00     0.001 A 
ATOM     68  C   UNL A   1      44.624  34.969  32.554  1.00  0.00     0.000 A 
ENDBRANCH  49  63
BRANCH  50  69
ATOM     69  C   UNL A   1      42.124  23.471  27.574  1.00  0.00    -0.014 A 
ATOM     70  C   UNL A   1      42.456  23.214  26.234  1.00  0.00     0.009 A 
ATOM     71  C   UNL A   1      41.510  22.458  28.327  1.00  0.00     0.009 A 
ATOM     72  C   UNL A   1      42.157  21.979  25.656  1.00  0.00     0.001 A 
ATOM     73  C   UNL A   1      41.238  21.215  27.753  1.00  0.00     0.001 A 
ATOM     74  C   UNL A   1      41.554  20.979  26.416  1.00  0.00     0.000 A 
ENDBRANCH  50  69
BRANCH  62  75
ATOM     75  C   UNL A   1      47.857  26.306  30.315  1.00  0.00    -0.014 A 
ATOM     76  C   UNL A   1      48.238  25.724  31.533  1.00  0.00     0.009 A 
ATOM     77  C   UNL A   1      48.786  26.356  29.264  1.00  0.00     0.009 A 
ATOM     78  C   UNL A   1      49.532  25.228  31.705  1.00  0.00     0.001 A 
ATOM     79  C   UNL A   1      50.070  25.835  29.429  1.00  0.00     0.001 A 
ATOM     80  C   UNL A   1      50.444  25.280  30.652  1.00  0.00     0.000 A 
ENDBRANCH  62  75
ENDBRANCH  36  37
ENDBRANCH  28  31
ENDBRANCH  26  27
ENDBRANCH  25  26
ENDBRANCH  24  25
ENDBRANCH   1  24
TORSDOF 16
ENDMDL
MODEL 3
REMARK VINA RESULT:     -10.1      4.422      7.088
REMARK SMILES Cc1cc(NCc2ccc(C(=O)NCCCCCCNC(=O)c3ccc(-c4c5nc(c(-c6ccccc6)c6ccc([nH]6)c(-c6ccccc6)c6nc(c(-c7ccccc7)c7ccc4[nH]7)C=C6)C=C5)cc3)o2)ccc1F
REMARK SMILES IDX 16 1 15 2 14 3 13 4 11 5 12 6 10 8 7 9 8 10 71 11 9 12 6 13
REMARK SMILES IDX 5 14 4 16 1 17 2 18 3 19 74 20 73 21 75 22 72 23 17 24 18 25
REMARK SMILES IDX 19 26 20 27 21 28 22 30 23 31 24 32 70 33 25 34 69 35 26 36
REMARK SMILES IDX 27 37 28 38 63 39 29 40 68 41 62 42 64 43 30 44 67 45 61 46
REMARK SMILES IDX 60 47 31 49 53 50 38 51 52 52 39 53 42 54 51 55 65 56 40 57
REMARK SMILES IDX 41 58 50 60 66 61 43 62 32 63 33 64 37 65 34 66 36 67 35 68
REMARK SMILES IDX 54 69 55 70 59 71 56 72 58 73 57 74 44 75 45 76 49 77 46 78
REMARK SMILES IDX 48 79 47 80
REMARK H PARENT 13 7 5 15 20 29 64 48 42 59
REMARK Flexibility Score: inf
ROOT
ATOM      1  C   UNL A   1      34.339  31.988  28.750  1.00  0.00     0.002 C 
ENDROOT
BRANCH   1   2
ATOM      2  C   UNL A   1      34.448  30.926  27.645  1.00  0.00     0.021 C 
BRANCH   2   3
ATOM      3  C   UNL A   1      33.139  30.689  26.891  1.00  0.00     0.116 C 
BRANCH   3   4
ATOM      4  N   UNL A   1      32.355  29.656  27.532  1.00  0.00    -0.349 N 
ATOM      5  C   UNL A   1      32.043  28.371  27.159  1.00  0.00     0.286 C 
ATOM      6  O   UNL A   1      31.398  27.729  27.991  1.00  0.00    -0.266 OA
ATOM      7  H   UNL A   1      31.974  29.924  28.399  1.00  0.00     0.163 HD
BRANCH   5   8
ATOM      8  C   UNL A   1      32.462  27.805  25.887  1.00  0.00     0.191 A 
ATOM      9  C   UNL A   1      32.025  27.155  23.810  1.00  0.00     0.124 A 
ATOM     10  C   UNL A   1      33.364  26.915  24.012  1.00  0.00     0.048 A 
ATOM     11  O   UNL A   1      31.476  27.681  24.938  1.00  0.00    -0.454 OA
ATOM     12  C   UNL A   1      33.650  27.360  25.330  1.00  0.00     0.056 A 
BRANCH   9  13
ATOM     13  C   UNL A   1      31.101  26.977  22.657  1.00  0.00     0.188 C 
BRANCH  13  14
ATOM     14  N   UNL A   1      30.679  28.224  22.041  1.00  0.00    -0.378 N 
ATOM     15  H   UNL A   1      31.194  28.528  21.259  1.00  0.00     0.161 HD
BRANCH  14  16
ATOM     16  C   UNL A   1      29.628  29.023  22.441  1.00  0.00     0.035 A 
ATOM     17  C   UNL A   1      28.997  32.791  22.739  1.00  0.00     0.047 C 
ATOM     18  C   UNL A   1      28.804  31.308  22.820  1.00  0.00    -0.013 A 
ATOM     19  C   UNL A   1      29.785  30.418  22.356  1.00  0.00     0.032 A 
ATOM     20  C   UNL A   1      27.649  30.782  23.389  1.00  0.00     0.126 A 
ATOM     21  C   UNL A   1      27.465  29.409  23.493  1.00  0.00     0.041 A 
ATOM     22  F   UNL A   1      26.697  31.602  23.856  1.00  0.00    -0.207 F 
ATOM     23  C   UNL A   1      28.455  28.537  23.027  1.00  0.00     0.029 A 
ENDBRANCH  14  16
ENDBRANCH  13  14
ENDBRANCH   9  13
ENDBRANCH   5   8
ENDBRANCH   3   4
ENDBRANCH   2   3
ENDBRANCH   1   2
BRANCH   1  24
ATOM     24  C   UNL A   1      34.530  33.438  28.288  1.00  0.00     0.002 C 
BRANCH  24  25
ATOM     25  C   UNL A   1      33.284  34.324  28.380  1.00  0.00     0.021 C 
BRANCH  25  26
ATOM     26  C   UNL A   1      33.531  35.703  28.986  1.00  0.00     0.116 C 
BRANCH  26  27
ATOM     27  N   UNL A   1      32.773  35.902  30.211  1.00  0.00    -0.352 N 
ATOM     28  C   UNL A   1      32.935  35.315  31.441  1.00  0.00     0.251 C 
ATOM     29  H   UNL A   1      32.037  36.552  30.149  1.00  0.00     0.163 HD
ATOM     30  O   UNL A   1      32.075  35.448  32.306  1.00  0.00    -0.269 OA
BRANCH  28  31
ATOM     31  C   UNL A   1      34.141  34.508  31.722  1.00  0.00     0.039 A 
ATOM     32  C   UNL A   1      35.397  35.051  31.436  1.00  0.00     0.014 A 
ATOM     33  C   UNL A   1      34.036  33.216  32.245  1.00  0.00     0.014 A 
ATOM     34  C   UNL A   1      36.551  34.318  31.727  1.00  0.00     0.010 A 
ATOM     35  C   UNL A   1      35.186  32.515  32.595  1.00  0.00     0.010 A 
ATOM     36  C   UNL A   1      36.454  33.057  32.337  1.00  0.00    -0.014 A 
BRANCH  36  37
ATOM     37  C   UNL A   1      37.669  32.292  32.713  1.00  0.00     0.031 A 
ATOM     38  C   UNL A   1      38.393  32.601  33.996  1.00  0.00     0.074 A 
ATOM     39  C   UNL A   1      38.158  31.363  31.871  1.00  0.00     0.049 A 
ATOM     40  N   UNL A   1      39.497  32.080  34.465  1.00  0.00    -0.248 NA
ATOM     41  C   UNL A   1      37.810  33.647  34.851  1.00  0.00     0.031 C 
ATOM     42  C   UNL A   1      37.572  30.995  30.580  1.00  0.00     0.029 A 
ATOM     43  N   UNL A   1      39.267  30.559  31.973  1.00  0.00    -0.354 N 
ATOM     44  C   UNL A   1      39.752  32.745  35.658  1.00  0.00     0.074 A 
ATOM     45  C   UNL A   1      38.712  33.739  35.817  1.00  0.00     0.031 C 
ATOM     46  C   UNL A   1      38.312  30.022  30.024  1.00  0.00     0.029 A 
ATOM     47  C   UNL A   1      39.443  29.726  30.896  1.00  0.00     0.049 A 
ATOM     48  H   UNL A   1      39.877  30.580  32.745  1.00  0.00     0.167 HD
ATOM     49  C   UNL A   1      40.749  32.537  36.550  1.00  0.00     0.031 A 
ATOM     50  C   UNL A   1      40.410  28.826  30.637  1.00  0.00     0.031 A 
ATOM     51  C   UNL A   1      41.777  31.542  36.398  1.00  0.00     0.049 A 
ATOM     52  C   UNL A   1      41.515  28.624  31.635  1.00  0.00     0.074 A 
ATOM     53  C   UNL A   1      42.795  31.213  37.277  1.00  0.00     0.029 A 
ATOM     54  N   UNL A   1      41.918  30.717  35.294  1.00  0.00    -0.354 N 
ATOM     55  N   UNL A   1      41.701  29.215  32.790  1.00  0.00    -0.248 NA
ATOM     56  C   UNL A   1      42.538  27.625  31.295  1.00  0.00     0.031 C 
ATOM     57  C   UNL A   1      43.583  30.223  36.680  1.00  0.00     0.029 A 
ATOM     58  C   UNL A   1      43.024  29.899  35.455  1.00  0.00     0.049 A 
ATOM     59  H   UNL A   1      41.322  30.713  34.510  1.00  0.00     0.167 HD
ATOM     60  C   UNL A   1      42.848  28.643  33.325  1.00  0.00     0.074 A 
ATOM     61  C   UNL A   1      43.304  27.649  32.377  1.00  0.00     0.031 C 
ATOM     62  C   UNL A   1      43.468  28.918  34.499  1.00  0.00     0.031 A 
BRANCH  49  63
ATOM     63  C   UNL A   1      40.778  33.415  37.771  1.00  0.00    -0.014 A 
ATOM     64  C   UNL A   1      41.516  34.608  37.791  1.00  0.00     0.009 A 
ATOM     65  C   UNL A   1      40.031  33.060  38.904  1.00  0.00     0.009 A 
ATOM     66  C   UNL A   1      41.537  35.408  38.935  1.00  0.00     0.001 A 
ATOM     67  C   UNL A   1      40.030  33.876  40.037  1.00  0.00     0.001 A 
ATOM     68  C   UNL A   1      40.791  35.044  40.055  1.00  0.00     0.000 A 
ENDBRANCH  49  63
BRANCH  50  69
ATOM     69  C   UNL A   1      40.370  28.035  29.380  1.00  0.00    -0.014 A 
ATOM     70  C   UNL A   1      41.017  28.502  28.225  1.00  0.00     0.009 A 
ATOM     71  C   UNL A   1      39.683  26.812  29.325  1.00  0.00     0.009 A 
ATOM     72  C   UNL A   1      40.957  27.772  27.036  1.00  0.00     0.001 A 
ATOM     73  C   UNL A   1      39.649  26.072  28.142  1.00  0.00     0.001 A 
ATOM     74  C   UNL A   1      40.278  26.557  26.997  1.00  0.00     0.000 A 
ENDBRANCH  50  69
BRANCH  62  75
ATOM     75  C   UNL A   1      44.692  28.115  34.833  1.00  0.00    -0.014 A 
ATOM     76  C   UNL A   1      45.974  28.561  34.477  1.00  0.00     0.009 A 
ATOM     77  C   UNL A   1      44.564  26.915  35.548  1.00  0.00     0.009 A 
ATOM     78  C   UNL A   1      47.101  27.806  34.807  1.00  0.00     0.001 A 
ATOM     79  C   UNL A   1      45.693  26.175  35.900  1.00  0.00     0.001 A 
ATOM     80  C   UNL A   1      46.960  26.617  35.521  1.00  0.00     0.000 A 
ENDBRANCH  62  75
ENDBRANCH  36  37
ENDBRANCH  28  31
ENDBRANCH  26  27
ENDBRANCH  25  26
ENDBRANCH  24  25
ENDBRANCH   1  24
TORSDOF 16
ENDMDL
