MODEL 1
REMARK VINA RESULT:     -12.5      0.000      0.000
REMARK SMILES Cc1cccc(C[N@H+]2CC[C@@](C)(C(=O)NCCCCCCNC(=O)c3ccc(-c4c5nc(c(-c6ccccc6)c6ccc([nH]6)c(-c6ccccc6)c6nc(c(-c7ccccc7)c7ccc4[nH]7)C=C6)C=C5)cc3)C2)n1
REMARK SMILES IDX 18 1 17 2 16 3 15 4 13 5 14 6 11 8 8 9 9 10 73 11 10 13
REMARK SMILES IDX 12 14 7 15 6 16 1 17 2 18 3 19 74 20 4 21 5 22 19 23 20 24
REMARK SMILES IDX 21 25 22 26 23 27 24 29 25 30 26 31 72 32 27 33 71 34 28 35
REMARK SMILES IDX 29 36 30 37 65 38 31 39 70 40 64 41 66 42 32 43 69 44 63 45
REMARK SMILES IDX 62 46 33 48 55 49 40 50 54 51 41 52 44 53 53 54 67 55 42 56
REMARK SMILES IDX 43 57 52 59 68 60 45 61 34 62 35 63 39 64 36 65 38 66 37 67
REMARK SMILES IDX 56 68 57 69 61 70 58 71 60 72 59 73 46 74 47 75 51 76 48 77
REMARK SMILES IDX 50 78 49 79
REMARK H PARENT 15 7 8 12 22 28 66 47 44 58
REMARK Flexibility Score: inf
ROOT
ATOM      1  C   UNL A   1      37.736  22.148  25.737  1.00  0.00     0.002 C 
ENDROOT
BRANCH   1   2
ATOM      2  C   UNL A   1      37.058  23.708  25.245  1.00  0.00     0.021 C 
BRANCH   2   3
ATOM      3  C   UNL A   1      35.033  24.523  25.355  1.00  0.00     0.116 C 
BRANCH   3   4
ATOM      4  N   UNL A   1      33.826  24.259  26.287  1.00  0.00    -0.355 N 
ATOM      5  C   UNL A   1      32.626  23.694  26.003  1.00  0.00     0.231 C 
ATOM      6  O   UNL A   1      31.823  23.725  26.945  1.00  0.00    -0.274 OA
ATOM      7  H   UNL A   1      33.946  24.544  27.222  1.00  0.00     0.163 HD
BRANCH   5   8
ATOM      8  C   UNL A   1      32.305  22.944  24.669  1.00  0.00     0.100 C 
ATOM      9  N   UNL A   1      32.017  24.091  22.494  1.00  0.00    -0.329 N 
ATOM     10  C   UNL A   1      33.423  23.693  22.594  1.00  0.00     0.263 C 
ATOM     11  C   UNL A   1      31.294  23.568  23.679  1.00  0.00     0.279 C 
ATOM     12  H   UNL A   1      31.630  23.652  21.658  1.00  0.00     0.348 HD
ATOM     13  C   UNL A   1      33.574  22.781  23.817  1.00  0.00     0.084 C 
ATOM     14  C   UNL A   1      31.786  21.556  25.122  1.00  0.00     0.028 C 
BRANCH   9  15
ATOM     15  C   UNL A   1      31.746  25.519  22.140  1.00  0.00     0.319 C 
BRANCH  15  16
ATOM     16  C   UNL A   1      31.377  26.471  23.314  1.00  0.00     0.095 A 
ATOM     17  C   UNL A   1      33.933  28.328  26.351  1.00  0.00     0.067 C 
ATOM     18  C   UNL A   1      32.841  28.242  25.338  1.00  0.00     0.038 A 
ATOM     19  C   UNL A   1      31.718  29.619  24.984  1.00  0.00     0.023 A 
ATOM     20  N   UNL A   1      32.690  26.730  24.465  1.00  0.00    -0.252 NA
ATOM     21  C   UNL A   1      30.342  29.344  23.844  1.00  0.00     0.004 A 
ATOM     22  C   UNL A   1      30.206  27.772  22.966  1.00  0.00     0.030 A 
ENDBRANCH  15  16
ENDBRANCH   9  15
ENDBRANCH   5   8
ENDBRANCH   3   4
ENDBRANCH   2   3
ENDBRANCH   1   2
BRANCH   1  23
ATOM     23  C   UNL A   1      37.309  20.868  24.984  1.00  0.00     0.002 C 
BRANCH  23  24
ATOM     24  C   UNL A   1      38.359  19.776  24.989  1.00  0.00     0.021 C 
BRANCH  24  25
ATOM     25  C   UNL A   1      39.561  20.189  25.807  1.00  0.00     0.116 C 
BRANCH  25  26
ATOM     26  N   UNL A   1      40.395  19.019  26.076  1.00  0.00    -0.352 N 
ATOM     27  C   UNL A   1      41.767  19.013  26.102  1.00  0.00     0.251 C 
ATOM     28  H   UNL A   1      39.936  18.167  26.253  1.00  0.00     0.163 HD
ATOM     29  O   UNL A   1      42.430  18.011  25.886  1.00  0.00    -0.269 OA
BRANCH  27  30
ATOM     30  C   UNL A   1      42.386  20.308  26.413  1.00  0.00     0.039 A 
ATOM     31  C   UNL A   1      42.846  21.127  25.385  1.00  0.00     0.014 A 
ATOM     32  C   UNL A   1      42.266  20.769  27.730  1.00  0.00     0.014 A 
ATOM     33  C   UNL A   1      43.154  22.451  25.682  1.00  0.00     0.010 A 
ATOM     34  C   UNL A   1      42.441  22.113  27.985  1.00  0.00     0.010 A 
ATOM     35  C   UNL A   1      42.919  22.957  26.973  1.00  0.00    -0.014 A 
BRANCH  35  36
ATOM     36  C   UNL A   1      43.220  24.360  27.326  1.00  0.00     0.031 A 
ATOM     37  C   UNL A   1      44.656  24.803  27.348  1.00  0.00     0.074 A 
ATOM     38  C   UNL A   1      42.226  25.198  27.675  1.00  0.00     0.049 A 
ATOM     39  N   UNL A   1      45.158  25.952  27.716  1.00  0.00    -0.248 NA
ATOM     40  C   UNL A   1      45.669  23.812  26.933  1.00  0.00     0.031 C 
ATOM     41  C   UNL A   1      40.801  24.862  27.724  1.00  0.00     0.029 A 
ATOM     42  N   UNL A   1      42.270  26.512  28.063  1.00  0.00    -0.354 N 
ATOM     43  C   UNL A   1      46.533  25.816  27.578  1.00  0.00     0.074 A 
ATOM     44  C   UNL A   1      46.798  24.456  27.175  1.00  0.00     0.031 C 
ATOM     45  C   UNL A   1      40.104  25.952  28.087  1.00  0.00     0.029 A 
ATOM     46  C   UNL A   1      41.036  27.044  28.351  1.00  0.00     0.049 A 
ATOM     47  H   UNL A   1      43.107  27.028  28.128  1.00  0.00     0.167 HD
ATOM     48  C   UNL A   1      47.491  26.756  27.736  1.00  0.00     0.031 A 
ATOM     49  C   UNL A   1      40.703  28.269  28.799  1.00  0.00     0.031 A 
ATOM     50  C   UNL A   1      47.220  28.109  28.128  1.00  0.00     0.049 A 
ATOM     51  C   UNL A   1      41.801  29.275  29.029  1.00  0.00     0.074 A 
ATOM     52  C   UNL A   1      48.114  29.151  28.290  1.00  0.00     0.029 A 
ATOM     53  N   UNL A   1      45.960  28.604  28.420  1.00  0.00    -0.354 N 
ATOM     54  N   UNL A   1      43.090  29.155  28.826  1.00  0.00    -0.248 NA
ATOM     55  C   UNL A   1      41.394  30.589  29.545  1.00  0.00     0.031 C 
ATOM     56  C   UNL A   1      47.401  30.263  28.743  1.00  0.00     0.029 A 
ATOM     57  C   UNL A   1      46.056  29.932  28.793  1.00  0.00     0.049 A 
ATOM     58  H   UNL A   1      45.123  28.089  28.368  1.00  0.00     0.167 HD
ATOM     59  C   UNL A   1      43.645  30.381  29.166  1.00  0.00     0.074 A 
ATOM     60  C   UNL A   1      42.547  31.242  29.556  1.00  0.00     0.031 C 
ATOM     61  C   UNL A   1      44.944  30.766  29.169  1.00  0.00     0.031 A 
BRANCH  48  62
ATOM     62  C   UNL A   1      48.913  26.353  27.470  1.00  0.00    -0.014 A 
ATOM     63  C   UNL A   1      49.732  25.868  28.503  1.00  0.00     0.009 A 
ATOM     64  C   UNL A   1      49.422  26.402  26.165  1.00  0.00     0.009 A 
ATOM     65  C   UNL A   1      51.040  25.460  28.235  1.00  0.00     0.001 A 
ATOM     66  C   UNL A   1      50.719  25.963  25.895  1.00  0.00     0.001 A 
ATOM     67  C   UNL A   1      51.529  25.497  26.931  1.00  0.00     0.000 A 
ENDBRANCH  48  62
BRANCH  49  68
ATOM     68  C   UNL A   1      39.285  28.613  29.094  1.00  0.00    -0.014 A 
ATOM     69  C   UNL A   1      38.457  29.166  28.105  1.00  0.00     0.009 A 
ATOM     70  C   UNL A   1      38.768  28.442  30.388  1.00  0.00     0.009 A 
ATOM     71  C   UNL A   1      37.164  29.591  28.419  1.00  0.00     0.001 A 
ATOM     72  C   UNL A   1      37.460  28.830  30.689  1.00  0.00     0.001 A 
ATOM     73  C   UNL A   1      36.666  29.421  29.710  1.00  0.00     0.000 A 
ENDBRANCH  49  68
BRANCH  61  74
ATOM     74  C   UNL A   1      45.244  32.180  29.577  1.00  0.00    -0.014 A 
ATOM     75  C   UNL A   1      45.231  33.225  28.640  1.00  0.00     0.009 A 
ATOM     76  C   UNL A   1      45.486  32.476  30.927  1.00  0.00     0.009 A 
ATOM     77  C   UNL A   1      45.489  34.535  29.043  1.00  0.00     0.001 A 
ATOM     78  C   UNL A   1      45.705  33.793  31.333  1.00  0.00     0.001 A 
ATOM     79  C   UNL A   1      45.717  34.818  30.390  1.00  0.00     0.000 A 
ENDBRANCH  61  74
ENDBRANCH  35  36
ENDBRANCH  27  30
ENDBRANCH  25  26
ENDBRANCH  24  25
ENDBRANCH  23  24
ENDBRANCH   1  23
TORSDOF 15
ENDMDL
MODEL 2
REMARK VINA RESULT:     -12.4      1.872      2.823
REMARK SMILES Cc1cccc(C[N@H+]2CC[C@@](C)(C(=O)NCCCCCCNC(=O)c3ccc(-c4c5nc(c(-c6ccccc6)c6ccc([nH]6)c(-c6ccccc6)c6nc(c(-c7ccccc7)c7ccc4[nH]7)C=C6)C=C5)cc3)C2)n1
REMARK SMILES IDX 18 1 17 2 16 3 15 4 13 5 14 6 11 8 8 9 9 10 73 11 10 13
REMARK SMILES IDX 12 14 7 15 6 16 1 17 2 18 3 19 74 20 4 21 5 22 19 23 20 24
REMARK SMILES IDX 21 25 22 26 23 27 24 29 25 30 26 31 72 32 27 33 71 34 28 35
REMARK SMILES IDX 29 36 30 37 65 38 31 39 70 40 64 41 66 42 32 43 69 44 63 45
REMARK SMILES IDX 62 46 33 48 55 49 40 50 54 51 41 52 44 53 53 54 67 55 42 56
REMARK SMILES IDX 43 57 52 59 68 60 45 61 34 62 35 63 39 64 36 65 38 66 37 67
REMARK SMILES IDX 56 68 57 69 61 70 58 71 60 72 59 73 46 74 47 75 51 76 48 77
REMARK SMILES IDX 50 78 49 79
REMARK H PARENT 15 7 8 12 22 28 66 47 44 58
REMARK Flexibility Score: inf
ROOT
ATOM      1  C   UNL A   1      35.614  21.631  25.381  1.00  0.00     0.002 C 
ENDROOT
BRANCH   1   2
ATOM      2  C   UNL A   1      34.192  21.118  24.459  1.00  0.00     0.021 C 
BRANCH   2   3
ATOM      3  C   UNL A   1      32.838  22.206  23.132  1.00  0.00     0.116 C 
BRANCH   3   4
ATOM      4  N   UNL A   1      33.054  23.253  22.012  1.00  0.00    -0.355 N 
ATOM      5  C   UNL A   1      32.898  24.600  22.051  1.00  0.00     0.231 C 
ATOM      6  O   UNL A   1      33.043  25.152  20.952  1.00  0.00    -0.274 OA
ATOM      7  H   UNL A   1      33.348  22.889  21.146  1.00  0.00     0.163 HD
BRANCH   5   8
ATOM      8  C   UNL A   1      32.690  25.420  23.367  1.00  0.00     0.100 C 
ATOM      9  N   UNL A   1      30.842  27.035  23.691  1.00  0.00    -0.329 N 
ATOM     10  C   UNL A   1      30.387  25.743  24.208  1.00  0.00     0.263 C 
ATOM     11  C   UNL A   1      32.258  26.901  23.269  1.00  0.00     0.279 C 
ATOM     12  H   UNL A   1      30.793  27.708  24.455  1.00  0.00     0.348 HD
ATOM     13  C   UNL A   1      31.589  24.791  24.233  1.00  0.00     0.084 C 
ATOM     14  C   UNL A   1      34.055  25.333  24.094  1.00  0.00     0.028 C 
BRANCH   9  15
ATOM     15  C   UNL A   1      29.935  27.731  22.725  1.00  0.00     0.319 C 
BRANCH  15  16
ATOM     16  C   UNL A   1      30.059  29.279  22.642  1.00  0.00     0.095 A 
ATOM     17  C   UNL A   1      27.863  32.157  20.173  1.00  0.00     0.067 C 
ATOM     18  C   UNL A   1      28.511  31.611  21.401  1.00  0.00     0.038 A 
ATOM     19  C   UNL A   1      28.601  32.533  22.958  1.00  0.00     0.023 A 
ATOM     20  N   UNL A   1      29.181  29.996  21.289  1.00  0.00    -0.252 NA
ATOM     21  C   UNL A   1      29.542  31.825  24.331  1.00  0.00     0.004 A 
ATOM     22  C   UNL A   1      30.230  30.163  24.182  1.00  0.00     0.030 A 
ENDBRANCH  15  16
ENDBRANCH   9  15
ENDBRANCH   5   8
ENDBRANCH   3   4
ENDBRANCH   2   3
ENDBRANCH   1   2
BRANCH   1  23
ATOM     23  C   UNL A   1      36.996  21.642  24.691  1.00  0.00     0.002 C 
BRANCH  23  24
ATOM     24  C   UNL A   1      37.841  20.420  24.991  1.00  0.00     0.021 C 
BRANCH  24  25
ATOM     25  C   UNL A   1      39.103  20.806  25.728  1.00  0.00     0.116 C 
BRANCH  25  26
ATOM     26  N   UNL A   1      39.918  19.615  25.959  1.00  0.00    -0.352 N 
ATOM     27  C   UNL A   1      41.284  19.602  26.088  1.00  0.00     0.251 C 
ATOM     28  H   UNL A   1      39.449  18.752  26.027  1.00  0.00     0.163 HD
ATOM     29  O   UNL A   1      41.965  18.620  25.838  1.00  0.00    -0.269 OA
BRANCH  27  30
ATOM     30  C   UNL A   1      41.873  20.865  26.553  1.00  0.00     0.039 A 
ATOM     31  C   UNL A   1      42.340  21.798  25.632  1.00  0.00     0.014 A 
ATOM     32  C   UNL A   1      41.718  21.175  27.910  1.00  0.00     0.014 A 
ATOM     33  C   UNL A   1      42.619  23.086  26.080  1.00  0.00     0.010 A 
ATOM     34  C   UNL A   1      41.863  22.485  28.315  1.00  0.00     0.010 A 
ATOM     35  C   UNL A   1      42.348  23.443  27.413  1.00  0.00    -0.014 A 
BRANCH  35  36
ATOM     36  C   UNL A   1      42.617  24.803  27.925  1.00  0.00     0.031 A 
ATOM     37  C   UNL A   1      44.018  25.147  28.348  1.00  0.00     0.074 A 
ATOM     38  C   UNL A   1      41.610  25.687  28.059  1.00  0.00     0.049 A 
ATOM     39  N   UNL A   1      44.463  26.240  28.909  1.00  0.00    -0.248 NA
ATOM     40  C   UNL A   1      45.051  24.113  28.145  1.00  0.00     0.031 C 
ATOM     41  C   UNL A   1      40.208  25.445  27.714  1.00  0.00     0.029 A 
ATOM     42  N   UNL A   1      41.618  26.974  28.532  1.00  0.00    -0.354 N 
ATOM     43  C   UNL A   1      45.817  26.020  29.124  1.00  0.00     0.074 A 
ATOM     44  C   UNL A   1      46.109  24.667  28.714  1.00  0.00     0.031 C 
ATOM     45  C   UNL A   1      39.496  26.559  27.957  1.00  0.00     0.029 A 
ATOM     46  C   UNL A   1      40.381  27.571  28.525  1.00  0.00     0.049 A 
ATOM     47  H   UNL A   1      42.434  27.428  28.846  1.00  0.00     0.167 HD
ATOM     48  C   UNL A   1      46.747  26.884  29.587  1.00  0.00     0.031 A 
ATOM     49  C   UNL A   1      40.005  28.791  28.952  1.00  0.00     0.031 A 
ATOM     50  C   UNL A   1      46.452  28.230  29.985  1.00  0.00     0.049 A 
ATOM     51  C   UNL A   1      41.053  29.709  29.525  1.00  0.00     0.074 A 
ATOM     52  C   UNL A   1      47.324  29.201  30.443  1.00  0.00     0.029 A 
ATOM     53  N   UNL A   1      45.186  28.794  29.973  1.00  0.00    -0.354 N 
ATOM     54  N   UNL A   1      42.343  29.513  29.656  1.00  0.00    -0.248 NA
ATOM     55  C   UNL A   1      40.593  31.019  30.005  1.00  0.00     0.031 C 
ATOM     56  C   UNL A   1      46.575  30.334  30.768  1.00  0.00     0.029 A 
ATOM     57  C   UNL A   1      45.248  30.091  30.446  1.00  0.00     0.049 A 
ATOM     58  H   UNL A   1      44.367  28.339  29.671  1.00  0.00     0.167 HD
ATOM     59  C   UNL A   1      42.850  30.681  30.210  1.00  0.00     0.074 A 
ATOM     60  C   UNL A   1      41.735  31.592  30.357  1.00  0.00     0.031 C 
ATOM     61  C   UNL A   1      44.121  30.977  30.575  1.00  0.00     0.031 A 
BRANCH  48  62
ATOM     62  C   UNL A   1      48.166  26.401  29.673  1.00  0.00    -0.014 A 
ATOM     63  C   UNL A   1      49.069  26.617  28.618  1.00  0.00     0.009 A 
ATOM     64  C   UNL A   1      48.623  25.776  30.842  1.00  0.00     0.009 A 
ATOM     65  C   UNL A   1      50.396  26.198  28.727  1.00  0.00     0.001 A 
ATOM     66  C   UNL A   1      49.958  25.387  30.959  1.00  0.00     0.001 A 
ATOM     67  C   UNL A   1      50.842  25.593  29.900  1.00  0.00     0.000 A 
ENDBRANCH  48  62
BRANCH  49  68
ATOM     68  C   UNL A   1      38.579  29.214  28.891  1.00  0.00    -0.014 A 
ATOM     69  C   UNL A   1      37.737  29.075  30.006  1.00  0.00     0.009 A 
ATOM     70  C   UNL A   1      38.034  29.706  27.694  1.00  0.00     0.009 A 
ATOM     71  C   UNL A   1      36.375  29.367  29.908  1.00  0.00     0.001 A 
ATOM     72  C   UNL A   1      36.680  30.037  27.610  1.00  0.00     0.001 A 
ATOM     73  C   UNL A   1      35.848  29.849  28.711  1.00  0.00     0.000 A 
ENDBRANCH  49  68
BRANCH  61  74
ATOM     74  C   UNL A   1      44.376  32.345  31.140  1.00  0.00    -0.014 A 
ATOM     75  C   UNL A   1      44.522  33.462  30.303  1.00  0.00     0.009 A 
ATOM     76  C   UNL A   1      44.411  32.526  32.531  1.00  0.00     0.009 A 
ATOM     77  C   UNL A   1      44.733  34.728  30.848  1.00  0.00     0.001 A 
ATOM     78  C   UNL A   1      44.584  33.799  33.074  1.00  0.00     0.001 A 
ATOM     79  C   UNL A   1      44.755  34.896  32.233  1.00  0.00     0.000 A 
ENDBRANCH  61  74
ENDBRANCH  35  36
ENDBRANCH  27  30
ENDBRANCH  25  26
ENDBRANCH  24  25
ENDBRANCH  23  24
ENDBRANCH   1  23
TORSDOF 15
ENDMDL
MODEL 3
REMARK VINA RESULT:     -12.3      1.892      2.867
REMARK SMILES Cc1cccc(C[N@H+]2CC[C@@](C)(C(=O)NCCCCCCNC(=O)c3ccc(-c4c5nc(c(-c6ccccc6)c6ccc([nH]6)c(-c6ccccc6)c6nc(c(-c7ccccc7)c7ccc4[nH]7)C=C6)C=C5)cc3)C2)n1
REMARK SMILES IDX 18 1 17 2 16 3 15 4 13 5 14 6 11 8 8 9 9 10 73 11 10 13
REMARK SMILES IDX 12 14 7 15 6 16 1 17 2 18 3 19 74 20 4 21 5 22 19 23 20 24
REMARK SMILES IDX 21 25 22 26 23 27 24 29 25 30 26 31 72 32 27 33 71 34 28 35
REMARK SMILES IDX 29 36 30 37 65 38 31 39 70 40 64 41 66 42 32 43 69 44 63 45
REMARK SMILES IDX 62 46 33 48 55 49 40 50 54 51 41 52 44 53 53 54 67 55 42 56
REMARK SMILES IDX 43 57 52 59 68 60 45 61 34 62 35 63 39 64 36 65 38 66 37 67
REMARK SMILES IDX 56 68 57 69 61 70 58 71 60 72 59 73 46 74 47 75 51 76 48 77
REMARK SMILES IDX 50 78 49 79
REMARK H PARENT 15 7 8 12 22 28 66 47 44 58
REMARK Flexibility Score: inf
ROOT
ATOM      1  C   UNL A   1      40.888  21.947  26.484  1.00  0.00     0.002 C 
ENDROOT
BRANCH   1   2
ATOM      2  C   UNL A   1      39.628  23.119  26.902  1.00  0.00     0.021 C 
BRANCH   2   3
ATOM      3  C   UNL A   1      37.667  23.532  26.031  1.00  0.00     0.116 C 
BRANCH   3   4
ATOM      4  N   UNL A   1      37.140  23.608  24.577  1.00  0.00    -0.355 N 
ATOM      5  C   UNL A   1      36.137  22.910  23.987  1.00  0.00     0.231 C 
ATOM      6  O   UNL A   1      36.029  23.121  22.772  1.00  0.00    -0.274 OA
ATOM      7  H   UNL A   1      37.599  24.257  23.996  1.00  0.00     0.163 HD
BRANCH   5   8
ATOM      8  C   UNL A   1      35.111  22.023  24.767  1.00  0.00     0.100 C 
ATOM      9  N   UNL A   1      33.085  22.925  25.865  1.00  0.00    -0.329 N 
ATOM     10  C   UNL A   1      32.699  22.506  24.516  1.00  0.00     0.263 C 
ATOM     11  C   UNL A   1      34.505  22.557  26.085  1.00  0.00     0.279 C 
ATOM     12  H   UNL A   1      32.508  22.405  26.527  1.00  0.00     0.348 HD
ATOM     13  C   UNL A   1      33.874  21.733  23.904  1.00  0.00     0.084 C 
ATOM     14  C   UNL A   1      35.880  20.709  25.055  1.00  0.00     0.028 C 
BRANCH   9  15
ATOM     15  C   UNL A   1      32.697  24.311  26.275  1.00  0.00     0.319 C 
BRANCH  15  16
ATOM     16  C   UNL A   1      32.697  25.395  25.160  1.00  0.00     0.095 A 
ATOM     17  C   UNL A   1      29.360  27.603  23.370  1.00  0.00     0.067 C 
ATOM     18  C   UNL A   1      30.721  27.396  23.947  1.00  0.00     0.038 A 
ATOM     19  C   UNL A   1      31.953  28.719  24.059  1.00  0.00     0.023 A 
ATOM     20  N   UNL A   1      31.089  25.791  24.546  1.00  0.00    -0.252 NA
ATOM     21  C   UNL A   1      33.616  28.308  24.639  1.00  0.00     0.004 A 
ATOM     22  C   UNL A   1      33.969  26.643  25.240  1.00  0.00     0.030 A 
ENDBRANCH  15  16
ENDBRANCH   9  15
ENDBRANCH   5   8
ENDBRANCH   3   4
ENDBRANCH   2   3
ENDBRANCH   1   2
BRANCH   1  23
ATOM     23  C   UNL A   1      41.301  20.881  27.523  1.00  0.00     0.002 C 
BRANCH  23  24
ATOM     24  C   UNL A   1      42.252  19.833  26.980  1.00  0.00     0.021 C 
BRANCH  24  25
ATOM     25  C   UNL A   1      42.452  20.008  25.492  1.00  0.00     0.116 C 
BRANCH  25  26
ATOM     26  N   UNL A   1      43.562  19.168  25.046  1.00  0.00    -0.352 N 
ATOM     27  C   UNL A   1      44.684  19.616  24.397  1.00  0.00     0.251 C 
ATOM     28  H   UNL A   1      43.500  18.202  25.227  1.00  0.00     0.163 HD
ATOM     29  O   UNL A   1      45.355  18.907  23.663  1.00  0.00    -0.269 OA
BRANCH  27  30
ATOM     30  C   UNL A   1      45.025  21.022  24.649  1.00  0.00     0.039 A 
ATOM     31  C   UNL A   1      44.566  22.017  23.790  1.00  0.00     0.014 A 
ATOM     32  C   UNL A   1      45.602  21.322  25.889  1.00  0.00     0.014 A 
ATOM     33  C   UNL A   1      44.653  23.342  24.207  1.00  0.00     0.010 A 
ATOM     34  C   UNL A   1      45.558  22.622  26.350  1.00  0.00     0.010 A 
ATOM     35  C   UNL A   1      45.115  23.646  25.500  1.00  0.00    -0.014 A 
BRANCH  35  36
ATOM     36  C   UNL A   1      45.212  25.038  25.986  1.00  0.00     0.031 A 
ATOM     37  C   UNL A   1      46.555  25.712  25.974  1.00  0.00     0.074 A 
ATOM     38  C   UNL A   1      44.124  25.659  26.480  1.00  0.00     0.049 A 
ATOM     39  N   UNL A   1      46.890  26.887  26.435  1.00  0.00    -0.248 NA
ATOM     40  C   UNL A   1      47.680  24.951  25.397  1.00  0.00     0.031 C 
ATOM     41  C   UNL A   1      42.780  25.085  26.573  1.00  0.00     0.029 A 
ATOM     42  N   UNL A   1      43.984  26.918  27.005  1.00  0.00    -0.354 N 
ATOM     43  C   UNL A   1      48.255  27.000  26.205  1.00  0.00     0.074 A 
ATOM     44  C   UNL A   1      48.706  25.749  25.642  1.00  0.00     0.031 C 
ATOM     45  C   UNL A   1      41.945  26.001  27.092  1.00  0.00     0.029 A 
ATOM     46  C   UNL A   1      42.705  27.203  27.419  1.00  0.00     0.049 A 
ATOM     47  H   UNL A   1      44.729  27.557  27.078  1.00  0.00     0.167 HD
ATOM     48  C   UNL A   1      49.058  28.067  26.409  1.00  0.00     0.031 A 
ATOM     49  C   UNL A   1      42.213  28.305  28.015  1.00  0.00     0.031 A 
ATOM     50  C   UNL A   1      48.602  29.310  26.961  1.00  0.00     0.049 A 
ATOM     51  C   UNL A   1      43.147  29.454  28.290  1.00  0.00     0.074 A 
ATOM     52  C   UNL A   1      49.325  30.467  27.184  1.00  0.00     0.029 A 
ATOM     53  N   UNL A   1      47.304  29.556  27.376  1.00  0.00    -0.354 N 
ATOM     54  N   UNL A   1      44.421  29.573  28.002  1.00  0.00    -0.248 NA
ATOM     55  C   UNL A   1      42.573  30.624  28.969  1.00  0.00     0.031 C 
ATOM     56  C   UNL A   1      48.478  31.394  27.795  1.00  0.00     0.029 A 
ATOM     57  C   UNL A   1      47.211  30.838  27.885  1.00  0.00     0.049 A 
ATOM     58  H   UNL A   1      46.559  28.914  27.317  1.00  0.00     0.167 HD
ATOM     59  C   UNL A   1      44.794  30.836  28.442  1.00  0.00     0.074 A 
ATOM     60  C   UNL A   1      43.603  31.458  28.984  1.00  0.00     0.031 C 
ATOM     61  C   UNL A   1      46.010  31.431  28.412  1.00  0.00     0.031 A 
BRANCH  48  62
ATOM     62  C   UNL A   1      50.503  27.937  26.020  1.00  0.00    -0.014 A 
ATOM     63  C   UNL A   1      50.931  28.236  24.716  1.00  0.00     0.009 A 
ATOM     64  C   UNL A   1      51.455  27.569  26.981  1.00  0.00     0.009 A 
ATOM     65  C   UNL A   1      52.282  28.149  24.378  1.00  0.00     0.001 A 
ATOM     66  C   UNL A   1      52.810  27.514  26.648  1.00  0.00     0.001 A 
ATOM     67  C   UNL A   1      53.221  27.798  25.346  1.00  0.00     0.000 A 
ENDBRANCH  48  62
BRANCH  49  68
ATOM     68  C   UNL A   1      40.784  28.375  28.426  1.00  0.00    -0.014 A 
ATOM     69  C   UNL A   1      39.825  28.982  27.600  1.00  0.00     0.009 A 
ATOM     70  C   UNL A   1      40.380  27.884  29.678  1.00  0.00     0.009 A 
ATOM     71  C   UNL A   1      38.509  29.145  28.041  1.00  0.00     0.001 A 
ATOM     72  C   UNL A   1      39.055  28.011  30.100  1.00  0.00     0.001 A 
ATOM     73  C   UNL A   1      38.125  28.658  29.290  1.00  0.00     0.000 A 
ENDBRANCH  49  68
BRANCH  61  74
ATOM     74  C   UNL A   1      46.108  32.830  28.953  1.00  0.00    -0.014 A 
ATOM     75  C   UNL A   1      45.862  33.944  28.136  1.00  0.00     0.009 A 
ATOM     76  C   UNL A   1      46.392  33.029  30.313  1.00  0.00     0.009 A 
ATOM     77  C   UNL A   1      45.934  35.233  28.664  1.00  0.00     0.001 A 
ATOM     78  C   UNL A   1      46.425  34.318  30.846  1.00  0.00     0.001 A 
ATOM     79  C   UNL A   1      46.207  35.418  30.019  1.00  0.00     0.000 A 
ENDBRANCH  61  74
ENDBRANCH  35  36
ENDBRANCH  27  30
ENDBRANCH  25  26
ENDBRANCH  24  25
ENDBRANCH  23  24
ENDBRANCH   1  23
TORSDOF 15
ENDMDL
