MODEL 1
REMARK VINA RESULT:     -11.2      0.000      0.000
REMARK SMILES O=C(Cc1ccccc1Nc1c(Cl)cccc1C(F)(F)F)NCCCCCCNC(=O)c1ccc(-c2c3nc(c(-c4ccccc4)c4ccc([nH]4)c(-c4ccccc4)c4nc(c(-c5ccccc5)c5ccc2[nH]5)C=C4)C=C3)cc1
REMARK SMILES IDX 24 1 23 2 22 3 1 4 2 5 3 7 4 8 5 9 9 10 6 11 8 12 7 13 10 14
REMARK SMILES IDX 11 16 12 17 17 18 13 19 14 20 16 21 15 22 18 23 19 24 20 25
REMARK SMILES IDX 21 26 25 27 26 28 27 29 28 30 29 31 30 32 31 34 32 35 33 36
REMARK SMILES IDX 79 37 34 38 78 39 35 40 36 41 37 42 72 43 38 44 77 45 71 46
REMARK SMILES IDX 73 47 39 48 76 49 70 50 69 51 40 53 62 54 47 55 61 56 48 57
REMARK SMILES IDX 51 58 60 59 74 60 49 61 50 62 59 64 75 65 52 66 41 67 42 68
REMARK SMILES IDX 46 69 43 70 45 71 44 72 63 73 64 74 68 75 65 76 67 77 66 78
REMARK SMILES IDX 53 79 54 80 58 81 55 82 57 83 56 84
REMARK H PARENT 22 6 10 15 29 33 73 52 51 63
REMARK Flexibility Score: inf
ROOT
ATOM      1  C   UNL A   1      34.237  31.776  27.689  1.00  0.00     0.021 C 
ENDROOT
BRANCH   1   2
ATOM      2  C   UNL A   1      35.011  30.461  27.687  1.00  0.00     0.116 C 
BRANCH   2   3
ATOM      3  N   UNL A   1      34.733  29.678  26.501  1.00  0.00    -0.356 N 
ATOM      4  O   UNL A   1      33.032  28.427  27.408  1.00  0.00    -0.275 OA
ATOM      5  C   UNL A   1      33.736  28.728  26.449  1.00  0.00     0.224 C 
ATOM      6  H   UNL A   1      35.281  29.830  25.698  1.00  0.00     0.163 HD
BRANCH   5   7
ATOM      7  C   UNL A   1      33.586  28.071  25.089  1.00  0.00     0.137 C 
BRANCH   7   8
ATOM      8  C   UNL A   1      32.173  27.959  24.540  1.00  0.00    -0.015 A 
ATOM      9  C   UNL A   1      31.495  29.080  24.021  1.00  0.00     0.006 A 
ATOM     10  C   UNL A   1      31.513  26.705  24.542  1.00  0.00     0.042 A 
ATOM     11  C   UNL A   1      30.211  28.969  23.491  1.00  0.00     0.000 A 
ATOM     12  C   UNL A   1      30.206  26.628  24.034  1.00  0.00     0.026 A 
ATOM     13  C   UNL A   1      29.563  27.744  23.503  1.00  0.00     0.002 A 
BRANCH  10  14
ATOM     14  N   UNL A   1      32.188  25.547  24.997  1.00  0.00    -0.354 N 
ATOM     15  H   UNL A   1      32.744  25.683  25.798  1.00  0.00     0.167 HD
BRANCH  14  16
ATOM     16  C   UNL A   1      32.194  24.225  24.492  1.00  0.00     0.070 A 
ATOM     17  C   UNL A   1      32.892  23.972  23.285  1.00  0.00     0.065 A 
ATOM     18  C   UNL A   1      31.610  23.130  25.162  1.00  0.00     0.080 A 
ATOM     19  Cl  UNL A   1      33.583  25.279  22.376  1.00  0.00    -0.082 Cl
ATOM     20  C   UNL A   1      33.058  22.679  22.784  1.00  0.00     0.023 A 
ATOM     21  C   UNL A   1      31.811  21.825  24.652  1.00  0.00     0.015 A 
ATOM     22  C   UNL A   1      32.531  21.602  23.480  1.00  0.00     0.002 A 
BRANCH  18  23
ATOM     23  C   UNL A   1      30.733  23.259  26.387  1.00  0.00     0.418 C 
ATOM     24  F   UNL A   1      29.869  22.202  26.501  1.00  0.00    -0.166 F 
ATOM     25  F   UNL A   1      31.447  23.247  27.547  1.00  0.00    -0.166 F 
ATOM     26  F   UNL A   1      29.933  24.359  26.430  1.00  0.00    -0.166 F 
ENDBRANCH  18  23
ENDBRANCH  14  16
ENDBRANCH  10  14
ENDBRANCH   7   8
ENDBRANCH   5   7
ENDBRANCH   2   3
ENDBRANCH   1   2
BRANCH   1  27
ATOM     27  C   UNL A   1      35.054  32.999  28.128  1.00  0.00     0.002 C 
BRANCH  27  28
ATOM     28  C   UNL A   1      34.520  33.741  29.358  1.00  0.00     0.002 C 
BRANCH  28  29
ATOM     29  C   UNL A   1      33.278  34.600  29.114  1.00  0.00     0.021 C 
BRANCH  29  30
ATOM     30  C   UNL A   1      33.401  36.053  29.561  1.00  0.00     0.116 C 
BRANCH  30  31
ATOM     31  N   UNL A   1      32.495  36.387  30.648  1.00  0.00    -0.352 N 
ATOM     32  C   UNL A   1      32.534  35.982  31.960  1.00  0.00     0.251 C 
ATOM     33  H   UNL A   1      31.750  36.987  30.411  1.00  0.00     0.163 HD
ATOM     34  O   UNL A   1      31.610  36.241  32.724  1.00  0.00    -0.269 OA
BRANCH  32  35
ATOM     35  C   UNL A   1      33.691  35.199  32.445  1.00  0.00     0.039 A 
ATOM     36  C   UNL A   1      33.490  33.885  32.876  1.00  0.00     0.014 A 
ATOM     37  C   UNL A   1      34.973  35.754  32.453  1.00  0.00     0.014 A 
ATOM     38  C   UNL A   1      34.586  33.103  33.249  1.00  0.00     0.010 A 
ATOM     39  C   UNL A   1      36.070  34.953  32.760  1.00  0.00     0.010 A 
ATOM     40  C   UNL A   1      35.888  33.619  33.159  1.00  0.00    -0.014 A 
BRANCH  40  41
ATOM     41  C   UNL A   1      37.080  32.791  33.476  1.00  0.00     0.031 A 
ATOM     42  C   UNL A   1      37.854  33.044  34.742  1.00  0.00     0.074 A 
ATOM     43  C   UNL A   1      37.518  31.875  32.589  1.00  0.00     0.049 A 
ATOM     44  N   UNL A   1      38.984  32.515  35.139  1.00  0.00    -0.248 NA
ATOM     45  C   UNL A   1      37.299  34.041  35.673  1.00  0.00     0.031 C 
ATOM     46  C   UNL A   1      36.878  31.551  31.312  1.00  0.00     0.029 A 
ATOM     47  N   UNL A   1      38.620  31.056  32.622  1.00  0.00    -0.354 N 
ATOM     48  C   UNL A   1      39.289  33.136  36.344  1.00  0.00     0.074 A 
ATOM     49  C   UNL A   1      38.244  34.103  36.599  1.00  0.00     0.031 C 
ATOM     50  C   UNL A   1      37.590  30.595  30.692  1.00  0.00     0.029 A 
ATOM     51  C   UNL A   1      38.760  30.271  31.503  1.00  0.00     0.049 A 
ATOM     52  H   UNL A   1      39.253  31.034  33.377  1.00  0.00     0.167 HD
ATOM     53  C   UNL A   1      40.337  32.912  37.169  1.00  0.00     0.031 A 
ATOM     54  C   UNL A   1      39.729  29.401  31.158  1.00  0.00     0.031 A 
ATOM     55  C   UNL A   1      41.359  31.928  36.933  1.00  0.00     0.049 A 
ATOM     56  C   UNL A   1      40.888  29.183  32.093  1.00  0.00     0.074 A 
ATOM     57  C   UNL A   1      42.420  31.578  37.751  1.00  0.00     0.029 A 
ATOM     58  N   UNL A   1      41.447  31.139  35.799  1.00  0.00    -0.354 N 
ATOM     59  N   UNL A   1      41.120  29.725  33.263  1.00  0.00    -0.248 NA
ATOM     60  C   UNL A   1      41.917  28.226  31.660  1.00  0.00     0.031 C 
ATOM     61  C   UNL A   1      43.180  30.612  37.088  1.00  0.00     0.029 A 
ATOM     62  C   UNL A   1      42.561  30.320  35.884  1.00  0.00     0.049 A 
ATOM     63  H   UNL A   1      40.814  31.157  35.046  1.00  0.00     0.167 HD
ATOM     64  C   UNL A   1      42.296  29.145  33.722  1.00  0.00     0.074 A 
ATOM     65  C   UNL A   1      42.725  28.203  32.710  1.00  0.00     0.031 C 
ATOM     66  C   UNL A   1      42.961  29.371  34.880  1.00  0.00     0.031 A 
BRANCH  53  67
ATOM     67  C   UNL A   1      40.445  33.751  38.411  1.00  0.00    -0.014 A 
ATOM     68  C   UNL A   1      39.862  33.341  39.620  1.00  0.00     0.009 A 
ATOM     69  C   UNL A   1      41.208  34.930  38.388  1.00  0.00     0.009 A 
ATOM     70  C   UNL A   1      40.022  34.107  40.776  1.00  0.00     0.001 A 
ATOM     71  C   UNL A   1      41.388  35.679  39.552  1.00  0.00     0.001 A 
ATOM     72  C   UNL A   1      40.790  35.271  40.743  1.00  0.00     0.000 A 
ENDBRANCH  53  67
BRANCH  54  73
ATOM     73  C   UNL A   1      39.662  28.664  29.867  1.00  0.00    -0.014 A 
ATOM     74  C   UNL A   1      39.252  27.322  29.835  1.00  0.00     0.009 A 
ATOM     75  C   UNL A   1      40.054  29.282  28.669  1.00  0.00     0.009 A 
ATOM     76  C   UNL A   1      39.278  26.602  28.637  1.00  0.00     0.001 A 
ATOM     77  C   UNL A   1      40.049  28.569  27.469  1.00  0.00     0.001 A 
ATOM     78  C   UNL A   1      39.675  27.227  27.456  1.00  0.00     0.000 A 
ENDBRANCH  54  73
BRANCH  66  79
ATOM     79  C   UNL A   1      44.188  28.548  35.149  1.00  0.00    -0.014 A 
ATOM     80  C   UNL A   1      45.466  28.998  34.787  1.00  0.00     0.009 A 
ATOM     81  C   UNL A   1      44.063  27.325  35.828  1.00  0.00     0.009 A 
ATOM     82  C   UNL A   1      46.593  28.226  35.077  1.00  0.00     0.001 A 
ATOM     83  C   UNL A   1      45.192  26.570  36.143  1.00  0.00     0.001 A 
ATOM     84  C   UNL A   1      46.456  27.018  35.760  1.00  0.00     0.000 A 
ENDBRANCH  66  79
ENDBRANCH  40  41
ENDBRANCH  32  35
ENDBRANCH  30  31
ENDBRANCH  29  30
ENDBRANCH  28  29
ENDBRANCH  27  28
ENDBRANCH   1  27
TORSDOF 17
ENDMDL
MODEL 2
REMARK VINA RESULT:     -11.0      6.695     11.908
REMARK SMILES O=C(Cc1ccccc1Nc1c(Cl)cccc1C(F)(F)F)NCCCCCCNC(=O)c1ccc(-c2c3nc(c(-c4ccccc4)c4ccc([nH]4)c(-c4ccccc4)c4nc(c(-c5ccccc5)c5ccc2[nH]5)C=C4)C=C3)cc1
REMARK SMILES IDX 24 1 23 2 22 3 1 4 2 5 3 7 4 8 5 9 9 10 6 11 8 12 7 13 10 14
REMARK SMILES IDX 11 16 12 17 17 18 13 19 14 20 16 21 15 22 18 23 19 24 20 25
REMARK SMILES IDX 21 26 25 27 26 28 27 29 28 30 29 31 30 32 31 34 32 35 33 36
REMARK SMILES IDX 79 37 34 38 78 39 35 40 36 41 37 42 72 43 38 44 77 45 71 46
REMARK SMILES IDX 73 47 39 48 76 49 70 50 69 51 40 53 62 54 47 55 61 56 48 57
REMARK SMILES IDX 51 58 60 59 74 60 49 61 50 62 59 64 75 65 52 66 41 67 42 68
REMARK SMILES IDX 46 69 43 70 45 71 44 72 63 73 64 74 68 75 65 76 67 77 66 78
REMARK SMILES IDX 53 79 54 80 58 81 55 82 57 83 56 84
REMARK H PARENT 22 6 10 15 29 33 73 52 51 63
REMARK Flexibility Score: inf
ROOT
ATOM      1  C   UNL A   1      39.716  22.471  26.875  1.00  0.00     0.021 C 
ENDROOT
BRANCH   1   2
ATOM      2  C   UNL A   1      38.858  21.970  25.717  1.00  0.00     0.116 C 
BRANCH   2   3
ATOM      3  N   UNL A   1      37.490  21.737  26.126  1.00  0.00    -0.356 N 
ATOM      4  O   UNL A   1      36.555  23.434  24.891  1.00  0.00    -0.275 OA
ATOM      5  C   UNL A   1      36.431  22.482  25.654  1.00  0.00     0.224 C 
ATOM      6  H   UNL A   1      37.308  21.015  26.770  1.00  0.00     0.163 HD
BRANCH   5   7
ATOM      7  C   UNL A   1      35.080  22.025  26.175  1.00  0.00     0.137 C 
BRANCH   7   8
ATOM      8  C   UNL A   1      34.151  21.365  25.168  1.00  0.00    -0.015 A 
ATOM      9  C   UNL A   1      34.122  19.966  25.002  1.00  0.00     0.006 A 
ATOM     10  C   UNL A   1      33.290  22.164  24.376  1.00  0.00     0.042 A 
ATOM     11  C   UNL A   1      33.248  19.362  24.099  1.00  0.00     0.000 A 
ATOM     12  C   UNL A   1      32.445  21.532  23.449  1.00  0.00     0.026 A 
ATOM     13  C   UNL A   1      32.414  20.145  23.317  1.00  0.00     0.002 A 
BRANCH  10  14
ATOM     14  N   UNL A   1      33.249  23.567  24.562  1.00  0.00    -0.354 N 
ATOM     15  H   UNL A   1      34.110  23.974  24.808  1.00  0.00     0.167 HD
BRANCH  14  16
ATOM     16  C   UNL A   1      32.173  24.480  24.451  1.00  0.00     0.070 A 
ATOM     17  C   UNL A   1      32.231  25.463  23.433  1.00  0.00     0.065 A 
ATOM     18  C   UNL A   1      31.012  24.418  25.248  1.00  0.00     0.080 A 
ATOM     19  Cl  UNL A   1      33.654  25.636  22.455  1.00  0.00    -0.082 Cl
ATOM     20  C   UNL A   1      31.160  26.319  23.170  1.00  0.00     0.023 A 
ATOM     21  C   UNL A   1      29.927  25.277  24.950  1.00  0.00     0.015 A 
ATOM     22  C   UNL A   1      29.998  26.213  23.919  1.00  0.00     0.002 A 
BRANCH  18  23
ATOM     23  C   UNL A   1      30.856  23.510  26.448  1.00  0.00     0.418 C 
ATOM     24  F   UNL A   1      30.699  22.203  26.073  1.00  0.00    -0.166 F 
ATOM     25  F   UNL A   1      31.956  23.510  27.251  1.00  0.00    -0.166 F 
ATOM     26  F   UNL A   1      29.785  23.765  27.248  1.00  0.00    -0.166 F 
ENDBRANCH  18  23
ENDBRANCH  14  16
ENDBRANCH  10  14
ENDBRANCH   7   8
ENDBRANCH   5   7
ENDBRANCH   2   3
ENDBRANCH   1   2
BRANCH   1  27
ATOM     27  C   UNL A   1      40.828  21.509  27.313  1.00  0.00     0.002 C 
BRANCH  27  28
ATOM     28  C   UNL A   1      41.855  21.154  26.232  1.00  0.00     0.002 C 
BRANCH  28  29
ATOM     29  C   UNL A   1      41.877  19.684  25.811  1.00  0.00     0.021 C 
BRANCH  29  30
ATOM     30  C   UNL A   1      43.148  18.926  26.182  1.00  0.00     0.116 C 
BRANCH  30  31
ATOM     31  N   UNL A   1      43.924  18.524  25.019  1.00  0.00    -0.352 N 
ATOM     32  C   UNL A   1      44.709  19.294  24.197  1.00  0.00     0.251 C 
ATOM     33  H   UNL A   1      43.882  17.566  24.791  1.00  0.00     0.163 HD
ATOM     34  O   UNL A   1      45.189  18.826  23.169  1.00  0.00    -0.269 OA
BRANCH  32  35
ATOM     35  C   UNL A   1      44.951  20.712  24.542  1.00  0.00     0.039 A 
ATOM     36  C   UNL A   1      44.527  21.709  23.659  1.00  0.00     0.014 A 
ATOM     37  C   UNL A   1      45.576  21.055  25.744  1.00  0.00     0.014 A 
ATOM     38  C   UNL A   1      44.666  23.053  24.014  1.00  0.00     0.010 A 
ATOM     39  C   UNL A   1      45.652  22.392  26.125  1.00  0.00     0.010 A 
ATOM     40  C   UNL A   1      45.196  23.404  25.265  1.00  0.00    -0.014 A 
BRANCH  40  41
ATOM     41  C   UNL A   1      45.288  24.820  25.704  1.00  0.00     0.031 A 
ATOM     42  C   UNL A   1      46.610  25.536  25.655  1.00  0.00     0.074 A 
ATOM     43  C   UNL A   1      44.207  25.434  26.226  1.00  0.00     0.049 A 
ATOM     44  N   UNL A   1      46.923  26.726  26.103  1.00  0.00    -0.248 NA
ATOM     45  C   UNL A   1      47.738  24.810  25.047  1.00  0.00     0.031 C 
ATOM     46  C   UNL A   1      42.873  24.845  26.359  1.00  0.00     0.029 A 
ATOM     47  N   UNL A   1      44.067  26.692  26.762  1.00  0.00    -0.354 N 
ATOM     48  C   UNL A   1      48.282  26.877  25.860  1.00  0.00     0.074 A 
ATOM     49  C   UNL A   1      48.744  25.646  25.255  1.00  0.00     0.031 C 
ATOM     50  C   UNL A   1      42.048  25.743  26.923  1.00  0.00     0.029 A 
ATOM     51  C   UNL A   1      42.803  26.953  27.236  1.00  0.00     0.049 A 
ATOM     52  H   UNL A   1      44.802  27.345  26.803  1.00  0.00     0.167 HD
ATOM     53  C   UNL A   1      49.072  27.946  26.107  1.00  0.00     0.031 A 
ATOM     54  C   UNL A   1      42.311  28.036  27.867  1.00  0.00     0.031 A 
ATOM     55  C   UNL A   1      48.609  29.182  26.678  1.00  0.00     0.049 A 
ATOM     56  C   UNL A   1      43.219  29.205  28.138  1.00  0.00     0.074 A 
ATOM     57  C   UNL A   1      49.322  30.349  26.896  1.00  0.00     0.029 A 
ATOM     58  N   UNL A   1      47.317  29.411  27.121  1.00  0.00    -0.354 N 
ATOM     59  N   UNL A   1      44.484  29.359  27.833  1.00  0.00    -0.248 NA
ATOM     60  C   UNL A   1      42.626  30.357  28.835  1.00  0.00     0.031 C 
ATOM     61  C   UNL A   1      48.473  31.268  27.518  1.00  0.00     0.029 A 
ATOM     62  C   UNL A   1      47.218  30.693  27.635  1.00  0.00     0.049 A 
ATOM     63  H   UNL A   1      46.580  28.761  27.076  1.00  0.00     0.167 HD
ATOM     64  C   UNL A   1      44.825  30.634  28.263  1.00  0.00     0.074 A 
ATOM     65  C   UNL A   1      43.633  31.217  28.841  1.00  0.00     0.031 C 
ATOM     66  C   UNL A   1      46.019  31.267  28.185  1.00  0.00     0.031 A 
BRANCH  53  67
ATOM     67  C   UNL A   1      50.532  27.836  25.768  1.00  0.00    -0.014 A 
ATOM     68  C   UNL A   1      51.016  28.201  24.503  1.00  0.00     0.009 A 
ATOM     69  C   UNL A   1      51.445  27.432  26.756  1.00  0.00     0.009 A 
ATOM     70  C   UNL A   1      52.384  28.143  24.227  1.00  0.00     0.001 A 
ATOM     71  C   UNL A   1      52.814  27.402  26.486  1.00  0.00     0.001 A 
ATOM     72  C   UNL A   1      53.281  27.751  25.220  1.00  0.00     0.000 A 
ENDBRANCH  53  67
BRANCH  54  73
ATOM     73  C   UNL A   1      40.888  28.080  28.299  1.00  0.00    -0.014 A 
ATOM     74  C   UNL A   1      39.934  28.772  27.536  1.00  0.00     0.009 A 
ATOM     75  C   UNL A   1      40.484  27.475  29.499  1.00  0.00     0.009 A 
ATOM     76  C   UNL A   1      38.617  28.893  27.988  1.00  0.00     0.001 A 
ATOM     77  C   UNL A   1      39.161  27.570  29.933  1.00  0.00     0.001 A 
ATOM     78  C   UNL A   1      38.232  28.291  29.185  1.00  0.00     0.000 A 
ENDBRANCH  54  73
BRANCH  66  79
ATOM     79  C   UNL A   1      46.089  32.684  28.679  1.00  0.00    -0.014 A 
ATOM     80  C   UNL A   1      46.415  32.980  30.011  1.00  0.00     0.009 A 
ATOM     81  C   UNL A   1      45.880  33.740  27.777  1.00  0.00     0.009 A 
ATOM     82  C   UNL A   1      46.502  34.308  30.436  1.00  0.00     0.001 A 
ATOM     83  C   UNL A   1      45.997  35.065  28.197  1.00  0.00     0.001 A 
ATOM     84  C   UNL A   1      46.301  35.347  29.528  1.00  0.00     0.000 A 
ENDBRANCH  66  79
ENDBRANCH  40  41
ENDBRANCH  32  35
ENDBRANCH  30  31
ENDBRANCH  29  30
ENDBRANCH  28  29
ENDBRANCH  27  28
ENDBRANCH   1  27
TORSDOF 17
ENDMDL
MODEL 3
REMARK VINA RESULT:     -10.8      5.300      9.834
REMARK SMILES O=C(Cc1ccccc1Nc1c(Cl)cccc1C(F)(F)F)NCCCCCCNC(=O)c1ccc(-c2c3nc(c(-c4ccccc4)c4ccc([nH]4)c(-c4ccccc4)c4nc(c(-c5ccccc5)c5ccc2[nH]5)C=C4)C=C3)cc1
REMARK SMILES IDX 24 1 23 2 22 3 1 4 2 5 3 7 4 8 5 9 9 10 6 11 8 12 7 13 10 14
REMARK SMILES IDX 11 16 12 17 17 18 13 19 14 20 16 21 15 22 18 23 19 24 20 25
REMARK SMILES IDX 21 26 25 27 26 28 27 29 28 30 29 31 30 32 31 34 32 35 33 36
REMARK SMILES IDX 79 37 34 38 78 39 35 40 36 41 37 42 72 43 38 44 77 45 71 46
REMARK SMILES IDX 73 47 39 48 76 49 70 50 69 51 40 53 62 54 47 55 61 56 48 57
REMARK SMILES IDX 51 58 60 59 74 60 49 61 50 62 59 64 75 65 52 66 41 67 42 68
REMARK SMILES IDX 46 69 43 70 45 71 44 72 63 73 64 74 68 75 65 76 67 77 66 78
REMARK SMILES IDX 53 79 54 80 58 81 55 82 57 83 56 84
REMARK H PARENT 22 6 10 15 29 33 73 52 51 63
REMARK Flexibility Score: inf
ROOT
ATOM      1  C   UNL A   1      35.058  23.563  25.756  1.00  0.00     0.021 C 
ENDROOT
BRANCH   1   2
ATOM      2  C   UNL A   1      33.737  23.842  25.044  1.00  0.00     0.116 C 
BRANCH   2   3
ATOM      3  N   UNL A   1      33.657  25.210  24.580  1.00  0.00    -0.356 N 
ATOM      4  O   UNL A   1      34.066  24.758  22.365  1.00  0.00    -0.275 OA
ATOM      5  C   UNL A   1      33.806  25.561  23.256  1.00  0.00     0.224 C 
ATOM      6  H   UNL A   1      33.491  25.922  25.240  1.00  0.00     0.163 HD
BRANCH   5   7
ATOM      7  C   UNL A   1      33.627  27.045  22.991  1.00  0.00     0.137 C 
BRANCH   7   8
ATOM      8  C   UNL A   1      33.214  27.902  24.176  1.00  0.00    -0.015 A 
ATOM      9  C   UNL A   1      34.132  28.250  25.188  1.00  0.00     0.006 A 
ATOM     10  C   UNL A   1      31.880  28.371  24.275  1.00  0.00     0.042 A 
ATOM     11  C   UNL A   1      33.758  29.061  26.258  1.00  0.00     0.000 A 
ATOM     12  C   UNL A   1      31.521  29.157  25.382  1.00  0.00     0.026 A 
ATOM     13  C   UNL A   1      32.450  29.509  26.359  1.00  0.00     0.002 A 
BRANCH  10  14
ATOM     14  N   UNL A   1      30.950  28.093  23.245  1.00  0.00    -0.354 N 
ATOM     15  H   UNL A   1      31.347  27.981  22.352  1.00  0.00     0.167 HD
BRANCH  14  16
ATOM     16  C   UNL A   1      29.543  27.949  23.289  1.00  0.00     0.070 A 
ATOM     17  C   UNL A   1      29.008  26.751  23.823  1.00  0.00     0.065 A 
ATOM     18  C   UNL A   1      28.642  28.963  22.901  1.00  0.00     0.080 A 
ATOM     19  Cl  UNL A   1      30.054  25.439  24.263  1.00  0.00    -0.082 Cl
ATOM     20  C   UNL A   1      27.637  26.579  24.022  1.00  0.00     0.023 A 
ATOM     21  C   UNL A   1      27.258  28.779  23.134  1.00  0.00     0.015 A 
ATOM     22  C   UNL A   1      26.761  27.603  23.693  1.00  0.00     0.002 A 
BRANCH  18  23
ATOM     23  C   UNL A   1      29.055  30.240  22.202  1.00  0.00     0.418 C 
ATOM     24  F   UNL A   1      28.006  30.805  21.526  1.00  0.00    -0.166 F 
ATOM     25  F   UNL A   1      29.465  31.204  23.073  1.00  0.00    -0.166 F 
ATOM     26  F   UNL A   1      30.034  30.112  21.266  1.00  0.00    -0.166 F 
ENDBRANCH  18  23
ENDBRANCH  14  16
ENDBRANCH  10  14
ENDBRANCH   7   8
ENDBRANCH   5   7
ENDBRANCH   2   3
ENDBRANCH   1   2
BRANCH   1  27
ATOM     27  C   UNL A   1      36.225  23.206  24.826  1.00  0.00     0.002 C 
BRANCH  27  28
ATOM     28  C   UNL A   1      36.164  21.809  24.199  1.00  0.00     0.002 C 
BRANCH  28  29
ATOM     29  C   UNL A   1      36.929  20.721  24.954  1.00  0.00     0.021 C 
BRANCH  29  30
ATOM     30  C   UNL A   1      38.335  21.112  25.398  1.00  0.00     0.116 C 
BRANCH  30  31
ATOM     31  N   UNL A   1      39.237  19.974  25.483  1.00  0.00    -0.352 N 
ATOM     32  C   UNL A   1      40.531  19.930  25.940  1.00  0.00     0.251 C 
ATOM     33  H   UNL A   1      38.868  19.116  25.170  1.00  0.00     0.163 HD
ATOM     34  O   UNL A   1      41.206  18.913  25.814  1.00  0.00    -0.269 OA
BRANCH  32  35
ATOM     35  C   UNL A   1      41.123  21.134  26.563  1.00  0.00     0.039 A 
ATOM     36  C   UNL A   1      41.716  22.100  25.747  1.00  0.00     0.014 A 
ATOM     37  C   UNL A   1      41.072  21.316  27.948  1.00  0.00     0.014 A 
ATOM     38  C   UNL A   1      42.197  23.284  26.312  1.00  0.00     0.010 A 
ATOM     39  C   UNL A   1      41.490  22.524  28.500  1.00  0.00     0.010 A 
ATOM     40  C   UNL A   1      42.054  23.521  27.688  1.00  0.00    -0.014 A 
BRANCH  40  41
ATOM     41  C   UNL A   1      42.486  24.800  28.309  1.00  0.00     0.031 A 
ATOM     42  C   UNL A   1      41.478  25.889  28.560  1.00  0.00     0.074 A 
ATOM     43  C   UNL A   1      43.791  25.016  28.566  1.00  0.00     0.049 A 
ATOM     44  N   UNL A   1      41.673  27.114  28.978  1.00  0.00    -0.248 NA
ATOM     45  C   UNL A   1      40.068  25.569  28.279  1.00  0.00     0.031 C 
ATOM     46  C   UNL A   1      44.874  24.056  28.342  1.00  0.00     0.029 A 
ATOM     47  N   UNL A   1      44.432  26.128  29.058  1.00  0.00    -0.354 N 
ATOM     48  C   UNL A   1      40.421  27.716  28.980  1.00  0.00     0.074 A 
ATOM     49  C   UNL A   1      39.477  26.735  28.491  1.00  0.00     0.031 C 
ATOM     50  C   UNL A   1      46.041  24.613  28.709  1.00  0.00     0.029 A 
ATOM     51  C   UNL A   1      45.796  25.984  29.148  1.00  0.00     0.049 A 
ATOM     52  H   UNL A   1      43.959  26.950  29.320  1.00  0.00     0.167 HD
ATOM     53  C   UNL A   1      40.086  28.969  29.365  1.00  0.00     0.031 A 
ATOM     54  C   UNL A   1      46.746  26.862  29.525  1.00  0.00     0.031 A 
ATOM     55  C   UNL A   1      41.017  29.936  29.881  1.00  0.00     0.049 A 
ATOM     56  C   UNL A   1      46.342  28.252  29.936  1.00  0.00     0.074 A 
ATOM     57  C   UNL A   1      40.757  31.205  30.368  1.00  0.00     0.029 A 
ATOM     58  N   UNL A   1      42.385  29.739  29.978  1.00  0.00    -0.354 N 
ATOM     59  N   UNL A   1      45.144  28.779  30.003  1.00  0.00    -0.248 NA
ATOM     60  C   UNL A   1      47.423  29.166  30.332  1.00  0.00     0.031 C 
ATOM     61  C   UNL A   1      41.974  31.798  30.712  1.00  0.00     0.029 A 
ATOM     62  C   UNL A   1      42.985  30.876  30.493  1.00  0.00     0.049 A 
ATOM     63  H   UNL A   1      42.858  28.916  29.721  1.00  0.00     0.167 HD
ATOM     64  C   UNL A   1      45.325  30.068  30.486  1.00  0.00     0.074 A 
ATOM     65  C   UNL A   1      46.745  30.242  30.704  1.00  0.00     0.031 C 
ATOM     66  C   UNL A   1      44.396  31.024  30.728  1.00  0.00     0.031 A 
BRANCH  53  67
ATOM     67  C   UNL A   1      38.646  29.382  29.239  1.00  0.00    -0.014 A 
ATOM     68  C   UNL A   1      37.761  29.278  30.323  1.00  0.00     0.009 A 
ATOM     69  C   UNL A   1      38.190  29.954  28.041  1.00  0.00     0.009 A 
ATOM     70  C   UNL A   1      36.442  29.719  30.202  1.00  0.00     0.001 A 
ATOM     71  C   UNL A   1      36.879  30.419  27.932  1.00  0.00     0.001 A 
ATOM     72  C   UNL A   1      36.004  30.295  29.010  1.00  0.00     0.000 A 
ENDBRANCH  53  67
BRANCH  54  73
ATOM     73  C   UNL A   1      48.181  26.469  29.532  1.00  0.00    -0.014 A 
ATOM     74  C   UNL A   1      48.744  25.852  30.660  1.00  0.00     0.009 A 
ATOM     75  C   UNL A   1      49.006  26.752  28.432  1.00  0.00     0.009 A 
ATOM     76  C   UNL A   1      50.112  25.568  30.704  1.00  0.00     0.001 A 
ATOM     77  C   UNL A   1      50.366  26.438  28.466  1.00  0.00     0.001 A 
ATOM     78  C   UNL A   1      50.921  25.860  29.607  1.00  0.00     0.000 A 
ENDBRANCH  54  73
BRANCH  66  79
ATOM     79  C   UNL A   1      44.872  32.323  31.315  1.00  0.00    -0.014 A 
ATOM     80  C   UNL A   1      44.920  32.526  32.702  1.00  0.00     0.009 A 
ATOM     81  C   UNL A   1      45.335  33.337  30.460  1.00  0.00     0.009 A 
ATOM     82  C   UNL A   1      45.396  33.732  33.221  1.00  0.00     0.001 A 
ATOM     83  C   UNL A   1      45.837  34.529  30.982  1.00  0.00     0.001 A 
ATOM     84  C   UNL A   1      45.860  34.728  32.362  1.00  0.00     0.000 A 
ENDBRANCH  66  79
ENDBRANCH  40  41
ENDBRANCH  32  35
ENDBRANCH  30  31
ENDBRANCH  29  30
ENDBRANCH  28  29
ENDBRANCH  27  28
ENDBRANCH   1  27
TORSDOF 17
ENDMDL
