MODEL 1
REMARK VINA RESULT:     -10.6      0.000      0.000
REMARK SMILES [NH3+][C@@H](CCCCC(=O)NCCCCCCNC(=O)c1ccc(-c2c3nc(c(-c4ccccc4)c4ccc([nH]4)c(-c4ccccc4)c4nc(c(-c5ccccc5)c5ccc2[nH]5)C=C4)C=C3)cc1)c1ccc2[nH]c(=O)[nH]c2c1
REMARK SMILES IDX 11 1 10 2 9 3 7 4 8 5 6 7 5 8 4 9 3 10 2 11 1 12 67 16 68 17
REMARK SMILES IDX 76 18 69 19 75 20 70 21 74 22 71 23 72 24 73 27 12 28 13 29
REMARK SMILES IDX 14 30 15 31 16 32 17 33 18 35 19 36 20 37 66 38 21 39 65 40
REMARK SMILES IDX 22 41 23 42 24 43 59 44 25 45 64 46 58 47 60 48 26 49 63 50
REMARK SMILES IDX 57 51 56 52 27 54 49 55 34 56 48 57 35 58 38 59 47 60 61 61
REMARK SMILES IDX 36 62 37 63 46 65 62 66 39 67 28 68 29 69 33 70 30 71 32 72
REMARK SMILES IDX 31 73 50 74 51 75 55 76 52 77 54 78 53 79 40 80 41 81 45 82
REMARK SMILES IDX 42 83 44 84 43 85
REMARK H PARENT 9 6 1 13 1 14 1 15 74 25 71 26 16 34 60 53 38 64
REMARK Flexibility Score: inf
ROOT
ATOM      1  C   UNL A   1      40.954  21.870  27.380  1.00  0.00     0.021 C 
ENDROOT
BRANCH   1   2
ATOM      2  C   UNL A   1      39.907  21.829  26.270  1.00  0.00     0.116 C 
BRANCH   2   3
ATOM      3  N   UNL A   1      38.948  22.894  26.429  1.00  0.00    -0.356 N 
ATOM      4  C   UNL A   1      37.752  23.064  25.803  1.00  0.00     0.219 C 
ATOM      5  O   UNL A   1      37.103  24.082  26.048  1.00  0.00    -0.275 OA
ATOM      6  H   UNL A   1      39.190  23.591  27.080  1.00  0.00     0.163 HD
BRANCH   4   7
ATOM      7  C   UNL A   1      37.229  22.002  24.853  1.00  0.00     0.100 C 
BRANCH   7   8
ATOM      8  C   UNL A   1      36.050  22.445  23.983  1.00  0.00     0.010 C 
BRANCH   8   9
ATOM      9  C   UNL A   1      34.622  22.414  24.564  1.00  0.00     0.007 C 
BRANCH   9  10
ATOM     10  C   UNL A   1      33.406  22.340  23.615  1.00  0.00     0.070 C 
BRANCH  10  11
ATOM     11  C   UNL A   1      32.142  21.610  24.121  1.00  0.00     0.212 C 
BRANCH  11  12
ATOM     12  N   UNL A   1      31.735  22.110  25.436  1.00  0.00    -0.351 N 
ATOM     13  H   UNL A   1      31.495  23.099  25.364  1.00  0.00     0.345 HD
ATOM     14  H   UNL A   1      32.502  21.994  26.097  1.00  0.00     0.345 HD
ATOM     15  H   UNL A   1      30.923  21.585  25.761  1.00  0.00     0.345 HD
ENDBRANCH  11  12
BRANCH  11  16
ATOM     16  C   UNL A   1      32.340  20.108  24.049  1.00  0.00     0.011 A 
ATOM     17  C   UNL A   1      32.188  19.474  22.778  1.00  0.00     0.012 A 
ATOM     18  C   UNL A   1      32.794  19.361  25.149  1.00  0.00     0.038 A 
ATOM     19  C   UNL A   1      32.574  18.149  22.563  1.00  0.00     0.029 A 
ATOM     20  C   UNL A   1      33.163  18.059  24.910  1.00  0.00     0.067 A 
ATOM     21  C   UNL A   1      33.079  17.477  23.647  1.00  0.00     0.066 A 
ATOM     22  N   UNL A   1      33.719  17.126  25.775  1.00  0.00    -0.306 N 
ATOM     23  N   UNL A   1      33.603  16.194  23.731  1.00  0.00    -0.306 N 
ATOM     24  C   UNL A   1      34.004  15.960  25.053  1.00  0.00     0.323 A 
ATOM     25  H   UNL A   1      33.886  17.261  26.736  1.00  0.00     0.171 HD
ATOM     26  H   UNL A   1      33.679  15.555  22.986  1.00  0.00     0.171 HD
ATOM     27  O   UNL A   1      34.512  14.940  25.490  1.00  0.00    -0.248 OA
ENDBRANCH  11  16
ENDBRANCH  10  11
ENDBRANCH   9  10
ENDBRANCH   8   9
ENDBRANCH   7   8
ENDBRANCH   4   7
ENDBRANCH   2   3
ENDBRANCH   1   2
BRANCH   1  28
ATOM     28  C   UNL A   1      41.754  20.576  27.497  1.00  0.00     0.002 C 
BRANCH  28  29
ATOM     29  C   UNL A   1      41.944  19.839  26.167  1.00  0.00     0.002 C 
BRANCH  29  30
ATOM     30  C   UNL A   1      42.687  18.502  26.271  1.00  0.00     0.021 C 
BRANCH  30  31
ATOM     31  C   UNL A   1      44.197  18.612  26.087  1.00  0.00     0.116 C 
BRANCH  31  32
ATOM     32  N   UNL A   1      44.565  18.559  24.680  1.00  0.00    -0.352 N 
ATOM     33  C   UNL A   1      44.766  19.583  23.792  1.00  0.00     0.251 C 
ATOM     34  H   UNL A   1      44.689  17.655  24.312  1.00  0.00     0.163 HD
ATOM     35  O   UNL A   1      44.784  19.363  22.586  1.00  0.00    -0.269 OA
BRANCH  33  36
ATOM     36  C   UNL A   1      44.963  20.955  24.296  1.00  0.00     0.039 A 
ATOM     37  C   UNL A   1      44.544  22.034  23.515  1.00  0.00     0.014 A 
ATOM     38  C   UNL A   1      45.584  21.173  25.530  1.00  0.00     0.014 A 
ATOM     39  C   UNL A   1      44.705  23.333  23.996  1.00  0.00     0.010 A 
ATOM     40  C   UNL A   1      45.671  22.462  26.041  1.00  0.00     0.010 A 
ATOM     41  C   UNL A   1      45.243  23.556  25.275  1.00  0.00    -0.014 A 
BRANCH  41  42
ATOM     42  C   UNL A   1      45.365  24.927  25.826  1.00  0.00     0.031 A 
ATOM     43  C   UNL A   1      46.696  25.627  25.823  1.00  0.00     0.074 A 
ATOM     44  C   UNL A   1      44.290  25.516  26.382  1.00  0.00     0.049 A 
ATOM     45  N   UNL A   1      47.008  26.805  26.300  1.00  0.00    -0.248 NA
ATOM     46  C   UNL A   1      47.831  24.900  25.229  1.00  0.00     0.031 C 
ATOM     47  C   UNL A   1      42.955  24.922  26.481  1.00  0.00     0.029 A 
ATOM     48  N   UNL A   1      44.151  26.746  26.973  1.00  0.00    -0.354 N 
ATOM     49  C   UNL A   1      48.372  26.952  26.080  1.00  0.00     0.074 A 
ATOM     50  C   UNL A   1      48.838  25.724  25.475  1.00  0.00     0.031 C 
ATOM     51  C   UNL A   1      42.126  25.800  27.068  1.00  0.00     0.029 A 
ATOM     52  C   UNL A   1      42.880  26.997  27.428  1.00  0.00     0.049 A 
ATOM     53  H   UNL A   1      44.893  27.387  27.063  1.00  0.00     0.167 HD
ATOM     54  C   UNL A   1      49.161  28.021  26.341  1.00  0.00     0.031 A 
ATOM     55  C   UNL A   1      42.377  28.067  28.070  1.00  0.00     0.031 A 
ATOM     56  C   UNL A   1      48.693  29.243  26.938  1.00  0.00     0.049 A 
ATOM     57  C   UNL A   1      43.280  29.233  28.365  1.00  0.00     0.074 A 
ATOM     58  C   UNL A   1      49.401  30.405  27.189  1.00  0.00     0.029 A 
ATOM     59  N   UNL A   1      47.397  29.457  27.383  1.00  0.00    -0.354 N 
ATOM     60  N   UNL A   1      44.551  29.385  28.084  1.00  0.00    -0.248 NA
ATOM     61  C   UNL A   1      42.672  30.380  29.056  1.00  0.00     0.031 C 
ATOM     62  C   UNL A   1      48.550  31.300  27.846  1.00  0.00     0.029 A 
ATOM     63  C   UNL A   1      47.294  30.723  27.938  1.00  0.00     0.049 A 
ATOM     64  H   UNL A   1      46.661  28.808  27.315  1.00  0.00     0.167 HD
ATOM     65  C   UNL A   1      44.889  30.655  28.536  1.00  0.00     0.074 A 
ATOM     66  C   UNL A   1      43.684  31.235  29.092  1.00  0.00     0.031 C 
ATOM     67  C   UNL A   1      46.089  31.284  28.493  1.00  0.00     0.031 A 
BRANCH  54  68
ATOM     68  C   UNL A   1      50.622  27.908  25.996  1.00  0.00    -0.014 A 
ATOM     69  C   UNL A   1      51.582  27.584  26.969  1.00  0.00     0.009 A 
ATOM     70  C   UNL A   1      51.039  28.089  24.668  1.00  0.00     0.009 A 
ATOM     71  C   UNL A   1      52.931  27.481  26.625  1.00  0.00     0.001 A 
ATOM     72  C   UNL A   1      52.384  27.952  24.321  1.00  0.00     0.001 A 
ATOM     73  C   UNL A   1      53.331  27.658  25.301  1.00  0.00     0.000 A 
ENDBRANCH  54  68
BRANCH  55  74
ATOM     74  C   UNL A   1      40.946  28.090  28.472  1.00  0.00    -0.014 A 
ATOM     75  C   UNL A   1      39.988  28.730  27.671  1.00  0.00     0.009 A 
ATOM     76  C   UNL A   1      40.530  27.470  29.661  1.00  0.00     0.009 A 
ATOM     77  C   UNL A   1      38.649  28.774  28.067  1.00  0.00     0.001 A 
ATOM     78  C   UNL A   1      39.185  27.487  30.038  1.00  0.00     0.001 A 
ATOM     79  C   UNL A   1      38.248  28.148  29.246  1.00  0.00     0.000 A 
ENDBRANCH  55  74
BRANCH  67  80
ATOM     80  C   UNL A   1      46.151  32.688  29.029  1.00  0.00    -0.014 A 
ATOM     81  C   UNL A   1      45.873  33.797  28.214  1.00  0.00     0.009 A 
ATOM     82  C   UNL A   1      46.453  32.899  30.384  1.00  0.00     0.009 A 
ATOM     83  C   UNL A   1      45.933  35.090  28.739  1.00  0.00     0.001 A 
ATOM     84  C   UNL A   1      46.479  34.190  30.913  1.00  0.00     0.001 A 
ATOM     85  C   UNL A   1      46.229  35.284  30.087  1.00  0.00     0.000 A 
ENDBRANCH  67  80
ENDBRANCH  41  42
ENDBRANCH  33  36
ENDBRANCH  31  32
ENDBRANCH  30  31
ENDBRANCH  29  30
ENDBRANCH  28  29
ENDBRANCH   1  28
TORSDOF 19
ENDMDL
MODEL 2
REMARK VINA RESULT:     -10.2      2.656      4.279
REMARK SMILES [NH3+][C@@H](CCCCC(=O)NCCCCCCNC(=O)c1ccc(-c2c3nc(c(-c4ccccc4)c4ccc([nH]4)c(-c4ccccc4)c4nc(c(-c5ccccc5)c5ccc2[nH]5)C=C4)C=C3)cc1)c1ccc2[nH]c(=O)[nH]c2c1
REMARK SMILES IDX 11 1 10 2 9 3 7 4 8 5 6 7 5 8 4 9 3 10 2 11 1 12 67 16 68 17
REMARK SMILES IDX 76 18 69 19 75 20 70 21 74 22 71 23 72 24 73 27 12 28 13 29
REMARK SMILES IDX 14 30 15 31 16 32 17 33 18 35 19 36 20 37 66 38 21 39 65 40
REMARK SMILES IDX 22 41 23 42 24 43 59 44 25 45 64 46 58 47 60 48 26 49 63 50
REMARK SMILES IDX 57 51 56 52 27 54 49 55 34 56 48 57 35 58 38 59 47 60 61 61
REMARK SMILES IDX 36 62 37 63 46 65 62 66 39 67 28 68 29 69 33 70 30 71 32 72
REMARK SMILES IDX 31 73 50 74 51 75 55 76 52 77 54 78 53 79 40 80 41 81 45 82
REMARK SMILES IDX 42 83 44 84 43 85
REMARK H PARENT 9 6 1 13 1 14 1 15 74 25 71 26 16 34 60 53 38 64
REMARK Flexibility Score: inf
ROOT
ATOM      1  C   UNL A   1      39.397  22.504  26.226  1.00  0.00     0.021 C 
ENDROOT
BRANCH   1   2
ATOM      2  C   UNL A   1      37.980  22.060  25.872  1.00  0.00     0.116 C 
BRANCH   2   3
ATOM      3  N   UNL A   1      37.675  22.361  24.495  1.00  0.00    -0.356 N 
ATOM      4  C   UNL A   1      36.510  22.816  23.960  1.00  0.00     0.219 C 
ATOM      5  O   UNL A   1      36.444  22.961  22.739  1.00  0.00    -0.275 OA
ATOM      6  H   UNL A   1      38.410  22.220  23.856  1.00  0.00     0.163 HD
BRANCH   4   7
ATOM      7  C   UNL A   1      35.340  23.164  24.862  1.00  0.00     0.100 C 
BRANCH   7   8
ATOM      8  C   UNL A   1      35.107  24.664  25.060  1.00  0.00     0.010 C 
BRANCH   8   9
ATOM      9  C   UNL A   1      33.705  25.172  25.452  1.00  0.00     0.007 C 
BRANCH   9  10
ATOM     10  C   UNL A   1      32.776  24.284  26.308  1.00  0.00     0.070 C 
BRANCH  10  11
ATOM     11  C   UNL A   1      31.254  24.531  26.210  1.00  0.00     0.212 C 
BRANCH  11  12
ATOM     12  N   UNL A   1      30.586  23.432  25.511  1.00  0.00    -0.351 N 
ATOM     13  H   UNL A   1      30.832  22.547  25.955  1.00  0.00     0.345 HD
ATOM     14  H   UNL A   1      30.883  23.418  24.535  1.00  0.00     0.345 HD
ATOM     15  H   UNL A   1      29.576  23.566  25.557  1.00  0.00     0.345 HD
ENDBRANCH  11  12
BRANCH  11  16
ATOM     16  C   UNL A   1      30.982  25.907  25.633  1.00  0.00     0.011 A 
ATOM     17  C   UNL A   1      31.456  27.042  26.357  1.00  0.00     0.012 A 
ATOM     18  C   UNL A   1      30.409  26.083  24.361  1.00  0.00     0.038 A 
ATOM     19  C   UNL A   1      31.463  28.324  25.801  1.00  0.00     0.029 A 
ATOM     20  C   UNL A   1      30.425  27.354  23.840  1.00  0.00     0.067 A 
ATOM     21  C   UNL A   1      30.960  28.440  24.531  1.00  0.00     0.066 A 
ATOM     22  N   UNL A   1      30.013  27.802  22.592  1.00  0.00    -0.306 N 
ATOM     23  N   UNL A   1      30.895  29.550  23.699  1.00  0.00    -0.306 N 
ATOM     24  C   UNL A   1      30.305  29.168  22.487  1.00  0.00     0.323 A 
ATOM     25  H   UNL A   1      29.587  27.251  21.896  1.00  0.00     0.171 HD
ATOM     26  H   UNL A   1      31.212  30.455  23.924  1.00  0.00     0.171 HD
ATOM     27  O   UNL A   1      30.095  29.885  21.522  1.00  0.00    -0.248 OA
ENDBRANCH  11  16
ENDBRANCH  10  11
ENDBRANCH   9  10
ENDBRANCH   8   9
ENDBRANCH   7   8
ENDBRANCH   4   7
ENDBRANCH   2   3
ENDBRANCH   1   2
BRANCH   1  28
ATOM     28  C   UNL A   1      40.208  21.418  26.926  1.00  0.00     0.002 C 
BRANCH  28  29
ATOM     29  C   UNL A   1      41.531  21.082  26.230  1.00  0.00     0.002 C 
BRANCH  29  30
ATOM     30  C   UNL A   1      41.700  19.609  25.843  1.00  0.00     0.021 C 
BRANCH  30  31
ATOM     31  C   UNL A   1      43.025  18.996  26.286  1.00  0.00     0.116 C 
BRANCH  31  32
ATOM     32  N   UNL A   1      43.880  18.702  25.146  1.00  0.00    -0.352 N 
ATOM     33  C   UNL A   1      44.565  19.560  24.326  1.00  0.00     0.251 C 
ATOM     34  H   UNL A   1      43.983  17.747  24.934  1.00  0.00     0.163 HD
ATOM     35  O   UNL A   1      44.998  19.172  23.246  1.00  0.00    -0.269 OA
BRANCH  33  36
ATOM     36  C   UNL A   1      44.779  20.956  24.749  1.00  0.00     0.039 A 
ATOM     37  C   UNL A   1      44.328  21.993  23.930  1.00  0.00     0.014 A 
ATOM     38  C   UNL A   1      45.449  21.238  25.944  1.00  0.00     0.014 A 
ATOM     39  C   UNL A   1      44.507  23.316  24.335  1.00  0.00     0.010 A 
ATOM     40  C   UNL A   1      45.554  22.552  26.383  1.00  0.00     0.010 A 
ATOM     41  C   UNL A   1      45.095  23.604  25.579  1.00  0.00    -0.014 A 
BRANCH  41  42
ATOM     42  C   UNL A   1      45.237  25.002  26.052  1.00  0.00     0.031 A 
ATOM     43  C   UNL A   1      46.576  25.684  26.003  1.00  0.00     0.074 A 
ATOM     44  C   UNL A   1      44.172  25.634  26.581  1.00  0.00     0.049 A 
ATOM     45  N   UNL A   1      46.905  26.883  26.413  1.00  0.00    -0.248 NA
ATOM     46  C   UNL A   1      47.698  24.912  25.444  1.00  0.00     0.031 C 
ATOM     47  C   UNL A   1      42.831  25.062  26.720  1.00  0.00     0.029 A 
ATOM     48  N   UNL A   1      44.051  26.896  27.104  1.00  0.00    -0.354 N 
ATOM     49  C   UNL A   1      48.269  27.001  26.177  1.00  0.00     0.074 A 
ATOM     50  C   UNL A   1      48.717  25.736  25.639  1.00  0.00     0.031 C 
ATOM     51  C   UNL A   1      42.016  25.982  27.263  1.00  0.00     0.029 A 
ATOM     52  C   UNL A   1      42.786  27.188  27.552  1.00  0.00     0.049 A 
ATOM     53  H   UNL A   1      44.801  27.533  27.154  1.00  0.00     0.167 HD
ATOM     54  C   UNL A   1      49.073  28.073  26.375  1.00  0.00     0.031 A 
ATOM     55  C   UNL A   1      42.301  28.298  28.137  1.00  0.00     0.031 A 
ATOM     56  C   UNL A   1      48.622  29.332  26.905  1.00  0.00     0.049 A 
ATOM     57  C   UNL A   1      43.218  29.467  28.361  1.00  0.00     0.074 A 
ATOM     58  C   UNL A   1      49.346  30.497  27.087  1.00  0.00     0.029 A 
ATOM     59  N   UNL A   1      47.332  29.586  27.345  1.00  0.00    -0.354 N 
ATOM     60  N   UNL A   1      44.490  29.588  28.065  1.00  0.00    -0.248 NA
ATOM     61  C   UNL A   1      42.629  30.657  28.991  1.00  0.00     0.031 C 
ATOM     62  C   UNL A   1      48.510  31.438  27.699  1.00  0.00     0.029 A 
ATOM     63  C   UNL A   1      47.248  30.882  27.830  1.00  0.00     0.049 A 
ATOM     64  H   UNL A   1      46.587  28.944  27.317  1.00  0.00     0.167 HD
ATOM     65  C   UNL A   1      44.846  30.877  28.444  1.00  0.00     0.074 A 
ATOM     66  C   UNL A   1      43.651  31.501  28.974  1.00  0.00     0.031 C 
ATOM     67  C   UNL A   1      46.053  31.488  28.360  1.00  0.00     0.031 A 
BRANCH  54  68
ATOM     68  C   UNL A   1      50.530  27.923  26.028  1.00  0.00    -0.014 A 
ATOM     69  C   UNL A   1      51.009  28.216  24.741  1.00  0.00     0.009 A 
ATOM     70  C   UNL A   1      51.443  27.523  27.016  1.00  0.00     0.009 A 
ATOM     71  C   UNL A   1      52.366  28.074  24.442  1.00  0.00     0.001 A 
ATOM     72  C   UNL A   1      52.803  27.415  26.722  1.00  0.00     0.001 A 
ATOM     73  C   UNL A   1      53.263  27.680  25.434  1.00  0.00     0.000 A 
ENDBRANCH  54  68
BRANCH  55  74
ATOM     74  C   UNL A   1      40.872  28.360  28.545  1.00  0.00    -0.014 A 
ATOM     75  C   UNL A   1      39.910  28.925  27.694  1.00  0.00     0.009 A 
ATOM     76  C   UNL A   1      40.464  27.854  29.789  1.00  0.00     0.009 A 
ATOM     77  C   UNL A   1      38.573  29.008  28.094  1.00  0.00     0.001 A 
ATOM     78  C   UNL A   1      39.122  27.908  30.172  1.00  0.00     0.001 A 
ATOM     79  C   UNL A   1      38.180  28.495  29.329  1.00  0.00     0.000 A 
ENDBRANCH  55  74
BRANCH  67  80
ATOM     80  C   UNL A   1      46.135  32.918  28.817  1.00  0.00    -0.014 A 
ATOM     81  C   UNL A   1      45.870  33.984  27.942  1.00  0.00     0.009 A 
ATOM     82  C   UNL A   1      46.444  33.200  30.157  1.00  0.00     0.009 A 
ATOM     83  C   UNL A   1      45.948  35.303  28.394  1.00  0.00     0.001 A 
ATOM     84  C   UNL A   1      46.488  34.517  30.614  1.00  0.00     0.001 A 
ATOM     85  C   UNL A   1      46.250  35.568  29.729  1.00  0.00     0.000 A 
ENDBRANCH  67  80
ENDBRANCH  41  42
ENDBRANCH  33  36
ENDBRANCH  31  32
ENDBRANCH  30  31
ENDBRANCH  29  30
ENDBRANCH  28  29
ENDBRANCH   1  28
TORSDOF 19
ENDMDL
MODEL 3
REMARK VINA RESULT:     -10.2      5.984     11.562
REMARK SMILES [NH3+][C@@H](CCCCC(=O)NCCCCCCNC(=O)c1ccc(-c2c3nc(c(-c4ccccc4)c4ccc([nH]4)c(-c4ccccc4)c4nc(c(-c5ccccc5)c5ccc2[nH]5)C=C4)C=C3)cc1)c1ccc2[nH]c(=O)[nH]c2c1
REMARK SMILES IDX 11 1 10 2 9 3 7 4 8 5 6 7 5 8 4 9 3 10 2 11 1 12 67 16 68 17
REMARK SMILES IDX 76 18 69 19 75 20 70 21 74 22 71 23 72 24 73 27 12 28 13 29
REMARK SMILES IDX 14 30 15 31 16 32 17 33 18 35 19 36 20 37 66 38 21 39 65 40
REMARK SMILES IDX 22 41 23 42 24 43 59 44 25 45 64 46 58 47 60 48 26 49 63 50
REMARK SMILES IDX 57 51 56 52 27 54 49 55 34 56 48 57 35 58 38 59 47 60 61 61
REMARK SMILES IDX 36 62 37 63 46 65 62 66 39 67 28 68 29 69 33 70 30 71 32 72
REMARK SMILES IDX 31 73 50 74 51 75 55 76 52 77 54 78 53 79 40 80 41 81 45 82
REMARK SMILES IDX 42 83 44 84 43 85
REMARK H PARENT 9 6 1 13 1 14 1 15 74 25 71 26 16 34 60 53 38 64
REMARK Flexibility Score: inf
ROOT
ATOM      1  C   UNL A   1      36.844  32.568  32.847  1.00  0.00     0.021 C 
ENDROOT
BRANCH   1   2
ATOM      2  C   UNL A   1      37.710  31.322  33.018  1.00  0.00     0.116 C 
BRANCH   2   3
ATOM      3  N   UNL A   1      37.774  30.927  34.403  1.00  0.00    -0.356 N 
ATOM      4  C   UNL A   1      38.859  30.556  35.134  1.00  0.00     0.219 C 
ATOM      5  O   UNL A   1      38.686  30.201  36.300  1.00  0.00    -0.275 OA
ATOM      6  H   UNL A   1      36.916  30.925  34.885  1.00  0.00     0.163 HD
BRANCH   4   7
ATOM      7  C   UNL A   1      40.248  30.614  34.524  1.00  0.00     0.100 C 
BRANCH   7   8
ATOM      8  C   UNL A   1      41.112  29.377  34.777  1.00  0.00     0.010 C 
BRANCH   8   9
ATOM      9  C   UNL A   1      41.136  28.239  33.736  1.00  0.00     0.007 C 
BRANCH   9  10
ATOM     10  C   UNL A   1      42.440  27.453  33.484  1.00  0.00     0.070 C 
BRANCH  10  11
ATOM     11  C   UNL A   1      43.298  27.071  34.711  1.00  0.00     0.212 C 
BRANCH  11  12
ATOM     12  N   UNL A   1      44.409  28.008  34.890  1.00  0.00    -0.351 N 
ATOM     13  H   UNL A   1      45.249  27.492  35.153  1.00  0.00     0.345 HD
ATOM     14  H   UNL A   1      44.176  28.676  35.624  1.00  0.00     0.345 HD
ATOM     15  H   UNL A   1      44.576  28.507  34.016  1.00  0.00     0.345 HD
ENDBRANCH  11  12
BRANCH  11  16
ATOM     16  C   UNL A   1      43.707  25.613  34.632  1.00  0.00     0.011 A 
ATOM     17  C   UNL A   1      44.026  25.075  33.348  1.00  0.00     0.012 A 
ATOM     18  C   UNL A   1      43.908  24.831  35.783  1.00  0.00     0.038 A 
ATOM     19  C   UNL A   1      44.632  23.825  33.200  1.00  0.00     0.029 A 
ATOM     20  C   UNL A   1      44.502  23.604  35.608  1.00  0.00     0.067 A 
ATOM     21  C   UNL A   1      44.876  23.126  34.354  1.00  0.00     0.066 A 
ATOM     22  N   UNL A   1      44.895  22.670  36.557  1.00  0.00    -0.306 N 
ATOM     23  N   UNL A   1      45.517  21.907  34.535  1.00  0.00    -0.306 N 
ATOM     24  C   UNL A   1      45.534  21.608  35.904  1.00  0.00     0.323 A 
ATOM     25  H   UNL A   1      44.748  22.741  37.529  1.00  0.00     0.171 HD
ATOM     26  H   UNL A   1      45.896  21.346  33.820  1.00  0.00     0.171 HD
ATOM     27  O   UNL A   1      46.020  20.619  36.427  1.00  0.00    -0.248 OA
ENDBRANCH  11  16
ENDBRANCH  10  11
ENDBRANCH   9  10
ENDBRANCH   8   9
ENDBRANCH   7   8
ENDBRANCH   4   7
ENDBRANCH   2   3
ENDBRANCH   1   2
BRANCH   1  28
ATOM     28  C   UNL A   1      36.441  32.823  31.397  1.00  0.00     0.002 C 
BRANCH  28  29
ATOM     29  C   UNL A   1      34.965  32.542  31.102  1.00  0.00     0.002 C 
BRANCH  29  30
ATOM     30  C   UNL A   1      34.370  33.362  29.952  1.00  0.00     0.021 C 
BRANCH  30  31
ATOM     31  C   UNL A   1      34.756  32.860  28.564  1.00  0.00     0.116 C 
BRANCH  31  32
ATOM     32  N   UNL A   1      34.005  31.666  28.205  1.00  0.00    -0.352 N 
ATOM     33  C   UNL A   1      34.459  30.405  27.917  1.00  0.00     0.251 C 
ATOM     34  H   UNL A   1      33.029  31.780  28.164  1.00  0.00     0.163 HD
ATOM     35  O   UNL A   1      33.727  29.597  27.355  1.00  0.00    -0.269 OA
BRANCH  33  36
ATOM     36  C   UNL A   1      35.834  30.023  28.289  1.00  0.00     0.039 A 
ATOM     37  C   UNL A   1      36.079  29.530  29.571  1.00  0.00     0.014 A 
ATOM     38  C   UNL A   1      36.881  30.177  27.376  1.00  0.00     0.014 A 
ATOM     39  C   UNL A   1      37.373  29.145  29.923  1.00  0.00     0.010 A 
ATOM     40  C   UNL A   1      38.152  29.718  27.701  1.00  0.00     0.010 A 
ATOM     41  C   UNL A   1      38.413  29.208  28.980  1.00  0.00    -0.014 A 
BRANCH  41  42
ATOM     42  C   UNL A   1      39.781  28.745  29.318  1.00  0.00     0.031 A 
ATOM     43  C   UNL A   1      40.711  29.637  30.093  1.00  0.00     0.074 A 
ATOM     44  C   UNL A   1      40.203  27.547  28.873  1.00  0.00     0.049 A 
ATOM     45  N   UNL A   1      41.955  29.425  30.441  1.00  0.00    -0.248 NA
ATOM     46  C   UNL A   1      40.185  30.947  30.511  1.00  0.00     0.031 C 
ATOM     47  C   UNL A   1      39.407  26.609  28.078  1.00  0.00     0.029 A 
ATOM     48  N   UNL A   1      41.410  26.912  29.025  1.00  0.00    -0.354 N 
ATOM     49  C   UNL A   1      42.362  30.578  31.102  1.00  0.00     0.074 A 
ATOM     50  C   UNL A   1      41.254  31.505  31.059  1.00  0.00     0.031 C 
ATOM     51  C   UNL A   1      40.137  25.508  27.838  1.00  0.00     0.029 A 
ATOM     52  C   UNL A   1      41.464  25.680  28.421  1.00  0.00     0.049 A 
ATOM     53  H   UNL A   1      42.166  27.303  29.520  1.00  0.00     0.167 HD
ATOM     54  C   UNL A   1      43.548  30.834  31.704  1.00  0.00     0.031 A 
ATOM     55  C   UNL A   1      42.470  24.790  28.338  1.00  0.00     0.031 A 
ATOM     56  C   UNL A   1      44.647  29.906  31.750  1.00  0.00     0.049 A 
ATOM     57  C   UNL A   1      43.782  25.107  29.001  1.00  0.00     0.074 A 
ATOM     58  C   UNL A   1      45.867  30.048  32.386  1.00  0.00     0.029 A 
ATOM     59  N   UNL A   1      44.660  28.668  31.126  1.00  0.00    -0.354 N 
ATOM     60  N   UNL A   1      44.126  26.171  29.684  1.00  0.00    -0.248 NA
ATOM     61  C   UNL A   1      44.839  24.092  28.889  1.00  0.00     0.031 C 
ATOM     62  C   UNL A   1      46.644  28.923  32.094  1.00  0.00     0.029 A 
ATOM     63  C   UNL A   1      45.881  28.049  31.336  1.00  0.00     0.049 A 
ATOM     64  H   UNL A   1      43.913  28.285  30.611  1.00  0.00     0.167 HD
ATOM     65  C   UNL A   1      45.430  25.942  30.109  1.00  0.00     0.074 A 
ATOM     66  C   UNL A   1      45.804  24.630  29.622  1.00  0.00     0.031 C 
ATOM     67  C   UNL A   1      46.242  26.745  30.839  1.00  0.00     0.031 A 
BRANCH  54  68
ATOM     68  C   UNL A   1      43.722  32.181  32.353  1.00  0.00    -0.014 A 
ATOM     69  C   UNL A   1      43.918  33.342  31.588  1.00  0.00     0.009 A 
ATOM     70  C   UNL A   1      43.648  32.295  33.750  1.00  0.00     0.009 A 
ATOM     71  C   UNL A   1      44.074  34.582  32.211  1.00  0.00     0.001 A 
ATOM     72  C   UNL A   1      43.770  33.541  34.368  1.00  0.00     0.001 A 
ATOM     73  C   UNL A   1      43.993  34.682  33.599  1.00  0.00     0.000 A 
ENDBRANCH  54  68
BRANCH  55  74
ATOM     74  C   UNL A   1      42.274  23.511  27.605  1.00  0.00    -0.014 A 
ATOM     75  C   UNL A   1      42.652  23.394  26.259  1.00  0.00     0.009 A 
ATOM     76  C   UNL A   1      41.708  22.400  28.250  1.00  0.00     0.009 A 
ATOM     77  C   UNL A   1      42.439  22.199  25.566  1.00  0.00     0.001 A 
ATOM     78  C   UNL A   1      41.527  21.198  27.564  1.00  0.00     0.001 A 
ATOM     79  C   UNL A   1      41.883  21.101  26.220  1.00  0.00     0.000 A 
ENDBRANCH  55  74
BRANCH  67  80
ATOM     80  C   UNL A   1      47.604  26.214  31.188  1.00  0.00    -0.014 A 
ATOM     81  C   UNL A   1      47.861  25.613  32.431  1.00  0.00     0.009 A 
ATOM     82  C   UNL A   1      48.637  26.279  30.239  1.00  0.00     0.009 A 
ATOM     83  C   UNL A   1      49.135  25.123  32.727  1.00  0.00     0.001 A 
ATOM     84  C   UNL A   1      49.899  25.758  30.525  1.00  0.00     0.001 A 
ATOM     85  C   UNL A   1      50.149  25.190  31.773  1.00  0.00     0.000 A 
ENDBRANCH  67  80
ENDBRANCH  41  42
ENDBRANCH  33  36
ENDBRANCH  31  32
ENDBRANCH  30  31
ENDBRANCH  29  30
ENDBRANCH  28  29
ENDBRANCH   1  28
TORSDOF 19
ENDMDL
