MODEL 1
REMARK VINA RESULT:     -10.6      0.000      0.000
REMARK SMILES CCOc1cc(OCC)cc(-c2ccc([C@@H](C)C(=O)NCCCCCCNC(=O)c3ccc(-c4c5nc(c(-c6ccccc6)c6ccc([nH]6)c(-c6ccccc6)c6nc(c(-c7ccccc7)c7ccc4[nH]7)C=C6)C=C5)cc3)cc2F)c1
REMARK SMILES IDX 22 1 21 2 20 3 18 4 19 5 16 7 17 8 15 9 12 10 13 11 79 12
REMARK SMILES IDX 14 13 78 14 80 15 11 16 4 17 5 18 81 19 6 20 10 21 3 22 2 23
REMARK SMILES IDX 1 24 7 25 8 26 9 27 23 28 24 29 25 30 26 31 27 32 28 33
REMARK SMILES IDX 29 35 30 36 31 37 77 38 32 39 76 40 33 41 34 42 35 43 70 44
REMARK SMILES IDX 36 45 75 46 69 47 71 48 37 49 74 50 68 51 67 52 38 54 60 55
REMARK SMILES IDX 45 56 59 57 46 58 49 59 58 60 72 61 47 62 48 63 57 65 73 66
REMARK SMILES IDX 50 67 39 68 40 69 44 70 41 71 43 72 42 73 61 74 62 75 66 76
REMARK SMILES IDX 63 77 65 78 64 79 51 80 52 81 56 82 53 83 55 84 54 85
REMARK H PARENT 20 6 27 34 71 53 49 64
REMARK Flexibility Score: inf
ROOT
ATOM      1  C   UNL A   1      35.593  21.613  25.771  1.00  0.00     0.021 C 
ENDROOT
BRANCH   1   2
ATOM      2  C   UNL A   1      35.215  20.476  24.819  1.00  0.00     0.116 C 
BRANCH   2   3
ATOM      3  N   UNL A   1      34.320  19.523  25.441  1.00  0.00    -0.356 N 
ATOM      4  C   UNL A   1      33.017  19.208  25.204  1.00  0.00     0.227 C 
ATOM      5  O   UNL A   1      32.504  18.386  25.973  1.00  0.00    -0.274 OA
ATOM      6  H   UNL A   1      34.729  19.008  26.173  1.00  0.00     0.163 HD
BRANCH   4   7
ATOM      7  C   UNL A   1      32.183  19.805  24.060  1.00  0.00     0.105 C 
ATOM      8  C   UNL A   1      32.406  19.139  22.702  1.00  0.00     0.023 C 
BRANCH   7   9
ATOM      9  C   UNL A   1      32.173  21.324  24.053  1.00  0.00    -0.033 A 
ATOM     10  C   UNL A   1      32.051  24.178  23.905  1.00  0.00     0.018 A 
ATOM     11  C   UNL A   1      31.602  23.472  25.034  1.00  0.00     0.012 A 
ATOM     12  C   UNL A   1      32.585  23.411  22.862  1.00  0.00     0.131 A 
ATOM     13  C   UNL A   1      31.696  22.081  25.123  1.00  0.00     0.005 A 
ATOM     14  C   UNL A   1      32.628  22.014  22.919  1.00  0.00     0.044 A 
ATOM     15  F   UNL A   1      33.079  23.999  21.761  1.00  0.00    -0.206 F 
BRANCH  10  16
ATOM     16  C   UNL A   1      31.919  25.653  23.853  1.00  0.00    -0.008 A 
ATOM     17  C   UNL A   1      32.646  27.887  24.493  1.00  0.00     0.123 A 
ATOM     18  C   UNL A   1      31.755  28.458  23.586  1.00  0.00     0.092 A 
ATOM     19  C   UNL A   1      32.715  26.501  24.634  1.00  0.00     0.055 A 
ATOM     20  C   UNL A   1      30.928  27.644  22.813  1.00  0.00     0.123 A 
ATOM     21  C   UNL A   1      31.006  26.259  22.968  1.00  0.00     0.055 A 
BRANCH  17  22
ATOM     22  O   UNL A   1      33.350  28.720  25.319  1.00  0.00    -0.494 OA
BRANCH  22  23
ATOM     23  C   UNL A   1      33.396  28.283  26.683  1.00  0.00     0.226 C 
ATOM     24  C   UNL A   1      32.077  28.509  27.405  1.00  0.00     0.049 C 
ENDBRANCH  22  23
ENDBRANCH  17  22
BRANCH  20  25
ATOM     25  O   UNL A   1      30.111  28.293  21.927  1.00  0.00    -0.494 OA
BRANCH  25  26
ATOM     26  C   UNL A   1      29.498  29.516  22.344  1.00  0.00     0.226 C 
ATOM     27  C   UNL A   1      27.999  29.353  22.552  1.00  0.00     0.049 C 
ENDBRANCH  25  26
ENDBRANCH  20  25
ENDBRANCH  10  16
ENDBRANCH   7   9
ENDBRANCH   4   7
ENDBRANCH   2   3
ENDBRANCH   1   2
BRANCH   1  28
ATOM     28  C   UNL A   1      36.694  22.535  25.235  1.00  0.00     0.002 C 
BRANCH  28  29
ATOM     29  C   UNL A   1      38.106  22.237  25.755  1.00  0.00     0.002 C 
BRANCH  29  30
ATOM     30  C   UNL A   1      38.787  21.001  25.157  1.00  0.00     0.021 C 
BRANCH  30  31
ATOM     31  C   UNL A   1      39.104  19.888  26.157  1.00  0.00     0.116 C 
BRANCH  31  32
ATOM     32  N   UNL A   1      40.365  19.231  25.857  1.00  0.00    -0.352 N 
ATOM     33  C   UNL A   1      41.646  19.721  25.866  1.00  0.00     0.251 C 
ATOM     34  H   UNL A   1      40.288  18.281  25.607  1.00  0.00     0.163 HD
ATOM     35  O   UNL A   1      42.552  19.061  25.366  1.00  0.00    -0.269 OA
BRANCH  33  36
ATOM     36  C   UNL A   1      41.951  21.039  26.467  1.00  0.00     0.039 A 
ATOM     37  C   UNL A   1      42.344  22.082  25.622  1.00  0.00     0.014 A 
ATOM     38  C   UNL A   1      41.915  21.238  27.850  1.00  0.00     0.014 A 
ATOM     39  C   UNL A   1      42.653  23.334  26.159  1.00  0.00     0.010 A 
ATOM     40  C   UNL A   1      42.165  22.505  28.379  1.00  0.00     0.010 A 
ATOM     41  C   UNL A   1      42.542  23.563  27.540  1.00  0.00    -0.014 A 
BRANCH  41  42
ATOM     42  C   UNL A   1      42.809  24.909  28.108  1.00  0.00     0.031 A 
ATOM     43  C   UNL A   1      44.198  25.307  28.523  1.00  0.00     0.074 A 
ATOM     44  C   UNL A   1      41.783  25.764  28.284  1.00  0.00     0.049 A 
ATOM     45  N   UNL A   1      44.612  26.441  29.032  1.00  0.00    -0.248 NA
ATOM     46  C   UNL A   1      45.256  24.296  28.369  1.00  0.00     0.031 C 
ATOM     47  C   UNL A   1      40.382  25.484  27.966  1.00  0.00     0.029 A 
ATOM     48  N   UNL A   1      41.763  27.047  28.775  1.00  0.00    -0.354 N 
ATOM     49  C   UNL A   1      45.972  26.275  29.269  1.00  0.00     0.074 A 
ATOM     50  C   UNL A   1      46.303  24.919  28.891  1.00  0.00     0.031 C 
ATOM     51  C   UNL A   1      39.644  26.571  28.241  1.00  0.00     0.029 A 
ATOM     52  C   UNL A   1      40.512  27.612  28.781  1.00  0.00     0.049 A 
ATOM     53  H   UNL A   1      42.568  27.515  29.093  1.00  0.00     0.167 HD
ATOM     54  C   UNL A   1      46.866  27.176  29.742  1.00  0.00     0.031 A 
ATOM     55  C   UNL A   1      40.106  28.834  29.174  1.00  0.00     0.031 A 
ATOM     56  C   UNL A   1      46.542  28.529  30.107  1.00  0.00     0.049 A 
ATOM     57  C   UNL A   1      41.119  29.816  29.686  1.00  0.00     0.074 A 
ATOM     58  C   UNL A   1      47.392  29.535  30.534  1.00  0.00     0.029 A 
ATOM     59  N   UNL A   1      45.264  29.066  30.092  1.00  0.00    -0.354 N 
ATOM     60  N   UNL A   1      42.415  29.668  29.830  1.00  0.00    -0.248 NA
ATOM     61  C   UNL A   1      40.616  31.141  30.078  1.00  0.00     0.031 C 
ATOM     62  C   UNL A   1      46.621  30.667  30.823  1.00  0.00     0.029 A 
ATOM     63  C   UNL A   1      45.299  30.380  30.526  1.00  0.00     0.049 A 
ATOM     64  H   UNL A   1      44.452  28.583  29.813  1.00  0.00     0.167 HD
ATOM     65  C   UNL A   1      42.883  30.885  30.308  1.00  0.00     0.074 A 
ATOM     66  C   UNL A   1      41.738  31.766  30.409  1.00  0.00     0.031 C 
ATOM     67  C   UNL A   1      44.150  31.240  30.633  1.00  0.00     0.031 A 
BRANCH  54  68
ATOM     68  C   UNL A   1      48.291  26.721  29.896  1.00  0.00    -0.014 A 
ATOM     69  C   UNL A   1      48.747  26.156  31.097  1.00  0.00     0.009 A 
ATOM     70  C   UNL A   1      49.177  26.817  28.812  1.00  0.00     0.009 A 
ATOM     71  C   UNL A   1      50.071  25.729  31.221  1.00  0.00     0.001 A 
ATOM     72  C   UNL A   1      50.493  26.365  28.930  1.00  0.00     0.001 A 
ATOM     73  C   UNL A   1      50.942  25.831  30.137  1.00  0.00     0.000 A 
ENDBRANCH  54  68
BRANCH  55  74
ATOM     74  C   UNL A   1      38.671  29.207  29.075  1.00  0.00    -0.014 A 
ATOM     75  C   UNL A   1      38.156  29.740  27.883  1.00  0.00     0.009 A 
ATOM     76  C   UNL A   1      37.812  29.033  30.170  1.00  0.00     0.009 A 
ATOM     77  C   UNL A   1      36.814  30.113  27.799  1.00  0.00     0.001 A 
ATOM     78  C   UNL A   1      36.464  29.383  30.073  1.00  0.00     0.001 A 
ATOM     79  C   UNL A   1      35.968  29.931  28.892  1.00  0.00     0.000 A 
ENDBRANCH  55  74
BRANCH  67  80
ATOM     80  C   UNL A   1      44.360  32.648  31.111  1.00  0.00    -0.014 A 
ATOM     81  C   UNL A   1      44.480  33.713  30.205  1.00  0.00     0.009 A 
ATOM     82  C   UNL A   1      44.414  32.915  32.488  1.00  0.00     0.009 A 
ATOM     83  C   UNL A   1      44.686  35.014  30.669  1.00  0.00     0.001 A 
ATOM     84  C   UNL A   1      44.592  34.220  32.949  1.00  0.00     0.001 A 
ATOM     85  C   UNL A   1      44.738  35.267  32.039  1.00  0.00     0.000 A 
ENDBRANCH  67  80
ENDBRANCH  41  42
ENDBRANCH  33  36
ENDBRANCH  31  32
ENDBRANCH  30  31
ENDBRANCH  29  30
ENDBRANCH  28  29
ENDBRANCH   1  28
TORSDOF 19
ENDMDL
MODEL 2
REMARK VINA RESULT:     -10.5      3.503      9.229
REMARK SMILES CCOc1cc(OCC)cc(-c2ccc([C@@H](C)C(=O)NCCCCCCNC(=O)c3ccc(-c4c5nc(c(-c6ccccc6)c6ccc([nH]6)c(-c6ccccc6)c6nc(c(-c7ccccc7)c7ccc4[nH]7)C=C6)C=C5)cc3)cc2F)c1
REMARK SMILES IDX 22 1 21 2 20 3 18 4 19 5 16 7 17 8 15 9 12 10 13 11 79 12
REMARK SMILES IDX 14 13 78 14 80 15 11 16 4 17 5 18 81 19 6 20 10 21 3 22 2 23
REMARK SMILES IDX 1 24 7 25 8 26 9 27 23 28 24 29 25 30 26 31 27 32 28 33
REMARK SMILES IDX 29 35 30 36 31 37 77 38 32 39 76 40 33 41 34 42 35 43 70 44
REMARK SMILES IDX 36 45 75 46 69 47 71 48 37 49 74 50 68 51 67 52 38 54 60 55
REMARK SMILES IDX 45 56 59 57 46 58 49 59 58 60 72 61 47 62 48 63 57 65 73 66
REMARK SMILES IDX 50 67 39 68 40 69 44 70 41 71 43 72 42 73 61 74 62 75 66 76
REMARK SMILES IDX 63 77 65 78 64 79 51 80 52 81 56 82 53 83 55 84 54 85
REMARK H PARENT 20 6 27 34 71 53 49 64
REMARK Flexibility Score: inf
ROOT
ATOM      1  C   UNL A   1      34.835  29.355  26.885  1.00  0.00     0.021 C 
ENDROOT
BRANCH   1   2
ATOM      2  C   UNL A   1      33.914  28.450  26.063  1.00  0.00     0.116 C 
BRANCH   2   3
ATOM      3  N   UNL A   1      33.717  28.955  24.720  1.00  0.00    -0.356 N 
ATOM      4  C   UNL A   1      32.995  28.485  23.667  1.00  0.00     0.227 C 
ATOM      5  O   UNL A   1      33.093  29.119  22.609  1.00  0.00    -0.274 OA
ATOM      6  H   UNL A   1      34.196  29.795  24.534  1.00  0.00     0.163 HD
BRANCH   4   7
ATOM      7  C   UNL A   1      32.092  27.244  23.730  1.00  0.00     0.105 C 
ATOM      8  C   UNL A   1      30.842  27.415  24.594  1.00  0.00     0.023 C 
BRANCH   7   9
ATOM      9  C   UNL A   1      32.861  25.950  23.938  1.00  0.00    -0.033 A 
ATOM     10  C   UNL A   1      34.163  23.439  24.366  1.00  0.00     0.018 A 
ATOM     11  C   UNL A   1      34.198  24.093  23.122  1.00  0.00     0.012 A 
ATOM     12  C   UNL A   1      33.475  24.095  25.395  1.00  0.00     0.131 A 
ATOM     13  C   UNL A   1      33.595  25.337  22.923  1.00  0.00     0.005 A 
ATOM     14  C   UNL A   1      32.819  25.312  25.186  1.00  0.00     0.044 A 
ATOM     15  F   UNL A   1      33.423  23.569  26.629  1.00  0.00    -0.206 F 
BRANCH  10  16
ATOM     16  C   UNL A   1      34.807  22.115  24.526  1.00  0.00    -0.008 A 
ATOM     17  C   UNL A   1      36.757  20.729  24.979  1.00  0.00     0.123 A 
ATOM     18  C   UNL A   1      35.962  19.584  25.003  1.00  0.00     0.092 A 
ATOM     19  C   UNL A   1      36.187  21.977  24.729  1.00  0.00     0.055 A 
ATOM     20  C   UNL A   1      34.590  19.682  24.777  1.00  0.00     0.123 A 
ATOM     21  C   UNL A   1      34.034  20.937  24.524  1.00  0.00     0.055 A 
BRANCH  17  22
ATOM     22  O   UNL A   1      38.113  20.576  25.083  1.00  0.00    -0.494 OA
BRANCH  22  23
ATOM     23  C   UNL A   1      38.773  21.673  25.727  1.00  0.00     0.226 C 
ATOM     24  C   UNL A   1      40.036  21.238  26.455  1.00  0.00     0.049 C 
ENDBRANCH  22  23
ENDBRANCH  17  22
BRANCH  20  25
ATOM     25  O   UNL A   1      33.887  18.510  24.853  1.00  0.00    -0.494 OA
BRANCH  25  26
ATOM     26  C   UNL A   1      33.232  18.036  23.673  1.00  0.00     0.226 C 
ATOM     27  C   UNL A   1      33.996  16.889  23.026  1.00  0.00     0.049 C 
ENDBRANCH  25  26
ENDBRANCH  20  25
ENDBRANCH  10  16
ENDBRANCH   7   9
ENDBRANCH   4   7
ENDBRANCH   2   3
ENDBRANCH   1   2
BRANCH   1  28
ATOM     28  C   UNL A   1      34.131  30.574  27.492  1.00  0.00     0.002 C 
BRANCH  28  29
ATOM     29  C   UNL A   1      32.605  30.596  27.329  1.00  0.00     0.002 C 
BRANCH  29  30
ATOM     30  C   UNL A   1      31.965  31.986  27.249  1.00  0.00     0.021 C 
BRANCH  30  31
ATOM     31  C   UNL A   1      32.940  33.135  26.990  1.00  0.00     0.116 C 
BRANCH  31  32
ATOM     32  N   UNL A   1      32.695  34.265  27.869  1.00  0.00    -0.352 N 
ATOM     33  C   UNL A   1      33.274  34.601  29.066  1.00  0.00     0.251 C 
ATOM     34  H   UNL A   1      32.001  34.890  27.556  1.00  0.00     0.163 HD
ATOM     35  O   UNL A   1      32.768  35.478  29.759  1.00  0.00    -0.269 OA
BRANCH  33  36
ATOM     36  C   UNL A   1      34.499  33.916  29.536  1.00  0.00     0.039 A 
ATOM     37  C   UNL A   1      35.723  34.265  28.957  1.00  0.00     0.014 A 
ATOM     38  C   UNL A   1      34.445  32.896  30.491  1.00  0.00     0.014 A 
ATOM     39  C   UNL A   1      36.895  33.626  29.367  1.00  0.00     0.010 A 
ATOM     40  C   UNL A   1      35.624  32.302  30.944  1.00  0.00     0.010 A 
ATOM     41  C   UNL A   1      36.859  32.657  30.382  1.00  0.00    -0.014 A 
BRANCH  41  42
ATOM     42  C   UNL A   1      38.110  32.021  30.867  1.00  0.00     0.031 A 
ATOM     43  C   UNL A   1      38.652  30.785  30.203  1.00  0.00     0.074 A 
ATOM     44  C   UNL A   1      38.742  32.541  31.936  1.00  0.00     0.049 A 
ATOM     45  N   UNL A   1      39.731  30.102  30.491  1.00  0.00    -0.248 NA
ATOM     46  C   UNL A   1      37.870  30.231  29.087  1.00  0.00     0.031 C 
ATOM     47  C   UNL A   1      38.296  33.709  32.699  1.00  0.00     0.029 A 
ATOM     48  N   UNL A   1      39.898  32.154  32.568  1.00  0.00    -0.354 N 
ATOM     49  C   UNL A   1      39.752  29.034  29.602  1.00  0.00     0.074 A 
ATOM     50  C   UNL A   1      38.555  29.134  28.796  1.00  0.00     0.031 C 
ATOM     51  C   UNL A   1      39.183  33.961  33.675  1.00  0.00     0.029 A 
ATOM     52  C   UNL A   1      40.241  32.958  33.627  1.00  0.00     0.049 A 
ATOM     53  H   UNL A   1      40.429  31.374  32.289  1.00  0.00     0.167 HD
ATOM     54  C   UNL A   1      40.690  28.068  29.458  1.00  0.00     0.031 A 
ATOM     55  C   UNL A   1      41.293  32.899  34.465  1.00  0.00     0.031 A 
ATOM     56  C   UNL A   1      41.887  27.972  30.250  1.00  0.00     0.049 A 
ATOM     57  C   UNL A   1      42.323  31.822  34.279  1.00  0.00     0.074 A 
ATOM     58  C   UNL A   1      42.928  27.067  30.136  1.00  0.00     0.029 A 
ATOM     59  N   UNL A   1      42.202  28.810  31.308  1.00  0.00    -0.354 N 
ATOM     60  N   UNL A   1      42.366  30.866  33.382  1.00  0.00    -0.248 NA
ATOM     61  C   UNL A   1      43.459  31.825  35.212  1.00  0.00     0.031 C 
ATOM     62  C   UNL A   1      43.851  27.329  31.155  1.00  0.00     0.029 A 
ATOM     63  C   UNL A   1      43.408  28.428  31.871  1.00  0.00     0.049 A 
ATOM     64  H   UNL A   1      41.649  29.566  31.615  1.00  0.00     0.167 HD
ATOM     65  C   UNL A   1      43.541  30.169  33.630  1.00  0.00     0.074 A 
ATOM     66  C   UNL A   1      44.191  30.823  34.746  1.00  0.00     0.031 C 
ATOM     67  C   UNL A   1      44.037  29.082  32.988  1.00  0.00     0.031 A 
BRANCH  54  68
ATOM     68  C   UNL A   1      40.454  27.026  28.400  1.00  0.00    -0.014 A 
ATOM     69  C   UNL A   1      39.670  25.891  28.660  1.00  0.00     0.009 A 
ATOM     70  C   UNL A   1      40.986  27.203  27.113  1.00  0.00     0.009 A 
ATOM     71  C   UNL A   1      39.453  24.937  27.663  1.00  0.00     0.001 A 
ATOM     72  C   UNL A   1      40.745  26.261  26.111  1.00  0.00     0.001 A 
ATOM     73  C   UNL A   1      39.988  25.125  26.389  1.00  0.00     0.000 A 
ENDBRANCH  54  68
BRANCH  55  74
ATOM     74  C   UNL A   1      41.438  33.907  35.546  1.00  0.00    -0.014 A 
ATOM     75  C   UNL A   1      40.858  33.688  36.805  1.00  0.00     0.009 A 
ATOM     76  C   UNL A   1      42.153  35.093  35.324  1.00  0.00     0.009 A 
ATOM     77  C   UNL A   1      40.974  34.647  37.813  1.00  0.00     0.001 A 
ATOM     78  C   UNL A   1      42.289  36.039  36.342  1.00  0.00     0.001 A 
ATOM     79  C   UNL A   1      41.692  35.820  37.582  1.00  0.00     0.000 A 
ENDBRANCH  55  74
BRANCH  67  80
ATOM     80  C   UNL A   1      45.354  28.549  33.472  1.00  0.00    -0.014 A 
ATOM     81  C   UNL A   1      46.567  29.059  32.985  1.00  0.00     0.009 A 
ATOM     82  C   UNL A   1      45.382  27.540  34.447  1.00  0.00     0.009 A 
ATOM     83  C   UNL A   1      47.783  28.543  33.439  1.00  0.00     0.001 A 
ATOM     84  C   UNL A   1      46.599  27.045  34.919  1.00  0.00     0.001 A 
ATOM     85  C   UNL A   1      47.797  27.541  34.408  1.00  0.00     0.000 A 
ENDBRANCH  67  80
ENDBRANCH  41  42
ENDBRANCH  33  36
ENDBRANCH  31  32
ENDBRANCH  30  31
ENDBRANCH  29  30
ENDBRANCH  28  29
ENDBRANCH   1  28
TORSDOF 19
ENDMDL
MODEL 3
REMARK VINA RESULT:     -10.4      3.202      9.173
REMARK SMILES CCOc1cc(OCC)cc(-c2ccc([C@@H](C)C(=O)NCCCCCCNC(=O)c3ccc(-c4c5nc(c(-c6ccccc6)c6ccc([nH]6)c(-c6ccccc6)c6nc(c(-c7ccccc7)c7ccc4[nH]7)C=C6)C=C5)cc3)cc2F)c1
REMARK SMILES IDX 22 1 21 2 20 3 18 4 19 5 16 7 17 8 15 9 12 10 13 11 79 12
REMARK SMILES IDX 14 13 78 14 80 15 11 16 4 17 5 18 81 19 6 20 10 21 3 22 2 23
REMARK SMILES IDX 1 24 7 25 8 26 9 27 23 28 24 29 25 30 26 31 27 32 28 33
REMARK SMILES IDX 29 35 30 36 31 37 77 38 32 39 76 40 33 41 34 42 35 43 70 44
REMARK SMILES IDX 36 45 75 46 69 47 71 48 37 49 74 50 68 51 67 52 38 54 60 55
REMARK SMILES IDX 45 56 59 57 46 58 49 59 58 60 72 61 47 62 48 63 57 65 73 66
REMARK SMILES IDX 50 67 39 68 40 69 44 70 41 71 43 72 42 73 61 74 62 75 66 76
REMARK SMILES IDX 63 77 65 78 64 79 51 80 52 81 56 82 53 83 55 84 54 85
REMARK H PARENT 20 6 27 34 71 53 49 64
REMARK Flexibility Score: inf
ROOT
ATOM      1  C   UNL A   1      34.426  29.036  26.785  1.00  0.00     0.021 C 
ENDROOT
BRANCH   1   2
ATOM      2  C   UNL A   1      33.508  28.247  25.849  1.00  0.00     0.116 C 
BRANCH   2   3
ATOM      3  N   UNL A   1      33.446  28.837  24.528  1.00  0.00    -0.356 N 
ATOM      4  C   UNL A   1      32.829  28.441  23.381  1.00  0.00     0.227 C 
ATOM      5  O   UNL A   1      33.033  29.138  22.380  1.00  0.00    -0.274 OA
ATOM      6  H   UNL A   1      33.944  29.681  24.443  1.00  0.00     0.163 HD
BRANCH   4   7
ATOM      7  C   UNL A   1      31.919  27.207  23.277  1.00  0.00     0.105 C 
ATOM      8  C   UNL A   1      30.547  27.377  23.930  1.00  0.00     0.023 C 
BRANCH   7   9
ATOM      9  C   UNL A   1      32.636  25.903  23.585  1.00  0.00    -0.033 A 
ATOM     10  C   UNL A   1      33.838  23.368  24.144  1.00  0.00     0.018 A 
ATOM     11  C   UNL A   1      34.240  24.158  23.053  1.00  0.00     0.012 A 
ATOM     12  C   UNL A   1      32.831  23.900  24.960  1.00  0.00     0.131 A 
ATOM     13  C   UNL A   1      33.681  25.413  22.801  1.00  0.00     0.005 A 
ATOM     14  C   UNL A   1      32.225  25.129  24.680  1.00  0.00     0.044 A 
ATOM     15  F   UNL A   1      32.411  23.239  26.050  1.00  0.00    -0.206 F 
BRANCH  10  16
ATOM     16  C   UNL A   1      34.453  22.039  24.364  1.00  0.00    -0.008 A 
ATOM     17  C   UNL A   1      36.359  20.634  24.933  1.00  0.00     0.123 A 
ATOM     18  C   UNL A   1      35.545  19.503  24.952  1.00  0.00     0.092 A 
ATOM     19  C   UNL A   1      35.821  21.884  24.628  1.00  0.00     0.055 A 
ATOM     20  C   UNL A   1      34.185  19.617  24.665  1.00  0.00     0.123 A 
ATOM     21  C   UNL A   1      33.661  20.874  24.358  1.00  0.00     0.055 A 
BRANCH  17  22
ATOM     22  O   UNL A   1      37.706  20.463  25.099  1.00  0.00    -0.494 OA
BRANCH  22  23
ATOM     23  C   UNL A   1      38.377  21.613  25.630  1.00  0.00     0.226 C 
ATOM     24  C   UNL A   1      39.782  21.288  26.113  1.00  0.00     0.049 C 
ENDBRANCH  22  23
ENDBRANCH  17  22
BRANCH  20  25
ATOM     25  O   UNL A   1      33.460  18.458  24.740  1.00  0.00    -0.494 OA
BRANCH  25  26
ATOM     26  C   UNL A   1      34.126  17.224  24.461  1.00  0.00     0.226 C 
ATOM     27  C   UNL A   1      34.011  16.840  22.993  1.00  0.00     0.049 C 
ENDBRANCH  25  26
ENDBRANCH  20  25
ENDBRANCH  10  16
ENDBRANCH   7   9
ENDBRANCH   4   7
ENDBRANCH   2   3
ENDBRANCH   1   2
BRANCH   1  28
ATOM     28  C   UNL A   1      33.770  30.278  27.400  1.00  0.00     0.002 C 
BRANCH  28  29
ATOM     29  C   UNL A   1      32.244  30.347  27.263  1.00  0.00     0.002 C 
BRANCH  29  30
ATOM     30  C   UNL A   1      31.664  31.738  26.983  1.00  0.00     0.021 C 
BRANCH  30  31
ATOM     31  C   UNL A   1      32.699  32.848  26.804  1.00  0.00     0.116 C 
BRANCH  31  32
ATOM     32  N   UNL A   1      32.428  33.988  27.663  1.00  0.00    -0.352 N 
ATOM     33  C   UNL A   1      33.071  34.420  28.794  1.00  0.00     0.251 C 
ATOM     34  H   UNL A   1      31.660  34.540  27.388  1.00  0.00     0.163 HD
ATOM     35  O   UNL A   1      32.549  35.279  29.498  1.00  0.00    -0.269 OA
BRANCH  33  36
ATOM     36  C   UNL A   1      34.385  33.860  29.183  1.00  0.00     0.039 A 
ATOM     37  C   UNL A   1      34.421  32.856  30.155  1.00  0.00     0.014 A 
ATOM     38  C   UNL A   1      35.578  34.356  28.648  1.00  0.00     0.014 A 
ATOM     39  C   UNL A   1      35.646  32.317  30.555  1.00  0.00     0.010 A 
ATOM     40  C   UNL A   1      36.796  33.775  29.002  1.00  0.00     0.010 A 
ATOM     41  C   UNL A   1      36.842  32.755  29.964  1.00  0.00    -0.014 A 
BRANCH  41  42
ATOM     42  C   UNL A   1      38.141  32.140  30.339  1.00  0.00     0.031 A 
ATOM     43  C   UNL A   1      39.055  32.816  31.324  1.00  0.00     0.074 A 
ATOM     44  C   UNL A   1      38.515  30.983  29.760  1.00  0.00     0.049 A 
ATOM     45  N   UNL A   1      40.222  32.421  31.769  1.00  0.00    -0.248 NA
ATOM     46  C   UNL A   1      38.615  34.112  31.861  1.00  0.00     0.031 C 
ATOM     47  C   UNL A   1      37.742  30.251  28.755  1.00  0.00     0.029 A 
ATOM     48  N   UNL A   1      39.642  30.219  29.933  1.00  0.00    -0.354 N 
ATOM     49  C   UNL A   1      40.658  33.423  32.628  1.00  0.00     0.074 A 
ATOM     50  C   UNL A   1      39.654  34.464  32.605  1.00  0.00     0.031 C 
ATOM     51  C   UNL A   1      38.402  29.130  28.425  1.00  0.00     0.029 A 
ATOM     52  C   UNL A   1      39.656  29.079  29.169  1.00  0.00     0.049 A 
ATOM     53  H   UNL A   1      40.372  30.466  30.547  1.00  0.00     0.167 HD
ATOM     54  C   UNL A   1      41.785  33.465  33.379  1.00  0.00     0.031 A 
ATOM     55  C   UNL A   1      40.573  28.097  29.079  1.00  0.00     0.031 A 
ATOM     56  C   UNL A   1      42.779  32.427  33.412  1.00  0.00     0.049 A 
ATOM     57  C   UNL A   1      41.809  28.164  29.929  1.00  0.00     0.074 A 
ATOM     58  C   UNL A   1      43.922  32.350  34.190  1.00  0.00     0.029 A 
ATOM     59  N   UNL A   1      42.753  31.284  32.629  1.00  0.00    -0.354 N 
ATOM     60  N   UNL A   1      42.168  29.083  30.794  1.00  0.00    -0.248 NA
ATOM     61  C   UNL A   1      42.760  27.051  29.801  1.00  0.00     0.031 C 
ATOM     62  C   UNL A   1      44.611  31.182  33.844  1.00  0.00     0.029 A 
ATOM     63  C   UNL A   1      43.871  30.508  32.887  1.00  0.00     0.049 A 
ATOM     64  H   UNL A   1      42.044  31.056  31.984  1.00  0.00     0.167 HD
ATOM     65  C   UNL A   1      43.374  28.648  31.327  1.00  0.00     0.074 A 
ATOM     66  C   UNL A   1      43.674  27.375  30.705  1.00  0.00     0.031 C 
ATOM     67  C   UNL A   1      44.162  29.250  32.251  1.00  0.00     0.031 A 
BRANCH  54  68
ATOM     68  C   UNL A   1      42.004  34.686  34.229  1.00  0.00    -0.014 A 
ATOM     69  C   UNL A   1      41.606  34.715  35.575  1.00  0.00     0.009 A 
ATOM     70  C   UNL A   1      42.656  35.806  33.690  1.00  0.00     0.009 A 
ATOM     71  C   UNL A   1      41.826  35.854  36.353  1.00  0.00     0.001 A 
ATOM     72  C   UNL A   1      42.898  36.933  34.477  1.00  0.00     0.001 A 
ATOM     73  C   UNL A   1      42.474  36.960  35.805  1.00  0.00     0.000 A 
ENDBRANCH  54  68
BRANCH  55  74
ATOM     74  C   UNL A   1      40.344  26.951  28.163  1.00  0.00    -0.014 A 
ATOM     75  C   UNL A   1      39.604  25.837  28.588  1.00  0.00     0.009 A 
ATOM     76  C   UNL A   1      40.865  26.964  26.860  1.00  0.00     0.009 A 
ATOM     77  C   UNL A   1      39.411  24.749  27.735  1.00  0.00     0.001 A 
ATOM     78  C   UNL A   1      40.648  25.885  26.000  1.00  0.00     0.001 A 
ATOM     79  C   UNL A   1      39.930  24.776  26.441  1.00  0.00     0.000 A 
ENDBRANCH  55  74
BRANCH  67  80
ATOM     80  C   UNL A   1      45.414  28.526  32.653  1.00  0.00    -0.014 A 
ATOM     81  C   UNL A   1      45.388  27.513  33.624  1.00  0.00     0.009 A 
ATOM     82  C   UNL A   1      46.633  28.845  32.034  1.00  0.00     0.009 A 
ATOM     83  C   UNL A   1      46.565  26.858  33.993  1.00  0.00     0.001 A 
ATOM     84  C   UNL A   1      47.803  28.169  32.384  1.00  0.00     0.001 A 
ATOM     85  C   UNL A   1      47.769  27.183  33.370  1.00  0.00     0.000 A 
ENDBRANCH  67  80
ENDBRANCH  41  42
ENDBRANCH  33  36
ENDBRANCH  31  32
ENDBRANCH  30  31
ENDBRANCH  29  30
ENDBRANCH  28  29
ENDBRANCH   1  28
TORSDOF 19
ENDMDL
