MODEL 1
REMARK VINA RESULT:      -8.9      0.000      0.000
REMARK SMILES C[C@@H](C(=O)NCCCCCCNC(=O)c1ccc(-c2c3nc(c(-c4ccccc4)c4ccc([nH]4)c(-c4ccccc4)c4nc(c(-c5ccccc5)c5ccc2[nH]5)C=C4)C=C3)cc1)c1ccn(C(F)F)c(=O)c1
REMARK SMILES IDX 8 1 7 2 6 3 5 4 3 5 4 6 2 8 1 9 63 10 64 11 72 12 65 13
REMARK SMILES IDX 70 14 66 15 71 16 67 17 68 18 69 19 9 20 10 21 11 22 12 23
REMARK SMILES IDX 13 24 14 26 15 27 16 28 62 29 17 30 61 31 18 32 19 33 20 34
REMARK SMILES IDX 55 35 21 36 60 37 54 38 56 39 22 40 59 41 53 42 52 43 23 45
REMARK SMILES IDX 45 46 30 47 44 48 31 49 34 50 43 51 57 52 32 53 33 54 42 56
REMARK SMILES IDX 58 57 35 58 24 59 25 60 29 61 26 62 28 63 27 64 46 65 47 66
REMARK SMILES IDX 51 67 48 68 50 69 49 70 36 71 37 72 41 73 38 74 40 75 39 76
REMARK H PARENT 5 7 12 25 56 44 34 55
REMARK Flexibility Score: inf
ROOT
ATOM      1  C   UNL A   1      35.000  35.657  32.651  1.00  0.00     0.002 C 
ENDROOT
BRANCH   1   2
ATOM      2  C   UNL A   1      34.486  34.316  33.197  1.00  0.00     0.021 C 
BRANCH   2   3
ATOM      3  C   UNL A   1      35.311  33.746  34.356  1.00  0.00     0.116 C 
BRANCH   3   4
ATOM      4  N   UNL A   1      36.575  34.441  34.470  1.00  0.00    -0.356 N 
ATOM      5  C   UNL A   1      37.698  34.144  35.183  1.00  0.00     0.227 C 
ATOM      6  O   UNL A   1      38.562  35.022  35.199  1.00  0.00    -0.274 OA
ATOM      7  H   UNL A   1      36.635  35.269  33.943  1.00  0.00     0.163 HD
BRANCH   5   8
ATOM      8  C   UNL A   1      37.835  32.768  35.887  1.00  0.00     0.105 C 
ATOM      9  C   UNL A   1      38.648  32.855  37.181  1.00  0.00     0.023 C 
BRANCH   8  10
ATOM     10  C   UNL A   1      38.378  31.615  35.041  1.00  0.00    -0.029 A 
ATOM     11  C   UNL A   1      37.608  31.021  33.964  1.00  0.00     0.023 A 
ATOM     12  C   UNL A   1      39.622  31.145  35.256  1.00  0.00     0.076 A 
ATOM     13  C   UNL A   1      38.086  29.985  33.264  1.00  0.00     0.095 A 
ATOM     14  C   UNL A   1      40.203  30.046  34.434  1.00  0.00     0.255 A 
ATOM     15  N   UNL A   1      39.353  29.489  33.496  1.00  0.00    -0.258 N 
ATOM     16  O   UNL A   1      41.365  29.713  34.641  1.00  0.00    -0.269 OA
BRANCH  15  17
ATOM     17  C   UNL A   1      39.860  28.391  32.717  1.00  0.00     0.451 C 
ATOM     18  F   UNL A   1      40.795  27.695  33.409  1.00  0.00    -0.185 F 
ATOM     19  F   UNL A   1      38.868  27.533  32.374  1.00  0.00    -0.185 F 
ENDBRANCH  15  17
ENDBRANCH   8  10
ENDBRANCH   5   8
ENDBRANCH   3   4
ENDBRANCH   2   3
ENDBRANCH   1   2
BRANCH   1  20
ATOM     20  C   UNL A   1      33.956  36.774  32.580  1.00  0.00     0.002 C 
BRANCH  20  21
ATOM     21  C   UNL A   1      33.000  36.682  31.390  1.00  0.00     0.021 C 
BRANCH  21  22
ATOM     22  C   UNL A   1      33.680  36.383  30.059  1.00  0.00     0.116 C 
BRANCH  22  23
ATOM     23  N   UNL A   1      32.843  35.576  29.185  1.00  0.00    -0.352 N 
ATOM     24  C   UNL A   1      33.147  34.405  28.538  1.00  0.00     0.251 C 
ATOM     25  H   UNL A   1      31.932  35.919  29.036  1.00  0.00     0.163 HD
ATOM     26  O   UNL A   1      32.392  33.957  27.678  1.00  0.00    -0.269 OA
BRANCH  24  27
ATOM     27  C   UNL A   1      34.397  33.692  28.867  1.00  0.00     0.039 A 
ATOM     28  C   UNL A   1      35.530  33.911  28.079  1.00  0.00     0.014 A 
ATOM     29  C   UNL A   1      34.452  32.813  29.953  1.00  0.00     0.014 A 
ATOM     30  C   UNL A   1      36.735  33.291  28.417  1.00  0.00     0.010 A 
ATOM     31  C   UNL A   1      35.671  32.263  30.335  1.00  0.00     0.010 A 
ATOM     32  C   UNL A   1      36.823  32.490  29.567  1.00  0.00    -0.014 A 
BRANCH  32  33
ATOM     33  C   UNL A   1      38.110  31.876  29.979  1.00  0.00     0.031 A 
ATOM     34  C   UNL A   1      39.030  32.604  30.920  1.00  0.00     0.074 A 
ATOM     35  C   UNL A   1      38.480  30.689  29.459  1.00  0.00     0.049 A 
ATOM     36  N   UNL A   1      40.211  32.250  31.358  1.00  0.00    -0.248 NA
ATOM     37  C   UNL A   1      38.574  33.913  31.412  1.00  0.00     0.031 C 
ATOM     38  C   UNL A   1      37.695  29.898  28.509  1.00  0.00     0.029 A 
ATOM     39  N   UNL A   1      39.614  29.942  29.656  1.00  0.00    -0.354 N 
ATOM     40  C   UNL A   1      40.644  33.297  32.162  1.00  0.00     0.074 A 
ATOM     41  C   UNL A   1      39.626  34.323  32.104  1.00  0.00     0.031 C 
ATOM     42  C   UNL A   1      38.355  28.762  28.234  1.00  0.00     0.029 A 
ATOM     43  C   UNL A   1      39.627  28.765  28.949  1.00  0.00     0.049 A 
ATOM     44  H   UNL A   1      40.350  30.225  30.247  1.00  0.00     0.167 HD
ATOM     45  C   UNL A   1      41.777  33.391  32.900  1.00  0.00     0.031 A 
ATOM     46  C   UNL A   1      40.559  27.796  28.881  1.00  0.00     0.031 A 
ATOM     47  C   UNL A   1      42.790  32.371  32.956  1.00  0.00     0.049 A 
ATOM     48  C   UNL A   1      41.824  27.936  29.683  1.00  0.00     0.074 A 
ATOM     49  C   UNL A   1      43.947  32.345  33.714  1.00  0.00     0.029 A 
ATOM     50  N   UNL A   1      42.770  31.197  32.217  1.00  0.00    -0.354 N 
ATOM     51  N   UNL A   1      42.185  28.900  30.494  1.00  0.00    -0.248 NA
ATOM     52  C   UNL A   1      42.802  26.846  29.566  1.00  0.00     0.031 C 
ATOM     53  C   UNL A   1      44.659  31.188  33.385  1.00  0.00     0.029 A 
ATOM     54  C   UNL A   1      43.911  30.457  32.476  1.00  0.00     0.049 A 
ATOM     55  H   UNL A   1      42.050  30.930  31.600  1.00  0.00     0.167 HD
ATOM     56  C   UNL A   1      43.420  28.520  31.008  1.00  0.00     0.074 A 
ATOM     57  C   UNL A   1      43.735  27.230  30.427  1.00  0.00     0.031 C 
ATOM     58  C   UNL A   1      44.217  29.179  31.885  1.00  0.00     0.031 A 
BRANCH  45  59
ATOM     59  C   UNL A   1      41.983  34.656  33.689  1.00  0.00    -0.014 A 
ATOM     60  C   UNL A   1      42.572  35.792  33.111  1.00  0.00     0.009 A 
ATOM     61  C   UNL A   1      41.570  34.717  35.029  1.00  0.00     0.009 A 
ATOM     62  C   UNL A   1      42.788  36.944  33.870  1.00  0.00     0.001 A 
ATOM     63  C   UNL A   1      41.755  35.881  35.777  1.00  0.00     0.001 A 
ATOM     64  C   UNL A   1      42.376  36.988  35.202  1.00  0.00     0.000 A 
ENDBRANCH  45  59
BRANCH  46  65
ATOM     65  C   UNL A   1      40.322  26.596  28.037  1.00  0.00    -0.014 A 
ATOM     66  C   UNL A   1      39.553  25.527  28.521  1.00  0.00     0.009 A 
ATOM     67  C   UNL A   1      40.855  26.516  26.740  1.00  0.00     0.009 A 
ATOM     68  C   UNL A   1      39.343  24.392  27.733  1.00  0.00     0.001 A 
ATOM     69  C   UNL A   1      40.618  25.394  25.944  1.00  0.00     0.001 A 
ATOM     70  C   UNL A   1      39.870  24.329  26.444  1.00  0.00     0.000 A 
ENDBRANCH  46  65
BRANCH  58  71
ATOM     71  C   UNL A   1      45.494  28.500  32.298  1.00  0.00    -0.014 A 
ATOM     72  C   UNL A   1      46.695  28.709  31.601  1.00  0.00     0.009 A 
ATOM     73  C   UNL A   1      45.502  27.668  33.429  1.00  0.00     0.009 A 
ATOM     74  C   UNL A   1      47.867  28.071  32.008  1.00  0.00     0.001 A 
ATOM     75  C   UNL A   1      46.683  27.058  33.854  1.00  0.00     0.001 A 
ATOM     76  C   UNL A   1      47.862  27.252  33.138  1.00  0.00     0.000 A 
ENDBRANCH  58  71
ENDBRANCH  32  33
ENDBRANCH  24  27
ENDBRANCH  22  23
ENDBRANCH  21  22
ENDBRANCH  20  21
ENDBRANCH   1  20
TORSDOF 15
ENDMDL
MODEL 2
REMARK VINA RESULT:      -8.7      0.282      6.057
REMARK SMILES C[C@@H](C(=O)NCCCCCCNC(=O)c1ccc(-c2c3nc(c(-c4ccccc4)c4ccc([nH]4)c(-c4ccccc4)c4nc(c(-c5ccccc5)c5ccc2[nH]5)C=C4)C=C3)cc1)c1ccn(C(F)F)c(=O)c1
REMARK SMILES IDX 8 1 7 2 6 3 5 4 3 5 4 6 2 8 1 9 63 10 64 11 72 12 65 13
REMARK SMILES IDX 70 14 66 15 71 16 67 17 68 18 69 19 9 20 10 21 11 22 12 23
REMARK SMILES IDX 13 24 14 26 15 27 16 28 62 29 17 30 61 31 18 32 19 33 20 34
REMARK SMILES IDX 55 35 21 36 60 37 54 38 56 39 22 40 59 41 53 42 52 43 23 45
REMARK SMILES IDX 45 46 30 47 44 48 31 49 34 50 43 51 57 52 32 53 33 54 42 56
REMARK SMILES IDX 58 57 35 58 24 59 25 60 29 61 26 62 28 63 27 64 46 65 47 66
REMARK SMILES IDX 51 67 48 68 50 69 49 70 36 71 37 72 41 73 38 74 40 75 39 76
REMARK H PARENT 5 7 12 25 56 44 34 55
REMARK Flexibility Score: inf
ROOT
ATOM      1  C   UNL A   1      34.988  35.662  32.476  1.00  0.00     0.002 C 
ENDROOT
BRANCH   1   2
ATOM      2  C   UNL A   1      34.488  34.311  33.011  1.00  0.00     0.021 C 
BRANCH   2   3
ATOM      3  C   UNL A   1      35.243  33.800  34.242  1.00  0.00     0.116 C 
BRANCH   3   4
ATOM      4  N   UNL A   1      36.507  34.488  34.387  1.00  0.00    -0.356 N 
ATOM      5  C   UNL A   1      37.608  34.191  35.133  1.00  0.00     0.227 C 
ATOM      6  O   UNL A   1      38.476  35.064  35.166  1.00  0.00    -0.274 OA
ATOM      7  H   UNL A   1      36.586  35.312  33.855  1.00  0.00     0.163 HD
BRANCH   5   8
ATOM      8  C   UNL A   1      37.718  32.820  35.850  1.00  0.00     0.105 C 
ATOM      9  C   UNL A   1      38.434  32.925  37.198  1.00  0.00     0.023 C 
BRANCH   8  10
ATOM     10  C   UNL A   1      38.340  31.673  35.050  1.00  0.00    -0.029 A 
ATOM     11  C   UNL A   1      37.685  31.099  33.890  1.00  0.00     0.023 A 
ATOM     12  C   UNL A   1      39.553  31.193  35.388  1.00  0.00     0.076 A 
ATOM     13  C   UNL A   1      38.228  30.070  33.230  1.00  0.00     0.095 A 
ATOM     14  C   UNL A   1      40.211  30.100  34.616  1.00  0.00     0.255 A 
ATOM     15  N   UNL A   1      39.460  29.561  33.587  1.00  0.00    -0.258 N 
ATOM     16  O   UNL A   1      41.342  29.756  34.939  1.00  0.00    -0.269 OA
BRANCH  15  17
ATOM     17  C   UNL A   1      40.040  28.470  32.850  1.00  0.00     0.451 C 
ATOM     18  F   UNL A   1      41.274  28.167  33.321  1.00  0.00    -0.185 F 
ATOM     19  F   UNL A   1      39.272  27.356  32.938  1.00  0.00    -0.185 F 
ENDBRANCH  15  17
ENDBRANCH   8  10
ENDBRANCH   5   8
ENDBRANCH   3   4
ENDBRANCH   2   3
ENDBRANCH   1   2
BRANCH   1  20
ATOM     20  C   UNL A   1      33.913  36.741  32.327  1.00  0.00     0.002 C 
BRANCH  20  21
ATOM     21  C   UNL A   1      32.899  36.486  31.211  1.00  0.00     0.021 C 
BRANCH  21  22
ATOM     22  C   UNL A   1      33.520  36.264  29.837  1.00  0.00     0.116 C 
BRANCH  22  23
ATOM     23  N   UNL A   1      32.719  35.374  29.011  1.00  0.00    -0.352 N 
ATOM     24  C   UNL A   1      33.082  34.196  28.410  1.00  0.00     0.251 C 
ATOM     25  H   UNL A   1      31.788  35.656  28.863  1.00  0.00     0.163 HD
ATOM     26  O   UNL A   1      32.344  33.668  27.581  1.00  0.00    -0.269 OA
BRANCH  24  27
ATOM     27  C   UNL A   1      34.377  33.570  28.748  1.00  0.00     0.039 A 
ATOM     28  C   UNL A   1      35.512  33.924  28.016  1.00  0.00     0.014 A 
ATOM     29  C   UNL A   1      34.470  32.642  29.789  1.00  0.00     0.014 A 
ATOM     30  C   UNL A   1      36.754  33.389  28.366  1.00  0.00     0.010 A 
ATOM     31  C   UNL A   1      35.718  32.174  30.188  1.00  0.00     0.010 A 
ATOM     32  C   UNL A   1      36.871  32.536  29.476  1.00  0.00    -0.014 A 
BRANCH  32  33
ATOM     33  C   UNL A   1      38.191  32.009  29.903  1.00  0.00     0.031 A 
ATOM     34  C   UNL A   1      38.677  30.680  29.395  1.00  0.00     0.074 A 
ATOM     35  C   UNL A   1      38.927  32.698  30.797  1.00  0.00     0.049 A 
ATOM     36  N   UNL A   1      39.778  30.036  29.688  1.00  0.00    -0.248 NA
ATOM     37  C   UNL A   1      37.797  29.969  28.453  1.00  0.00     0.031 C 
ATOM     38  C   UNL A   1      38.552  33.982  31.394  1.00  0.00     0.029 A 
ATOM     39  N   UNL A   1      40.145  32.412  31.361  1.00  0.00    -0.354 N 
ATOM     40  C   UNL A   1      39.716  28.842  28.981  1.00  0.00     0.074 A 
ATOM     41  C   UNL A   1      38.444  28.824  28.293  1.00  0.00     0.031 C 
ATOM     42  C   UNL A   1      39.536  34.388  32.213  1.00  0.00     0.029 A 
ATOM     43  C   UNL A   1      40.586  33.375  32.234  1.00  0.00     0.049 A 
ATOM     44  H   UNL A   1      40.653  31.593  31.159  1.00  0.00     0.167 HD
ATOM     45  C   UNL A   1      40.640  27.856  28.894  1.00  0.00     0.031 A 
ATOM     46  C   UNL A   1      41.710  33.437  32.973  1.00  0.00     0.031 A 
ATOM     47  C   UNL A   1      41.905  27.873  29.581  1.00  0.00     0.049 A 
ATOM     48  C   UNL A   1      42.708  32.316  32.887  1.00  0.00     0.074 A 
ATOM     49  C   UNL A   1      42.933  26.950  29.517  1.00  0.00     0.029 A 
ATOM     50  N   UNL A   1      42.310  28.863  30.464  1.00  0.00    -0.354 N 
ATOM     51  N   UNL A   1      42.666  31.227  32.159  1.00  0.00    -0.248 NA
ATOM     52  C   UNL A   1      43.913  32.441  33.718  1.00  0.00     0.031 C 
ATOM     53  C   UNL A   1      43.933  27.347  30.411  1.00  0.00     0.029 A 
ATOM     54  C   UNL A   1      43.559  28.554  30.978  1.00  0.00     0.049 A 
ATOM     55  H   UNL A   1      41.787  29.665  30.692  1.00  0.00     0.167 HD
ATOM     56  C   UNL A   1      43.852  30.550  32.420  1.00  0.00     0.074 A 
ATOM     57  C   UNL A   1      44.597  31.361  33.362  1.00  0.00     0.031 C 
ATOM     58  C   UNL A   1      44.285  29.366  31.922  1.00  0.00     0.031 A 
BRANCH  45  59
ATOM     59  C   UNL A   1      40.301  26.665  28.038  1.00  0.00    -0.014 A 
ATOM     60  C   UNL A   1      39.510  25.613  28.529  1.00  0.00     0.009 A 
ATOM     61  C   UNL A   1      40.769  26.600  26.717  1.00  0.00     0.009 A 
ATOM     62  C   UNL A   1      39.237  24.499  27.731  1.00  0.00     0.001 A 
ATOM     63  C   UNL A   1      40.466  25.502  25.909  1.00  0.00     0.001 A 
ATOM     64  C   UNL A   1      39.712  24.447  26.421  1.00  0.00     0.000 A 
ENDBRANCH  45  59
BRANCH  46  65
ATOM     65  C   UNL A   1      41.961  34.614  33.845  1.00  0.00    -0.014 A 
ATOM     66  C   UNL A   1      42.554  35.773  33.322  1.00  0.00     0.009 A 
ATOM     67  C   UNL A   1      41.602  34.590  35.202  1.00  0.00     0.009 A 
ATOM     68  C   UNL A   1      42.805  36.874  34.145  1.00  0.00     0.001 A 
ATOM     69  C   UNL A   1      41.826  35.703  36.015  1.00  0.00     0.001 A 
ATOM     70  C   UNL A   1      42.435  36.840  35.488  1.00  0.00     0.000 A 
ENDBRANCH  46  65
BRANCH  58  71
ATOM     71  C   UNL A   1      45.644  28.892  32.358  1.00  0.00    -0.014 A 
ATOM     72  C   UNL A   1      46.809  29.273  31.673  1.00  0.00     0.009 A 
ATOM     73  C   UNL A   1      45.762  28.082  33.499  1.00  0.00     0.009 A 
ATOM     74  C   UNL A   1      48.059  28.823  32.102  1.00  0.00     0.001 A 
ATOM     75  C   UNL A   1      47.015  27.661  33.945  1.00  0.00     0.001 A 
ATOM     76  C   UNL A   1      48.161  28.024  33.241  1.00  0.00     0.000 A 
ENDBRANCH  58  71
ENDBRANCH  32  33
ENDBRANCH  24  27
ENDBRANCH  22  23
ENDBRANCH  21  22
ENDBRANCH  20  21
ENDBRANCH   1  20
TORSDOF 15
ENDMDL
MODEL 3
REMARK VINA RESULT:      -8.5      4.748      9.634
REMARK SMILES C[C@@H](C(=O)NCCCCCCNC(=O)c1ccc(-c2c3nc(c(-c4ccccc4)c4ccc([nH]4)c(-c4ccccc4)c4nc(c(-c5ccccc5)c5ccc2[nH]5)C=C4)C=C3)cc1)c1ccn(C(F)F)c(=O)c1
REMARK SMILES IDX 8 1 7 2 6 3 5 4 3 5 4 6 2 8 1 9 63 10 64 11 72 12 65 13
REMARK SMILES IDX 70 14 66 15 71 16 67 17 68 18 69 19 9 20 10 21 11 22 12 23
REMARK SMILES IDX 13 24 14 26 15 27 16 28 62 29 17 30 61 31 18 32 19 33 20 34
REMARK SMILES IDX 55 35 21 36 60 37 54 38 56 39 22 40 59 41 53 42 52 43 23 45
REMARK SMILES IDX 45 46 30 47 44 48 31 49 34 50 43 51 57 52 32 53 33 54 42 56
REMARK SMILES IDX 58 57 35 58 24 59 25 60 29 61 26 62 28 63 27 64 46 65 47 66
REMARK SMILES IDX 51 67 48 68 50 69 49 70 36 71 37 72 41 73 38 74 40 75 39 76
REMARK H PARENT 5 7 12 25 56 44 34 55
REMARK Flexibility Score: inf
ROOT
ATOM      1  C   UNL A   1      32.639  29.842  26.023  1.00  0.00     0.002 C 
ENDROOT
BRANCH   1   2
ATOM      2  C   UNL A   1      32.497  28.330  26.257  1.00  0.00     0.021 C 
BRANCH   2   3
ATOM      3  C   UNL A   1      33.605  27.485  25.623  1.00  0.00     0.116 C 
BRANCH   3   4
ATOM      4  N   UNL A   1      34.032  28.065  24.368  1.00  0.00    -0.356 N 
ATOM      5  C   UNL A   1      33.653  27.802  23.086  1.00  0.00     0.227 C 
ATOM      6  O   UNL A   1      34.319  28.359  22.212  1.00  0.00    -0.274 OA
ATOM      7  H   UNL A   1      34.713  28.770  24.455  1.00  0.00     0.163 HD
BRANCH   5   8
ATOM      8  C   UNL A   1      32.441  26.875  22.804  1.00  0.00     0.105 C 
ATOM      9  C   UNL A   1      32.576  26.130  21.474  1.00  0.00     0.023 C 
BRANCH   8  10
ATOM     10  C   UNL A   1      31.054  27.518  22.870  1.00  0.00    -0.029 A 
ATOM     11  C   UNL A   1      29.945  26.888  23.561  1.00  0.00     0.023 A 
ATOM     12  C   UNL A   1      30.841  28.726  22.312  1.00  0.00     0.076 A 
ATOM     13  C   UNL A   1      28.730  27.448  23.571  1.00  0.00     0.095 A 
ATOM     14  C   UNL A   1      29.515  29.404  22.382  1.00  0.00     0.255 A 
ATOM     15  N   UNL A   1      28.504  28.676  22.982  1.00  0.00    -0.258 N 
ATOM     16  O   UNL A   1      29.409  30.530  21.910  1.00  0.00    -0.269 OA
BRANCH  15  17
ATOM     17  C   UNL A   1      27.196  29.275  23.024  1.00  0.00     0.451 C 
ATOM     18  F   UNL A   1      26.281  28.409  23.525  1.00  0.00    -0.185 F 
ATOM     19  F   UNL A   1      27.190  30.387  23.799  1.00  0.00    -0.185 F 
ENDBRANCH  15  17
ENDBRANCH   8  10
ENDBRANCH   5   8
ENDBRANCH   3   4
ENDBRANCH   2   3
ENDBRANCH   1   2
BRANCH   1  20
ATOM     20  C   UNL A   1      31.326  30.586  25.767  1.00  0.00     0.002 C 
BRANCH  20  21
ATOM     21  C   UNL A   1      31.221  31.952  26.446  1.00  0.00     0.021 C 
BRANCH  21  22
ATOM     22  C   UNL A   1      32.555  32.533  26.898  1.00  0.00     0.116 C 
BRANCH  22  23
ATOM     23  N   UNL A   1      32.395  33.818  27.563  1.00  0.00    -0.352 N 
ATOM     24  C   UNL A   1      33.143  34.364  28.575  1.00  0.00     0.251 C 
ATOM     25  H   UNL A   1      31.648  34.371  27.242  1.00  0.00     0.163 HD
ATOM     26  O   UNL A   1      32.753  35.372  29.161  1.00  0.00    -0.269 OA
BRANCH  24  27
ATOM     27  C   UNL A   1      34.412  33.723  28.975  1.00  0.00     0.039 A 
ATOM     28  C   UNL A   1      35.588  34.075  28.309  1.00  0.00     0.014 A 
ATOM     29  C   UNL A   1      34.441  32.783  30.009  1.00  0.00     0.014 A 
ATOM     30  C   UNL A   1      36.804  33.524  28.719  1.00  0.00     0.010 A 
ATOM     31  C   UNL A   1      35.662  32.299  30.469  1.00  0.00     0.010 A 
ATOM     32  C   UNL A   1      36.855  32.658  29.824  1.00  0.00    -0.014 A 
BRANCH  32  33
ATOM     33  C   UNL A   1      38.145  32.114  30.315  1.00  0.00     0.031 A 
ATOM     34  C   UNL A   1      38.684  30.824  29.761  1.00  0.00     0.074 A 
ATOM     35  C   UNL A   1      38.804  32.750  31.304  1.00  0.00     0.049 A 
ATOM     36  N   UNL A   1      39.768  30.171  30.095  1.00  0.00    -0.248 NA
ATOM     37  C   UNL A   1      37.886  30.168  28.713  1.00  0.00     0.031 C 
ATOM     38  C   UNL A   1      38.370  33.990  31.951  1.00  0.00     0.029 A 
ATOM     39  N   UNL A   1      39.980  32.437  31.939  1.00  0.00    -0.354 N 
ATOM     40  C   UNL A   1      39.773  29.024  29.311  1.00  0.00     0.074 A 
ATOM     41  C   UNL A   1      38.556  29.042  28.529  1.00  0.00     0.031 C 
ATOM     42  C   UNL A   1      39.285  34.350  32.866  1.00  0.00     0.029 A 
ATOM     43  C   UNL A   1      40.343  33.346  32.902  1.00  0.00     0.049 A 
ATOM     44  H   UNL A   1      40.511  31.637  31.724  1.00  0.00     0.167 HD
ATOM     45  C   UNL A   1      40.714  28.052  29.232  1.00  0.00     0.031 A 
ATOM     46  C   UNL A   1      41.407  33.368  33.726  1.00  0.00     0.031 A 
ATOM     47  C   UNL A   1      41.923  28.035  30.012  1.00  0.00     0.049 A 
ATOM     48  C   UNL A   1      42.422  32.262  33.645  1.00  0.00     0.074 A 
ATOM     49  C   UNL A   1      42.964  27.126  29.967  1.00  0.00     0.029 A 
ATOM     50  N   UNL A   1      42.249  28.969  30.984  1.00  0.00    -0.354 N 
ATOM     51  N   UNL A   1      42.448  31.222  32.847  1.00  0.00    -0.248 NA
ATOM     52  C   UNL A   1      43.561  32.342  34.570  1.00  0.00     0.031 C 
ATOM     53  C   UNL A   1      43.889  27.471  30.957  1.00  0.00     0.029 A 
ATOM     54  C   UNL A   1      43.459  28.637  31.570  1.00  0.00     0.049 A 
ATOM     55  H   UNL A   1      41.700  29.751  31.222  1.00  0.00     0.167 HD
ATOM     56  C   UNL A   1      43.619  30.538  33.154  1.00  0.00     0.074 A 
ATOM     57  C   UNL A   1      44.282  31.293  34.199  1.00  0.00     0.031 C 
ATOM     58  C   UNL A   1      44.103  29.392  32.615  1.00  0.00     0.031 A 
BRANCH  45  59
ATOM     59  C   UNL A   1      40.454  26.917  28.279  1.00  0.00    -0.014 A 
ATOM     60  C   UNL A   1      39.691  25.801  28.661  1.00  0.00     0.009 A 
ATOM     61  C   UNL A   1      40.969  26.969  26.975  1.00  0.00     0.009 A 
ATOM     62  C   UNL A   1      39.492  24.740  27.774  1.00  0.00     0.001 A 
ATOM     63  C   UNL A   1      40.740  25.923  26.078  1.00  0.00     0.001 A 
ATOM     64  C   UNL A   1      40.014  24.805  26.482  1.00  0.00     0.000 A 
ENDBRANCH  45  59
BRANCH  46  65
ATOM     65  C   UNL A   1      41.578  34.488  34.688  1.00  0.00    -0.014 A 
ATOM     66  C   UNL A   1      42.223  35.671  34.294  1.00  0.00     0.009 A 
ATOM     67  C   UNL A   1      41.091  34.387  36.001  1.00  0.00     0.009 A 
ATOM     68  C   UNL A   1      42.398  36.719  35.202  1.00  0.00     0.001 A 
ATOM     69  C   UNL A   1      41.240  35.447  36.897  1.00  0.00     0.001 A 
ATOM     70  C   UNL A   1      41.901  36.608  36.500  1.00  0.00     0.000 A 
ENDBRANCH  46  65
BRANCH  58  71
ATOM     71  C   UNL A   1      45.431  28.900  33.122  1.00  0.00    -0.014 A 
ATOM     72  C   UNL A   1      46.635  29.266  32.498  1.00  0.00     0.009 A 
ATOM     73  C   UNL A   1      45.479  28.091  34.269  1.00  0.00     0.009 A 
ATOM     74  C   UNL A   1      47.855  28.800  32.991  1.00  0.00     0.001 A 
ATOM     75  C   UNL A   1      46.702  27.655  34.779  1.00  0.00     0.001 A 
ATOM     76  C   UNL A   1      47.888  28.001  34.135  1.00  0.00     0.000 A 
ENDBRANCH  58  71
ENDBRANCH  32  33
ENDBRANCH  24  27
ENDBRANCH  22  23
ENDBRANCH  21  22
ENDBRANCH  20  21
ENDBRANCH   1  20
TORSDOF 15
ENDMDL
