MODEL 1
REMARK VINA RESULT:     -11.4      0.000      0.000
REMARK SMILES C=CCN1C(=O)/C(=C/c2ccccn2)S/C1=[NH+]\c1ccc(C(=O)NCCCCCCNC(=O)c2ccc(-c3c4nc(c(-c5ccccc5)c5ccc([nH]5)c(-c5ccccc5)c5nc(c(-c6ccccc6)c6ccc3[nH]6)C=C5)C=C4)cc2)cc1
REMARK SMILES IDX 27 1 26 2 25 3 24 4 22 5 23 6 21 8 18 9 19 10 83 11 20 12
REMARK SMILES IDX 82 13 17 14 4 15 5 16 16 17 6 18 7 19 15 20 8 21 3 23 2 24
REMARK SMILES IDX 1 25 9 26 10 27 14 28 11 29 13 30 12 31 28 32 29 33 30 34
REMARK SMILES IDX 31 35 32 36 33 38 34 39 35 40 81 41 36 42 80 43 37 44 38 45
REMARK SMILES IDX 39 46 74 47 40 48 79 49 73 50 75 51 41 52 78 53 72 54 71 55
REMARK SMILES IDX 42 57 64 58 49 59 63 60 50 61 53 62 62 63 76 64 51 65 52 66
REMARK SMILES IDX 61 68 77 69 54 70 43 71 44 72 48 73 45 74 47 75 46 76 65 77
REMARK SMILES IDX 66 78 70 79 67 80 69 81 68 82 55 83 56 84 60 85 57 86 59 87
REMARK SMILES IDX 58 88
REMARK H PARENT 24 7 17 22 31 37 75 56 53 67
REMARK Flexibility Score: inf
ROOT
ATOM      1  C   UNL A   1      32.118  29.319  26.445  1.00  0.00     0.002 C 
ENDROOT
BRANCH   1   2
ATOM      2  C   UNL A   1      32.546  27.932  25.949  1.00  0.00     0.021 C 
BRANCH   2   3
ATOM      3  C   UNL A   1      32.192  27.687  24.480  1.00  0.00     0.116 C 
BRANCH   3   4
ATOM      4  N   UNL A   1      30.759  27.501  24.347  1.00  0.00    -0.352 N 
ATOM      5  C   UNL A   1      29.986  26.374  24.247  1.00  0.00     0.251 C 
ATOM      6  O   UNL A   1      28.769  26.513  24.133  1.00  0.00    -0.269 OA
ATOM      7  H   UNL A   1      30.247  28.341  24.324  1.00  0.00     0.163 HD
BRANCH   5   8
ATOM      8  C   UNL A   1      30.553  25.004  24.353  1.00  0.00     0.040 A 
ATOM      9  C   UNL A   1      31.453  22.343  24.340  1.00  0.00     0.125 A 
ATOM     10  C   UNL A   1      31.483  23.095  23.166  1.00  0.00     0.052 A 
ATOM     11  C   UNL A   1      31.077  22.959  25.536  1.00  0.00     0.052 A 
ATOM     12  C   UNL A   1      31.028  24.417  23.171  1.00  0.00     0.018 A 
ATOM     13  C   UNL A   1      30.648  24.287  25.547  1.00  0.00     0.018 A 
BRANCH   9  14
ATOM     14  N   UNL A   1      31.846  21.002  24.331  1.00  0.00    -0.234 N 
ATOM     15  N   UNL A   1      33.523  19.391  24.546  1.00  0.00    -0.182 N 
ATOM     16  C   UNL A   1      34.877  19.199  24.711  1.00  0.00     0.349 C 
ATOM     17  C   UNL A   1      33.069  20.683  24.607  1.00  0.00     0.324 C 
ATOM     18  O   UNL A   1      35.476  18.134  24.617  1.00  0.00    -0.240 OA
ATOM     19  C   UNL A   1      35.539  20.491  25.036  1.00  0.00     0.111 C 
ATOM     20  S   UNL A   1      34.372  21.753  25.080  1.00  0.00     0.007 SA
ATOM     21  C   UNL A   1      36.859  20.584  25.246  1.00  0.00     0.052 C 
ATOM     22  H   UNL A   1      31.191  20.299  24.114  1.00  0.00     0.313 HD
BRANCH  15  23
ATOM     23  C   UNL A   1      32.634  18.279  24.285  1.00  0.00     0.275 C 
BRANCH  23  24
ATOM     24  C   UNL A   1      32.821  17.847  22.855  1.00  0.00     0.011 C 
ATOM     25  C   UNL A   1      32.105  18.319  21.824  1.00  0.00     0.008 C 
ENDBRANCH  23  24
ENDBRANCH  15  23
BRANCH  21  26
ATOM     26  C   UNL A   1      37.576  21.790  25.656  1.00  0.00     0.064 A 
ATOM     27  C   UNL A   1      38.909  21.736  26.058  1.00  0.00     0.028 A 
ATOM     28  N   UNL A   1      36.887  22.947  25.554  1.00  0.00    -0.257 NA
ATOM     29  C   UNL A   1      39.553  22.919  26.408  1.00  0.00     0.004 A 
ATOM     30  C   UNL A   1      37.538  24.080  25.903  1.00  0.00     0.111 A 
ATOM     31  C   UNL A   1      38.855  24.116  26.336  1.00  0.00     0.020 A 
ENDBRANCH  21  26
ENDBRANCH   9  14
ENDBRANCH   5   8
ENDBRANCH   3   4
ENDBRANCH   2   3
ENDBRANCH   1   2
BRANCH   1  32
ATOM     32  C   UNL A   1      33.165  30.040  27.301  1.00  0.00     0.002 C 
BRANCH  32  33
ATOM     33  C   UNL A   1      34.552  29.393  27.295  1.00  0.00     0.021 C 
BRANCH  33  34
ATOM     34  C   UNL A   1      35.653  30.281  27.864  1.00  0.00     0.116 C 
BRANCH  34  35
ATOM     35  N   UNL A   1      35.559  30.385  29.312  1.00  0.00    -0.352 N 
ATOM     36  C   UNL A   1      36.469  30.020  30.271  1.00  0.00     0.251 C 
ATOM     37  H   UNL A   1      34.721  30.773  29.653  1.00  0.00     0.163 HD
ATOM     38  O   UNL A   1      36.129  29.942  31.447  1.00  0.00    -0.269 OA
BRANCH  36  39
ATOM     39  C   UNL A   1      37.861  29.714  29.883  1.00  0.00     0.039 A 
ATOM     40  C   UNL A   1      38.747  29.251  30.858  1.00  0.00     0.014 A 
ATOM     41  C   UNL A   1      38.297  29.904  28.568  1.00  0.00     0.014 A 
ATOM     42  C   UNL A   1      40.059  28.935  30.502  1.00  0.00     0.010 A 
ATOM     43  C   UNL A   1      39.580  29.512  28.200  1.00  0.00     0.010 A 
ATOM     44  C   UNL A   1      40.477  29.034  29.165  1.00  0.00    -0.014 A 
BRANCH  44  45
ATOM     45  C   UNL A   1      41.853  28.646  28.765  1.00  0.00     0.031 A 
ATOM     46  C   UNL A   1      42.153  27.232  28.349  1.00  0.00     0.074 A 
ATOM     47  C   UNL A   1      42.842  29.560  28.815  1.00  0.00     0.049 A 
ATOM     48  N   UNL A   1      43.295  26.704  27.985  1.00  0.00    -0.248 NA
ATOM     49  C   UNL A   1      41.029  26.280  28.359  1.00  0.00     0.031 C 
ATOM     50  C   UNL A   1      42.687  30.955  29.234  1.00  0.00     0.029 A 
ATOM     51  N   UNL A   1      44.174  29.455  28.504  1.00  0.00    -0.354 N 
ATOM     52  C   UNL A   1      43.028  25.364  27.730  1.00  0.00     0.074 A 
ATOM     53  C   UNL A   1      41.632  25.145  28.039  1.00  0.00     0.031 C 
ATOM     54  C   UNL A   1      43.867  31.584  29.117  1.00  0.00     0.029 A 
ATOM     55  C   UNL A   1      44.870  30.629  28.660  1.00  0.00     0.049 A 
ATOM     56  H   UNL A   1      44.590  28.618  28.198  1.00  0.00     0.167 HD
ATOM     57  C   UNL A   1      43.861  24.408  27.258  1.00  0.00     0.031 A 
ATOM     58  C   UNL A   1      46.173  30.904  28.458  1.00  0.00     0.031 A 
ATOM     59  C   UNL A   1      45.250  24.625  26.952  1.00  0.00     0.049 A 
ATOM     60  C   UNL A   1      47.085  29.811  27.972  1.00  0.00     0.074 A 
ATOM     61  C   UNL A   1      46.169  23.730  26.435  1.00  0.00     0.029 A 
ATOM     62  N   UNL A   1      45.920  25.825  27.138  1.00  0.00    -0.354 N 
ATOM     63  N   UNL A   1      46.801  28.566  27.675  1.00  0.00    -0.248 NA
ATOM     64  C   UNL A   1      48.497  30.168  27.784  1.00  0.00     0.031 C 
ATOM     65  C   UNL A   1      47.409  24.370  26.361  1.00  0.00     0.029 A 
ATOM     66  C   UNL A   1      47.247  25.684  26.768  1.00  0.00     0.049 A 
ATOM     67  H   UNL A   1      45.513  26.652  27.482  1.00  0.00     0.167 HD
ATOM     68  C   UNL A   1      47.989  28.003  27.230  1.00  0.00     0.074 A 
ATOM     69  C   UNL A   1      48.992  29.046  27.279  1.00  0.00     0.031 C 
ATOM     70  C   UNL A   1      48.232  26.735  26.819  1.00  0.00     0.031 A 
BRANCH  57  71
ATOM     71  C   UNL A   1      43.290  23.032  27.044  1.00  0.00    -0.014 A 
ATOM     72  C   UNL A   1      43.178  22.485  25.756  1.00  0.00     0.009 A 
ATOM     73  C   UNL A   1      42.906  22.252  28.147  1.00  0.00     0.009 A 
ATOM     74  C   UNL A   1      42.660  21.201  25.573  1.00  0.00     0.001 A 
ATOM     75  C   UNL A   1      42.419  20.957  27.964  1.00  0.00     0.001 A 
ATOM     76  C   UNL A   1      42.288  20.436  26.678  1.00  0.00     0.000 A 
ENDBRANCH  57  71
BRANCH  58  77
ATOM     77  C   UNL A   1      46.700  32.273  28.705  1.00  0.00    -0.014 A 
ATOM     78  C   UNL A   1      47.056  32.678  30.001  1.00  0.00     0.009 A 
ATOM     79  C   UNL A   1      46.819  33.194  27.653  1.00  0.00     0.009 A 
ATOM     80  C   UNL A   1      47.480  33.986  30.245  1.00  0.00     0.001 A 
ATOM     81  C   UNL A   1      47.277  34.491  27.893  1.00  0.00     0.001 A 
ATOM     82  C   UNL A   1      47.593  34.891  29.190  1.00  0.00     0.000 A 
ENDBRANCH  58  77
BRANCH  70  83
ATOM     83  C   UNL A   1      49.624  26.420  26.344  1.00  0.00    -0.014 A 
ATOM     84  C   UNL A   1      50.505  25.646  27.116  1.00  0.00     0.009 A 
ATOM     85  C   UNL A   1      50.048  26.884  25.090  1.00  0.00     0.009 A 
ATOM     86  C   UNL A   1      51.797  25.380  26.658  1.00  0.00     0.001 A 
ATOM     87  C   UNL A   1      51.326  26.587  24.618  1.00  0.00     0.001 A 
ATOM     88  C   UNL A   1      52.205  25.846  25.408  1.00  0.00     0.000 A 
ENDBRANCH  70  83
ENDBRANCH  44  45
ENDBRANCH  36  39
ENDBRANCH  34  35
ENDBRANCH  33  34
ENDBRANCH  32  33
ENDBRANCH   1  32
TORSDOF 17
ENDMDL
MODEL 2
REMARK VINA RESULT:     -11.0      3.419      6.392
REMARK SMILES C=CCN1C(=O)/C(=C/c2ccccn2)S/C1=[NH+]\c1ccc(C(=O)NCCCCCCNC(=O)c2ccc(-c3c4nc(c(-c5ccccc5)c5ccc([nH]5)c(-c5ccccc5)c5nc(c(-c6ccccc6)c6ccc3[nH]6)C=C5)C=C4)cc2)cc1
REMARK SMILES IDX 27 1 26 2 25 3 24 4 22 5 23 6 21 8 18 9 19 10 83 11 20 12
REMARK SMILES IDX 82 13 17 14 4 15 5 16 16 17 6 18 7 19 15 20 8 21 3 23 2 24
REMARK SMILES IDX 1 25 9 26 10 27 14 28 11 29 13 30 12 31 28 32 29 33 30 34
REMARK SMILES IDX 31 35 32 36 33 38 34 39 35 40 81 41 36 42 80 43 37 44 38 45
REMARK SMILES IDX 39 46 74 47 40 48 79 49 73 50 75 51 41 52 78 53 72 54 71 55
REMARK SMILES IDX 42 57 64 58 49 59 63 60 50 61 53 62 62 63 76 64 51 65 52 66
REMARK SMILES IDX 61 68 77 69 54 70 43 71 44 72 48 73 45 74 47 75 46 76 65 77
REMARK SMILES IDX 66 78 70 79 67 80 69 81 68 82 55 83 56 84 60 85 57 86 59 87
REMARK SMILES IDX 58 88
REMARK H PARENT 24 7 17 22 31 37 75 56 53 67
REMARK Flexibility Score: inf
ROOT
ATOM      1  C   UNL A   1      36.306  32.579  31.332  1.00  0.00     0.002 C 
ENDROOT
BRANCH   1   2
ATOM      2  C   UNL A   1      37.804  32.864  31.160  1.00  0.00     0.021 C 
BRANCH   2   3
ATOM      3  C   UNL A   1      38.462  31.977  30.101  1.00  0.00     0.116 C 
BRANCH   3   4
ATOM      4  N   UNL A   1      37.462  31.524  29.152  1.00  0.00    -0.352 N 
ATOM      5  C   UNL A   1      37.354  30.378  28.409  1.00  0.00     0.251 C 
ATOM      6  O   UNL A   1      36.384  30.259  27.662  1.00  0.00    -0.269 OA
ATOM      7  H   UNL A   1      36.723  32.160  29.016  1.00  0.00     0.163 HD
BRANCH   5   8
ATOM      8  C   UNL A   1      38.316  29.251  28.534  1.00  0.00     0.040 A 
ATOM      9  C   UNL A   1      40.067  27.055  28.505  1.00  0.00     0.125 A 
ATOM     10  C   UNL A   1      40.156  28.031  27.514  1.00  0.00     0.052 A 
ATOM     11  C   UNL A   1      39.177  27.238  29.566  1.00  0.00     0.052 A 
ATOM     12  C   UNL A   1      39.280  29.120  27.524  1.00  0.00     0.018 A 
ATOM     13  C   UNL A   1      38.320  28.340  29.592  1.00  0.00     0.018 A 
BRANCH   9  14
ATOM     14  N   UNL A   1      40.895  25.930  28.468  1.00  0.00    -0.234 N 
ATOM     15  N   UNL A   1      41.250  23.707  27.842  1.00  0.00    -0.182 N 
ATOM     16  C   UNL A   1      40.662  22.593  27.286  1.00  0.00     0.349 C 
ATOM     17  C   UNL A   1      40.507  24.860  27.852  1.00  0.00     0.324 C 
ATOM     18  O   UNL A   1      41.135  21.463  27.252  1.00  0.00    -0.240 OA
ATOM     19  C   UNL A   1      39.340  22.951  26.706  1.00  0.00     0.111 C 
ATOM     20  S   UNL A   1      39.025  24.624  26.948  1.00  0.00     0.007 SA
ATOM     21  C   UNL A   1      38.557  22.047  26.101  1.00  0.00     0.052 C 
ATOM     22  H   UNL A   1      41.774  25.951  28.911  1.00  0.00     0.313 HD
BRANCH  15  23
ATOM     23  C   UNL A   1      42.576  23.646  28.422  1.00  0.00     0.275 C 
BRANCH  23  24
ATOM     24  C   UNL A   1      43.583  23.871  27.326  1.00  0.00     0.011 C 
ATOM     25  C   UNL A   1      44.740  23.202  27.216  1.00  0.00     0.008 C 
ENDBRANCH  23  24
ENDBRANCH  15  23
BRANCH  21  26
ATOM     26  C   UNL A   1      37.290  22.327  25.428  1.00  0.00     0.064 A 
ATOM     27  C   UNL A   1      37.253  23.024  24.221  1.00  0.00     0.028 A 
ATOM     28  N   UNL A   1      36.187  21.813  26.013  1.00  0.00    -0.257 NA
ATOM     29  C   UNL A   1      36.022  23.236  23.608  1.00  0.00     0.004 A 
ATOM     30  C   UNL A   1      35.005  22.037  25.395  1.00  0.00     0.111 A 
ATOM     31  C   UNL A   1      34.872  22.739  24.207  1.00  0.00     0.020 A 
ENDBRANCH  21  26
ENDBRANCH   9  14
ENDBRANCH   5   8
ENDBRANCH   3   4
ENDBRANCH   2   3
ENDBRANCH   1   2
BRANCH   1  32
ATOM     32  C   UNL A   1      35.874  32.299  32.776  1.00  0.00     0.002 C 
BRANCH  32  33
ATOM     33  C   UNL A   1      35.901  33.518  33.701  1.00  0.00     0.021 C 
BRANCH  33  34
ATOM     34  C   UNL A   1      37.219  33.702  34.446  1.00  0.00     0.116 C 
BRANCH  34  35
ATOM     35  N   UNL A   1      37.254  32.917  35.670  1.00  0.00    -0.352 N 
ATOM     36  C   UNL A   1      37.932  31.756  35.939  1.00  0.00     0.251 C 
ATOM     37  H   UNL A   1      36.712  33.270  36.412  1.00  0.00     0.163 HD
ATOM     38  O   UNL A   1      37.652  31.093  36.931  1.00  0.00    -0.269 OA
BRANCH  36  39
ATOM     39  C   UNL A   1      38.999  31.300  35.024  1.00  0.00     0.039 A 
ATOM     40  C   UNL A   1      38.670  30.428  33.984  1.00  0.00     0.014 A 
ATOM     41  C   UNL A   1      40.323  31.714  35.205  1.00  0.00     0.014 A 
ATOM     42  C   UNL A   1      39.663  30.009  33.098  1.00  0.00     0.010 A 
ATOM     43  C   UNL A   1      41.293  31.358  34.275  1.00  0.00     0.010 A 
ATOM     44  C   UNL A   1      40.976  30.494  33.218  1.00  0.00    -0.014 A 
BRANCH  44  45
ATOM     45  C   UNL A   1      42.026  30.098  32.246  1.00  0.00     0.031 A 
ATOM     46  C   UNL A   1      42.757  28.793  32.406  1.00  0.00     0.074 A 
ATOM     47  C   UNL A   1      42.348  30.934  31.239  1.00  0.00     0.049 A 
ATOM     48  N   UNL A   1      43.714  28.288  31.669  1.00  0.00    -0.248 NA
ATOM     49  C   UNL A   1      42.378  27.952  33.554  1.00  0.00     0.031 C 
ATOM     50  C   UNL A   1      41.738  32.243  30.996  1.00  0.00     0.029 A 
ATOM     51  N   UNL A   1      43.267  30.805  30.229  1.00  0.00    -0.354 N 
ATOM     52  C   UNL A   1      44.053  27.079  32.266  1.00  0.00     0.074 A 
ATOM     53  C   UNL A   1      43.243  26.954  33.457  1.00  0.00     0.031 C 
ATOM     54  C   UNL A   1      42.270  32.777  29.885  1.00  0.00     0.029 A 
ATOM     55  C   UNL A   1      43.290  31.873  29.365  1.00  0.00     0.049 A 
ATOM     56  H   UNL A   1      43.854  30.021  30.132  1.00  0.00     0.167 HD
ATOM     57  C   UNL A   1      44.939  26.145  31.847  1.00  0.00     0.031 A 
ATOM     58  C   UNL A   1      44.049  32.099  28.276  1.00  0.00     0.031 A 
ATOM     59  C   UNL A   1      45.745  26.271  30.662  1.00  0.00     0.049 A 
ATOM     60  C   UNL A   1      45.054  31.062  27.858  1.00  0.00     0.074 A 
ATOM     61  C   UNL A   1      46.646  25.363  30.132  1.00  0.00     0.029 A 
ATOM     62  N   UNL A   1      45.749  27.374  29.823  1.00  0.00    -0.354 N 
ATOM     63  N   UNL A   1      45.315  29.896  28.396  1.00  0.00    -0.248 NA
ATOM     64  C   UNL A   1      45.863  31.371  26.670  1.00  0.00     0.031 C 
ATOM     65  C   UNL A   1      47.237  25.941  29.005  1.00  0.00     0.029 A 
ATOM     66  C   UNL A   1      46.655  27.180  28.794  1.00  0.00     0.049 A 
ATOM     67  H   UNL A   1      45.190  28.176  29.942  1.00  0.00     0.167 HD
ATOM     68  C   UNL A   1      46.289  29.317  27.594  1.00  0.00     0.074 A 
ATOM     69  C   UNL A   1      46.559  30.252  26.522  1.00  0.00     0.031 C 
ATOM     70  C   UNL A   1      46.908  28.119  27.731  1.00  0.00     0.031 A 
BRANCH  57  71
ATOM     71  C   UNL A   1      45.084  24.901  32.681  1.00  0.00    -0.014 A 
ATOM     72  C   UNL A   1      44.259  23.785  32.468  1.00  0.00     0.009 A 
ATOM     73  C   UNL A   1      46.089  24.824  33.658  1.00  0.00     0.009 A 
ATOM     74  C   UNL A   1      44.415  22.631  33.239  1.00  0.00     0.001 A 
ATOM     75  C   UNL A   1      46.264  23.659  34.405  1.00  0.00     0.001 A 
ATOM     76  C   UNL A   1      45.422  22.567  34.202  1.00  0.00     0.000 A 
ENDBRANCH  57  71
BRANCH  58  77
ATOM     77  C   UNL A   1      43.888  33.354  27.494  1.00  0.00    -0.014 A 
ATOM     78  C   UNL A   1      43.895  34.602  28.137  1.00  0.00     0.009 A 
ATOM     79  C   UNL A   1      43.694  33.312  26.105  1.00  0.00     0.009 A 
ATOM     80  C   UNL A   1      43.670  35.775  27.413  1.00  0.00     0.001 A 
ATOM     81  C   UNL A   1      43.504  34.488  25.378  1.00  0.00     0.001 A 
ATOM     82  C   UNL A   1      43.477  35.718  26.034  1.00  0.00     0.000 A 
ENDBRANCH  58  77
BRANCH  70  83
ATOM     83  C   UNL A   1      47.901  27.733  26.670  1.00  0.00    -0.014 A 
ATOM     84  C   UNL A   1      49.226  28.196  26.702  1.00  0.00     0.009 A 
ATOM     85  C   UNL A   1      47.509  26.868  25.638  1.00  0.00     0.009 A 
ATOM     86  C   UNL A   1      50.125  27.833  25.697  1.00  0.00     0.001 A 
ATOM     87  C   UNL A   1      48.418  26.478  24.654  1.00  0.00     0.001 A 
ATOM     88  C   UNL A   1      49.722  26.971  24.678  1.00  0.00     0.000 A 
ENDBRANCH  70  83
ENDBRANCH  44  45
ENDBRANCH  36  39
ENDBRANCH  34  35
ENDBRANCH  33  34
ENDBRANCH  32  33
ENDBRANCH   1  32
TORSDOF 17
ENDMDL
MODEL 3
REMARK VINA RESULT:     -10.9      5.276     10.072
REMARK SMILES C=CCN1C(=O)/C(=C/c2ccccn2)S/C1=[NH+]\c1ccc(C(=O)NCCCCCCNC(=O)c2ccc(-c3c4nc(c(-c5ccccc5)c5ccc([nH]5)c(-c5ccccc5)c5nc(c(-c6ccccc6)c6ccc3[nH]6)C=C5)C=C4)cc2)cc1
REMARK SMILES IDX 27 1 26 2 25 3 24 4 22 5 23 6 21 8 18 9 19 10 83 11 20 12
REMARK SMILES IDX 82 13 17 14 4 15 5 16 16 17 6 18 7 19 15 20 8 21 3 23 2 24
REMARK SMILES IDX 1 25 9 26 10 27 14 28 11 29 13 30 12 31 28 32 29 33 30 34
REMARK SMILES IDX 31 35 32 36 33 38 34 39 35 40 81 41 36 42 80 43 37 44 38 45
REMARK SMILES IDX 39 46 74 47 40 48 79 49 73 50 75 51 41 52 78 53 72 54 71 55
REMARK SMILES IDX 42 57 64 58 49 59 63 60 50 61 53 62 62 63 76 64 51 65 52 66
REMARK SMILES IDX 61 68 77 69 54 70 43 71 44 72 48 73 45 74 47 75 46 76 65 77
REMARK SMILES IDX 66 78 70 79 67 80 69 81 68 82 55 83 56 84 60 85 57 86 59 87
REMARK SMILES IDX 58 88
REMARK H PARENT 24 7 17 22 31 37 75 56 53 67
REMARK Flexibility Score: inf
ROOT
ATOM      1  C   UNL A   1      33.374  35.143  28.567  1.00  0.00     0.002 C 
ENDROOT
BRANCH   1   2
ATOM      2  C   UNL A   1      32.897  36.315  29.435  1.00  0.00     0.021 C 
BRANCH   2   3
ATOM      3  C   UNL A   1      32.545  35.894  30.864  1.00  0.00     0.116 C 
BRANCH   3   4
ATOM      4  N   UNL A   1      33.025  36.894  31.800  1.00  0.00    -0.352 N 
ATOM      5  C   UNL A   1      33.974  36.847  32.787  1.00  0.00     0.251 C 
ATOM      6  O   UNL A   1      34.174  37.864  33.449  1.00  0.00    -0.269 OA
ATOM      7  H   UNL A   1      32.586  37.771  31.708  1.00  0.00     0.163 HD
BRANCH   5   8
ATOM      8  C   UNL A   1      34.815  35.646  33.029  1.00  0.00     0.040 A 
ATOM      9  C   UNL A   1      36.486  33.499  33.728  1.00  0.00     0.125 A 
ATOM     10  C   UNL A   1      35.509  33.941  34.619  1.00  0.00     0.052 A 
ATOM     11  C   UNL A   1      36.550  34.060  32.450  1.00  0.00     0.052 A 
ATOM     12  C   UNL A   1      34.683  35.014  34.275  1.00  0.00     0.018 A 
ATOM     13  C   UNL A   1      35.707  35.114  32.095  1.00  0.00     0.018 A 
BRANCH   9  14
ATOM     14  N   UNL A   1      37.359  32.469  34.089  1.00  0.00    -0.234 N 
ATOM     15  N   UNL A   1      39.027  31.641  35.500  1.00  0.00    -0.182 N 
ATOM     16  C   UNL A   1      39.865  31.953  36.546  1.00  0.00     0.349 C 
ATOM     17  C   UNL A   1      38.104  32.590  35.139  1.00  0.00     0.324 C 
ATOM     18  O   UNL A   1      40.794  31.270  36.962  1.00  0.00    -0.240 OA
ATOM     19  C   UNL A   1      39.481  33.266  37.132  1.00  0.00     0.111 C 
ATOM     20  S   UNL A   1      38.135  33.916  36.283  1.00  0.00     0.007 SA
ATOM     21  C   UNL A   1      40.138  33.805  38.169  1.00  0.00     0.052 C 
ATOM     22  H   UNL A   1      37.408  31.651  33.542  1.00  0.00     0.313 HD
BRANCH  15  23
ATOM     23  C   UNL A   1      39.145  30.382  34.793  1.00  0.00     0.275 C 
BRANCH  23  24
ATOM     24  C   UNL A   1      40.428  30.398  34.006  1.00  0.00     0.011 C 
ATOM     25  C   UNL A   1      41.087  29.297  33.616  1.00  0.00     0.008 C 
ENDBRANCH  23  24
ENDBRANCH  15  23
BRANCH  21  26
ATOM     26  C   UNL A   1      39.775  35.041  38.860  1.00  0.00     0.064 A 
ATOM     27  C   UNL A   1      38.968  35.022  39.996  1.00  0.00     0.028 A 
ATOM     28  N   UNL A   1      40.323  36.172  38.368  1.00  0.00    -0.257 NA
ATOM     29  C   UNL A   1      38.680  36.224  40.634  1.00  0.00     0.004 A 
ATOM     30  C   UNL A   1      40.023  37.326  39.008  1.00  0.00     0.111 A 
ATOM     31  C   UNL A   1      39.212  37.403  40.129  1.00  0.00     0.020 A 
ENDBRANCH  21  26
ENDBRANCH   9  14
ENDBRANCH   5   8
ENDBRANCH   3   4
ENDBRANCH   2   3
ENDBRANCH   1   2
BRANCH   1  32
ATOM     32  C   UNL A   1      34.897  35.014  28.455  1.00  0.00     0.002 C 
BRANCH  32  33
ATOM     33  C   UNL A   1      35.408  33.578  28.305  1.00  0.00     0.021 C 
BRANCH  33  34
ATOM     34  C   UNL A   1      34.832  32.606  29.328  1.00  0.00     0.116 C 
BRANCH  34  35
ATOM     35  N   UNL A   1      34.084  31.536  28.686  1.00  0.00    -0.352 N 
ATOM     36  C   UNL A   1      34.542  30.380  28.108  1.00  0.00     0.251 C 
ATOM     37  H   UNL A   1      33.108  31.661  28.662  1.00  0.00     0.163 HD
ATOM     38  O   UNL A   1      33.804  29.713  27.391  1.00  0.00    -0.269 OA
BRANCH  36  39
ATOM     39  C   UNL A   1      35.933  29.941  28.347  1.00  0.00     0.039 A 
ATOM     40  C   UNL A   1      36.879  30.117  27.335  1.00  0.00     0.014 A 
ATOM     41  C   UNL A   1      36.297  29.339  29.555  1.00  0.00     0.014 A 
ATOM     42  C   UNL A   1      38.202  29.730  27.554  1.00  0.00     0.010 A 
ATOM     43  C   UNL A   1      37.630  29.028  29.800  1.00  0.00     0.010 A 
ATOM     44  C   UNL A   1      38.594  29.210  28.799  1.00  0.00    -0.014 A 
BRANCH  44  45
ATOM     45  C   UNL A   1      40.009  28.848  29.062  1.00  0.00     0.031 A 
ATOM     46  C   UNL A   1      40.536  27.497  28.662  1.00  0.00     0.074 A 
ATOM     47  C   UNL A   1      40.812  29.726  29.697  1.00  0.00     0.049 A 
ATOM     48  N   UNL A   1      41.735  26.998  28.825  1.00  0.00    -0.248 NA
ATOM     49  C   UNL A   1      39.587  26.579  28.009  1.00  0.00     0.031 C 
ATOM     50  C   UNL A   1      40.412  31.054  30.167  1.00  0.00     0.029 A 
ATOM     51  N   UNL A   1      42.134  29.633  30.052  1.00  0.00    -0.354 N 
ATOM     52  C   UNL A   1      41.683  25.711  28.302  1.00  0.00     0.074 A 
ATOM     53  C   UNL A   1      40.321  25.484  27.873  1.00  0.00     0.031 C 
ATOM     54  C   UNL A   1      41.475  31.666  30.712  1.00  0.00     0.029 A 
ATOM     55  C   UNL A   1      42.617  30.759  30.673  1.00  0.00     0.049 A 
ATOM     56  H   UNL A   1      42.683  28.836  29.878  1.00  0.00     0.167 HD
ATOM     57  C   UNL A   1      42.683  24.809  28.168  1.00  0.00     0.031 A 
ATOM     58  C   UNL A   1      43.844  31.030  31.158  1.00  0.00     0.031 A 
ATOM     59  C   UNL A   1      44.038  25.035  28.597  1.00  0.00     0.049 A 
ATOM     60  C   UNL A   1      44.925  29.992  31.032  1.00  0.00     0.074 A 
ATOM     61  C   UNL A   1      45.132  24.197  28.473  1.00  0.00     0.029 A 
ATOM     62  N   UNL A   1      44.483  26.182  29.235  1.00  0.00    -0.354 N 
ATOM     63  N   UNL A   1      44.875  28.806  30.477  1.00  0.00    -0.248 NA
ATOM     64  C   UNL A   1      46.238  30.340  31.593  1.00  0.00     0.031 C 
ATOM     65  C   UNL A   1      46.226  24.813  29.086  1.00  0.00     0.029 A 
ATOM     66  C   UNL A   1      45.830  26.064  29.532  1.00  0.00     0.049 A 
ATOM     67  H   UNL A   1      43.924  26.965  29.445  1.00  0.00     0.167 HD
ATOM     68  C   UNL A   1      46.156  28.281  30.588  1.00  0.00     0.074 A 
ATOM     69  C   UNL A   1      46.964  29.286  31.246  1.00  0.00     0.031 C 
ATOM     70  C   UNL A   1      46.622  27.075  30.183  1.00  0.00     0.031 A 
BRANCH  57  71
ATOM     71  C   UNL A   1      42.347  23.487  27.531  1.00  0.00    -0.014 A 
ATOM     72  C   UNL A   1      42.719  23.205  26.207  1.00  0.00     0.009 A 
ATOM     73  C   UNL A   1      41.694  22.494  28.278  1.00  0.00     0.009 A 
ATOM     74  C   UNL A   1      42.414  21.969  25.634  1.00  0.00     0.001 A 
ATOM     75  C   UNL A   1      41.418  21.249  27.713  1.00  0.00     0.001 A 
ATOM     76  C   UNL A   1      41.770  20.989  26.390  1.00  0.00     0.000 A 
ENDBRANCH  57  71
BRANCH  58  77
ATOM     77  C   UNL A   1      44.127  32.341  31.802  1.00  0.00    -0.014 A 
ATOM     78  C   UNL A   1      43.696  32.600  33.113  1.00  0.00     0.009 A 
ATOM     79  C   UNL A   1      44.798  33.353  31.099  1.00  0.00     0.009 A 
ATOM     80  C   UNL A   1      43.896  33.856  33.690  1.00  0.00     0.001 A 
ATOM     81  C   UNL A   1      45.028  34.596  31.691  1.00  0.00     0.001 A 
ATOM     82  C   UNL A   1      44.564  34.853  32.980  1.00  0.00     0.000 A 
ENDBRANCH  58  77
BRANCH  70  83
ATOM     83  C   UNL A   1      48.085  26.796  30.398  1.00  0.00    -0.014 A 
ATOM     84  C   UNL A   1      48.567  26.313  31.624  1.00  0.00     0.009 A 
ATOM     85  C   UNL A   1      48.988  26.995  29.343  1.00  0.00     0.009 A 
ATOM     86  C   UNL A   1      49.931  26.075  31.802  1.00  0.00     0.001 A 
ATOM     87  C   UNL A   1      50.346  26.723  29.511  1.00  0.00     0.001 A 
ATOM     88  C   UNL A   1      50.818  26.275  30.745  1.00  0.00     0.000 A 
ENDBRANCH  70  83
ENDBRANCH  44  45
ENDBRANCH  36  39
ENDBRANCH  34  35
ENDBRANCH  33  34
ENDBRANCH  32  33
ENDBRANCH   1  32
TORSDOF 17
ENDMDL
