MODEL 1
REMARK VINA RESULT:     -11.0      0.000      0.000
REMARK SMILES C[C@]1(CNC(=O)N2CCOC[C@H]2C(=O)NCCCCCCNC(=O)c2ccc(-c3c4nc(c(-c5ccccc5)c5ccc([nH]5)c(-c5ccccc5)c5nc(c(-c6ccccc6)c6ccc3[nH]6)C=C5)C=C4)cc2)CCCO1
REMARK SMILES IDX 18 1 17 2 16 3 15 4 13 5 14 6 12 8 7 9 8 10 9 11 11 12 10 13
REMARK SMILES IDX 5 14 4 15 6 17 3 18 2 19 1 20 73 21 76 22 74 23 75 24 19 25
REMARK SMILES IDX 20 26 21 27 22 28 23 29 24 31 25 32 26 33 72 34 27 35 71 36
REMARK SMILES IDX 28 37 29 38 30 39 65 40 31 41 70 42 64 43 66 44 32 45 69 46
REMARK SMILES IDX 63 47 62 48 33 50 55 51 40 52 54 53 41 54 44 55 53 56 67 57
REMARK SMILES IDX 42 58 43 59 52 61 68 62 45 63 34 64 35 65 39 66 36 67 38 68
REMARK SMILES IDX 37 69 56 70 57 71 61 72 58 73 60 74 59 75 46 76 47 77 51 78
REMARK SMILES IDX 48 79 50 80 49 81
REMARK H PARENT 15 7 4 16 22 30 66 49 44 60
REMARK Flexibility Score: inf
ROOT
ATOM      1  C   UNL A   1      37.611  21.894  24.654  1.00  0.00     0.002 C 
ENDROOT
BRANCH   1   2
ATOM      2  C   UNL A   1      36.560  22.928  24.247  1.00  0.00     0.021 C 
BRANCH   2   3
ATOM      3  C   UNL A   1      36.178  23.916  25.358  1.00  0.00     0.116 C 
BRANCH   3   4
ATOM      4  N   UNL A   1      35.441  23.266  26.425  1.00  0.00    -0.354 N 
ATOM      5  C   UNL A   1      34.124  23.039  26.670  1.00  0.00     0.245 C 
ATOM      6  O   UNL A   1      33.910  22.275  27.623  1.00  0.00    -0.273 OA
ATOM      7  H   UNL A   1      36.027  22.909  27.131  1.00  0.00     0.163 HD
BRANCH   5   8
ATOM      8  C   UNL A   1      32.927  23.562  25.827  1.00  0.00     0.202 C 
ATOM      9  N   UNL A   1      31.951  22.588  25.276  1.00  0.00    -0.308 N 
ATOM     10  C   UNL A   1      30.804  22.355  26.127  1.00  0.00     0.151 C 
ATOM     11  C   UNL A   1      30.135  23.669  26.495  1.00  0.00     0.182 C 
ATOM     12  C   UNL A   1      32.230  24.787  26.455  1.00  0.00     0.195 C 
ATOM     13  O   UNL A   1      31.063  24.479  27.236  1.00  0.00    -0.377 OA
BRANCH   9  14
ATOM     14  C   UNL A   1      32.217  22.042  24.063  1.00  0.00     0.318 C 
ATOM     15  N   UNL A   1      32.953  20.935  23.884  1.00  0.00    -0.335 N 
ATOM     16  H   UNL A   1      33.183  20.826  22.933  1.00  0.00     0.165 HD
ATOM     17  O   UNL A   1      31.762  22.528  23.023  1.00  0.00    -0.249 OA
BRANCH  15  18
ATOM     18  C   UNL A   1      33.519  19.839  24.671  1.00  0.00     0.152 C 
BRANCH  18  19
ATOM     19  C   UNL A   1      33.115  18.404  24.245  1.00  0.00     0.083 C 
ATOM     20  C   UNL A   1      32.459  18.340  22.862  1.00  0.00     0.044 C 
ATOM     21  C   UNL A   1      34.344  17.489  24.328  1.00  0.00     0.039 C 
ATOM     22  O   UNL A   1      32.177  17.852  25.200  1.00  0.00    -0.373 OA
ATOM     23  C   UNL A   1      33.755  16.146  24.668  1.00  0.00     0.031 C 
ATOM     24  C   UNL A   1      32.601  16.527  25.570  1.00  0.00     0.161 C 
ENDBRANCH  18  19
ENDBRANCH  15  18
ENDBRANCH   9  14
ENDBRANCH   5   8
ENDBRANCH   3   4
ENDBRANCH   2   3
ENDBRANCH   1   2
BRANCH   1  25
ATOM     25  C   UNL A   1      37.123  20.440  24.634  1.00  0.00     0.002 C 
BRANCH  25  26
ATOM     26  C   UNL A   1      38.155  19.381  25.038  1.00  0.00     0.021 C 
BRANCH  26  27
ATOM     27  C   UNL A   1      39.259  19.865  25.977  1.00  0.00     0.116 C 
BRANCH  27  28
ATOM     28  N   UNL A   1      40.395  18.958  26.003  1.00  0.00    -0.352 N 
ATOM     29  C   UNL A   1      41.737  19.223  26.112  1.00  0.00     0.251 C 
ATOM     30  H   UNL A   1      40.165  18.004  25.930  1.00  0.00     0.163 HD
ATOM     31  O   UNL A   1      42.556  18.336  25.897  1.00  0.00    -0.269 OA
BRANCH  29  32
ATOM     32  C   UNL A   1      42.207  20.574  26.485  1.00  0.00     0.039 A 
ATOM     33  C   UNL A   1      42.589  21.459  25.470  1.00  0.00     0.014 A 
ATOM     34  C   UNL A   1      42.324  20.951  27.826  1.00  0.00     0.014 A 
ATOM     35  C   UNL A   1      43.042  22.738  25.800  1.00  0.00     0.010 A 
ATOM     36  C   UNL A   1      42.718  22.248  28.150  1.00  0.00     0.010 A 
ATOM     37  C   UNL A   1      43.089  23.150  27.141  1.00  0.00    -0.014 A 
BRANCH  37  38
ATOM     38  C   UNL A   1      43.535  24.516  27.509  1.00  0.00     0.031 A 
ATOM     39  C   UNL A   1      42.530  25.557  27.913  1.00  0.00     0.074 A 
ATOM     40  C   UNL A   1      44.840  24.836  27.428  1.00  0.00     0.049 A 
ATOM     41  N   UNL A   1      42.720  26.818  28.214  1.00  0.00    -0.248 NA
ATOM     42  C   UNL A   1      41.121  25.133  27.963  1.00  0.00     0.031 C 
ATOM     43  C   UNL A   1      45.914  23.924  27.029  1.00  0.00     0.029 A 
ATOM     44  N   UNL A   1      45.485  26.021  27.677  1.00  0.00    -0.354 N 
ATOM     45  C   UNL A   1      41.458  27.338  28.473  1.00  0.00     0.074 A 
ATOM     46  C   UNL A   1      40.506  26.271  28.247  1.00  0.00     0.031 C 
ATOM     47  C   UNL A   1      47.087  24.574  27.092  1.00  0.00     0.029 A 
ATOM     48  C   UNL A   1      46.845  25.955  27.497  1.00  0.00     0.049 A 
ATOM     49  H   UNL A   1      45.018  26.840  27.958  1.00  0.00     0.167 HD
ATOM     50  C   UNL A   1      41.120  28.584  28.879  1.00  0.00     0.031 A 
ATOM     51  C   UNL A   1      47.791  26.902  27.640  1.00  0.00     0.031 A 
ATOM     52  C   UNL A   1      42.063  29.645  29.112  1.00  0.00     0.049 A 
ATOM     53  C   UNL A   1      47.389  28.286  28.066  1.00  0.00     0.074 A 
ATOM     54  C   UNL A   1      41.826  30.930  29.569  1.00  0.00     0.029 A 
ATOM     55  N   UNL A   1      43.430  29.540  28.905  1.00  0.00    -0.354 N 
ATOM     56  N   UNL A   1      46.197  28.748  28.351  1.00  0.00    -0.248 NA
ATOM     57  C   UNL A   1      48.469  29.275  28.194  1.00  0.00     0.031 C 
ATOM     58  C   UNL A   1      43.045  31.616  29.598  1.00  0.00     0.029 A 
ATOM     59  C   UNL A   1      44.047  30.743  29.205  1.00  0.00     0.049 A 
ATOM     60  H   UNL A   1      43.894  28.730  28.592  1.00  0.00     0.167 HD
ATOM     61  C   UNL A   1      46.384  30.073  28.722  1.00  0.00     0.074 A 
ATOM     62  C   UNL A   1      47.807  30.336  28.633  1.00  0.00     0.031 C 
ATOM     63  C   UNL A   1      45.462  30.989  29.106  1.00  0.00     0.031 A 
BRANCH  50  64
ATOM     64  C   UNL A   1      39.657  28.865  29.087  1.00  0.00    -0.014 A 
ATOM     65  C   UNL A   1      39.044  28.645  30.331  1.00  0.00     0.009 A 
ATOM     66  C   UNL A   1      38.882  29.361  28.027  1.00  0.00     0.009 A 
ATOM     67  C   UNL A   1      37.677  28.875  30.496  1.00  0.00     0.001 A 
ATOM     68  C   UNL A   1      37.521  29.617  28.204  1.00  0.00     0.001 A 
ATOM     69  C   UNL A   1      36.916  29.362  29.435  1.00  0.00     0.000 A 
ENDBRANCH  50  64
BRANCH  51  70
ATOM     70  C   UNL A   1      49.218  26.564  27.413  1.00  0.00    -0.014 A 
ATOM     71  C   UNL A   1      50.020  26.135  28.482  1.00  0.00     0.009 A 
ATOM     72  C   UNL A   1      49.786  26.662  26.134  1.00  0.00     0.009 A 
ATOM     73  C   UNL A   1      51.367  25.830  28.278  1.00  0.00     0.001 A 
ATOM     74  C   UNL A   1      51.128  26.334  25.928  1.00  0.00     0.001 A 
ATOM     75  C   UNL A   1      51.919  25.925  27.002  1.00  0.00     0.000 A 
ENDBRANCH  51  70
BRANCH  63  76
ATOM     76  C   UNL A   1      45.969  32.350  29.490  1.00  0.00    -0.014 A 
ATOM     77  C   UNL A   1      46.109  33.370  28.536  1.00  0.00     0.009 A 
ATOM     78  C   UNL A   1      46.281  32.621  30.831  1.00  0.00     0.009 A 
ATOM     79  C   UNL A   1      46.581  34.628  28.915  1.00  0.00     0.001 A 
ATOM     80  C   UNL A   1      46.728  33.887  31.210  1.00  0.00     0.001 A 
ATOM     81  C   UNL A   1      46.886  34.886  30.251  1.00  0.00     0.000 A 
ENDBRANCH  63  76
ENDBRANCH  37  38
ENDBRANCH  29  32
ENDBRANCH  27  28
ENDBRANCH  26  27
ENDBRANCH  25  26
ENDBRANCH   1  25
TORSDOF 16
ENDMDL
MODEL 2
REMARK VINA RESULT:     -10.9      5.902     10.854
REMARK SMILES C[C@]1(CNC(=O)N2CCOC[C@H]2C(=O)NCCCCCCNC(=O)c2ccc(-c3c4nc(c(-c5ccccc5)c5ccc([nH]5)c(-c5ccccc5)c5nc(c(-c6ccccc6)c6ccc3[nH]6)C=C5)C=C4)cc2)CCCO1
REMARK SMILES IDX 18 1 17 2 16 3 15 4 13 5 14 6 12 8 7 9 8 10 9 11 11 12 10 13
REMARK SMILES IDX 5 14 4 15 6 17 3 18 2 19 1 20 73 21 76 22 74 23 75 24 19 25
REMARK SMILES IDX 20 26 21 27 22 28 23 29 24 31 25 32 26 33 72 34 27 35 71 36
REMARK SMILES IDX 28 37 29 38 30 39 65 40 31 41 70 42 64 43 66 44 32 45 69 46
REMARK SMILES IDX 63 47 62 48 33 50 55 51 40 52 54 53 41 54 44 55 53 56 67 57
REMARK SMILES IDX 42 58 43 59 52 61 68 62 45 63 34 64 35 65 39 66 36 67 38 68
REMARK SMILES IDX 37 69 56 70 57 71 61 72 58 73 60 74 59 75 46 76 47 77 51 78
REMARK SMILES IDX 48 79 50 80 49 81
REMARK H PARENT 15 7 4 16 22 30 66 49 44 60
REMARK Flexibility Score: inf
ROOT
ATOM      1  C   UNL A   1      32.571  30.094  27.270  1.00  0.00     0.002 C 
ENDROOT
BRANCH   1   2
ATOM      2  C   UNL A   1      32.558  28.568  27.171  1.00  0.00     0.021 C 
BRANCH   2   3
ATOM      3  C   UNL A   1      33.824  27.962  26.548  1.00  0.00     0.116 C 
BRANCH   3   4
ATOM      4  N   UNL A   1      33.936  28.284  25.139  1.00  0.00    -0.354 N 
ATOM      5  C   UNL A   1      33.549  27.670  23.990  1.00  0.00     0.245 C 
ATOM      6  O   UNL A   1      33.674  28.371  22.974  1.00  0.00    -0.273 OA
ATOM      7  H   UNL A   1      34.395  29.139  24.977  1.00  0.00     0.163 HD
BRANCH   5   8
ATOM      8  C   UNL A   1      32.903  26.261  23.870  1.00  0.00     0.202 C 
ATOM      9  N   UNL A   1      31.734  26.075  22.976  1.00  0.00    -0.308 N 
ATOM     10  C   UNL A   1      32.076  25.654  21.634  1.00  0.00     0.151 C 
ATOM     11  C   UNL A   1      32.953  24.413  21.671  1.00  0.00     0.182 C 
ATOM     12  C   UNL A   1      33.941  25.130  23.709  1.00  0.00     0.195 C 
ATOM     13  O   UNL A   1      34.181  24.724  22.350  1.00  0.00    -0.377 OA
BRANCH   9  14
ATOM     14  C   UNL A   1      30.500  26.300  23.492  1.00  0.00     0.318 C 
ATOM     15  N   UNL A   1      29.822  27.449  23.345  1.00  0.00    -0.335 N 
ATOM     16  H   UNL A   1      29.049  27.470  23.953  1.00  0.00     0.165 HD
ATOM     17  O   UNL A   1      29.896  25.427  24.122  1.00  0.00    -0.249 OA
BRANCH  15  18
ATOM     18  C   UNL A   1      29.883  28.679  22.557  1.00  0.00     0.152 C 
BRANCH  18  19
ATOM     19  C   UNL A   1      28.612  29.567  22.565  1.00  0.00     0.083 C 
ATOM     20  C   UNL A   1      27.344  28.812  22.975  1.00  0.00     0.044 C 
ATOM     21  C   UNL A   1      28.855  30.788  23.462  1.00  0.00     0.039 C 
ATOM     22  O   UNL A   1      28.386  30.117  21.244  1.00  0.00    -0.373 OA
ATOM     23  C   UNL A   1      28.010  31.860  22.826  1.00  0.00     0.031 C 
ATOM     24  C   UNL A   1      28.137  31.530  21.355  1.00  0.00     0.161 C 
ENDBRANCH  18  19
ENDBRANCH  15  18
ENDBRANCH   9  14
ENDBRANCH   5   8
ENDBRANCH   3   4
ENDBRANCH   2   3
ENDBRANCH   1   2
BRANCH   1  25
ATOM     25  C   UNL A   1      31.412  30.794  26.548  1.00  0.00     0.002 C 
BRANCH  25  26
ATOM     26  C   UNL A   1      31.372  32.322  26.668  1.00  0.00     0.021 C 
BRANCH  26  27
ATOM     27  C   UNL A   1      32.676  32.980  27.120  1.00  0.00     0.116 C 
BRANCH  27  28
ATOM     28  N   UNL A   1      32.463  34.321  27.638  1.00  0.00    -0.352 N 
ATOM     29  C   UNL A   1      33.040  34.959  28.707  1.00  0.00     0.251 C 
ATOM     30  H   UNL A   1      31.802  34.856  27.143  1.00  0.00     0.163 HD
ATOM     31  O   UNL A   1      32.572  36.016  29.116  1.00  0.00    -0.269 OA
BRANCH  29  32
ATOM     32  C   UNL A   1      34.224  34.379  29.377  1.00  0.00     0.039 A 
ATOM     33  C   UNL A   1      34.051  33.713  30.595  1.00  0.00     0.014 A 
ATOM     34  C   UNL A   1      35.504  34.537  28.839  1.00  0.00     0.014 A 
ATOM     35  C   UNL A   1      35.156  33.163  31.248  1.00  0.00     0.010 A 
ATOM     36  C   UNL A   1      36.597  33.936  29.461  1.00  0.00     0.010 A 
ATOM     37  C   UNL A   1      36.434  33.251  30.674  1.00  0.00    -0.014 A 
BRANCH  37  38
ATOM     38  C   UNL A   1      37.616  32.645  31.336  1.00  0.00     0.031 A 
ATOM     39  C   UNL A   1      38.295  31.451  30.726  1.00  0.00     0.074 A 
ATOM     40  C   UNL A   1      38.045  33.134  32.515  1.00  0.00     0.049 A 
ATOM     41  N   UNL A   1      39.302  30.750  31.182  1.00  0.00    -0.248 NA
ATOM     42  C   UNL A   1      37.757  30.968  29.444  1.00  0.00     0.031 C 
ATOM     43  C   UNL A   1      37.459  34.274  33.223  1.00  0.00     0.029 A 
ATOM     44  N   UNL A   1      39.075  32.730  33.326  1.00  0.00    -0.354 N 
ATOM     45  C   UNL A   1      39.507  29.736  30.254  1.00  0.00     0.074 A 
ATOM     46  C   UNL A   1      38.490  29.885  29.234  1.00  0.00     0.031 C 
ATOM     47  C   UNL A   1      38.160  34.498  34.346  1.00  0.00     0.029 A 
ATOM     48  C   UNL A   1      39.217  33.497  34.456  1.00  0.00     0.049 A 
ATOM     49  H   UNL A   1      39.657  31.965  33.117  1.00  0.00     0.167 HD
ATOM     50  C   UNL A   1      40.465  28.779  30.239  1.00  0.00     0.031 A 
ATOM     51  C   UNL A   1      40.098  33.403  35.469  1.00  0.00     0.031 A 
ATOM     52  C   UNL A   1      41.481  28.633  31.247  1.00  0.00     0.049 A 
ATOM     53  C   UNL A   1      41.135  32.316  35.444  1.00  0.00     0.074 A 
ATOM     54  C   UNL A   1      42.524  27.724  31.299  1.00  0.00     0.029 A 
ATOM     55  N   UNL A   1      41.581  29.423  32.382  1.00  0.00    -0.354 N 
ATOM     56  N   UNL A   1      41.344  31.395  34.537  1.00  0.00    -0.248 NA
ATOM     57  C   UNL A   1      42.060  32.263  36.585  1.00  0.00     0.031 C 
ATOM     58  C   UNL A   1      43.230  27.936  32.488  1.00  0.00     0.029 A 
ATOM     59  C   UNL A   1      42.655  29.008  33.152  1.00  0.00     0.049 A 
ATOM     60  H   UNL A   1      40.978  30.168  32.607  1.00  0.00     0.167 HD
ATOM     61  C   UNL A   1      42.442  30.669  34.980  1.00  0.00     0.074 A 
ATOM     62  C   UNL A   1      42.859  31.265  36.233  1.00  0.00     0.031 C 
ATOM     63  C   UNL A   1      43.053  29.609  34.399  1.00  0.00     0.031 A 
BRANCH  50  64
ATOM     64  C   UNL A   1      40.444  27.806  29.093  1.00  0.00    -0.014 A 
ATOM     65  C   UNL A   1      41.198  28.036  27.930  1.00  0.00     0.009 A 
ATOM     66  C   UNL A   1      39.665  26.641  29.177  1.00  0.00     0.009 A 
ATOM     67  C   UNL A   1      41.137  27.142  26.859  1.00  0.00     0.001 A 
ATOM     68  C   UNL A   1      39.630  25.735  28.115  1.00  0.00     0.001 A 
ATOM     69  C   UNL A   1      40.356  25.991  26.953  1.00  0.00     0.000 A 
ENDBRANCH  50  64
BRANCH  51  70
ATOM     70  C   UNL A   1      40.062  34.391  36.577  1.00  0.00    -0.014 A 
ATOM     71  C   UNL A   1      40.843  35.554  36.509  1.00  0.00     0.009 A 
ATOM     72  C   UNL A   1      39.250  34.181  37.701  1.00  0.00     0.009 A 
ATOM     73  C   UNL A   1      40.825  36.480  37.555  1.00  0.00     0.001 A 
ATOM     74  C   UNL A   1      39.216  35.120  38.735  1.00  0.00     0.001 A 
ATOM     75  C   UNL A   1      40.009  36.264  38.665  1.00  0.00     0.000 A 
ENDBRANCH  51  70
BRANCH  63  76
ATOM     76  C   UNL A   1      44.258  29.047  35.098  1.00  0.00    -0.014 A 
ATOM     77  C   UNL A   1      45.547  29.533  34.831  1.00  0.00     0.009 A 
ATOM     78  C   UNL A   1      44.095  28.037  36.058  1.00  0.00     0.009 A 
ATOM     79  C   UNL A   1      46.653  28.997  35.493  1.00  0.00     0.001 A 
ATOM     80  C   UNL A   1      45.199  27.521  36.736  1.00  0.00     0.001 A 
ATOM     81  C   UNL A   1      46.478  27.994  36.447  1.00  0.00     0.000 A 
ENDBRANCH  63  76
ENDBRANCH  37  38
ENDBRANCH  29  32
ENDBRANCH  27  28
ENDBRANCH  26  27
ENDBRANCH  25  26
ENDBRANCH   1  25
TORSDOF 16
ENDMDL
MODEL 3
REMARK VINA RESULT:     -10.9      5.034      9.810
REMARK SMILES C[C@]1(CNC(=O)N2CCOC[C@H]2C(=O)NCCCCCCNC(=O)c2ccc(-c3c4nc(c(-c5ccccc5)c5ccc([nH]5)c(-c5ccccc5)c5nc(c(-c6ccccc6)c6ccc3[nH]6)C=C5)C=C4)cc2)CCCO1
REMARK SMILES IDX 18 1 17 2 16 3 15 4 13 5 14 6 12 8 7 9 8 10 9 11 11 12 10 13
REMARK SMILES IDX 5 14 4 15 6 17 3 18 2 19 1 20 73 21 76 22 74 23 75 24 19 25
REMARK SMILES IDX 20 26 21 27 22 28 23 29 24 31 25 32 26 33 72 34 27 35 71 36
REMARK SMILES IDX 28 37 29 38 30 39 65 40 31 41 70 42 64 43 66 44 32 45 69 46
REMARK SMILES IDX 63 47 62 48 33 50 55 51 40 52 54 53 41 54 44 55 53 56 67 57
REMARK SMILES IDX 42 58 43 59 52 61 68 62 45 63 34 64 35 65 39 66 36 67 38 68
REMARK SMILES IDX 37 69 56 70 57 71 61 72 58 73 60 74 59 75 46 76 47 77 51 78
REMARK SMILES IDX 48 79 50 80 49 81
REMARK H PARENT 15 7 4 16 22 30 66 49 44 60
REMARK Flexibility Score: inf
ROOT
ATOM      1  C   UNL A   1      32.466  29.799  26.798  1.00  0.00     0.002 C 
ENDROOT
BRANCH   1   2
ATOM      2  C   UNL A   1      31.927  28.610  27.596  1.00  0.00     0.021 C 
BRANCH   2   3
ATOM      3  C   UNL A   1      32.033  27.260  26.874  1.00  0.00     0.116 C 
BRANCH   3   4
ATOM      4  N   UNL A   1      30.763  26.856  26.302  1.00  0.00    -0.354 N 
ATOM      5  C   UNL A   1      30.398  26.058  25.265  1.00  0.00     0.245 C 
ATOM      6  O   UNL A   1      29.181  25.821  25.212  1.00  0.00    -0.273 OA
ATOM      7  H   UNL A   1      29.991  27.248  26.771  1.00  0.00     0.163 HD
BRANCH   5   8
ATOM      8  C   UNL A   1      31.354  25.373  24.248  1.00  0.00     0.202 C 
ATOM      9  N   UNL A   1      32.187  26.219  23.357  1.00  0.00    -0.308 N 
ATOM     10  C   UNL A   1      33.506  26.506  23.879  1.00  0.00     0.151 C 
ATOM     11  C   UNL A   1      34.222  25.221  24.259  1.00  0.00     0.182 C 
ATOM     12  C   UNL A   1      32.160  24.209  24.861  1.00  0.00     0.195 C 
ATOM     13  O   UNL A   1      33.484  24.560  25.300  1.00  0.00    -0.377 OA
BRANCH   9  14
ATOM     14  C   UNL A   1      31.651  26.614  22.176  1.00  0.00     0.318 C 
ATOM     15  N   UNL A   1      30.938  27.739  22.014  1.00  0.00    -0.335 N 
ATOM     16  H   UNL A   1      30.484  27.734  21.140  1.00  0.00     0.165 HD
ATOM     17  O   UNL A   1      31.815  25.959  21.142  1.00  0.00    -0.249 OA
BRANCH  15  18
ATOM     18  C   UNL A   1      30.628  28.970  22.740  1.00  0.00     0.152 C 
BRANCH  18  19
ATOM     19  C   UNL A   1      29.161  29.466  22.664  1.00  0.00     0.083 C 
ATOM     20  C   UNL A   1      28.141  28.426  23.138  1.00  0.00     0.044 C 
ATOM     21  C   UNL A   1      29.032  30.780  23.446  1.00  0.00     0.039 C 
ATOM     22  O   UNL A   1      28.829  29.814  21.298  1.00  0.00    -0.373 OA
ATOM     23  C   UNL A   1      27.941  31.515  22.712  1.00  0.00     0.031 C 
ATOM     24  C   UNL A   1      28.195  31.106  21.278  1.00  0.00     0.161 C 
ENDBRANCH  18  19
ENDBRANCH  15  18
ENDBRANCH   9  14
ENDBRANCH   5   8
ENDBRANCH   3   4
ENDBRANCH   2   3
ENDBRANCH   1   2
BRANCH   1  25
ATOM     25  C   UNL A   1      31.392  30.662  26.126  1.00  0.00     0.002 C 
BRANCH  25  26
ATOM     26  C   UNL A   1      31.319  32.122  26.588  1.00  0.00     0.021 C 
BRANCH  26  27
ATOM     27  C   UNL A   1      32.658  32.766  26.946  1.00  0.00     0.116 C 
BRANCH  27  28
ATOM     28  N   UNL A   1      32.491  34.026  27.650  1.00  0.00    -0.352 N 
ATOM     29  C   UNL A   1      33.178  34.540  28.721  1.00  0.00     0.251 C 
ATOM     30  H   UNL A   1      31.771  34.601  27.305  1.00  0.00     0.163 HD
ATOM     31  O   UNL A   1      32.748  35.525  29.310  1.00  0.00    -0.269 OA
BRANCH  29  32
ATOM     32  C   UNL A   1      34.438  33.911  29.175  1.00  0.00     0.039 A 
ATOM     33  C   UNL A   1      34.397  33.026  30.258  1.00  0.00     0.014 A 
ATOM     34  C   UNL A   1      35.659  34.233  28.577  1.00  0.00     0.014 A 
ATOM     35  C   UNL A   1      35.575  32.426  30.707  1.00  0.00     0.010 A 
ATOM     36  C   UNL A   1      36.824  33.587  28.987  1.00  0.00     0.010 A 
ATOM     37  C   UNL A   1      36.794  32.685  30.061  1.00  0.00    -0.014 A 
BRANCH  37  38
ATOM     38  C   UNL A   1      38.051  32.032  30.503  1.00  0.00     0.031 A 
ATOM     39  C   UNL A   1      38.892  32.660  31.579  1.00  0.00     0.074 A 
ATOM     40  C   UNL A   1      38.465  30.903  29.898  1.00  0.00     0.049 A 
ATOM     41  N   UNL A   1      40.047  32.272  32.058  1.00  0.00    -0.248 NA
ATOM     42  C   UNL A   1      38.378  33.902  32.180  1.00  0.00     0.031 C 
ATOM     43  C   UNL A   1      37.752  30.205  28.826  1.00  0.00     0.029 A 
ATOM     44  N   UNL A   1      39.590  30.143  30.101  1.00  0.00    -0.354 N 
ATOM     45  C   UNL A   1      40.403  33.226  33.003  1.00  0.00     0.074 A 
ATOM     46  C   UNL A   1      39.367  34.237  32.994  1.00  0.00     0.031 C 
ATOM     47  C   UNL A   1      38.441  29.102  28.488  1.00  0.00     0.029 A 
ATOM     48  C   UNL A   1      39.659  29.037  29.290  1.00  0.00     0.049 A 
ATOM     49  H   UNL A   1      40.281  30.370  30.764  1.00  0.00     0.167 HD
ATOM     50  C   UNL A   1      41.485  33.253  33.817  1.00  0.00     0.031 A 
ATOM     51  C   UNL A   1      40.599  28.078  29.201  1.00  0.00     0.031 A 
ATOM     52  C   UNL A   1      42.513  32.246  33.833  1.00  0.00     0.049 A 
ATOM     53  C   UNL A   1      41.804  28.144  30.096  1.00  0.00     0.074 A 
ATOM     54  C   UNL A   1      43.625  32.159  34.653  1.00  0.00     0.029 A 
ATOM     55  N   UNL A   1      42.551  31.149  32.987  1.00  0.00    -0.354 N 
ATOM     56  N   UNL A   1      42.102  29.028  31.016  1.00  0.00    -0.248 NA
ATOM     57  C   UNL A   1      42.797  27.071  29.942  1.00  0.00     0.031 C 
ATOM     58  C   UNL A   1      44.359  31.030  34.273  1.00  0.00     0.029 A 
ATOM     59  C   UNL A   1      43.679  30.389  33.250  1.00  0.00     0.049 A 
ATOM     60  H   UNL A   1      41.876  30.940  32.302  1.00  0.00     0.167 HD
ATOM     61  C   UNL A   1      43.303  28.604  31.571  1.00  0.00     0.074 A 
ATOM     62  C   UNL A   1      43.671  27.379  30.890  1.00  0.00     0.031 C 
ATOM     63  C   UNL A   1      44.032  29.176  32.560  1.00  0.00     0.031 A 
BRANCH  50  64
ATOM     64  C   UNL A   1      41.610  34.423  34.753  1.00  0.00    -0.014 A 
ATOM     65  C   UNL A   1      42.265  35.602  34.360  1.00  0.00     0.009 A 
ATOM     66  C   UNL A   1      41.060  34.350  36.042  1.00  0.00     0.009 A 
ATOM     67  C   UNL A   1      42.406  36.665  35.254  1.00  0.00     0.001 A 
ATOM     68  C   UNL A   1      41.177  35.427  36.924  1.00  0.00     0.001 A 
ATOM     69  C   UNL A   1      41.860  36.578  36.534  1.00  0.00     0.000 A 
ENDBRANCH  50  64
BRANCH  51  70
ATOM     70  C   UNL A   1      40.421  26.951  28.251  1.00  0.00    -0.014 A 
ATOM     71  C   UNL A   1      40.971  27.023  26.962  1.00  0.00     0.009 A 
ATOM     72  C   UNL A   1      39.708  25.802  28.624  1.00  0.00     0.009 A 
ATOM     73  C   UNL A   1      40.794  25.973  26.059  1.00  0.00     0.001 A 
ATOM     74  C   UNL A   1      39.553  24.744  27.726  1.00  0.00     0.001 A 
ATOM     75  C   UNL A   1      40.089  24.833  26.442  1.00  0.00     0.000 A 
ENDBRANCH  51  70
BRANCH  63  76
ATOM     76  C   UNL A   1      45.284  28.464  32.985  1.00  0.00    -0.014 A 
ATOM     77  C   UNL A   1      45.255  27.466  33.971  1.00  0.00     0.009 A 
ATOM     78  C   UNL A   1      46.504  28.776  32.367  1.00  0.00     0.009 A 
ATOM     79  C   UNL A   1      46.431  26.816  34.351  1.00  0.00     0.001 A 
ATOM     80  C   UNL A   1      47.673  28.107  32.730  1.00  0.00     0.001 A 
ATOM     81  C   UNL A   1      47.637  27.134  33.728  1.00  0.00     0.000 A 
ENDBRANCH  63  76
ENDBRANCH  37  38
ENDBRANCH  29  32
ENDBRANCH  27  28
ENDBRANCH  26  27
ENDBRANCH  25  26
ENDBRANCH   1  25
TORSDOF 16
ENDMDL
