MODEL 1
REMARK VINA RESULT:     -12.1      0.000      0.000
REMARK SMILES O=C(NCCCCCCNC(=O)c1cccc2c1ccn2Cc1ccncc1)c1ccc(-c2c3nc(c(-c4ccccc4)c4ccc([nH]4)c(-c4ccccc4)c4nc(c(-c5ccccc5)c5ccc2[nH]5)C=C4)C=C3)cc1
REMARK SMILES IDX 6 1 5 2 4 3 3 4 1 5 2 6 29 8 30 9 76 10 31 11 75 12 32 13
REMARK SMILES IDX 33 14 34 15 69 16 35 17 74 18 68 19 70 20 36 21 73 22 67 23
REMARK SMILES IDX 66 24 37 26 59 27 44 28 58 29 45 30 48 31 57 32 71 33 46 34
REMARK SMILES IDX 47 35 56 37 72 38 49 39 38 40 39 41 43 42 40 43 42 44 41 45
REMARK SMILES IDX 60 46 61 47 65 48 62 49 64 50 63 51 50 52 51 53 55 54 52 55
REMARK SMILES IDX 54 56 53 57 7 58 8 59 9 60 10 61 11 62 12 64 13 65 14 66
REMARK SMILES IDX 18 67 15 68 17 69 19 70 16 71 21 72 20 73 22 74 23 75 24 76
REMARK SMILES IDX 28 77 25 78 27 79 26 80
REMARK H PARENT 3 7 70 25 48 36 10 63
REMARK Flexibility Score: inf
ROOT
ATOM      1  C   UNL A   1      31.654  30.495  25.715  1.00  0.00     0.002 C 
ENDROOT
BRANCH   1   2
ATOM      2  C   UNL A   1      31.300  31.839  26.366  1.00  0.00     0.021 C 
BRANCH   2   3
ATOM      3  C   UNL A   1      32.364  32.379  27.303  1.00  0.00     0.116 C 
BRANCH   3   4
ATOM      4  N   UNL A   1      32.282  33.830  27.540  1.00  0.00    -0.352 N 
ATOM      5  O   UNL A   1      32.579  35.687  28.841  1.00  0.00    -0.269 OA
ATOM      6  C   UNL A   1      32.974  34.593  28.483  1.00  0.00     0.251 C 
ATOM      7  H   UNL A   1      31.661  34.325  26.959  1.00  0.00     0.163 HD
BRANCH   6   8
ATOM      8  C   UNL A   1      34.233  34.038  29.014  1.00  0.00     0.039 A 
ATOM      9  C   UNL A   1      34.377  33.379  30.238  1.00  0.00     0.014 A 
ATOM     10  C   UNL A   1      35.302  34.124  28.148  1.00  0.00     0.014 A 
ATOM     11  C   UNL A   1      35.626  32.824  30.528  1.00  0.00     0.010 A 
ATOM     12  C   UNL A   1      36.243  33.158  28.229  1.00  0.00     0.010 A 
ATOM     13  C   UNL A   1      36.573  32.754  29.497  1.00  0.00    -0.014 A 
BRANCH  13  14
ATOM     14  C   UNL A   1      37.932  32.263  29.631  1.00  0.00     0.031 A 
ATOM     15  C   UNL A   1      38.095  30.846  29.266  1.00  0.00     0.074 A 
ATOM     16  C   UNL A   1      38.990  33.084  29.847  1.00  0.00     0.049 A 
ATOM     17  N   UNL A   1      38.354  29.870  30.062  1.00  0.00    -0.248 NA
ATOM     18  C   UNL A   1      37.777  30.442  27.889  1.00  0.00     0.031 C 
ATOM     19  C   UNL A   1      39.045  34.557  29.901  1.00  0.00     0.029 A 
ATOM     20  N   UNL A   1      40.300  32.751  29.975  1.00  0.00    -0.354 N 
ATOM     21  C   UNL A   1      38.405  28.733  29.268  1.00  0.00     0.074 A 
ATOM     22  C   UNL A   1      37.874  29.115  27.983  1.00  0.00     0.031 C 
ATOM     23  C   UNL A   1      40.330  34.976  29.817  1.00  0.00     0.029 A 
ATOM     24  C   UNL A   1      41.193  33.814  29.901  1.00  0.00     0.049 A 
ATOM     25  H   UNL A   1      40.597  31.822  30.110  1.00  0.00     0.167 HD
ATOM     26  C   UNL A   1      39.075  27.623  29.680  1.00  0.00     0.031 A 
ATOM     27  C   UNL A   1      42.547  33.732  29.908  1.00  0.00     0.031 A 
ATOM     28  C   UNL A   1      39.400  27.700  31.083  1.00  0.00     0.049 A 
ATOM     29  C   UNL A   1      42.889  32.415  30.498  1.00  0.00     0.074 A 
ATOM     30  C   UNL A   1      38.643  27.749  32.237  1.00  0.00     0.029 A 
ATOM     31  N   UNL A   1      40.639  28.199  31.417  1.00  0.00    -0.354 N 
ATOM     32  N   UNL A   1      42.637  32.098  31.735  1.00  0.00    -0.248 NA
ATOM     33  C   UNL A   1      43.061  31.295  29.586  1.00  0.00     0.031 C 
ATOM     34  C   UNL A   1      39.297  28.712  33.060  1.00  0.00     0.029 A 
ATOM     35  C   UNL A   1      40.466  29.126  32.416  1.00  0.00     0.049 A 
ATOM     36  H   UNL A   1      41.497  27.937  31.011  1.00  0.00     0.167 HD
ATOM     37  C   UNL A   1      42.179  30.789  31.679  1.00  0.00     0.074 A 
ATOM     38  C   UNL A   1      42.546  30.320  30.341  1.00  0.00     0.031 C 
ATOM     39  C   UNL A   1      41.295  30.304  32.600  1.00  0.00     0.031 A 
BRANCH  26  40
ATOM     40  C   UNL A   1      39.726  26.640  28.748  1.00  0.00    -0.014 A 
ATOM     41  C   UNL A   1      39.235  25.341  28.517  1.00  0.00     0.009 A 
ATOM     42  C   UNL A   1      40.737  27.095  27.885  1.00  0.00     0.009 A 
ATOM     43  C   UNL A   1      39.717  24.538  27.481  1.00  0.00     0.001 A 
ATOM     44  C   UNL A   1      41.195  26.309  26.820  1.00  0.00     0.001 A 
ATOM     45  C   UNL A   1      40.683  25.031  26.618  1.00  0.00     0.000 A 
ENDBRANCH  26  40
BRANCH  27  46
ATOM     46  C   UNL A   1      43.519  34.492  29.086  1.00  0.00    -0.014 A 
ATOM     47  C   UNL A   1      44.160  35.622  29.624  1.00  0.00     0.009 A 
ATOM     48  C   UNL A   1      43.572  34.314  27.693  1.00  0.00     0.009 A 
ATOM     49  C   UNL A   1      44.776  36.572  28.799  1.00  0.00     0.001 A 
ATOM     50  C   UNL A   1      44.191  35.264  26.866  1.00  0.00     0.001 A 
ATOM     51  C   UNL A   1      44.774  36.403  27.418  1.00  0.00     0.000 A 
ENDBRANCH  27  46
BRANCH  39  52
ATOM     52  C   UNL A   1      40.960  31.169  33.802  1.00  0.00    -0.014 A 
ATOM     53  C   UNL A   1      41.488  30.799  35.048  1.00  0.00     0.009 A 
ATOM     54  C   UNL A   1      39.995  32.195  33.775  1.00  0.00     0.009 A 
ATOM     55  C   UNL A   1      41.051  31.406  36.228  1.00  0.00     0.001 A 
ATOM     56  C   UNL A   1      39.577  32.823  34.957  1.00  0.00     0.001 A 
ATOM     57  C   UNL A   1      40.096  32.417  36.184  1.00  0.00     0.000 A 
ENDBRANCH  39  52
ENDBRANCH  13  14
ENDBRANCH   6   8
ENDBRANCH   3   4
ENDBRANCH   2   3
ENDBRANCH   1   2
BRANCH   1  58
ATOM     58  C   UNL A   1      32.233  29.396  26.624  1.00  0.00     0.002 C 
BRANCH  58  59
ATOM     59  C   UNL A   1      33.588  28.807  26.220  1.00  0.00     0.021 C 
BRANCH  59  60
ATOM     60  C   UNL A   1      33.711  27.291  26.346  1.00  0.00     0.116 C 
BRANCH  60  61
ATOM     61  N   UNL A   1      34.124  26.664  25.105  1.00  0.00    -0.352 N 
ATOM     62  C   UNL A   1      33.350  26.124  24.109  1.00  0.00     0.251 C 
ATOM     63  H   UNL A   1      35.096  26.620  24.957  1.00  0.00     0.163 HD
ATOM     64  O   UNL A   1      33.881  25.533  23.175  1.00  0.00    -0.269 OA
BRANCH  62  65
ATOM     65  C   UNL A   1      31.883  26.250  24.179  1.00  0.00     0.049 A 
ATOM     66  C   UNL A   1      31.119  25.328  24.911  1.00  0.00     0.014 A 
ATOM     67  C   UNL A   1      31.247  27.311  23.499  1.00  0.00     0.012 A 
ATOM     68  C   UNL A   1      29.732  25.425  24.927  1.00  0.00     0.003 A 
ATOM     69  C   UNL A   1      29.849  27.412  23.561  1.00  0.00     0.049 A 
ATOM     70  C   UNL A   1      31.710  28.369  22.670  1.00  0.00     0.029 A 
ATOM     71  C   UNL A   1      29.075  26.466  24.260  1.00  0.00     0.027 A 
ATOM     72  N   UNL A   1      29.498  28.544  22.846  1.00  0.00    -0.343 N 
ATOM     73  C   UNL A   1      30.611  29.061  22.226  1.00  0.00     0.087 A 
BRANCH  72  74
ATOM     74  C   UNL A   1      28.150  29.085  22.679  1.00  0.00     0.157 C 
BRANCH  74  75
ATOM     75  C   UNL A   1      28.141  30.572  22.402  1.00  0.00    -0.025 A 
ATOM     76  C   UNL A   1      28.401  31.507  23.411  1.00  0.00     0.025 A 
ATOM     77  C   UNL A   1      27.911  31.058  21.110  1.00  0.00     0.025 A 
ATOM     78  C   UNL A   1      28.398  32.858  23.101  1.00  0.00     0.111 A 
ATOM     79  C   UNL A   1      27.944  32.430  20.894  1.00  0.00     0.111 A 
ATOM     80  N   UNL A   1      28.181  33.340  21.861  1.00  0.00    -0.265 NA
ENDBRANCH  74  75
ENDBRANCH  72  74
ENDBRANCH  62  65
ENDBRANCH  60  61
ENDBRANCH  59  60
ENDBRANCH  58  59
ENDBRANCH   1  58
TORSDOF 15
ENDMDL
MODEL 2
REMARK VINA RESULT:     -11.2      3.024      7.453
REMARK SMILES O=C(NCCCCCCNC(=O)c1cccc2c1ccn2Cc1ccncc1)c1ccc(-c2c3nc(c(-c4ccccc4)c4ccc([nH]4)c(-c4ccccc4)c4nc(c(-c5ccccc5)c5ccc2[nH]5)C=C4)C=C3)cc1
REMARK SMILES IDX 6 1 5 2 4 3 3 4 1 5 2 6 29 8 30 9 76 10 31 11 75 12 32 13
REMARK SMILES IDX 33 14 34 15 69 16 35 17 74 18 68 19 70 20 36 21 73 22 67 23
REMARK SMILES IDX 66 24 37 26 59 27 44 28 58 29 45 30 48 31 57 32 71 33 46 34
REMARK SMILES IDX 47 35 56 37 72 38 49 39 38 40 39 41 43 42 40 43 42 44 41 45
REMARK SMILES IDX 60 46 61 47 65 48 62 49 64 50 63 51 50 52 51 53 55 54 52 55
REMARK SMILES IDX 54 56 53 57 7 58 8 59 9 60 10 61 11 62 12 64 13 65 14 66
REMARK SMILES IDX 18 67 15 68 17 69 19 70 16 71 21 72 20 73 22 74 23 75 24 76
REMARK SMILES IDX 28 77 25 78 27 79 26 80
REMARK H PARENT 3 7 70 25 48 36 10 63
REMARK Flexibility Score: inf
ROOT
ATOM      1  C   UNL A   1      34.142  29.294  27.242  1.00  0.00     0.002 C 
ENDROOT
BRANCH   1   2
ATOM      2  C   UNL A   1      33.703  30.732  27.549  1.00  0.00     0.021 C 
BRANCH   2   3
ATOM      3  C   UNL A   1      34.830  31.651  27.982  1.00  0.00     0.116 C 
BRANCH   3   4
ATOM      4  N   UNL A   1      34.690  32.180  29.349  1.00  0.00    -0.352 N 
ATOM      5  O   UNL A   1      34.987  32.041  31.612  1.00  0.00    -0.269 OA
ATOM      6  C   UNL A   1      35.411  31.827  30.491  1.00  0.00     0.251 C 
ATOM      7  H   UNL A   1      34.000  32.870  29.472  1.00  0.00     0.163 HD
BRANCH   6   8
ATOM      8  C   UNL A   1      36.735  31.208  30.294  1.00  0.00     0.039 A 
ATOM      9  C   UNL A   1      37.943  31.898  30.166  1.00  0.00     0.014 A 
ATOM     10  C   UNL A   1      36.731  29.829  30.340  1.00  0.00     0.014 A 
ATOM     11  C   UNL A   1      39.114  31.140  30.094  1.00  0.00     0.010 A 
ATOM     12  C   UNL A   1      37.848  29.223  30.799  1.00  0.00     0.010 A 
ATOM     13  C   UNL A   1      39.034  29.772  30.386  1.00  0.00    -0.014 A 
BRANCH  13  14
ATOM     14  C   UNL A   1      40.132  28.826  30.308  1.00  0.00     0.031 A 
ATOM     15  C   UNL A   1      40.769  28.540  31.604  1.00  0.00     0.074 A 
ATOM     16  C   UNL A   1      40.397  28.100  29.193  1.00  0.00     0.049 A 
ATOM     17  N   UNL A   1      41.950  28.888  31.976  1.00  0.00    -0.248 NA
ATOM     18  C   UNL A   1      39.947  27.940  32.665  1.00  0.00     0.031 C 
ATOM     19  C   UNL A   1      39.652  28.019  27.922  1.00  0.00     0.029 A 
ATOM     20  N   UNL A   1      41.377  27.181  29.000  1.00  0.00    -0.354 N 
ATOM     21  C   UNL A   1      42.101  28.405  33.268  1.00  0.00     0.074 A 
ATOM     22  C   UNL A   1      40.789  27.989  33.699  1.00  0.00     0.031 C 
ATOM     23  C   UNL A   1      40.072  26.949  27.206  1.00  0.00     0.029 A 
ATOM     24  C   UNL A   1      41.235  26.390  27.866  1.00  0.00     0.049 A 
ATOM     25  H   UNL A   1      42.135  27.082  29.621  1.00  0.00     0.167 HD
ATOM     26  C   UNL A   1      43.337  28.199  33.797  1.00  0.00     0.031 A 
ATOM     27  C   UNL A   1      42.026  25.348  27.506  1.00  0.00     0.031 A 
ATOM     28  C   UNL A   1      44.359  28.826  32.995  1.00  0.00     0.049 A 
ATOM     29  C   UNL A   1      43.309  25.518  28.230  1.00  0.00     0.074 A 
ATOM     30  C   UNL A   1      44.647  30.137  32.669  1.00  0.00     0.029 A 
ATOM     31  N   UNL A   1      44.974  28.050  32.038  1.00  0.00    -0.354 N 
ATOM     32  N   UNL A   1      44.126  26.508  28.013  1.00  0.00    -0.248 NA
ATOM     33  C   UNL A   1      43.441  24.867  29.523  1.00  0.00     0.031 C 
ATOM     34  C   UNL A   1      44.995  30.100  31.287  1.00  0.00     0.029 A 
ATOM     35  C   UNL A   1      45.001  28.767  30.866  1.00  0.00     0.049 A 
ATOM     36  H   UNL A   1      45.331  27.143  32.171  1.00  0.00     0.167 HD
ATOM     37  C   UNL A   1      44.559  26.892  29.275  1.00  0.00     0.074 A 
ATOM     38  C   UNL A   1      44.173  25.789  30.156  1.00  0.00     0.031 C 
ATOM     39  C   UNL A   1      44.924  28.182  29.540  1.00  0.00     0.031 A 
BRANCH  26  40
ATOM     40  C   UNL A   1      43.644  27.156  34.835  1.00  0.00    -0.014 A 
ATOM     41  C   UNL A   1      43.796  27.440  36.205  1.00  0.00     0.009 A 
ATOM     42  C   UNL A   1      43.553  25.800  34.478  1.00  0.00     0.009 A 
ATOM     43  C   UNL A   1      43.848  26.433  37.171  1.00  0.00     0.001 A 
ATOM     44  C   UNL A   1      43.564  24.789  35.446  1.00  0.00     0.001 A 
ATOM     45  C   UNL A   1      43.709  25.107  36.794  1.00  0.00     0.000 A 
ENDBRANCH  26  40
BRANCH  27  46
ATOM     46  C   UNL A   1      41.621  24.040  26.939  1.00  0.00    -0.014 A 
ATOM     47  C   UNL A   1      40.586  23.304  27.544  1.00  0.00     0.009 A 
ATOM     48  C   UNL A   1      42.449  23.368  26.023  1.00  0.00     0.009 A 
ATOM     49  C   UNL A   1      40.423  21.935  27.294  1.00  0.00     0.001 A 
ATOM     50  C   UNL A   1      42.284  21.997  25.771  1.00  0.00     0.001 A 
ATOM     51  C   UNL A   1      41.285  21.278  26.423  1.00  0.00     0.000 A 
ENDBRANCH  27  46
BRANCH  39  52
ATOM     52  C   UNL A   1      45.024  29.155  28.379  1.00  0.00    -0.014 A 
ATOM     53  C   UNL A   1      46.300  29.450  27.875  1.00  0.00     0.009 A 
ATOM     54  C   UNL A   1      43.940  29.926  27.916  1.00  0.00     0.009 A 
ATOM     55  C   UNL A   1      46.496  30.494  26.967  1.00  0.00     0.001 A 
ATOM     56  C   UNL A   1      44.133  30.955  26.983  1.00  0.00     0.001 A 
ATOM     57  C   UNL A   1      45.414  31.246  26.521  1.00  0.00     0.000 A 
ENDBRANCH  39  52
ENDBRANCH  13  14
ENDBRANCH   6   8
ENDBRANCH   3   4
ENDBRANCH   2   3
ENDBRANCH   1   2
BRANCH   1  58
ATOM     58  C   UNL A   1      33.533  28.615  26.003  1.00  0.00     0.002 C 
BRANCH  58  59
ATOM     59  C   UNL A   1      32.883  29.531  24.961  1.00  0.00     0.021 C 
BRANCH  59  60
ATOM     60  C   UNL A   1      31.388  29.778  25.144  1.00  0.00     0.116 C 
BRANCH  60  61
ATOM     61  N   UNL A   1      30.676  29.815  23.881  1.00  0.00    -0.352 N 
ATOM     62  C   UNL A   1      30.316  28.777  23.059  1.00  0.00     0.251 C 
ATOM     63  H   UNL A   1      30.414  30.712  23.569  1.00  0.00     0.163 HD
ATOM     64  O   UNL A   1      29.810  29.010  21.966  1.00  0.00    -0.269 OA
BRANCH  62  65
ATOM     65  C   UNL A   1      30.554  27.389  23.494  1.00  0.00     0.049 A 
ATOM     66  C   UNL A   1      29.685  26.765  24.403  1.00  0.00     0.014 A 
ATOM     67  C   UNL A   1      31.669  26.688  22.989  1.00  0.00     0.012 A 
ATOM     68  C   UNL A   1      29.947  25.474  24.846  1.00  0.00     0.003 A 
ATOM     69  C   UNL A   1      31.893  25.372  23.422  1.00  0.00     0.049 A 
ATOM     70  C   UNL A   1      32.728  27.027  22.104  1.00  0.00     0.029 A 
ATOM     71  C   UNL A   1      31.048  24.756  24.364  1.00  0.00     0.027 A 
ATOM     72  N   UNL A   1      33.018  24.918  22.754  1.00  0.00    -0.343 N 
ATOM     73  C   UNL A   1      33.577  25.950  22.038  1.00  0.00     0.087 A 
BRANCH  72  74
ATOM     74  C   UNL A   1      33.601  23.580  22.841  1.00  0.00     0.157 C 
BRANCH  74  75
ATOM     75  C   UNL A   1      34.841  23.532  23.706  1.00  0.00    -0.025 A 
ATOM     76  C   UNL A   1      34.903  24.199  24.936  1.00  0.00     0.025 A 
ATOM     77  C   UNL A   1      35.956  22.781  23.317  1.00  0.00     0.025 A 
ATOM     78  C   UNL A   1      36.058  24.109  25.697  1.00  0.00     0.111 A 
ATOM     79  C   UNL A   1      37.061  22.738  24.157  1.00  0.00     0.111 A 
ATOM     80  N   UNL A   1      37.137  23.387  25.338  1.00  0.00    -0.265 NA
ENDBRANCH  74  75
ENDBRANCH  72  74
ENDBRANCH  62  65
ENDBRANCH  60  61
ENDBRANCH  59  60
ENDBRANCH  58  59
ENDBRANCH   1  58
TORSDOF 15
ENDMDL
MODEL 3
REMARK VINA RESULT:     -11.1      4.377      9.255
REMARK SMILES O=C(NCCCCCCNC(=O)c1cccc2c1ccn2Cc1ccncc1)c1ccc(-c2c3nc(c(-c4ccccc4)c4ccc([nH]4)c(-c4ccccc4)c4nc(c(-c5ccccc5)c5ccc2[nH]5)C=C4)C=C3)cc1
REMARK SMILES IDX 6 1 5 2 4 3 3 4 1 5 2 6 29 8 30 9 76 10 31 11 75 12 32 13
REMARK SMILES IDX 33 14 34 15 69 16 35 17 74 18 68 19 70 20 36 21 73 22 67 23
REMARK SMILES IDX 66 24 37 26 59 27 44 28 58 29 45 30 48 31 57 32 71 33 46 34
REMARK SMILES IDX 47 35 56 37 72 38 49 39 38 40 39 41 43 42 40 43 42 44 41 45
REMARK SMILES IDX 60 46 61 47 65 48 62 49 64 50 63 51 50 52 51 53 55 54 52 55
REMARK SMILES IDX 54 56 53 57 7 58 8 59 9 60 10 61 11 62 12 64 13 65 14 66
REMARK SMILES IDX 18 67 15 68 17 69 19 70 16 71 21 72 20 73 22 74 23 75 24 76
REMARK SMILES IDX 28 77 25 78 27 79 26 80
REMARK H PARENT 3 7 70 25 48 36 10 63
REMARK Flexibility Score: inf
ROOT
ATOM      1  C   UNL A   1      39.467  21.317  26.064  1.00  0.00     0.002 C 
ENDROOT
BRANCH   1   2
ATOM      2  C   UNL A   1      39.817  19.870  25.694  1.00  0.00     0.021 C 
BRANCH   2   3
ATOM      3  C   UNL A   1      40.876  19.237  26.576  1.00  0.00     0.116 C 
BRANCH   3   4
ATOM      4  N   UNL A   1      42.144  18.944  25.888  1.00  0.00    -0.352 N 
ATOM      5  O   UNL A   1      43.901  19.533  24.548  1.00  0.00    -0.269 OA
ATOM      6  C   UNL A   1      43.094  19.845  25.403  1.00  0.00     0.251 C 
ATOM      7  H   UNL A   1      42.347  17.991  25.750  1.00  0.00     0.163 HD
BRANCH   6   8
ATOM      8  C   UNL A   1      43.109  21.197  25.994  1.00  0.00     0.039 A 
ATOM      9  C   UNL A   1      43.081  22.396  25.277  1.00  0.00     0.014 A 
ATOM     10  C   UNL A   1      43.055  21.216  27.372  1.00  0.00     0.014 A 
ATOM     11  C   UNL A   1      42.992  23.583  26.009  1.00  0.00     0.010 A 
ATOM     12  C   UNL A   1      42.449  22.276  27.952  1.00  0.00     0.010 A 
ATOM     13  C   UNL A   1      42.705  23.494  27.378  1.00  0.00    -0.014 A 
BRANCH  13  14
ATOM     14  C   UNL A   1      42.630  24.613  28.299  1.00  0.00     0.031 A 
ATOM     15  C   UNL A   1      41.439  25.459  28.119  1.00  0.00     0.074 A 
ATOM     16  C   UNL A   1      43.453  24.736  29.371  1.00  0.00     0.049 A 
ATOM     17  N   UNL A   1      41.410  26.665  27.672  1.00  0.00    -0.248 NA
ATOM     18  C   UNL A   1      40.116  24.846  28.304  1.00  0.00     0.031 C 
ATOM     19  C   UNL A   1      44.476  23.806  29.886  1.00  0.00     0.029 A 
ATOM     20  N   UNL A   1      43.474  25.719  30.307  1.00  0.00    -0.354 N 
ATOM     21  C   UNL A   1      40.075  27.040  27.674  1.00  0.00     0.074 A 
ATOM     22  C   UNL A   1      39.317  25.836  27.903  1.00  0.00     0.031 C 
ATOM     23  C   UNL A   1      44.836  24.162  31.142  1.00  0.00     0.029 A 
ATOM     24  C   UNL A   1      44.224  25.441  31.444  1.00  0.00     0.049 A 
ATOM     25  H   UNL A   1      42.991  26.569  30.188  1.00  0.00     0.167 HD
ATOM     26  C   UNL A   1      39.719  28.353  27.691  1.00  0.00     0.031 A 
ATOM     27  C   UNL A   1      44.328  26.217  32.552  1.00  0.00     0.031 A 
ATOM     28  C   UNL A   1      40.844  29.204  27.391  1.00  0.00     0.049 A 
ATOM     29  C   UNL A   1      43.929  27.588  32.148  1.00  0.00     0.074 A 
ATOM     30  C   UNL A   1      41.647  29.370  26.280  1.00  0.00     0.029 A 
ATOM     31  N   UNL A   1      41.562  29.699  28.457  1.00  0.00    -0.354 N 
ATOM     32  N   UNL A   1      44.607  28.310  31.303  1.00  0.00    -0.248 NA
ATOM     33  C   UNL A   1      42.531  27.955  32.308  1.00  0.00     0.031 C 
ATOM     34  C   UNL A   1      42.968  29.499  26.800  1.00  0.00     0.029 A 
ATOM     35  C   UNL A   1      42.897  29.506  28.195  1.00  0.00     0.049 A 
ATOM     36  H   UNL A   1      41.184  30.118  29.264  1.00  0.00     0.167 HD
ATOM     37  C   UNL A   1      43.645  28.916  30.505  1.00  0.00     0.074 A 
ATOM     38  C   UNL A   1      42.386  28.728  31.227  1.00  0.00     0.031 C 
ATOM     39  C   UNL A   1      43.906  29.251  29.207  1.00  0.00     0.031 A 
BRANCH  26  40
ATOM     40  C   UNL A   1      38.450  28.872  28.308  1.00  0.00    -0.014 A 
ATOM     41  C   UNL A   1      38.119  28.709  29.665  1.00  0.00     0.009 A 
ATOM     42  C   UNL A   1      37.654  29.761  27.566  1.00  0.00     0.009 A 
ATOM     43  C   UNL A   1      37.058  29.396  30.259  1.00  0.00     0.001 A 
ATOM     44  C   UNL A   1      36.614  30.482  28.166  1.00  0.00     0.001 A 
ATOM     45  C   UNL A   1      36.318  30.301  29.514  1.00  0.00     0.000 A 
ENDBRANCH  26  40
BRANCH  27  46
ATOM     46  C   UNL A   1      44.332  25.795  33.972  1.00  0.00    -0.014 A 
ATOM     47  C   UNL A   1      45.551  25.531  34.622  1.00  0.00     0.009 A 
ATOM     48  C   UNL A   1      43.153  25.340  34.588  1.00  0.00     0.009 A 
ATOM     49  C   UNL A   1      45.599  24.785  35.806  1.00  0.00     0.001 A 
ATOM     50  C   UNL A   1      43.201  24.594  35.776  1.00  0.00     0.001 A 
ATOM     51  C   UNL A   1      44.424  24.299  36.373  1.00  0.00     0.000 A 
ENDBRANCH  27  46
BRANCH  39  52
ATOM     52  C   UNL A   1      45.332  29.118  28.701  1.00  0.00    -0.014 A 
ATOM     53  C   UNL A   1      46.100  30.286  28.583  1.00  0.00     0.009 A 
ATOM     54  C   UNL A   1      45.856  27.929  28.159  1.00  0.00     0.009 A 
ATOM     55  C   UNL A   1      47.331  30.279  27.922  1.00  0.00     0.001 A 
ATOM     56  C   UNL A   1      47.104  27.916  27.520  1.00  0.00     0.001 A 
ATOM     57  C   UNL A   1      47.834  29.095  27.390  1.00  0.00     0.000 A 
ENDBRANCH  39  52
ENDBRANCH  13  14
ENDBRANCH   6   8
ENDBRANCH   3   4
ENDBRANCH   2   3
ENDBRANCH   1   2
BRANCH   1  58
ATOM     58  C   UNL A   1      38.100  21.857  25.607  1.00  0.00     0.002 C 
BRANCH  58  59
ATOM     59  C   UNL A   1      37.136  20.850  24.974  1.00  0.00     0.021 C 
BRANCH  59  60
ATOM     60  C   UNL A   1      35.664  21.256  24.976  1.00  0.00     0.116 C 
BRANCH  60  61
ATOM     61  N   UNL A   1      34.785  20.149  25.300  1.00  0.00    -0.352 N 
ATOM     62  C   UNL A   1      33.419  20.071  25.204  1.00  0.00     0.251 C 
ATOM     63  H   UNL A   1      35.232  19.339  25.637  1.00  0.00     0.163 HD
ATOM     64  O   UNL A   1      32.831  19.083  25.630  1.00  0.00    -0.269 OA
BRANCH  62  65
ATOM     65  C   UNL A   1      32.669  21.186  24.596  1.00  0.00     0.049 A 
ATOM     66  C   UNL A   1      32.382  21.191  23.223  1.00  0.00     0.014 A 
ATOM     67  C   UNL A   1      32.239  22.254  25.411  1.00  0.00     0.012 A 
ATOM     68  C   UNL A   1      31.719  22.271  22.651  1.00  0.00     0.003 A 
ATOM     69  C   UNL A   1      31.538  23.316  24.819  1.00  0.00     0.049 A 
ATOM     70  C   UNL A   1      32.384  22.562  26.792  1.00  0.00     0.029 A 
ATOM     71  C   UNL A   1      31.283  23.346  23.435  1.00  0.00     0.027 A 
ATOM     72  N   UNL A   1      31.213  24.197  25.837  1.00  0.00    -0.343 N 
ATOM     73  C   UNL A   1      31.811  23.791  27.007  1.00  0.00     0.087 A 
BRANCH  72  74
ATOM     74  C   UNL A   1      30.431  25.425  25.708  1.00  0.00     0.157 C 
BRANCH  74  75
ATOM     75  C   UNL A   1      31.290  26.670  25.670  1.00  0.00    -0.025 A 
ATOM     76  C   UNL A   1      31.983  27.046  24.512  1.00  0.00     0.025 A 
ATOM     77  C   UNL A   1      31.385  27.509  26.785  1.00  0.00     0.025 A 
ATOM     78  C   UNL A   1      32.743  28.205  24.525  1.00  0.00     0.111 A 
ATOM     79  C   UNL A   1      32.159  28.659  26.695  1.00  0.00     0.111 A 
ATOM     80  N   UNL A   1      32.841  29.025  25.590  1.00  0.00    -0.265 NA
ENDBRANCH  74  75
ENDBRANCH  72  74
ENDBRANCH  62  65
ENDBRANCH  60  61
ENDBRANCH  59  60
ENDBRANCH  58  59
ENDBRANCH   1  58
TORSDOF 15
ENDMDL
