MODEL 1
REMARK VINA RESULT:     -10.5      0.000      0.000
REMARK SMILES O=C(NCCCCCCNC(=O)[C@H](F)Sc1cc2ccccc2[nH]1)c1ccc(-c2c3nc(c(-c4ccccc4)c4ccc([nH]4)c(-c4ccccc4)c4nc(c(-c5ccccc5)c5ccc2[nH]5)C=C4)C=C3)cc1
REMARK SMILES IDX 6 1 5 2 4 3 3 4 1 5 2 6 25 8 26 9 72 10 27 11 71 12 28 13
REMARK SMILES IDX 29 14 30 15 65 16 31 17 70 18 64 19 66 20 32 21 69 22 63 23
REMARK SMILES IDX 62 24 33 26 55 27 40 28 54 29 41 30 44 31 53 32 67 33 42 34
REMARK SMILES IDX 43 35 52 37 68 38 45 39 34 40 35 41 39 42 36 43 38 44 37 45
REMARK SMILES IDX 56 46 57 47 61 48 58 49 60 50 59 51 46 52 47 53 51 54 48 55
REMARK SMILES IDX 50 56 49 57 7 58 8 59 9 60 10 61 11 62 12 64 13 65 14 66
REMARK SMILES IDX 15 67 16 68 17 69 24 70 18 71 23 72 19 74 22 75 20 76 21 77
REMARK H PARENT 3 7 66 25 44 36 10 63 24 73
REMARK Flexibility Score: inf
ROOT
ATOM      1  C   UNL A   1      31.446  30.540  25.703  1.00  0.00     0.002 C 
ENDROOT
BRANCH   1   2
ATOM      2  C   UNL A   1      31.272  31.833  26.500  1.00  0.00     0.021 C 
BRANCH   2   3
ATOM      3  C   UNL A   1      32.558  32.419  27.067  1.00  0.00     0.116 C 
BRANCH   3   4
ATOM      4  N   UNL A   1      32.383  33.765  27.585  1.00  0.00    -0.352 N 
ATOM      5  O   UNL A   1      32.770  35.531  28.937  1.00  0.00    -0.269 OA
ATOM      6  C   UNL A   1      33.151  34.452  28.494  1.00  0.00     0.251 C 
ATOM      7  H   UNL A   1      31.603  34.254  27.236  1.00  0.00     0.163 HD
BRANCH   6   8
ATOM      8  C   UNL A   1      34.432  33.877  28.961  1.00  0.00     0.039 A 
ATOM      9  C   UNL A   1      35.624  34.139  28.280  1.00  0.00     0.014 A 
ATOM     10  C   UNL A   1      34.441  33.076  30.107  1.00  0.00     0.014 A 
ATOM     11  C   UNL A   1      36.796  33.498  28.665  1.00  0.00     0.010 A 
ATOM     12  C   UNL A   1      35.637  32.496  30.540  1.00  0.00     0.010 A 
ATOM     13  C   UNL A   1      36.820  32.681  29.808  1.00  0.00    -0.014 A 
BRANCH  13  14
ATOM     14  C   UNL A   1      38.105  32.091  30.254  1.00  0.00     0.031 A 
ATOM     15  C   UNL A   1      38.600  30.783  29.702  1.00  0.00     0.074 A 
ATOM     16  C   UNL A   1      38.846  32.767  31.154  1.00  0.00     0.049 A 
ATOM     17  N   UNL A   1      39.717  30.150  29.967  1.00  0.00    -0.248 NA
ATOM     18  C   UNL A   1      37.733  30.094  28.735  1.00  0.00     0.031 C 
ATOM     19  C   UNL A   1      38.469  34.042  31.768  1.00  0.00     0.029 A 
ATOM     20  N   UNL A   1      40.074  32.487  31.697  1.00  0.00    -0.354 N 
ATOM     21  C   UNL A   1      39.679  28.982  29.215  1.00  0.00     0.074 A 
ATOM     22  C   UNL A   1      38.420  28.983  28.501  1.00  0.00     0.031 C 
ATOM     23  C   UNL A   1      39.464  34.458  32.564  1.00  0.00     0.029 A 
ATOM     24  C   UNL A   1      40.520  33.452  32.566  1.00  0.00     0.049 A 
ATOM     25  H   UNL A   1      40.585  31.673  31.484  1.00  0.00     0.167 HD
ATOM     26  C   UNL A   1      40.610  28.002  29.127  1.00  0.00     0.031 A 
ATOM     27  C   UNL A   1      41.647  33.518  33.296  1.00  0.00     0.031 A 
ATOM     28  C   UNL A   1      41.860  28.001  29.843  1.00  0.00     0.049 A 
ATOM     29  C   UNL A   1      42.644  32.402  33.205  1.00  0.00     0.074 A 
ATOM     30  C   UNL A   1      42.882  27.067  29.792  1.00  0.00     0.029 A 
ATOM     31  N   UNL A   1      42.256  28.977  30.744  1.00  0.00    -0.354 N 
ATOM     32  N   UNL A   1      42.609  31.325  32.459  1.00  0.00    -0.248 NA
ATOM     33  C   UNL A   1      43.835  32.511  34.058  1.00  0.00     0.031 C 
ATOM     34  C   UNL A   1      43.873  27.453  30.701  1.00  0.00     0.029 A 
ATOM     35  C   UNL A   1      43.494  28.654  31.277  1.00  0.00     0.049 A 
ATOM     36  H   UNL A   1      41.736  29.781  30.972  1.00  0.00     0.167 HD
ATOM     37  C   UNL A   1      43.777  30.633  32.742  1.00  0.00     0.074 A 
ATOM     38  C   UNL A   1      44.511  31.425  33.709  1.00  0.00     0.031 C 
ATOM     39  C   UNL A   1      44.205  29.447  32.246  1.00  0.00     0.031 A 
BRANCH  26  40
ATOM     40  C   UNL A   1      40.301  26.827  28.242  1.00  0.00    -0.014 A 
ATOM     41  C   UNL A   1      39.465  25.786  28.677  1.00  0.00     0.009 A 
ATOM     42  C   UNL A   1      40.813  26.785  26.936  1.00  0.00     0.009 A 
ATOM     43  C   UNL A   1      39.173  24.714  27.829  1.00  0.00     0.001 A 
ATOM     44  C   UNL A   1      40.500  25.725  26.084  1.00  0.00     0.001 A 
ATOM     45  C   UNL A   1      39.686  24.685  26.534  1.00  0.00     0.000 A 
ENDBRANCH  26  40
BRANCH  27  46
ATOM     46  C   UNL A   1      41.880  34.682  34.188  1.00  0.00    -0.014 A 
ATOM     47  C   UNL A   1      41.461  34.651  35.526  1.00  0.00     0.009 A 
ATOM     48  C   UNL A   1      42.540  35.824  33.708  1.00  0.00     0.009 A 
ATOM     49  C   UNL A   1      41.684  35.749  36.360  1.00  0.00     0.001 A 
ATOM     50  C   UNL A   1      42.787  36.908  34.552  1.00  0.00     0.001 A 
ATOM     51  C   UNL A   1      42.352  36.873  35.875  1.00  0.00     0.000 A 
ENDBRANCH  27  46
BRANCH  39  52
ATOM     52  C   UNL A   1      45.537  28.949  32.731  1.00  0.00    -0.014 A 
ATOM     53  C   UNL A   1      45.633  28.107  33.849  1.00  0.00     0.009 A 
ATOM     54  C   UNL A   1      46.706  29.310  32.046  1.00  0.00     0.009 A 
ATOM     55  C   UNL A   1      46.881  27.664  34.291  1.00  0.00     0.001 A 
ATOM     56  C   UNL A   1      47.950  28.846  32.474  1.00  0.00     0.001 A 
ATOM     57  C   UNL A   1      48.037  28.030  33.603  1.00  0.00     0.000 A 
ENDBRANCH  39  52
ENDBRANCH  13  14
ENDBRANCH   6   8
ENDBRANCH   3   4
ENDBRANCH   2   3
ENDBRANCH   1   2
BRANCH   1  58
ATOM     58  C   UNL A   1      31.694  29.278  26.536  1.00  0.00     0.002 C 
BRANCH  58  59
ATOM     59  C   UNL A   1      33.122  29.096  27.070  1.00  0.00     0.021 C 
BRANCH  59  60
ATOM     60  C   UNL A   1      34.001  28.147  26.258  1.00  0.00     0.116 C 
BRANCH  60  61
ATOM     61  N   UNL A   1      34.214  28.632  24.910  1.00  0.00    -0.353 N 
ATOM     62  C   UNL A   1      33.758  28.159  23.709  1.00  0.00     0.265 C 
ATOM     63  H   UNL A   1      34.781  29.435  24.847  1.00  0.00     0.163 HD
ATOM     64  O   UNL A   1      34.219  28.709  22.706  1.00  0.00    -0.271 OA
BRANCH  62  65
ATOM     65  C   UNL A   1      32.766  26.985  23.667  1.00  0.00     0.319 C 
ATOM     66  F   UNL A   1      33.395  25.780  23.821  1.00  0.00    -0.224 F 
BRANCH  65  67
ATOM     67  S   UNL A   1      31.770  26.971  22.144  1.00  0.00    -0.061 SA
BRANCH  67  68
ATOM     68  C   UNL A   1      30.581  28.194  22.431  1.00  0.00     0.076 A 
ATOM     69  C   UNL A   1      29.385  28.135  23.104  1.00  0.00     0.043 A 
ATOM     70  N   UNL A   1      30.745  29.464  21.954  1.00  0.00    -0.350 N 
ATOM     71  C   UNL A   1      28.808  29.435  23.058  1.00  0.00     0.001 A 
ATOM     72  C   UNL A   1      29.676  30.248  22.327  1.00  0.00     0.046 A 
ATOM     73  H   UNL A   1      31.513  29.772  21.422  1.00  0.00     0.167 HD
ATOM     74  C   UNL A   1      27.626  29.998  23.576  1.00  0.00     0.010 A 
ATOM     75  C   UNL A   1      29.417  31.601  22.083  1.00  0.00     0.027 A 
ATOM     76  C   UNL A   1      27.354  31.350  23.344  1.00  0.00     0.001 A 
ATOM     77  C   UNL A   1      28.236  32.138  22.607  1.00  0.00     0.002 A 
ENDBRANCH  67  68
ENDBRANCH  65  67
ENDBRANCH  62  65
ENDBRANCH  60  61
ENDBRANCH  59  60
ENDBRANCH  58  59
ENDBRANCH   1  58
TORSDOF 15
ENDMDL
MODEL 2
REMARK VINA RESULT:     -10.5      4.914      9.684
REMARK SMILES O=C(NCCCCCCNC(=O)[C@H](F)Sc1cc2ccccc2[nH]1)c1ccc(-c2c3nc(c(-c4ccccc4)c4ccc([nH]4)c(-c4ccccc4)c4nc(c(-c5ccccc5)c5ccc2[nH]5)C=C4)C=C3)cc1
REMARK SMILES IDX 6 1 5 2 4 3 3 4 1 5 2 6 25 8 26 9 72 10 27 11 71 12 28 13
REMARK SMILES IDX 29 14 30 15 65 16 31 17 70 18 64 19 66 20 32 21 69 22 63 23
REMARK SMILES IDX 62 24 33 26 55 27 40 28 54 29 41 30 44 31 53 32 67 33 42 34
REMARK SMILES IDX 43 35 52 37 68 38 45 39 34 40 35 41 39 42 36 43 38 44 37 45
REMARK SMILES IDX 56 46 57 47 61 48 58 49 60 50 59 51 46 52 47 53 51 54 48 55
REMARK SMILES IDX 50 56 49 57 7 58 8 59 9 60 10 61 11 62 12 64 13 65 14 66
REMARK SMILES IDX 15 67 16 68 17 69 24 70 18 71 23 72 19 74 22 75 20 76 21 77
REMARK H PARENT 3 7 66 25 44 36 10 63 24 73
REMARK Flexibility Score: inf
ROOT
ATOM      1  C   UNL A   1      36.625  20.526  24.615  1.00  0.00     0.002 C 
ENDROOT
BRANCH   1   2
ATOM      2  C   UNL A   1      37.739  19.533  24.944  1.00  0.00     0.021 C 
BRANCH   2   3
ATOM      3  C   UNL A   1      38.865  20.091  25.806  1.00  0.00     0.116 C 
BRANCH   3   4
ATOM      4  N   UNL A   1      40.066  19.275  25.758  1.00  0.00    -0.352 N 
ATOM      5  O   UNL A   1      42.283  18.848  25.783  1.00  0.00    -0.269 OA
ATOM      6  C   UNL A   1      41.367  19.630  26.021  1.00  0.00     0.251 C 
ATOM      7  H   UNL A   1      39.929  18.335  25.501  1.00  0.00     0.163 HD
BRANCH   6   8
ATOM      8  C   UNL A   1      41.670  20.970  26.571  1.00  0.00     0.039 A 
ATOM      9  C   UNL A   1      42.015  22.028  25.725  1.00  0.00     0.014 A 
ATOM     10  C   UNL A   1      41.593  21.173  27.952  1.00  0.00     0.014 A 
ATOM     11  C   UNL A   1      42.408  23.246  26.268  1.00  0.00     0.010 A 
ATOM     12  C   UNL A   1      41.911  22.423  28.490  1.00  0.00     0.010 A 
ATOM     13  C   UNL A   1      42.346  23.463  27.655  1.00  0.00    -0.014 A 
BRANCH  13  14
ATOM     14  C   UNL A   1      42.675  24.804  28.197  1.00  0.00     0.031 A 
ATOM     15  C   UNL A   1      44.087  25.184  28.543  1.00  0.00     0.074 A 
ATOM     16  C   UNL A   1      41.678  25.697  28.353  1.00  0.00     0.049 A 
ATOM     17  N   UNL A   1      44.542  26.326  28.998  1.00  0.00    -0.248 NA
ATOM     18  C   UNL A   1      45.121  24.155  28.362  1.00  0.00     0.031 C 
ATOM     19  C   UNL A   1      40.265  25.444  28.059  1.00  0.00     0.029 A 
ATOM     20  N   UNL A   1      41.700  27.001  28.779  1.00  0.00    -0.354 N 
ATOM     21  C   UNL A   1      45.908  26.148  29.174  1.00  0.00     0.074 A 
ATOM     22  C   UNL A   1      46.206  24.782  28.799  1.00  0.00     0.031 C 
ATOM     23  C   UNL A   1      39.565  26.567  28.267  1.00  0.00     0.029 A 
ATOM     24  C   UNL A   1      40.464  27.600  28.766  1.00  0.00     0.049 A 
ATOM     25  H   UNL A   1      42.521  27.460  29.067  1.00  0.00     0.167 HD
ATOM     26  C   UNL A   1      46.830  27.043  29.606  1.00  0.00     0.031 A 
ATOM     27  C   UNL A   1      40.090  28.840  29.129  1.00  0.00     0.031 A 
ATOM     28  C   UNL A   1      46.531  28.401  29.984  1.00  0.00     0.049 A 
ATOM     29  C   UNL A   1      41.126  29.798  29.636  1.00  0.00     0.074 A 
ATOM     30  C   UNL A   1      47.404  29.391  30.402  1.00  0.00     0.029 A 
ATOM     31  N   UNL A   1      45.261  28.957  29.995  1.00  0.00    -0.354 N 
ATOM     32  N   UNL A   1      42.419  29.624  29.759  1.00  0.00    -0.248 NA
ATOM     33  C   UNL A   1      40.650  31.122  30.056  1.00  0.00     0.031 C 
ATOM     34  C   UNL A   1      46.655  30.531  30.715  1.00  0.00     0.029 A 
ATOM     35  C   UNL A   1      45.324  30.268  30.440  1.00  0.00     0.049 A 
ATOM     36  H   UNL A   1      44.437  28.490  29.727  1.00  0.00     0.167 HD
ATOM     37  C   UNL A   1      42.914  30.820  30.258  1.00  0.00     0.074 A 
ATOM     38  C   UNL A   1      41.785  31.718  30.391  1.00  0.00     0.031 C 
ATOM     39  C   UNL A   1      44.190  31.145  30.578  1.00  0.00     0.031 A 
BRANCH  26  40
ATOM     40  C   UNL A   1      48.253  26.574  29.722  1.00  0.00    -0.014 A 
ATOM     41  C   UNL A   1      48.721  25.940  30.884  1.00  0.00     0.009 A 
ATOM     42  C   UNL A   1      49.127  26.723  28.633  1.00  0.00     0.009 A 
ATOM     43  C   UNL A   1      50.042  25.492  30.962  1.00  0.00     0.001 A 
ATOM     44  C   UNL A   1      50.439  26.253  28.705  1.00  0.00     0.001 A 
ATOM     45  C   UNL A   1      50.899  25.645  29.873  1.00  0.00     0.000 A 
ENDBRANCH  26  40
BRANCH  27  46
ATOM     46  C   UNL A   1      38.661  29.235  29.036  1.00  0.00    -0.014 A 
ATOM     47  C   UNL A   1      37.811  29.106  30.144  1.00  0.00     0.009 A 
ATOM     48  C   UNL A   1      38.147  29.761  27.841  1.00  0.00     0.009 A 
ATOM     49  C   UNL A   1      36.469  29.480  30.050  1.00  0.00     0.001 A 
ATOM     50  C   UNL A   1      36.812  30.162  27.759  1.00  0.00     0.001 A 
ATOM     51  C   UNL A   1      35.973  30.013  28.861  1.00  0.00     0.000 A 
ENDBRANCH  27  46
BRANCH  39  52
ATOM     52  C   UNL A   1      44.429  32.538  31.085  1.00  0.00    -0.014 A 
ATOM     53  C   UNL A   1      44.375  32.830  32.456  1.00  0.00     0.009 A 
ATOM     54  C   UNL A   1      44.732  33.566  30.179  1.00  0.00     0.009 A 
ATOM     55  C   UNL A   1      44.588  34.134  32.907  1.00  0.00     0.001 A 
ATOM     56  C   UNL A   1      44.969  34.863  30.634  1.00  0.00     0.001 A 
ATOM     57  C   UNL A   1      44.888  35.148  31.998  1.00  0.00     0.000 A 
ENDBRANCH  39  52
ENDBRANCH  13  14
ENDBRANCH   6   8
ENDBRANCH   3   4
ENDBRANCH   2   3
ENDBRANCH   1   2
BRANCH   1  58
ATOM     58  C   UNL A   1      37.003  22.007  24.730  1.00  0.00     0.002 C 
BRANCH  58  59
ATOM     59  C   UNL A   1      36.523  22.913  23.588  1.00  0.00     0.021 C 
BRANCH  59  60
ATOM     60  C   UNL A   1      35.018  22.885  23.327  1.00  0.00     0.116 C 
BRANCH  60  61
ATOM     61  N   UNL A   1      34.357  24.053  23.871  1.00  0.00    -0.353 N 
ATOM     62  C   UNL A   1      33.058  24.243  24.261  1.00  0.00     0.265 C 
ATOM     63  H   UNL A   1      34.937  24.842  23.979  1.00  0.00     0.163 HD
ATOM     64  O   UNL A   1      32.752  25.398  24.565  1.00  0.00    -0.271 OA
BRANCH  62  65
ATOM     65  C   UNL A   1      32.071  23.063  24.261  1.00  0.00     0.319 C 
ATOM     66  F   UNL A   1      30.781  23.477  24.067  1.00  0.00    -0.224 F 
BRANCH  65  67
ATOM     67  S   UNL A   1      32.178  22.068  25.781  1.00  0.00    -0.061 SA
BRANCH  67  68
ATOM     68  C   UNL A   1      32.570  20.488  25.198  1.00  0.00     0.076 A 
ATOM     69  C   UNL A   1      32.780  20.036  23.918  1.00  0.00     0.043 A 
ATOM     70  N   UNL A   1      32.712  19.434  26.057  1.00  0.00    -0.350 N 
ATOM     71  C   UNL A   1      33.092  18.650  24.004  1.00  0.00     0.001 A 
ATOM     72  C   UNL A   1      33.038  18.296  25.354  1.00  0.00     0.046 A 
ATOM     73  H   UNL A   1      32.599  19.482  27.032  1.00  0.00     0.167 HD
ATOM     74  C   UNL A   1      33.422  17.663  23.057  1.00  0.00     0.010 A 
ATOM     75  C   UNL A   1      33.292  16.996  25.804  1.00  0.00     0.027 A 
ATOM     76  C   UNL A   1      33.682  16.358  23.491  1.00  0.00     0.001 A 
ATOM     77  C   UNL A   1      33.617  16.031  24.844  1.00  0.00     0.002 A 
ENDBRANCH  67  68
ENDBRANCH  65  67
ENDBRANCH  62  65
ENDBRANCH  60  61
ENDBRANCH  59  60
ENDBRANCH  58  59
ENDBRANCH   1  58
TORSDOF 15
ENDMDL
MODEL 3
REMARK VINA RESULT:     -10.5      4.972      9.732
REMARK SMILES O=C(NCCCCCCNC(=O)[C@H](F)Sc1cc2ccccc2[nH]1)c1ccc(-c2c3nc(c(-c4ccccc4)c4ccc([nH]4)c(-c4ccccc4)c4nc(c(-c5ccccc5)c5ccc2[nH]5)C=C4)C=C3)cc1
REMARK SMILES IDX 6 1 5 2 4 3 3 4 1 5 2 6 25 8 26 9 72 10 27 11 71 12 28 13
REMARK SMILES IDX 29 14 30 15 65 16 31 17 70 18 64 19 66 20 32 21 69 22 63 23
REMARK SMILES IDX 62 24 33 26 55 27 40 28 54 29 41 30 44 31 53 32 67 33 42 34
REMARK SMILES IDX 43 35 52 37 68 38 45 39 34 40 35 41 39 42 36 43 38 44 37 45
REMARK SMILES IDX 56 46 57 47 61 48 58 49 60 50 59 51 46 52 47 53 51 54 48 55
REMARK SMILES IDX 50 56 49 57 7 58 8 59 9 60 10 61 11 62 12 64 13 65 14 66
REMARK SMILES IDX 15 67 16 68 17 69 24 70 18 71 23 72 19 74 22 75 20 76 21 77
REMARK H PARENT 3 7 66 25 44 36 10 63 24 73
REMARK Flexibility Score: inf
ROOT
ATOM      1  C   UNL A   1      36.329  20.519  24.945  1.00  0.00     0.002 C 
ENDROOT
BRANCH   1   2
ATOM      2  C   UNL A   1      37.530  19.576  25.010  1.00  0.00     0.021 C 
BRANCH   2   3
ATOM      3  C   UNL A   1      38.832  20.223  25.464  1.00  0.00     0.116 C 
BRANCH   3   4
ATOM      4  N   UNL A   1      39.886  19.252  25.711  1.00  0.00    -0.352 N 
ATOM      5  O   UNL A   1      41.975  18.536  26.179  1.00  0.00    -0.269 OA
ATOM      6  C   UNL A   1      41.163  19.457  26.173  1.00  0.00     0.251 C 
ATOM      7  H   UNL A   1      39.650  18.316  25.522  1.00  0.00     0.163 HD
BRANCH   6   8
ATOM      8  C   UNL A   1      41.572  20.800  26.642  1.00  0.00     0.039 A 
ATOM      9  C   UNL A   1      41.400  21.173  27.978  1.00  0.00     0.014 A 
ATOM     10  C   UNL A   1      42.149  21.692  25.734  1.00  0.00     0.014 A 
ATOM     11  C   UNL A   1      41.682  22.476  28.374  1.00  0.00     0.010 A 
ATOM     12  C   UNL A   1      42.507  22.977  26.153  1.00  0.00     0.010 A 
ATOM     13  C   UNL A   1      42.252  23.388  27.470  1.00  0.00    -0.014 A 
BRANCH  13  14
ATOM     14  C   UNL A   1      42.637  24.739  27.946  1.00  0.00     0.031 A 
ATOM     15  C   UNL A   1      41.604  25.798  28.213  1.00  0.00     0.074 A 
ATOM     16  C   UNL A   1      43.941  25.000  28.161  1.00  0.00     0.049 A 
ATOM     17  N   UNL A   1      41.776  27.018  28.661  1.00  0.00    -0.248 NA
ATOM     18  C   UNL A   1      40.202  25.450  27.942  1.00  0.00     0.031 C 
ATOM     19  C   UNL A   1      45.038  24.055  27.931  1.00  0.00     0.029 A 
ATOM     20  N   UNL A   1      44.566  26.124  28.637  1.00  0.00    -0.354 N 
ATOM     21  C   UNL A   1      40.510  27.588  28.708  1.00  0.00     0.074 A 
ATOM     22  C   UNL A   1      39.581  26.589  28.223  1.00  0.00     0.031 C 
ATOM     23  C   UNL A   1      46.192  24.622  28.310  1.00  0.00     0.029 A 
ATOM     24  C   UNL A   1      45.927  25.986  28.751  1.00  0.00     0.049 A 
ATOM     25  H   UNL A   1      44.084  26.949  28.873  1.00  0.00     0.167 HD
ATOM     26  C   UNL A   1      40.155  28.828  29.121  1.00  0.00     0.031 A 
ATOM     27  C   UNL A   1      46.864  26.863  29.153  1.00  0.00     0.031 A 
ATOM     28  C   UNL A   1      41.081  29.823  29.599  1.00  0.00     0.049 A 
ATOM     29  C   UNL A   1      46.446  28.240  29.571  1.00  0.00     0.074 A 
ATOM     30  C   UNL A   1      40.811  31.097  30.071  1.00  0.00     0.029 A 
ATOM     31  N   UNL A   1      42.456  29.658  29.661  1.00  0.00    -0.354 N 
ATOM     32  N   UNL A   1      45.240  28.748  29.646  1.00  0.00    -0.248 NA
ATOM     33  C   UNL A   1      47.518  29.166  29.959  1.00  0.00     0.031 C 
ATOM     34  C   UNL A   1      42.027  31.720  30.370  1.00  0.00     0.029 A 
ATOM     35  C   UNL A   1      43.050  30.817  30.136  1.00  0.00     0.049 A 
ATOM     36  H   UNL A   1      42.939  28.840  29.405  1.00  0.00     0.167 HD
ATOM     37  C   UNL A   1      45.406  30.048  30.101  1.00  0.00     0.074 A 
ATOM     38  C   UNL A   1      46.827  30.241  30.308  1.00  0.00     0.031 C 
ATOM     39  C   UNL A   1      44.466  30.997  30.326  1.00  0.00     0.031 A 
BRANCH  26  40
ATOM     40  C   UNL A   1      38.699  29.196  29.048  1.00  0.00    -0.014 A 
ATOM     41  C   UNL A   1      38.140  29.737  27.879  1.00  0.00     0.009 A 
ATOM     42  C   UNL A   1      37.862  28.948  30.148  1.00  0.00     0.009 A 
ATOM     43  C   UNL A   1      36.779  30.051  27.826  1.00  0.00     0.001 A 
ATOM     44  C   UNL A   1      36.499  29.240  30.083  1.00  0.00     0.001 A 
ATOM     45  C   UNL A   1      35.959  29.799  28.924  1.00  0.00     0.000 A 
ENDBRANCH  26  40
BRANCH  27  46
ATOM     46  C   UNL A   1      48.294  26.460  29.162  1.00  0.00    -0.014 A 
ATOM     47  C   UNL A   1      48.860  25.862  30.297  1.00  0.00     0.009 A 
ATOM     48  C   UNL A   1      49.094  26.656  28.026  1.00  0.00     0.009 A 
ATOM     49  C   UNL A   1      50.204  25.485  30.299  1.00  0.00     0.001 A 
ATOM     50  C   UNL A   1      50.430  26.252  28.021  1.00  0.00     0.001 A 
ATOM     51  C   UNL A   1      50.986  25.674  29.160  1.00  0.00     0.000 A 
ENDBRANCH  27  46
BRANCH  39  52
ATOM     52  C   UNL A   1      44.949  32.323  30.842  1.00  0.00    -0.014 A 
ATOM     53  C   UNL A   1      45.089  32.558  32.217  1.00  0.00     0.009 A 
ATOM     54  C   UNL A   1      45.288  33.340  29.937  1.00  0.00     0.009 A 
ATOM     55  C   UNL A   1      45.528  33.801  32.678  1.00  0.00     0.001 A 
ATOM     56  C   UNL A   1      45.750  34.572  30.398  1.00  0.00     0.001 A 
ATOM     57  C   UNL A   1      45.861  34.805  31.769  1.00  0.00     0.000 A 
ENDBRANCH  39  52
ENDBRANCH  13  14
ENDBRANCH   6   8
ENDBRANCH   3   4
ENDBRANCH   2   3
ENDBRANCH   1   2
BRANCH   1  58
ATOM     58  C   UNL A   1      36.585  21.873  24.275  1.00  0.00     0.002 C 
BRANCH  58  59
ATOM     59  C   UNL A   1      35.482  22.926  24.445  1.00  0.00     0.021 C 
BRANCH  59  60
ATOM     60  C   UNL A   1      34.674  23.228  23.184  1.00  0.00     0.116 C 
BRANCH  60  61
ATOM     61  N   UNL A   1      33.800  24.368  23.365  1.00  0.00    -0.353 N 
ATOM     62  C   UNL A   1      32.436  24.440  23.464  1.00  0.00     0.265 C 
ATOM     63  H   UNL A   1      34.263  25.235  23.427  1.00  0.00     0.163 HD
ATOM     64  O   UNL A   1      31.959  25.577  23.482  1.00  0.00    -0.271 OA
BRANCH  62  65
ATOM     65  C   UNL A   1      31.595  23.154  23.504  1.00  0.00     0.319 C 
ATOM     66  F   UNL A   1      30.298  23.380  23.132  1.00  0.00    -0.224 F 
BRANCH  65  67
ATOM     67  S   UNL A   1      31.637  22.348  25.135  1.00  0.00    -0.061 SA
BRANCH  67  68
ATOM     68  C   UNL A   1      32.120  20.728  24.770  1.00  0.00     0.076 A 
ATOM     69  C   UNL A   1      32.434  20.140  23.568  1.00  0.00     0.043 A 
ATOM     70  N   UNL A   1      32.236  19.786  25.753  1.00  0.00    -0.350 N 
ATOM     71  C   UNL A   1      32.784  18.787  23.836  1.00  0.00     0.001 A 
ATOM     72  C   UNL A   1      32.646  18.589  25.212  1.00  0.00     0.046 A 
ATOM     73  H   UNL A   1      32.052  19.942  26.707  1.00  0.00     0.167 HD
ATOM     74  C   UNL A   1      33.212  17.712  23.036  1.00  0.00     0.010 A 
ATOM     75  C   UNL A   1      32.910  17.360  25.828  1.00  0.00     0.027 A 
ATOM     76  C   UNL A   1      33.483  16.477  23.636  1.00  0.00     0.001 A 
ATOM     77  C   UNL A   1      33.333  16.306  25.011  1.00  0.00     0.002 A 
ENDBRANCH  67  68
ENDBRANCH  65  67
ENDBRANCH  62  65
ENDBRANCH  60  61
ENDBRANCH  59  60
ENDBRANCH  58  59
ENDBRANCH   1  58
TORSDOF 15
ENDMDL
