MODEL 1
REMARK VINA RESULT:     -10.5      0.000      0.000
REMARK SMILES [NH3+][C@@H](Cc1c[nH]c2ccccc12)C(=O)N[C@@H](CS)C(=O)N[C@@H](CO)C(=O)NCCCCCCNC(=O)c1ccc(-c2c3nc(c(-c4ccccc4)c4ccc([nH]4)c(-c4ccccc4)c4nc(c(-c5ccccc5)c5ccc2[nH]5)C=C4)C=C3)cc1
REMARK SMILES IDX 28 1 27 2 25 3 26 4 22 6 21 7 19 8 20 9 16 11 15 12 13 13
REMARK SMILES IDX 14 14 2 16 1 17 3 21 4 22 5 23 12 24 6 25 7 26 11 27 8 29
REMARK SMILES IDX 10 30 9 31 17 32 18 33 23 35 24 36 29 38 30 39 31 40 32 41
REMARK SMILES IDX 33 42 34 43 35 44 36 46 37 47 38 48 84 49 39 50 83 51 40 52
REMARK SMILES IDX 41 53 42 54 77 55 43 56 82 57 76 58 78 59 44 60 81 61 75 62
REMARK SMILES IDX 74 63 45 65 67 66 52 67 66 68 53 69 56 70 65 71 79 72 54 73
REMARK SMILES IDX 55 74 64 76 80 77 57 78 46 79 47 80 51 81 48 82 50 83 49 84
REMARK SMILES IDX 68 85 69 86 73 87 70 88 72 89 71 90 58 91 59 92 63 93 60 94
REMARK SMILES IDX 62 95 61 96
REMARK H PARENT 27 5 21 10 15 15 1 18 1 19 1 20 6 28 18 34 24 37 34 45 78 64
REMARK H PARENT 56 75
REMARK Flexibility Score: inf
ROOT
ATOM      1  C   UNL A   1      32.475  27.286  26.214  1.00  0.00     0.116 C 
ENDROOT
BRANCH   1   2
ATOM      2  N   UNL A   1      31.239  27.085  25.495  1.00  0.00    -0.354 N 
ATOM      3  C   UNL A   1      31.011  26.538  24.278  1.00  0.00     0.244 C 
ATOM      4  O   UNL A   1      29.835  26.396  23.928  1.00  0.00    -0.273 OA
ATOM      5  H   UNL A   1      30.433  27.395  25.966  1.00  0.00     0.163 HD
BRANCH   3   6
ATOM      6  C   UNL A   1      32.143  26.057  23.366  1.00  0.00     0.197 C 
BRANCH   6   7
ATOM      7  N   UNL A   1      32.079  24.651  23.015  1.00  0.00    -0.340 N 
ATOM      8  C   UNL A   1      32.759  23.622  23.567  1.00  0.00     0.244 C 
ATOM      9  O   UNL A   1      33.092  22.739  22.764  1.00  0.00    -0.273 OA
ATOM     10  H   UNL A   1      31.464  24.417  22.282  1.00  0.00     0.164 HD
BRANCH   8  11
ATOM     11  C   UNL A   1      33.132  23.523  25.068  1.00  0.00     0.181 C 
BRANCH  11  12
ATOM     12  N   UNL A   1      34.468  24.036  25.284  1.00  0.00    -0.338 N 
ATOM     13  C   UNL A   1      35.589  23.341  25.616  1.00  0.00     0.279 C 
ATOM     14  O   UNL A   1      36.630  24.004  25.719  1.00  0.00    -0.268 OA
ATOM     15  H   UNL A   1      34.579  25.008  25.179  1.00  0.00     0.164 HD
BRANCH  13  16
ATOM     16  C   UNL A   1      35.601  21.816  25.956  1.00  0.00     0.275 C 
BRANCH  16  17
ATOM     17  N   UNL A   1      34.969  21.559  27.265  1.00  0.00    -0.347 N 
ATOM     18  H   UNL A   1      34.087  21.067  27.126  1.00  0.00     0.345 HD
ATOM     19  H   UNL A   1      34.793  22.445  27.737  1.00  0.00     0.345 HD
ATOM     20  H   UNL A   1      35.591  20.987  27.836  1.00  0.00     0.345 HD
ENDBRANCH  16  17
BRANCH  16  21
ATOM     21  C   UNL A   1      35.346  20.756  24.866  1.00  0.00     0.113 C 
BRANCH  21  22
ATOM     22  C   UNL A   1      34.230  19.725  24.879  1.00  0.00    -0.016 A 
ATOM     23  C   UNL A   1      32.916  20.134  25.060  1.00  0.00     0.087 A 
ATOM     24  C   UNL A   1      34.168  18.277  24.783  1.00  0.00     0.003 A 
ATOM     25  N   UNL A   1      32.128  19.042  25.266  1.00  0.00    -0.361 N 
ATOM     26  C   UNL A   1      32.887  17.902  25.206  1.00  0.00     0.046 A 
ATOM     27  C   UNL A   1      35.078  17.223  24.530  1.00  0.00     0.010 A 
ATOM     28  H   UNL A   1      31.159  19.068  25.433  1.00  0.00     0.166 HD
ATOM     29  C   UNL A   1      32.525  16.581  25.512  1.00  0.00     0.026 A 
ATOM     30  C   UNL A   1      34.733  15.894  24.827  1.00  0.00     0.001 A 
ATOM     31  C   UNL A   1      33.484  15.585  25.345  1.00  0.00     0.002 A 
ENDBRANCH  21  22
ENDBRANCH  16  21
ENDBRANCH  13  16
ENDBRANCH  11  12
BRANCH  11  32
ATOM     32  C   UNL A   1      32.138  23.770  26.212  1.00  0.00     0.101 C 
BRANCH  32  33
ATOM     33  S   UNL A   1      30.579  22.806  26.149  1.00  0.00    -0.177 SA
ATOM     34  H   UNL A   1      29.523  23.658  26.056  1.00  0.00     0.102 HD
ENDBRANCH  32  33
ENDBRANCH  11  32
ENDBRANCH   8  11
ENDBRANCH   6   7
BRANCH   6  35
ATOM     35  C   UNL A   1      32.387  26.957  22.149  1.00  0.00     0.191 C 
BRANCH  35  36
ATOM     36  O   UNL A   1      31.368  26.853  21.158  1.00  0.00    -0.394 OA
ATOM     37  H   UNL A   1      31.176  25.918  20.987  1.00  0.00     0.210 HD
ENDBRANCH  35  36
ENDBRANCH   6  35
ENDBRANCH   3   6
ENDBRANCH   1   2
BRANCH   1  38
ATOM     38  C   UNL A   1      32.236  28.034  27.519  1.00  0.00     0.021 C 
BRANCH  38  39
ATOM     39  C   UNL A   1      31.414  29.316  27.358  1.00  0.00     0.002 C 
BRANCH  39  40
ATOM     40  C   UNL A   1      31.987  30.324  26.358  1.00  0.00     0.002 C 
BRANCH  40  41
ATOM     41  C   UNL A   1      31.732  31.791  26.708  1.00  0.00     0.021 C 
BRANCH  41  42
ATOM     42  C   UNL A   1      32.948  32.517  27.264  1.00  0.00     0.116 C 
BRANCH  42  43
ATOM     43  N   UNL A   1      32.615  33.860  27.706  1.00  0.00    -0.352 N 
ATOM     44  C   UNL A   1      33.190  34.593  28.708  1.00  0.00     0.251 C 
ATOM     45  H   UNL A   1      31.880  34.300  27.221  1.00  0.00     0.163 HD
ATOM     46  O   UNL A   1      32.656  35.621  29.121  1.00  0.00    -0.269 OA
BRANCH  44  47
ATOM     47  C   UNL A   1      34.455  34.123  29.301  1.00  0.00     0.039 A 
ATOM     48  C   UNL A   1      34.417  33.371  30.475  1.00  0.00     0.014 A 
ATOM     49  C   UNL A   1      35.672  34.402  28.671  1.00  0.00     0.014 A 
ATOM     50  C   UNL A   1      35.602  32.852  30.993  1.00  0.00     0.010 A 
ATOM     51  C   UNL A   1      36.840  33.817  29.143  1.00  0.00     0.010 A 
ATOM     52  C   UNL A   1      36.817  33.044  30.314  1.00  0.00    -0.014 A 
BRANCH  52  53
ATOM     53  C   UNL A   1      38.079  32.449  30.815  1.00  0.00     0.031 A 
ATOM     54  C   UNL A   1      38.601  31.176  30.210  1.00  0.00     0.074 A 
ATOM     55  C   UNL A   1      38.721  33.023  31.849  1.00  0.00     0.049 A 
ATOM     56  N   UNL A   1      39.654  30.474  30.544  1.00  0.00    -0.248 NA
ATOM     57  C   UNL A   1      37.825  30.602  29.098  1.00  0.00     0.031 C 
ATOM     58  C   UNL A   1      38.296  34.241  32.543  1.00  0.00     0.029 A 
ATOM     59  N   UNL A   1      39.870  32.654  32.503  1.00  0.00    -0.354 N 
ATOM     60  C   UNL A   1      39.657  29.375  29.696  1.00  0.00     0.074 A 
ATOM     61  C   UNL A   1      38.474  29.470  28.871  1.00  0.00     0.031 C 
ATOM     62  C   UNL A   1      39.188  34.534  33.502  1.00  0.00     0.029 A 
ATOM     63  C   UNL A   1      40.220  33.504  33.523  1.00  0.00     0.049 A 
ATOM     64  H   UNL A   1      40.393  31.855  32.262  1.00  0.00     0.167 HD
ATOM     65  C   UNL A   1      40.576  28.385  29.599  1.00  0.00     0.031 A 
ATOM     66  C   UNL A   1      41.251  33.452  34.386  1.00  0.00     0.031 A 
ATOM     67  C   UNL A   1      41.753  28.294  30.419  1.00  0.00     0.049 A 
ATOM     68  C   UNL A   1      42.236  32.320  34.282  1.00  0.00     0.074 A 
ATOM     69  C   UNL A   1      42.771  27.358  30.366  1.00  0.00     0.029 A 
ATOM     70  N   UNL A   1      42.065  29.168  31.449  1.00  0.00    -0.354 N 
ATOM     71  N   UNL A   1      42.265  31.326  33.429  1.00  0.00    -0.248 NA
ATOM     72  C   UNL A   1      43.335  32.310  35.258  1.00  0.00     0.031 C 
ATOM     73  C   UNL A   1      43.668  27.630  31.404  1.00  0.00     0.029 A 
ATOM     74  C   UNL A   1      43.244  28.774  32.060  1.00  0.00     0.049 A 
ATOM     75  H   UNL A   1      41.529  29.953  31.707  1.00  0.00     0.167 HD
ATOM     76  C   UNL A   1      43.397  30.587  33.745  1.00  0.00     0.074 A 
ATOM     77  C   UNL A   1      44.039  31.260  34.856  1.00  0.00     0.031 C 
ATOM     78  C   UNL A   1      43.866  29.454  33.168  1.00  0.00     0.031 A 
BRANCH  65  79
ATOM     79  C   UNL A   1      40.333  27.313  28.571  1.00  0.00    -0.014 A 
ATOM     80  C   UNL A   1      40.854  27.418  27.271  1.00  0.00     0.009 A 
ATOM     81  C   UNL A   1      39.598  26.169  28.916  1.00  0.00     0.009 A 
ATOM     82  C   UNL A   1      40.610  26.417  26.328  1.00  0.00     0.001 A 
ATOM     83  C   UNL A   1      39.384  25.155  27.980  1.00  0.00     0.001 A 
ATOM     84  C   UNL A   1      39.880  25.285  26.685  1.00  0.00     0.000 A 
ENDBRANCH  65  79
BRANCH  66  85
ATOM     85  C   UNL A   1      41.413  34.507  35.421  1.00  0.00    -0.014 A 
ATOM     86  C   UNL A   1      42.274  35.594  35.203  1.00  0.00     0.009 A 
ATOM     87  C   UNL A   1      40.717  34.428  36.638  1.00  0.00     0.009 A 
ATOM     88  C   UNL A   1      42.455  36.564  36.192  1.00  0.00     0.001 A 
ATOM     89  C   UNL A   1      40.875  35.416  37.612  1.00  0.00     0.001 A 
ATOM     90  C   UNL A   1      41.752  36.476  37.393  1.00  0.00     0.000 A 
ENDBRANCH  66  85
BRANCH  78  91
ATOM     91  C   UNL A   1      45.150  28.887  33.706  1.00  0.00    -0.014 A 
ATOM     92  C   UNL A   1      45.153  27.929  34.732  1.00  0.00     0.009 A 
ATOM     93  C   UNL A   1      46.374  29.283  33.143  1.00  0.00     0.009 A 
ATOM     94  C   UNL A   1      46.356  27.405  35.206  1.00  0.00     0.001 A 
ATOM     95  C   UNL A   1      47.573  28.734  33.596  1.00  0.00     0.001 A 
ATOM     96  C   UNL A   1      47.565  27.803  34.634  1.00  0.00     0.000 A 
ENDBRANCH  78  91
ENDBRANCH  52  53
ENDBRANCH  44  47
ENDBRANCH  42  43
ENDBRANCH  41  42
ENDBRANCH  40  41
ENDBRANCH  39  40
ENDBRANCH  38  39
ENDBRANCH   1  38
TORSDOF 24
ENDMDL
MODEL 2
REMARK VINA RESULT:     -10.1      1.265      5.813
REMARK SMILES [NH3+][C@@H](Cc1c[nH]c2ccccc12)C(=O)N[C@@H](CS)C(=O)N[C@@H](CO)C(=O)NCCCCCCNC(=O)c1ccc(-c2c3nc(c(-c4ccccc4)c4ccc([nH]4)c(-c4ccccc4)c4nc(c(-c5ccccc5)c5ccc2[nH]5)C=C4)C=C3)cc1
REMARK SMILES IDX 28 1 27 2 25 3 26 4 22 6 21 7 19 8 20 9 16 11 15 12 13 13
REMARK SMILES IDX 14 14 2 16 1 17 3 21 4 22 5 23 12 24 6 25 7 26 11 27 8 29
REMARK SMILES IDX 10 30 9 31 17 32 18 33 23 35 24 36 29 38 30 39 31 40 32 41
REMARK SMILES IDX 33 42 34 43 35 44 36 46 37 47 38 48 84 49 39 50 83 51 40 52
REMARK SMILES IDX 41 53 42 54 77 55 43 56 82 57 76 58 78 59 44 60 81 61 75 62
REMARK SMILES IDX 74 63 45 65 67 66 52 67 66 68 53 69 56 70 65 71 79 72 54 73
REMARK SMILES IDX 55 74 64 76 80 77 57 78 46 79 47 80 51 81 48 82 50 83 49 84
REMARK SMILES IDX 68 85 69 86 73 87 70 88 72 89 71 90 58 91 59 92 63 93 60 94
REMARK SMILES IDX 62 95 61 96
REMARK H PARENT 27 5 21 10 15 15 1 18 1 19 1 20 6 28 18 34 24 37 34 45 78 64
REMARK H PARENT 56 75
REMARK Flexibility Score: inf
ROOT
ATOM      1  C   UNL A   1      31.249  28.141  23.536  1.00  0.00     0.116 C 
ENDROOT
BRANCH   1   2
ATOM      2  N   UNL A   1      32.551  28.358  22.952  1.00  0.00    -0.354 N 
ATOM      3  C   UNL A   1      33.324  27.538  22.201  1.00  0.00     0.244 C 
ATOM      4  O   UNL A   1      34.370  28.005  21.739  1.00  0.00    -0.273 OA
ATOM      5  H   UNL A   1      32.940  29.245  23.127  1.00  0.00     0.163 HD
BRANCH   3   6
ATOM      6  C   UNL A   1      32.922  26.097  21.876  1.00  0.00     0.197 C 
BRANCH   6   7
ATOM      7  N   UNL A   1      32.084  25.463  22.877  1.00  0.00    -0.340 N 
ATOM      8  C   UNL A   1      32.438  24.540  23.797  1.00  0.00     0.244 C 
ATOM      9  O   UNL A   1      31.567  23.690  24.030  1.00  0.00    -0.273 OA
ATOM     10  H   UNL A   1      31.139  25.740  22.886  1.00  0.00     0.164 HD
BRANCH   8  11
ATOM     11  C   UNL A   1      33.814  24.495  24.509  1.00  0.00     0.181 C 
BRANCH  11  12
ATOM     12  N   UNL A   1      34.844  24.091  23.576  1.00  0.00    -0.338 N 
ATOM     13  C   UNL A   1      35.767  23.103  23.722  1.00  0.00     0.279 C 
ATOM     14  O   UNL A   1      36.533  22.926  22.766  1.00  0.00    -0.268 OA
ATOM     15  H   UNL A   1      34.883  24.595  22.731  1.00  0.00     0.164 HD
BRANCH  13  16
ATOM     16  C   UNL A   1      35.959  22.277  25.035  1.00  0.00     0.275 C 
BRANCH  16  17
ATOM     17  N   UNL A   1      36.687  23.059  26.053  1.00  0.00    -0.347 N 
ATOM     18  H   UNL A   1      37.601  22.637  26.218  1.00  0.00     0.345 HD
ATOM     19  H   UNL A   1      36.154  23.065  26.922  1.00  0.00     0.345 HD
ATOM     20  H   UNL A   1      36.809  24.016  25.723  1.00  0.00     0.345 HD
ENDBRANCH  16  17
BRANCH  16  21
ATOM     21  C   UNL A   1      34.842  21.356  25.566  1.00  0.00     0.113 C 
BRANCH  21  22
ATOM     22  C   UNL A   1      34.081  20.326  24.749  1.00  0.00    -0.016 A 
ATOM     23  C   UNL A   1      32.894  20.683  24.124  1.00  0.00     0.087 A 
ATOM     24  C   UNL A   1      34.258  18.915  24.452  1.00  0.00     0.003 A 
ATOM     25  N   UNL A   1      32.278  19.563  23.653  1.00  0.00    -0.361 N 
ATOM     26  C   UNL A   1      33.040  18.459  23.933  1.00  0.00     0.046 A 
ATOM     27  C   UNL A   1      35.247  17.931  24.688  1.00  0.00     0.010 A 
ATOM     28  H   UNL A   1      31.415  19.549  23.182  1.00  0.00     0.166 HD
ATOM     29  C   UNL A   1      32.723  17.102  23.775  1.00  0.00     0.026 A 
ATOM     30  C   UNL A   1      34.949  16.567  24.532  1.00  0.00     0.001 A 
ATOM     31  C   UNL A   1      33.690  16.159  24.116  1.00  0.00     0.002 A 
ENDBRANCH  21  22
ENDBRANCH  16  21
ENDBRANCH  13  16
ENDBRANCH  11  12
BRANCH  11  32
ATOM     32  C   UNL A   1      34.254  25.503  25.580  1.00  0.00     0.101 C 
BRANCH  32  33
ATOM     33  S   UNL A   1      32.934  26.573  26.271  1.00  0.00    -0.177 SA
ATOM     34  H   UNL A   1      33.286  27.878  26.126  1.00  0.00     0.102 HD
ENDBRANCH  32  33
ENDBRANCH  11  32
ENDBRANCH   8  11
ENDBRANCH   6   7
BRANCH   6  35
ATOM     35  C   UNL A   1      32.384  25.907  20.452  1.00  0.00     0.191 C 
BRANCH  35  36
ATOM     36  O   UNL A   1      32.818  24.693  19.844  1.00  0.00    -0.394 OA
ATOM     37  H   UNL A   1      32.398  24.598  18.974  1.00  0.00     0.210 HD
ENDBRANCH  35  36
ENDBRANCH   6  35
ENDBRANCH   3   6
ENDBRANCH   1   2
BRANCH   1  38
ATOM     38  C   UNL A   1      30.810  29.345  24.359  1.00  0.00     0.021 C 
BRANCH  38  39
ATOM     39  C   UNL A   1      31.927  29.963  25.202  1.00  0.00     0.002 C 
BRANCH  39  40
ATOM     40  C   UNL A   1      31.475  30.523  26.554  1.00  0.00     0.002 C 
BRANCH  40  41
ATOM     41  C   UNL A   1      31.470  32.050  26.648  1.00  0.00     0.021 C 
BRANCH  41  42
ATOM     42  C   UNL A   1      32.726  32.638  27.273  1.00  0.00     0.116 C 
BRANCH  42  43
ATOM     43  N   UNL A   1      32.522  34.012  27.698  1.00  0.00    -0.352 N 
ATOM     44  C   UNL A   1      33.198  34.715  28.656  1.00  0.00     0.251 C 
ATOM     45  H   UNL A   1      31.803  34.500  27.235  1.00  0.00     0.163 HD
ATOM     46  O   UNL A   1      32.767  35.792  29.067  1.00  0.00    -0.269 OA
BRANCH  44  47
ATOM     47  C   UNL A   1      34.447  34.156  29.205  1.00  0.00     0.039 A 
ATOM     48  C   UNL A   1      34.398  33.414  30.385  1.00  0.00     0.014 A 
ATOM     49  C   UNL A   1      35.657  34.344  28.528  1.00  0.00     0.014 A 
ATOM     50  C   UNL A   1      35.561  32.812  30.862  1.00  0.00     0.010 A 
ATOM     51  C   UNL A   1      36.796  33.676  28.960  1.00  0.00     0.010 A 
ATOM     52  C   UNL A   1      36.761  32.912  30.136  1.00  0.00    -0.014 A 
BRANCH  52  53
ATOM     53  C   UNL A   1      37.993  32.228  30.594  1.00  0.00     0.031 A 
ATOM     54  C   UNL A   1      38.837  32.842  31.676  1.00  0.00     0.074 A 
ATOM     55  C   UNL A   1      38.381  31.085  29.996  1.00  0.00     0.049 A 
ATOM     56  N   UNL A   1      39.974  32.426  32.173  1.00  0.00    -0.248 NA
ATOM     57  C   UNL A   1      38.352  34.105  32.259  1.00  0.00     0.031 C 
ATOM     58  C   UNL A   1      37.665  30.408  28.912  1.00  0.00     0.029 A 
ATOM     59  N   UNL A   1      39.479  30.292  30.214  1.00  0.00    -0.354 N 
ATOM     60  C   UNL A   1      40.343  33.378  33.113  1.00  0.00     0.074 A 
ATOM     61  C   UNL A   1      39.344  34.421  33.078  1.00  0.00     0.031 C 
ATOM     62  C   UNL A   1      38.326  29.287  28.583  1.00  0.00     0.029 A 
ATOM     63  C   UNL A   1      39.533  29.189  29.397  1.00  0.00     0.049 A 
ATOM     64  H   UNL A   1      40.163  30.495  30.893  1.00  0.00     0.167 HD
ATOM     65  C   UNL A   1      41.410  33.373  33.947  1.00  0.00     0.031 A 
ATOM     66  C   UNL A   1      40.457  28.215  29.306  1.00  0.00     0.031 A 
ATOM     67  C   UNL A   1      42.402  32.333  33.981  1.00  0.00     0.049 A 
ATOM     68  C   UNL A   1      41.653  28.254  30.217  1.00  0.00     0.074 A 
ATOM     69  C   UNL A   1      43.493  32.209  34.823  1.00  0.00     0.029 A 
ATOM     70  N   UNL A   1      42.427  31.239  33.129  1.00  0.00    -0.354 N 
ATOM     71  N   UNL A   1      41.953  29.125  31.150  1.00  0.00    -0.248 NA
ATOM     72  C   UNL A   1      42.634  27.170  30.065  1.00  0.00     0.031 C 
ATOM     73  C   UNL A   1      44.213  31.073  34.440  1.00  0.00     0.029 A 
ATOM     74  C   UNL A   1      43.534  30.453  33.404  1.00  0.00     0.049 A 
ATOM     75  H   UNL A   1      41.756  31.049  32.433  1.00  0.00     0.167 HD
ATOM     76  C   UNL A   1      43.140  28.680  31.716  1.00  0.00     0.074 A 
ATOM     77  C   UNL A   1      43.495  27.452  31.033  1.00  0.00     0.031 C 
ATOM     78  C   UNL A   1      43.873  29.237  32.711  1.00  0.00     0.031 A 
BRANCH  65  79
ATOM     79  C   UNL A   1      41.561  34.540  34.885  1.00  0.00    -0.014 A 
ATOM     80  C   UNL A   1      40.955  34.542  36.151  1.00  0.00     0.009 A 
ATOM     81  C   UNL A   1      42.347  35.641  34.508  1.00  0.00     0.009 A 
ATOM     82  C   UNL A   1      41.099  35.639  37.004  1.00  0.00     0.001 A 
ATOM     83  C   UNL A   1      42.516  36.720  35.376  1.00  0.00     0.001 A 
ATOM     84  C   UNL A   1      41.883  36.724  36.618  1.00  0.00     0.000 A 
ENDBRANCH  65  79
BRANCH  66  85
ATOM     85  C   UNL A   1      40.287  27.114  28.321  1.00  0.00    -0.014 A 
ATOM     86  C   UNL A   1      39.557  25.964  28.657  1.00  0.00     0.009 A 
ATOM     87  C   UNL A   1      40.864  27.202  27.044  1.00  0.00     0.009 A 
ATOM     88  C   UNL A   1      39.432  24.913  27.745  1.00  0.00     0.001 A 
ATOM     89  C   UNL A   1      40.710  26.164  26.123  1.00  0.00     0.001 A 
ATOM     90  C   UNL A   1      40.005  25.016  26.478  1.00  0.00     0.000 A 
ENDBRANCH  66  85
BRANCH  78  91
ATOM     91  C   UNL A   1      45.114  28.507  33.144  1.00  0.00    -0.014 A 
ATOM     92  C   UNL A   1      46.388  28.919  32.725  1.00  0.00     0.009 A 
ATOM     93  C   UNL A   1      45.007  27.418  34.026  1.00  0.00     0.009 A 
ATOM     94  C   UNL A   1      47.527  28.235  33.152  1.00  0.00     0.001 A 
ATOM     95  C   UNL A   1      46.149  26.757  34.477  1.00  0.00     0.001 A 
ATOM     96  C   UNL A   1      47.408  27.160  34.032  1.00  0.00     0.000 A 
ENDBRANCH  78  91
ENDBRANCH  52  53
ENDBRANCH  44  47
ENDBRANCH  42  43
ENDBRANCH  41  42
ENDBRANCH  40  41
ENDBRANCH  39  40
ENDBRANCH  38  39
ENDBRANCH   1  38
TORSDOF 24
ENDMDL
MODEL 3
REMARK VINA RESULT:      -9.6      1.793      2.951
REMARK SMILES [NH3+][C@@H](Cc1c[nH]c2ccccc12)C(=O)N[C@@H](CS)C(=O)N[C@@H](CO)C(=O)NCCCCCCNC(=O)c1ccc(-c2c3nc(c(-c4ccccc4)c4ccc([nH]4)c(-c4ccccc4)c4nc(c(-c5ccccc5)c5ccc2[nH]5)C=C4)C=C3)cc1
REMARK SMILES IDX 28 1 27 2 25 3 26 4 22 6 21 7 19 8 20 9 16 11 15 12 13 13
REMARK SMILES IDX 14 14 2 16 1 17 3 21 4 22 5 23 12 24 6 25 7 26 11 27 8 29
REMARK SMILES IDX 10 30 9 31 17 32 18 33 23 35 24 36 29 38 30 39 31 40 32 41
REMARK SMILES IDX 33 42 34 43 35 44 36 46 37 47 38 48 84 49 39 50 83 51 40 52
REMARK SMILES IDX 41 53 42 54 77 55 43 56 82 57 76 58 78 59 44 60 81 61 75 62
REMARK SMILES IDX 74 63 45 65 67 66 52 67 66 68 53 69 56 70 65 71 79 72 54 73
REMARK SMILES IDX 55 74 64 76 80 77 57 78 46 79 47 80 51 81 48 82 50 83 49 84
REMARK SMILES IDX 68 85 69 86 73 87 70 88 72 89 71 90 58 91 59 92 63 93 60 94
REMARK SMILES IDX 62 95 61 96
REMARK H PARENT 27 5 21 10 15 15 1 18 1 19 1 20 6 28 18 34 24 37 34 45 78 64
REMARK H PARENT 56 75
REMARK Flexibility Score: inf
ROOT
ATOM      1  C   UNL A   1      32.356  27.773  24.465  1.00  0.00     0.116 C 
ENDROOT
BRANCH   1   2
ATOM      2  N   UNL A   1      33.139  28.030  23.279  1.00  0.00    -0.354 N 
ATOM      3  C   UNL A   1      33.299  27.290  22.156  1.00  0.00     0.244 C 
ATOM      4  O   UNL A   1      33.957  27.786  21.236  1.00  0.00    -0.273 OA
ATOM      5  H   UNL A   1      33.637  28.878  23.289  1.00  0.00     0.163 HD
BRANCH   3   6
ATOM      6  C   UNL A   1      32.658  25.911  21.980  1.00  0.00     0.197 C 
BRANCH   6   7
ATOM      7  N   UNL A   1      31.353  25.768  22.596  1.00  0.00    -0.340 N 
ATOM      8  C   UNL A   1      30.799  24.656  23.128  1.00  0.00     0.244 C 
ATOM      9  O   UNL A   1      29.577  24.559  22.952  1.00  0.00    -0.273 OA
ATOM     10  H   UNL A   1      30.800  26.583  22.630  1.00  0.00     0.164 HD
BRANCH   8  11
ATOM     11  C   UNL A   1      31.591  23.558  23.882  1.00  0.00     0.181 C 
BRANCH  11  12
ATOM     12  N   UNL A   1      31.824  22.426  23.012  1.00  0.00    -0.338 N 
ATOM     13  C   UNL A   1      32.320  21.203  23.343  1.00  0.00     0.279 C 
ATOM     14  O   UNL A   1      32.402  20.381  22.421  1.00  0.00    -0.268 OA
ATOM     15  H   UNL A   1      31.596  22.556  22.063  1.00  0.00     0.164 HD
BRANCH  13  16
ATOM     16  C   UNL A   1      32.863  20.837  24.762  1.00  0.00     0.275 C 
BRANCH  16  17
ATOM     17  N   UNL A   1      31.758  20.646  25.721  1.00  0.00    -0.347 N 
ATOM     18  H   UNL A   1      31.814  21.357  26.450  1.00  0.00     0.345 HD
ATOM     19  H   UNL A   1      31.830  19.721  26.143  1.00  0.00     0.345 HD
ATOM     20  H   UNL A   1      30.867  20.729  25.233  1.00  0.00     0.345 HD
ENDBRANCH  16  17
BRANCH  16  21
ATOM     21  C   UNL A   1      34.071  19.893  24.931  1.00  0.00     0.113 C 
BRANCH  21  22
ATOM     22  C   UNL A   1      35.532  20.311  24.908  1.00  0.00    -0.016 A 
ATOM     23  C   UNL A   1      36.516  19.363  24.666  1.00  0.00     0.087 A 
ATOM     24  C   UNL A   1      36.248  21.554  25.136  1.00  0.00     0.003 A 
ATOM     25  N   UNL A   1      37.738  19.908  24.920  1.00  0.00    -0.361 N 
ATOM     26  C   UNL A   1      37.596  21.214  25.310  1.00  0.00     0.046 A 
ATOM     27  C   UNL A   1      35.910  22.910  25.360  1.00  0.00     0.010 A 
ATOM     28  H   UNL A   1      38.596  19.434  24.836  1.00  0.00     0.166 HD
ATOM     29  C   UNL A   1      38.561  22.098  25.813  1.00  0.00     0.026 A 
ATOM     30  C   UNL A   1      36.864  23.811  25.861  1.00  0.00     0.001 A 
ATOM     31  C   UNL A   1      38.164  23.398  26.118  1.00  0.00     0.002 A 
ENDBRANCH  21  22
ENDBRANCH  16  21
ENDBRANCH  13  16
ENDBRANCH  11  12
BRANCH  11  32
ATOM     32  C   UNL A   1      32.710  23.855  24.891  1.00  0.00     0.101 C 
BRANCH  32  33
ATOM     33  S   UNL A   1      32.170  24.342  26.575  1.00  0.00    -0.177 SA
ATOM     34  H   UNL A   1      31.664  23.257  27.221  1.00  0.00     0.102 HD
ENDBRANCH  32  33
ENDBRANCH  11  32
ENDBRANCH   8  11
ENDBRANCH   6   7
BRANCH   6  35
ATOM     35  C   UNL A   1      32.689  25.390  20.537  1.00  0.00     0.191 C 
BRANCH  35  36
ATOM     36  O   UNL A   1      31.689  25.974  19.707  1.00  0.00    -0.394 OA
ATOM     37  H   UNL A   1      30.819  25.621  19.950  1.00  0.00     0.210 HD
ENDBRANCH  35  36
ENDBRANCH   6  35
ENDBRANCH   3   6
ENDBRANCH   1   2
BRANCH   1  38
ATOM     38  C   UNL A   1      31.597  29.019  24.901  1.00  0.00     0.021 C 
BRANCH  38  39
ATOM     39  C   UNL A   1      32.438  30.006  25.715  1.00  0.00     0.002 C 
BRANCH  39  40
ATOM     40  C   UNL A   1      31.721  30.613  26.925  1.00  0.00     0.002 C 
BRANCH  40  41
ATOM     41  C   UNL A   1      31.554  32.133  26.876  1.00  0.00     0.021 C 
BRANCH  41  42
ATOM     42  C   UNL A   1      32.799  32.907  27.281  1.00  0.00     0.116 C 
BRANCH  42  43
ATOM     43  N   UNL A   1      32.488  34.285  27.619  1.00  0.00    -0.352 N 
ATOM     44  C   UNL A   1      33.000  35.049  28.631  1.00  0.00     0.251 C 
ATOM     45  H   UNL A   1      31.822  34.727  27.044  1.00  0.00     0.163 HD
ATOM     46  O   UNL A   1      32.477  36.120  28.938  1.00  0.00    -0.269 OA
BRANCH  44  47
ATOM     47  C   UNL A   1      34.182  34.563  29.366  1.00  0.00     0.039 A 
ATOM     48  C   UNL A   1      34.011  33.995  30.629  1.00  0.00     0.014 A 
ATOM     49  C   UNL A   1      35.451  34.642  28.784  1.00  0.00     0.014 A 
ATOM     50  C   UNL A   1      35.113  33.457  31.291  1.00  0.00     0.010 A 
ATOM     51  C   UNL A   1      36.532  34.032  29.409  1.00  0.00     0.010 A 
ATOM     52  C   UNL A   1      36.375  33.443  30.672  1.00  0.00    -0.014 A 
BRANCH  52  53
ATOM     53  C   UNL A   1      37.546  32.819  31.333  1.00  0.00     0.031 A 
ATOM     54  C   UNL A   1      38.223  31.635  30.701  1.00  0.00     0.074 A 
ATOM     55  C   UNL A   1      37.963  33.284  32.526  1.00  0.00     0.049 A 
ATOM     56  N   UNL A   1      39.225  30.921  31.149  1.00  0.00    -0.248 NA
ATOM     57  C   UNL A   1      37.689  31.177  29.407  1.00  0.00     0.031 C 
ATOM     58  C   UNL A   1      37.367  34.406  33.256  1.00  0.00     0.029 A 
ATOM     59  N   UNL A   1      38.986  32.866  33.339  1.00  0.00    -0.354 N 
ATOM     60  C   UNL A   1      39.429  29.927  30.202  1.00  0.00     0.074 A 
ATOM     61  C   UNL A   1      38.416  30.092  29.185  1.00  0.00     0.031 C 
ATOM     62  C   UNL A   1      38.055  34.605  34.392  1.00  0.00     0.029 A 
ATOM     63  C   UNL A   1      39.107  33.600  34.493  1.00  0.00     0.049 A 
ATOM     64  H   UNL A   1      39.577  32.111  33.115  1.00  0.00     0.167 HD
ATOM     65  C   UNL A   1      40.390  28.973  30.171  1.00  0.00     0.031 A 
ATOM     66  C   UNL A   1      39.963  33.471  35.523  1.00  0.00     0.031 A 
ATOM     67  C   UNL A   1      41.399  28.813  31.183  1.00  0.00     0.049 A 
ATOM     68  C   UNL A   1      40.996  32.378  35.483  1.00  0.00     0.074 A 
ATOM     69  C   UNL A   1      42.448  27.911  31.219  1.00  0.00     0.029 A 
ATOM     70  N   UNL A   1      41.480  29.569  32.342  1.00  0.00    -0.354 N 
ATOM     71  N   UNL A   1      41.223  31.489  34.547  1.00  0.00    -0.248 NA
ATOM     72  C   UNL A   1      41.897  32.279  36.640  1.00  0.00     0.031 C 
ATOM     73  C   UNL A   1      43.126  28.080  32.430  1.00  0.00     0.029 A 
ATOM     74  C   UNL A   1      42.542  29.132  33.117  1.00  0.00     0.049 A 
ATOM     75  H   UNL A   1      40.874  30.308  32.579  1.00  0.00     0.167 HD
ATOM     76  C   UNL A   1      42.307  30.742  34.987  1.00  0.00     0.074 A 
ATOM     77  C   UNL A   1      42.705  31.296  36.266  1.00  0.00     0.031 C 
ATOM     78  C   UNL A   1      42.920  29.692  34.388  1.00  0.00     0.031 A 
BRANCH  65  79
ATOM     79  C   UNL A   1      40.385  28.022  29.005  1.00  0.00    -0.014 A 
ATOM     80  C   UNL A   1      39.707  26.794  29.068  1.00  0.00     0.009 A 
ATOM     81  C   UNL A   1      41.043  28.373  27.816  1.00  0.00     0.009 A 
ATOM     82  C   UNL A   1      39.721  25.920  27.979  1.00  0.00     0.001 A 
ATOM     83  C   UNL A   1      41.027  27.511  26.717  1.00  0.00     0.001 A 
ATOM     84  C   UNL A   1      40.377  26.282  26.803  1.00  0.00     0.000 A 
ENDBRANCH  65  79
BRANCH  66  85
ATOM     85  C   UNL A   1      39.888  34.403  36.679  1.00  0.00    -0.014 A 
ATOM     86  C   UNL A   1      39.162  34.056  37.829  1.00  0.00     0.009 A 
ATOM     87  C   UNL A   1      40.532  35.650  36.634  1.00  0.00     0.009 A 
ATOM     88  C   UNL A   1      39.060  34.949  38.898  1.00  0.00     0.001 A 
ATOM     89  C   UNL A   1      40.454  36.528  37.717  1.00  0.00     0.001 A 
ATOM     90  C   UNL A   1      39.709  36.182  38.843  1.00  0.00     0.000 A 
ENDBRANCH  66  85
BRANCH  78  91
ATOM     91  C   UNL A   1      44.106  29.093  35.093  1.00  0.00    -0.014 A 
ATOM     92  C   UNL A   1      45.386  29.659  34.979  1.00  0.00     0.009 A 
ATOM     93  C   UNL A   1      43.928  27.974  35.922  1.00  0.00     0.009 A 
ATOM     94  C   UNL A   1      46.469  29.095  35.654  1.00  0.00     0.001 A 
ATOM     95  C   UNL A   1      45.006  27.432  36.621  1.00  0.00     0.001 A 
ATOM     96  C   UNL A   1      46.278  27.986  36.479  1.00  0.00     0.000 A 
ENDBRANCH  78  91
ENDBRANCH  52  53
ENDBRANCH  44  47
ENDBRANCH  42  43
ENDBRANCH  41  42
ENDBRANCH  40  41
ENDBRANCH  39  40
ENDBRANCH  38  39
ENDBRANCH   1  38
TORSDOF 24
ENDMDL
