MODEL 1
REMARK VINA RESULT:     -11.0      0.000      0.000
REMARK SMILES Cc1nsc(Nc2ccccc2C(C)C)c1C(=O)NCCCCCCNC(=O)c1ccc(-c2c3nc(c(-c4ccccc4)c4ccc([nH]4)c(-c4ccccc4)c4nc(c(-c5ccccc5)c5ccc2[nH]5)C=C4)C=C3)cc1
REMARK SMILES IDX 22 1 21 2 20 3 19 4 17 5 18 6 16 8 1 9 2 10 3 11 4 12 5 13
REMARK SMILES IDX 6 14 7 16 8 17 12 18 9 19 11 20 10 21 13 22 14 23 15 24
REMARK SMILES IDX 23 25 24 26 25 27 26 28 27 29 28 31 29 32 30 33 76 34 31 35
REMARK SMILES IDX 75 36 32 37 33 38 34 39 69 40 35 41 74 42 68 43 70 44 36 45
REMARK SMILES IDX 73 46 67 47 66 48 37 50 59 51 44 52 58 53 45 54 48 55 57 56
REMARK SMILES IDX 71 57 46 58 47 59 56 61 72 62 49 63 38 64 39 65 43 66 40 67
REMARK SMILES IDX 42 68 41 69 60 70 61 71 65 72 62 73 64 74 63 75 50 76 51 77
REMARK SMILES IDX 55 78 52 79 54 80 53 81
REMARK H PARENT 19 7 6 15 26 30 70 49 48 60
REMARK Flexibility Score: inf
ROOT
ATOM      1  C   UNL A   1      39.469  21.684  25.869  1.00  0.00     0.002 C 
ENDROOT
BRANCH   1   2
ATOM      2  C   UNL A   1      38.872  22.986  26.415  1.00  0.00     0.021 C 
BRANCH   2   3
ATOM      3  C   UNL A   1      37.402  23.171  26.042  1.00  0.00     0.116 C 
BRANCH   3   4
ATOM      4  N   UNL A   1      37.241  23.289  24.625  1.00  0.00    -0.352 N 
ATOM      5  C   UNL A   1      36.246  23.030  23.733  1.00  0.00     0.256 C 
ATOM      6  O   UNL A   1      36.593  23.306  22.574  1.00  0.00    -0.269 OA
ATOM      7  H   UNL A   1      38.048  23.647  24.187  1.00  0.00     0.163 HD
BRANCH   5   8
ATOM      8  C   UNL A   1      34.901  22.477  24.004  1.00  0.00     0.097 A 
ATOM      9  C   UNL A   1      35.012  19.942  24.919  1.00  0.00     0.069 C 
ATOM     10  C   UNL A   1      34.356  21.193  24.454  1.00  0.00     0.066 A 
ATOM     11  N   UNL A   1      33.026  21.089  24.469  1.00  0.00    -0.195 NA
ATOM     12  S   UNL A   1      32.348  22.488  23.973  1.00  0.00    -0.018 S 
ATOM     13  C   UNL A   1      33.812  23.358  23.833  1.00  0.00     0.127 A 
BRANCH  13  14
ATOM     14  N   UNL A   1      33.885  24.687  23.544  1.00  0.00    -0.345 N 
ATOM     15  H   UNL A   1      34.299  24.911  22.680  1.00  0.00     0.167 HD
BRANCH  14  16
ATOM     16  C   UNL A   1      33.449  25.783  24.310  1.00  0.00     0.043 A 
ATOM     17  C   UNL A   1      34.239  26.107  25.429  1.00  0.00     0.026 A 
ATOM     18  C   UNL A   1      32.247  26.491  24.082  1.00  0.00    -0.022 A 
ATOM     19  C   UNL A   1      33.889  27.142  26.292  1.00  0.00     0.002 A 
ATOM     20  C   UNL A   1      31.914  27.536  24.970  1.00  0.00     0.006 A 
ATOM     21  C   UNL A   1      32.726  27.861  26.058  1.00  0.00     0.000 A 
BRANCH  18  22
ATOM     22  C   UNL A   1      31.275  26.151  22.956  1.00  0.00     0.015 C 
ATOM     23  C   UNL A   1      30.160  25.207  23.420  1.00  0.00     0.012 C 
ATOM     24  C   UNL A   1      30.672  27.415  22.330  1.00  0.00     0.012 C 
ENDBRANCH  18  22
ENDBRANCH  14  16
ENDBRANCH  13  14
ENDBRANCH   5   8
ENDBRANCH   3   4
ENDBRANCH   2   3
ENDBRANCH   1   2
BRANCH   1  25
ATOM     25  C   UNL A   1      40.440  20.966  26.823  1.00  0.00     0.002 C 
BRANCH  25  26
ATOM     26  C   UNL A   1      41.190  19.765  26.226  1.00  0.00     0.021 C 
BRANCH  26  27
ATOM     27  C   UNL A   1      42.570  19.582  26.833  1.00  0.00     0.116 C 
BRANCH  27  28
ATOM     28  N   UNL A   1      43.594  19.453  25.800  1.00  0.00    -0.352 N 
ATOM     29  C   UNL A   1      44.160  20.439  25.020  1.00  0.00     0.251 C 
ATOM     30  H   UNL A   1      43.924  18.540  25.638  1.00  0.00     0.163 HD
ATOM     31  O   UNL A   1      44.741  20.167  23.984  1.00  0.00    -0.269 OA
BRANCH  29  32
ATOM     32  C   UNL A   1      44.052  21.837  25.472  1.00  0.00     0.039 A 
ATOM     33  C   UNL A   1      43.115  22.702  24.903  1.00  0.00     0.014 A 
ATOM     34  C   UNL A   1      44.902  22.268  26.488  1.00  0.00     0.014 A 
ATOM     35  C   UNL A   1      42.997  23.989  25.419  1.00  0.00     0.010 A 
ATOM     36  C   UNL A   1      44.685  23.478  27.092  1.00  0.00     0.010 A 
ATOM     37  C   UNL A   1      43.773  24.362  26.529  1.00  0.00    -0.014 A 
BRANCH  37  38
ATOM     38  C   UNL A   1      43.537  25.627  27.213  1.00  0.00     0.031 A 
ATOM     39  C   UNL A   1      44.513  26.685  26.849  1.00  0.00     0.074 A 
ATOM     40  C   UNL A   1      42.425  25.881  27.938  1.00  0.00     0.049 A 
ATOM     41  N   UNL A   1      45.437  27.182  27.599  1.00  0.00    -0.248 NA
ATOM     42  C   UNL A   1      44.583  27.130  25.445  1.00  0.00     0.031 C 
ATOM     43  C   UNL A   1      41.253  25.014  28.126  1.00  0.00     0.029 A 
ATOM     44  N   UNL A   1      42.053  27.023  28.581  1.00  0.00    -0.354 N 
ATOM     45  C   UNL A   1      46.059  28.165  26.837  1.00  0.00     0.074 A 
ATOM     46  C   UNL A   1      45.630  27.959  25.479  1.00  0.00     0.031 C 
ATOM     47  C   UNL A   1      40.224  25.736  28.626  1.00  0.00     0.029 A 
ATOM     48  C   UNL A   1      40.714  27.057  28.966  1.00  0.00     0.049 A 
ATOM     49  H   UNL A   1      42.677  27.762  28.760  1.00  0.00     0.167 HD
ATOM     50  C   UNL A   1      46.632  29.245  27.437  1.00  0.00     0.031 A 
ATOM     51  C   UNL A   1      40.058  28.094  29.539  1.00  0.00     0.031 A 
ATOM     52  C   UNL A   1      46.750  29.042  28.859  1.00  0.00     0.049 A 
ATOM     53  C   UNL A   1      41.078  28.958  30.162  1.00  0.00     0.074 A 
ATOM     54  C   UNL A   1      47.516  28.266  29.698  1.00  0.00     0.029 A 
ATOM     55  N   UNL A   1      45.638  29.435  29.561  1.00  0.00    -0.354 N 
ATOM     56  N   UNL A   1      41.800  28.579  31.176  1.00  0.00    -0.248 NA
ATOM     57  C   UNL A   1      41.576  30.118  29.437  1.00  0.00     0.031 C 
ATOM     58  C   UNL A   1      46.689  27.990  30.830  1.00  0.00     0.029 A 
ATOM     59  C   UNL A   1      45.473  28.656  30.674  1.00  0.00     0.049 A 
ATOM     60  H   UNL A   1      45.043  30.174  29.301  1.00  0.00     0.167 HD
ATOM     61  C   UNL A   1      43.041  29.138  30.938  1.00  0.00     0.074 A 
ATOM     62  C   UNL A   1      42.795  30.212  29.980  1.00  0.00     0.031 C 
ATOM     63  C   UNL A   1      44.179  28.478  31.298  1.00  0.00     0.031 A 
BRANCH  50  64
ATOM     64  C   UNL A   1      46.578  30.645  26.866  1.00  0.00    -0.014 A 
ATOM     65  C   UNL A   1      47.728  31.453  26.959  1.00  0.00     0.009 A 
ATOM     66  C   UNL A   1      45.376  31.298  26.532  1.00  0.00     0.009 A 
ATOM     67  C   UNL A   1      47.661  32.842  26.788  1.00  0.00     0.001 A 
ATOM     68  C   UNL A   1      45.313  32.681  26.329  1.00  0.00     0.001 A 
ATOM     69  C   UNL A   1      46.452  33.456  26.481  1.00  0.00     0.000 A 
ENDBRANCH  50  64
BRANCH  51  70
ATOM     70  C   UNL A   1      38.640  28.499  29.469  1.00  0.00    -0.014 A 
ATOM     71  C   UNL A   1      37.902  28.760  30.636  1.00  0.00     0.009 A 
ATOM     72  C   UNL A   1      38.103  28.928  28.243  1.00  0.00     0.009 A 
ATOM     73  C   UNL A   1      36.695  29.471  30.582  1.00  0.00     0.001 A 
ATOM     74  C   UNL A   1      36.901  29.642  28.189  1.00  0.00     0.001 A 
ATOM     75  C   UNL A   1      36.205  29.928  29.361  1.00  0.00     0.000 A 
ENDBRANCH  51  70
BRANCH  63  76
ATOM     76  C   UNL A   1      44.036  27.351  32.287  1.00  0.00    -0.014 A 
ATOM     77  C   UNL A   1      44.305  26.006  31.980  1.00  0.00     0.009 A 
ATOM     78  C   UNL A   1      43.701  27.681  33.607  1.00  0.00     0.009 A 
ATOM     79  C   UNL A   1      44.217  25.017  32.967  1.00  0.00     0.001 A 
ATOM     80  C   UNL A   1      43.632  26.698  34.595  1.00  0.00     0.001 A 
ATOM     81  C   UNL A   1      43.885  25.366  34.274  1.00  0.00     0.000 A 
ENDBRANCH  63  76
ENDBRANCH  37  38
ENDBRANCH  29  32
ENDBRANCH  27  28
ENDBRANCH  26  27
ENDBRANCH  25  26
ENDBRANCH   1  25
TORSDOF 16
ENDMDL
MODEL 2
REMARK VINA RESULT:     -10.9      2.144      5.975
REMARK SMILES Cc1nsc(Nc2ccccc2C(C)C)c1C(=O)NCCCCCCNC(=O)c1ccc(-c2c3nc(c(-c4ccccc4)c4ccc([nH]4)c(-c4ccccc4)c4nc(c(-c5ccccc5)c5ccc2[nH]5)C=C4)C=C3)cc1
REMARK SMILES IDX 22 1 21 2 20 3 19 4 17 5 18 6 16 8 1 9 2 10 3 11 4 12 5 13
REMARK SMILES IDX 6 14 7 16 8 17 12 18 9 19 11 20 10 21 13 22 14 23 15 24
REMARK SMILES IDX 23 25 24 26 25 27 26 28 27 29 28 31 29 32 30 33 76 34 31 35
REMARK SMILES IDX 75 36 32 37 33 38 34 39 69 40 35 41 74 42 68 43 70 44 36 45
REMARK SMILES IDX 73 46 67 47 66 48 37 50 59 51 44 52 58 53 45 54 48 55 57 56
REMARK SMILES IDX 71 57 46 58 47 59 56 61 72 62 49 63 38 64 39 65 43 66 40 67
REMARK SMILES IDX 42 68 41 69 60 70 61 71 65 72 62 73 64 74 63 75 50 76 51 77
REMARK SMILES IDX 55 78 52 79 54 80 53 81
REMARK H PARENT 19 7 6 15 26 30 70 49 48 60
REMARK Flexibility Score: inf
ROOT
ATOM      1  C   UNL A   1      35.809  22.200  24.186  1.00  0.00     0.002 C 
ENDROOT
BRANCH   1   2
ATOM      2  C   UNL A   1      35.910  23.517  24.965  1.00  0.00     0.021 C 
BRANCH   2   3
ATOM      3  C   UNL A   1      34.692  24.419  24.774  1.00  0.00     0.116 C 
BRANCH   3   4
ATOM      4  N   UNL A   1      34.405  24.608  23.384  1.00  0.00    -0.352 N 
ATOM      5  C   UNL A   1      33.464  25.282  22.668  1.00  0.00     0.256 C 
ATOM      6  O   UNL A   1      33.638  25.140  21.447  1.00  0.00    -0.269 OA
ATOM      7  H   UNL A   1      35.046  24.136  22.804  1.00  0.00     0.163 HD
BRANCH   5   8
ATOM      8  C   UNL A   1      32.335  26.089  23.179  1.00  0.00     0.097 A 
ATOM      9  C   UNL A   1      32.964  28.705  23.377  1.00  0.00     0.069 C 
ATOM     10  C   UNL A   1      32.110  27.496  23.521  1.00  0.00     0.066 A 
ATOM     11  N   UNL A   1      30.925  27.790  24.061  1.00  0.00    -0.195 NA
ATOM     12  S   UNL A   1      30.014  26.442  24.181  1.00  0.00    -0.018 S 
ATOM     13  C   UNL A   1      31.118  25.406  23.391  1.00  0.00     0.127 A 
BRANCH  13  14
ATOM     14  N   UNL A   1      30.855  24.107  23.078  1.00  0.00    -0.345 N 
ATOM     15  H   UNL A   1      30.197  23.968  22.360  1.00  0.00     0.167 HD
BRANCH  14  16
ATOM     16  C   UNL A   1      31.397  22.936  23.639  1.00  0.00     0.043 A 
ATOM     17  C   UNL A   1      31.911  21.996  22.726  1.00  0.00     0.026 A 
ATOM     18  C   UNL A   1      31.364  22.619  25.015  1.00  0.00    -0.022 A 
ATOM     19  C   UNL A   1      32.434  20.778  23.153  1.00  0.00     0.002 A 
ATOM     20  C   UNL A   1      31.899  21.378  25.424  1.00  0.00     0.006 A 
ATOM     21  C   UNL A   1      32.432  20.472  24.506  1.00  0.00     0.000 A 
BRANCH  18  22
ATOM     22  C   UNL A   1      30.738  23.528  26.070  1.00  0.00     0.015 C 
ATOM     23  C   UNL A   1      29.800  22.761  27.010  1.00  0.00     0.012 C 
ATOM     24  C   UNL A   1      31.807  24.272  26.880  1.00  0.00     0.012 C 
ENDBRANCH  18  22
ENDBRANCH  14  16
ENDBRANCH  13  14
ENDBRANCH   5   8
ENDBRANCH   3   4
ENDBRANCH   2   3
ENDBRANCH   1   2
BRANCH   1  25
ATOM     25  C   UNL A   1      36.070  20.932  25.017  1.00  0.00     0.002 C 
BRANCH  25  26
ATOM     26  C   UNL A   1      37.360  20.170  24.679  1.00  0.00     0.021 C 
BRANCH  26  27
ATOM     27  C   UNL A   1      38.524  20.573  25.568  1.00  0.00     0.116 C 
BRANCH  27  28
ATOM     28  N   UNL A   1      39.527  19.515  25.646  1.00  0.00    -0.352 N 
ATOM     29  C   UNL A   1      40.878  19.625  25.899  1.00  0.00     0.251 C 
ATOM     30  H   UNL A   1      39.194  18.601  25.497  1.00  0.00     0.163 HD
ATOM     31  O   UNL A   1      41.649  18.727  25.607  1.00  0.00    -0.269 OA
BRANCH  29  32
ATOM     32  C   UNL A   1      41.372  20.856  26.538  1.00  0.00     0.039 A 
ATOM     33  C   UNL A   1      41.961  21.870  25.780  1.00  0.00     0.014 A 
ATOM     34  C   UNL A   1      41.226  20.985  27.918  1.00  0.00     0.014 A 
ATOM     35  C   UNL A   1      42.339  23.046  26.419  1.00  0.00     0.010 A 
ATOM     36  C   UNL A   1      41.458  22.194  28.519  1.00  0.00     0.010 A 
ATOM     37  C   UNL A   1      42.064  23.208  27.788  1.00  0.00    -0.014 A 
BRANCH  37  38
ATOM     38  C   UNL A   1      42.267  24.495  28.442  1.00  0.00     0.031 A 
ATOM     39  C   UNL A   1      41.206  25.487  28.135  1.00  0.00     0.074 A 
ATOM     40  C   UNL A   1      43.202  24.701  29.396  1.00  0.00     0.049 A 
ATOM     41  N   UNL A   1      41.322  26.552  27.417  1.00  0.00    -0.248 NA
ATOM     42  C   UNL A   1      39.818  25.183  28.530  1.00  0.00     0.031 C 
ATOM     43  C   UNL A   1      44.115  23.715  29.993  1.00  0.00     0.029 A 
ATOM     44  N   UNL A   1      43.466  25.824  30.121  1.00  0.00    -0.354 N 
ATOM     45  C   UNL A   1      40.079  27.175  27.457  1.00  0.00     0.074 A 
ATOM     46  C   UNL A   1      39.155  26.206  27.985  1.00  0.00     0.031 C 
ATOM     47  C   UNL A   1      44.654  24.218  31.128  1.00  0.00     0.029 A 
ATOM     48  C   UNL A   1      44.275  25.613  31.236  1.00  0.00     0.049 A 
ATOM     49  H   UNL A   1      43.115  26.711  29.878  1.00  0.00     0.167 HD
ATOM     50  C   UNL A   1      39.981  28.527  27.336  1.00  0.00     0.031 A 
ATOM     51  C   UNL A   1      44.623  26.526  32.174  1.00  0.00     0.031 A 
ATOM     52  C   UNL A   1      41.225  29.096  26.883  1.00  0.00     0.049 A 
ATOM     53  C   UNL A   1      44.460  27.858  31.561  1.00  0.00     0.074 A 
ATOM     54  C   UNL A   1      41.945  29.122  25.711  1.00  0.00     0.029 A 
ATOM     55  N   UNL A   1      42.089  29.405  27.904  1.00  0.00    -0.354 N 
ATOM     56  N   UNL A   1      45.198  28.276  30.575  1.00  0.00    -0.248 NA
ATOM     57  C   UNL A   1      43.229  28.603  31.782  1.00  0.00     0.031 C 
ATOM     58  C   UNL A   1      43.317  29.188  26.102  1.00  0.00     0.029 A 
ATOM     59  C   UNL A   1      43.386  29.264  27.494  1.00  0.00     0.049 A 
ATOM     60  H   UNL A   1      41.813  29.688  28.805  1.00  0.00     0.167 HD
ATOM     61  C   UNL A   1      44.331  29.009  29.788  1.00  0.00     0.074 A 
ATOM     62  C   UNL A   1      43.208  29.333  30.662  1.00  0.00     0.031 C 
ATOM     63  C   UNL A   1      44.462  29.013  28.430  1.00  0.00     0.031 A 
BRANCH  50  64
ATOM     64  C   UNL A   1      38.996  29.368  28.120  1.00  0.00    -0.014 A 
ATOM     65  C   UNL A   1      39.217  29.551  29.499  1.00  0.00     0.009 A 
ATOM     66  C   UNL A   1      37.720  29.715  27.636  1.00  0.00     0.009 A 
ATOM     67  C   UNL A   1      38.197  29.998  30.350  1.00  0.00     0.001 A 
ATOM     68  C   UNL A   1      36.710  30.192  28.479  1.00  0.00     0.001 A 
ATOM     69  C   UNL A   1      36.942  30.311  29.840  1.00  0.00     0.000 A 
ENDBRANCH  50  64
BRANCH  51  70
ATOM     70  C   UNL A   1      44.937  26.368  33.607  1.00  0.00    -0.014 A 
ATOM     71  C   UNL A   1      43.920  26.158  34.553  1.00  0.00     0.009 A 
ATOM     72  C   UNL A   1      46.262  26.115  34.001  1.00  0.00     0.009 A 
ATOM     73  C   UNL A   1      44.215  25.663  35.831  1.00  0.00     0.001 A 
ATOM     74  C   UNL A   1      46.557  25.615  35.275  1.00  0.00     0.001 A 
ATOM     75  C   UNL A   1      45.530  25.373  36.184  1.00  0.00     0.000 A 
ENDBRANCH  51  70
BRANCH  63  76
ATOM     76  C   UNL A   1      45.775  28.536  27.865  1.00  0.00    -0.014 A 
ATOM     77  C   UNL A   1      46.039  27.197  27.531  1.00  0.00     0.009 A 
ATOM     78  C   UNL A   1      46.749  29.501  27.578  1.00  0.00     0.009 A 
ATOM     79  C   UNL A   1      47.258  26.834  26.947  1.00  0.00     0.001 A 
ATOM     80  C   UNL A   1      47.956  29.143  26.977  1.00  0.00     0.001 A 
ATOM     81  C   UNL A   1      48.213  27.809  26.666  1.00  0.00     0.000 A 
ENDBRANCH  63  76
ENDBRANCH  37  38
ENDBRANCH  29  32
ENDBRANCH  27  28
ENDBRANCH  26  27
ENDBRANCH  25  26
ENDBRANCH   1  25
TORSDOF 16
ENDMDL
MODEL 3
REMARK VINA RESULT:     -10.8      2.616      4.310
REMARK SMILES Cc1nsc(Nc2ccccc2C(C)C)c1C(=O)NCCCCCCNC(=O)c1ccc(-c2c3nc(c(-c4ccccc4)c4ccc([nH]4)c(-c4ccccc4)c4nc(c(-c5ccccc5)c5ccc2[nH]5)C=C4)C=C3)cc1
REMARK SMILES IDX 22 1 21 2 20 3 19 4 17 5 18 6 16 8 1 9 2 10 3 11 4 12 5 13
REMARK SMILES IDX 6 14 7 16 8 17 12 18 9 19 11 20 10 21 13 22 14 23 15 24
REMARK SMILES IDX 23 25 24 26 25 27 26 28 27 29 28 31 29 32 30 33 76 34 31 35
REMARK SMILES IDX 75 36 32 37 33 38 34 39 69 40 35 41 74 42 68 43 70 44 36 45
REMARK SMILES IDX 73 46 67 47 66 48 37 50 59 51 44 52 58 53 45 54 48 55 57 56
REMARK SMILES IDX 71 57 46 58 47 59 56 61 72 62 49 63 38 64 39 65 43 66 40 67
REMARK SMILES IDX 42 68 41 69 60 70 61 71 65 72 62 73 64 74 63 75 50 76 51 77
REMARK SMILES IDX 55 78 52 79 54 80 53 81
REMARK H PARENT 19 7 6 15 26 30 70 49 48 60
REMARK Flexibility Score: inf
ROOT
ATOM      1  C   UNL A   1      35.478  22.933  24.617  1.00  0.00     0.002 C 
ENDROOT
BRANCH   1   2
ATOM      2  C   UNL A   1      34.923  23.931  25.641  1.00  0.00     0.021 C 
BRANCH   2   3
ATOM      3  C   UNL A   1      34.478  25.249  25.009  1.00  0.00     0.116 C 
BRANCH   3   4
ATOM      4  N   UNL A   1      34.202  25.083  23.614  1.00  0.00    -0.352 N 
ATOM      5  C   UNL A   1      33.192  25.436  22.774  1.00  0.00     0.256 C 
ATOM      6  O   UNL A   1      33.415  25.056  21.613  1.00  0.00    -0.269 OA
ATOM      7  H   UNL A   1      34.920  24.596  23.148  1.00  0.00     0.163 HD
BRANCH   5   8
ATOM      8  C   UNL A   1      31.944  26.159  23.102  1.00  0.00     0.097 A 
ATOM      9  C   UNL A   1      32.300  28.833  23.139  1.00  0.00     0.069 C 
ATOM     10  C   UNL A   1      31.553  27.557  23.300  1.00  0.00     0.066 A 
ATOM     11  N   UNL A   1      30.295  27.768  23.695  1.00  0.00    -0.195 NA
ATOM     12  S   UNL A   1      29.507  26.347  23.839  1.00  0.00    -0.018 S 
ATOM     13  C   UNL A   1      30.781  25.373  23.250  1.00  0.00     0.127 A 
BRANCH  13  14
ATOM     14  N   UNL A   1      30.676  24.034  23.024  1.00  0.00    -0.345 N 
ATOM     15  H   UNL A   1      30.062  23.772  22.301  1.00  0.00     0.167 HD
BRANCH  14  16
ATOM     16  C   UNL A   1      31.326  22.973  23.680  1.00  0.00     0.043 A 
ATOM     17  C   UNL A   1      31.967  22.035  22.850  1.00  0.00     0.026 A 
ATOM     18  C   UNL A   1      31.289  22.752  25.075  1.00  0.00    -0.022 A 
ATOM     19  C   UNL A   1      32.608  20.916  23.376  1.00  0.00     0.002 A 
ATOM     20  C   UNL A   1      31.945  21.611  25.585  1.00  0.00     0.006 A 
ATOM     21  C   UNL A   1      32.600  20.707  24.747  1.00  0.00     0.000 A 
BRANCH  18  22
ATOM     22  C   UNL A   1      30.536  23.657  26.047  1.00  0.00     0.015 C 
ATOM     23  C   UNL A   1      29.728  22.857  27.074  1.00  0.00     0.012 C 
ATOM     24  C   UNL A   1      31.483  24.630  26.761  1.00  0.00     0.012 C 
ENDBRANCH  18  22
ENDBRANCH  14  16
ENDBRANCH  13  14
ENDBRANCH   5   8
ENDBRANCH   3   4
ENDBRANCH   2   3
ENDBRANCH   1   2
BRANCH   1  25
ATOM     25  C   UNL A   1      36.146  21.687  25.223  1.00  0.00     0.002 C 
BRANCH  25  26
ATOM     26  C   UNL A   1      37.659  21.563  24.984  1.00  0.00     0.021 C 
BRANCH  26  27
ATOM     27  C   UNL A   1      38.465  22.504  25.864  1.00  0.00     0.116 C 
BRANCH  27  28
ATOM     28  N   UNL A   1      39.407  21.771  26.705  1.00  0.00    -0.352 N 
ATOM     29  C   UNL A   1      40.496  22.252  27.400  1.00  0.00     0.251 C 
ATOM     30  H   UNL A   1      39.244  20.804  26.785  1.00  0.00     0.163 HD
ATOM     31  O   UNL A   1      41.381  21.505  27.780  1.00  0.00    -0.269 OA
BRANCH  29  32
ATOM     32  C   UNL A   1      40.564  23.696  27.682  1.00  0.00     0.039 A 
ATOM     33  C   UNL A   1      39.447  24.515  27.499  1.00  0.00     0.014 A 
ATOM     34  C   UNL A   1      41.769  24.221  28.145  1.00  0.00     0.014 A 
ATOM     35  C   UNL A   1      39.538  25.856  27.855  1.00  0.00     0.010 A 
ATOM     36  C   UNL A   1      41.813  25.499  28.633  1.00  0.00     0.010 A 
ATOM     37  C   UNL A   1      40.721  26.336  28.442  1.00  0.00    -0.014 A 
BRANCH  37  38
ATOM     38  C   UNL A   1      40.783  27.680  29.002  1.00  0.00     0.031 A 
ATOM     39  C   UNL A   1      41.779  28.553  28.331  1.00  0.00     0.074 A 
ATOM     40  C   UNL A   1      39.886  28.153  29.895  1.00  0.00     0.049 A 
ATOM     41  N   UNL A   1      42.891  28.984  28.822  1.00  0.00    -0.248 NA
ATOM     42  C   UNL A   1      41.606  28.851  26.898  1.00  0.00     0.031 C 
ATOM     43  C   UNL A   1      38.685  27.479  30.411  1.00  0.00     0.029 A 
ATOM     44  N   UNL A   1      39.793  29.390  30.457  1.00  0.00    -0.354 N 
ATOM     45  C   UNL A   1      43.452  29.796  27.841  1.00  0.00     0.074 A 
ATOM     46  C   UNL A   1      42.727  29.526  26.628  1.00  0.00     0.031 C 
ATOM     47  C   UNL A   1      37.875  28.381  31.012  1.00  0.00     0.029 A 
ATOM     48  C   UNL A   1      38.577  29.646  31.088  1.00  0.00     0.049 A 
ATOM     49  H   UNL A   1      40.523  30.049  30.421  1.00  0.00     0.167 HD
ATOM     50  C   UNL A   1      44.260  30.836  28.185  1.00  0.00     0.031 A 
ATOM     51  C   UNL A   1      38.182  30.814  31.651  1.00  0.00     0.031 A 
ATOM     52  C   UNL A   1      44.648  30.752  29.570  1.00  0.00     0.049 A 
ATOM     53  C   UNL A   1      39.404  31.581  31.955  1.00  0.00     0.074 A 
ATOM     54  C   UNL A   1      45.476  29.959  30.330  1.00  0.00     0.029 A 
ATOM     55  N   UNL A   1      43.762  31.360  30.424  1.00  0.00    -0.354 N 
ATOM     56  N   UNL A   1      40.272  31.201  32.847  1.00  0.00    -0.248 NA
ATOM     57  C   UNL A   1      39.872  32.588  31.014  1.00  0.00     0.031 C 
ATOM     58  C   UNL A   1      44.877  29.907  31.626  1.00  0.00     0.029 A 
ATOM     59  C   UNL A   1      43.742  30.719  31.632  1.00  0.00     0.049 A 
ATOM     60  H   UNL A   1      43.216  32.147  30.198  1.00  0.00     0.167 HD
ATOM     61  C   UNL A   1      41.492  31.557  32.306  1.00  0.00     0.074 A 
ATOM     62  C   UNL A   1      41.180  32.561  31.293  1.00  0.00     0.031 C 
ATOM     63  C   UNL A   1      42.595  30.782  32.514  1.00  0.00     0.031 A 
BRANCH  50  64
ATOM     64  C   UNL A   1      44.253  32.171  27.471  1.00  0.00    -0.014 A 
ATOM     65  C   UNL A   1      43.885  33.319  28.199  1.00  0.00     0.009 A 
ATOM     66  C   UNL A   1      44.286  32.298  26.069  1.00  0.00     0.009 A 
ATOM     67  C   UNL A   1      43.513  34.505  27.553  1.00  0.00     0.001 A 
ATOM     68  C   UNL A   1      43.946  33.491  25.423  1.00  0.00     0.001 A 
ATOM     69  C   UNL A   1      43.536  34.588  26.165  1.00  0.00     0.000 A 
ENDBRANCH  50  64
BRANCH  51  70
ATOM     70  C   UNL A   1      36.838  31.404  31.811  1.00  0.00    -0.014 A 
ATOM     71  C   UNL A   1      36.408  31.901  33.053  1.00  0.00     0.009 A 
ATOM     72  C   UNL A   1      36.098  31.757  30.670  1.00  0.00     0.009 A 
ATOM     73  C   UNL A   1      35.307  32.764  33.141  1.00  0.00     0.001 A 
ATOM     74  C   UNL A   1      35.002  32.623  30.757  1.00  0.00     0.001 A 
ATOM     75  C   UNL A   1      34.617  33.140  31.992  1.00  0.00     0.000 A 
ENDBRANCH  51  70
BRANCH  63  76
ATOM     76  C   UNL A   1      42.531  29.783  33.639  1.00  0.00    -0.014 A 
ATOM     77  C   UNL A   1      42.890  30.079  34.965  1.00  0.00     0.009 A 
ATOM     78  C   UNL A   1      42.000  28.518  33.357  1.00  0.00     0.009 A 
ATOM     79  C   UNL A   1      42.741  29.121  35.976  1.00  0.00     0.001 A 
ATOM     80  C   UNL A   1      41.834  27.570  34.367  1.00  0.00     0.001 A 
ATOM     81  C   UNL A   1      42.209  27.869  35.675  1.00  0.00     0.000 A 
ENDBRANCH  63  76
ENDBRANCH  37  38
ENDBRANCH  29  32
ENDBRANCH  27  28
ENDBRANCH  26  27
ENDBRANCH  25  26
ENDBRANCH   1  25
TORSDOF 16
ENDMDL
