MODEL 1
REMARK VINA RESULT:     -10.9      0.000      0.000
REMARK SMILES O=C(NCCCCCCNC(=O)[C@H]1C=C[C@H](NS(=O)(=O)c2ccc(F)c(F)c2F)C1)c1ccc(-c2c3nc(c(-c4ccccc4)c4ccc([nH]4)c(-c4ccccc4)c4nc(c(-c5ccccc5)c5ccc2[nH]5)C=C4)C=C3)cc1
REMARK SMILES IDX 7 1 6 2 5 3 4 4 3 5 1 6 2 7 31 9 32 10 78 11 33 12 77 13
REMARK SMILES IDX 34 14 35 15 36 16 71 17 37 18 76 19 70 20 72 21 38 22 75 23
REMARK SMILES IDX 69 24 68 25 39 27 61 28 46 29 60 30 47 31 50 32 59 33 73 34
REMARK SMILES IDX 48 35 49 36 58 38 74 39 51 40 40 41 41 42 45 43 42 44 44 45
REMARK SMILES IDX 43 46 62 47 63 48 67 49 64 50 66 51 65 52 52 53 53 54 57 55
REMARK SMILES IDX 54 56 56 57 55 58 8 59 9 60 10 61 11 62 12 64 13 65 14 66
REMARK SMILES IDX 30 67 15 68 16 69 17 70 18 72 19 73 20 74 21 75 22 76 28 77
REMARK SMILES IDX 23 78 26 79 29 80 24 81 27 82 25 83
REMARK H PARENT 3 8 72 26 50 37 10 63 17 71
REMARK Flexibility Score: inf
ROOT
ATOM      1  C   UNL A   1      41.383  21.430  26.297  1.00  0.00     0.002 C 
ENDROOT
BRANCH   1   2
ATOM      2  C   UNL A   1      41.941  20.194  27.012  1.00  0.00     0.002 C 
BRANCH   2   3
ATOM      3  C   UNL A   1      42.255  19.017  26.091  1.00  0.00     0.021 C 
BRANCH   3   4
ATOM      4  C   UNL A   1      43.727  18.633  26.066  1.00  0.00     0.116 C 
BRANCH   4   5
ATOM      5  N   UNL A   1      44.270  18.629  24.716  1.00  0.00    -0.352 N 
ATOM      6  O   UNL A   1      44.902  19.532  22.742  1.00  0.00    -0.269 OA
ATOM      7  C   UNL A   1      44.646  19.692  23.929  1.00  0.00     0.251 C 
ATOM      8  H   UNL A   1      44.387  17.740  24.308  1.00  0.00     0.163 HD
BRANCH   7   9
ATOM      9  C   UNL A   1      44.706  21.041  24.528  1.00  0.00     0.039 A 
ATOM     10  C   UNL A   1      44.140  22.129  23.863  1.00  0.00     0.014 A 
ATOM     11  C   UNL A   1      45.369  21.225  25.744  1.00  0.00     0.014 A 
ATOM     12  C   UNL A   1      44.397  23.416  24.312  1.00  0.00     0.010 A 
ATOM     13  C   UNL A   1      45.527  22.516  26.255  1.00  0.00     0.010 A 
ATOM     14  C   UNL A   1      45.084  23.626  25.519  1.00  0.00    -0.014 A 
BRANCH  14  15
ATOM     15  C   UNL A   1      45.292  25.018  25.996  1.00  0.00     0.031 A 
ATOM     16  C   UNL A   1      44.183  25.792  26.657  1.00  0.00     0.074 A 
ATOM     17  C   UNL A   1      46.516  25.567  25.869  1.00  0.00     0.049 A 
ATOM     18  N   UNL A   1      44.218  26.994  27.179  1.00  0.00    -0.248 NA
ATOM     19  C   UNL A   1      42.866  25.143  26.740  1.00  0.00     0.031 C 
ATOM     20  C   UNL A   1      47.673  24.918  25.247  1.00  0.00     0.029 A 
ATOM     21  N   UNL A   1      47.002  26.781  26.283  1.00  0.00    -0.354 N 
ATOM     22  C   UNL A   1      42.927  27.255  27.624  1.00  0.00     0.074 A 
ATOM     23  C   UNL A   1      42.126  26.098  27.287  1.00  0.00     0.031 C 
ATOM     24  C   UNL A   1      48.746  25.709  25.379  1.00  0.00     0.029 A 
ATOM     25  C   UNL A   1      48.340  26.951  26.024  1.00  0.00     0.049 A 
ATOM     26  H   UNL A   1      46.446  27.464  26.722  1.00  0.00     0.167 HD
ATOM     27  C   UNL A   1      42.454  28.354  28.258  1.00  0.00     0.031 A 
ATOM     28  C   UNL A   1      49.152  27.995  26.265  1.00  0.00     0.031 A 
ATOM     29  C   UNL A   1      43.256  29.506  28.591  1.00  0.00     0.049 A 
ATOM     30  C   UNL A   1      48.590  29.215  26.933  1.00  0.00     0.074 A 
ATOM     31  C   UNL A   1      42.876  30.654  29.265  1.00  0.00     0.029 A 
ATOM     32  N   UNL A   1      44.595  29.658  28.266  1.00  0.00    -0.354 N 
ATOM     33  N   UNL A   1      47.379  29.426  27.385  1.00  0.00    -0.248 NA
ATOM     34  C   UNL A   1      49.515  30.338  27.131  1.00  0.00     0.031 C 
ATOM     35  C   UNL A   1      43.968  31.529  29.289  1.00  0.00     0.029 A 
ATOM     36  C   UNL A   1      45.049  30.894  28.700  1.00  0.00     0.049 A 
ATOM     37  H   UNL A   1      45.143  28.989  27.797  1.00  0.00     0.167 HD
ATOM     38  C   UNL A   1      47.403  30.693  27.950  1.00  0.00     0.074 A 
ATOM     39  C   UNL A   1      48.755  31.192  27.800  1.00  0.00     0.031 C 
ATOM     40  C   UNL A   1      46.397  31.381  28.545  1.00  0.00     0.031 A 
BRANCH  27  41
ATOM     41  C   UNL A   1      40.988  28.388  28.600  1.00  0.00    -0.014 A 
ATOM     42  C   UNL A   1      40.508  27.917  29.834  1.00  0.00     0.009 A 
ATOM     43  C   UNL A   1      40.074  28.939  27.687  1.00  0.00     0.009 A 
ATOM     44  C   UNL A   1      39.141  27.962  30.126  1.00  0.00     0.001 A 
ATOM     45  C   UNL A   1      38.715  29.012  27.995  1.00  0.00     0.001 A 
ATOM     46  C   UNL A   1      38.248  28.515  29.209  1.00  0.00     0.000 A 
ENDBRANCH  27  41
BRANCH  28  47
ATOM     47  C   UNL A   1      50.583  27.932  25.865  1.00  0.00    -0.014 A 
ATOM     48  C   UNL A   1      51.558  27.483  26.767  1.00  0.00     0.009 A 
ATOM     49  C   UNL A   1      50.980  28.326  24.577  1.00  0.00     0.009 A 
ATOM     50  C   UNL A   1      52.905  27.460  26.398  1.00  0.00     0.001 A 
ATOM     51  C   UNL A   1      52.322  28.267  24.199  1.00  0.00     0.001 A 
ATOM     52  C   UNL A   1      53.285  27.846  25.114  1.00  0.00     0.000 A 
ENDBRANCH  28  47
BRANCH  40  53
ATOM     53  C   UNL A   1      46.739  32.724  29.128  1.00  0.00    -0.014 A 
ATOM     54  C   UNL A   1      47.199  32.861  30.447  1.00  0.00     0.009 A 
ATOM     55  C   UNL A   1      46.607  33.873  28.331  1.00  0.00     0.009 A 
ATOM     56  C   UNL A   1      47.472  34.127  30.971  1.00  0.00     0.001 A 
ATOM     57  C   UNL A   1      46.917  35.133  28.845  1.00  0.00     0.001 A 
ATOM     58  C   UNL A   1      47.335  35.260  30.169  1.00  0.00     0.000 A 
ENDBRANCH  40  53
ENDBRANCH  14  15
ENDBRANCH   7   9
ENDBRANCH   4   5
ENDBRANCH   3   4
ENDBRANCH   2   3
ENDBRANCH   1   2
BRANCH   1  59
ATOM     59  C   UNL A   1      40.658  22.429  27.212  1.00  0.00     0.021 C 
BRANCH  59  60
ATOM     60  C   UNL A   1      39.368  22.971  26.599  1.00  0.00     0.116 C 
BRANCH  60  61
ATOM     61  N   UNL A   1      38.547  21.864  26.157  1.00  0.00    -0.356 N 
ATOM     62  C   UNL A   1      37.363  21.864  25.492  1.00  0.00     0.226 C 
ATOM     63  H   UNL A   1      38.902  20.971  26.373  1.00  0.00     0.163 HD
ATOM     64  O   UNL A   1      36.711  20.815  25.496  1.00  0.00    -0.274 OA
BRANCH  62  65
ATOM     65  C   UNL A   1      36.917  23.037  24.613  1.00  0.00     0.103 C 
ATOM     66  C   UNL A   1      36.459  22.826  23.207  1.00  0.00    -0.016 C 
ATOM     67  C   UNL A   1      35.726  23.725  25.284  1.00  0.00     0.042 C 
ATOM     68  C   UNL A   1      35.246  23.351  22.992  1.00  0.00    -0.011 C 
ATOM     69  C   UNL A   1      34.630  23.916  24.233  1.00  0.00     0.093 C 
BRANCH  69  70
ATOM     70  N   UNL A   1      34.352  25.329  24.046  1.00  0.00    -0.204 NA
ATOM     71  H   UNL A   1      35.211  25.750  23.691  1.00  0.00     0.142 HD
BRANCH  70  72
ATOM     72  S   UNL A   1      33.118  25.839  23.033  1.00  0.00     0.244 S 
ATOM     73  O   UNL A   1      33.765  26.152  21.779  1.00  0.00    -0.207 OA
ATOM     74  O   UNL A   1      32.034  24.885  23.092  1.00  0.00    -0.207 OA
BRANCH  72  75
ATOM     75  C   UNL A   1      32.575  27.367  23.734  1.00  0.00     0.121 A 
ATOM     76  C   UNL A   1      33.286  27.966  24.782  1.00  0.00     0.028 A 
ATOM     77  C   UNL A   1      31.428  27.975  23.235  1.00  0.00     0.181 A 
ATOM     78  C   UNL A   1      32.794  29.135  25.372  1.00  0.00     0.044 A 
ATOM     79  C   UNL A   1      30.918  29.109  23.853  1.00  0.00     0.195 A 
ATOM     80  F   UNL A   1      30.752  27.444  22.207  1.00  0.00    -0.202 F 
ATOM     81  C   UNL A   1      31.597  29.684  24.919  1.00  0.00     0.161 A 
ATOM     82  F   UNL A   1      29.753  29.629  23.440  1.00  0.00    -0.200 F 
ATOM     83  F   UNL A   1      31.102  30.771  25.526  1.00  0.00    -0.204 F 
ENDBRANCH  72  75
ENDBRANCH  70  72
ENDBRANCH  69  70
ENDBRANCH  62  65
ENDBRANCH  60  61
ENDBRANCH  59  60
ENDBRANCH   1  59
TORSDOF 16
ENDMDL
MODEL 2
REMARK VINA RESULT:     -10.9      6.568     11.637
REMARK SMILES O=C(NCCCCCCNC(=O)[C@H]1C=C[C@H](NS(=O)(=O)c2ccc(F)c(F)c2F)C1)c1ccc(-c2c3nc(c(-c4ccccc4)c4ccc([nH]4)c(-c4ccccc4)c4nc(c(-c5ccccc5)c5ccc2[nH]5)C=C4)C=C3)cc1
REMARK SMILES IDX 7 1 6 2 5 3 4 4 3 5 1 6 2 7 31 9 32 10 78 11 33 12 77 13
REMARK SMILES IDX 34 14 35 15 36 16 71 17 37 18 76 19 70 20 72 21 38 22 75 23
REMARK SMILES IDX 69 24 68 25 39 27 61 28 46 29 60 30 47 31 50 32 59 33 73 34
REMARK SMILES IDX 48 35 49 36 58 38 74 39 51 40 40 41 41 42 45 43 42 44 44 45
REMARK SMILES IDX 43 46 62 47 63 48 67 49 64 50 66 51 65 52 52 53 53 54 57 55
REMARK SMILES IDX 54 56 56 57 55 58 8 59 9 60 10 61 11 62 12 64 13 65 14 66
REMARK SMILES IDX 30 67 15 68 16 69 17 70 18 72 19 73 20 74 21 75 22 76 28 77
REMARK SMILES IDX 23 78 26 79 29 80 24 81 27 82 25 83
REMARK H PARENT 3 8 72 26 50 37 10 63 17 71
REMARK Flexibility Score: inf
ROOT
ATOM      1  C   UNL A   1      34.389  32.018  28.078  1.00  0.00     0.002 C 
ENDROOT
BRANCH   1   2
ATOM      2  C   UNL A   1      34.596  33.322  28.859  1.00  0.00     0.002 C 
BRANCH   2   3
ATOM      3  C   UNL A   1      33.386  34.253  28.870  1.00  0.00     0.021 C 
BRANCH   3   4
ATOM      4  C   UNL A   1      33.646  35.591  29.545  1.00  0.00     0.116 C 
BRANCH   4   5
ATOM      5  N   UNL A   1      32.719  35.845  30.637  1.00  0.00    -0.352 N 
ATOM      6  O   UNL A   1      31.812  35.549  32.687  1.00  0.00    -0.269 OA
ATOM      7  C   UNL A   1      32.773  35.410  31.940  1.00  0.00     0.251 C 
ATOM      8  H   UNL A   1      31.943  36.408  30.412  1.00  0.00     0.163 HD
BRANCH   7   9
ATOM      9  C   UNL A   1      33.999  34.742  32.422  1.00  0.00     0.039 A 
ATOM     10  C   UNL A   1      35.192  35.459  32.529  1.00  0.00     0.014 A 
ATOM     11  C   UNL A   1      33.965  33.380  32.731  1.00  0.00     0.014 A 
ATOM     12  C   UNL A   1      36.380  34.782  32.760  1.00  0.00     0.010 A 
ATOM     13  C   UNL A   1      35.148  32.721  33.076  1.00  0.00     0.010 A 
ATOM     14  C   UNL A   1      36.373  33.406  33.047  1.00  0.00    -0.014 A 
BRANCH  14  15
ATOM     15  C   UNL A   1      37.660  32.727  33.343  1.00  0.00     0.031 A 
ATOM     16  C   UNL A   1      38.390  32.963  34.638  1.00  0.00     0.074 A 
ATOM     17  C   UNL A   1      38.148  31.849  32.444  1.00  0.00     0.049 A 
ATOM     18  N   UNL A   1      39.493  32.406  35.073  1.00  0.00    -0.248 NA
ATOM     19  C   UNL A   1      37.817  33.953  35.562  1.00  0.00     0.031 C 
ATOM     20  C   UNL A   1      37.533  31.533  31.153  1.00  0.00     0.029 A 
ATOM     21  N   UNL A   1      39.253  31.038  32.490  1.00  0.00    -0.354 N 
ATOM     22  C   UNL A   1      39.761  32.996  36.303  1.00  0.00     0.074 A 
ATOM     23  C   UNL A   1      38.719  33.973  36.534  1.00  0.00     0.031 C 
ATOM     24  C   UNL A   1      38.229  30.553  30.561  1.00  0.00     0.029 A 
ATOM     25  C   UNL A   1      39.379  30.224  31.392  1.00  0.00     0.049 A 
ATOM     26  H   UNL A   1      39.893  31.040  33.238  1.00  0.00     0.167 HD
ATOM     27  C   UNL A   1      40.777  32.744  37.162  1.00  0.00     0.031 A 
ATOM     28  C   UNL A   1      40.324  29.320  31.076  1.00  0.00     0.031 A 
ATOM     29  C   UNL A   1      41.814  31.770  36.928  1.00  0.00     0.049 A 
ATOM     30  C   UNL A   1      41.459  29.091  32.030  1.00  0.00     0.074 A 
ATOM     31  C   UNL A   1      42.867  31.416  37.755  1.00  0.00     0.029 A 
ATOM     32  N   UNL A   1      41.933  31.001  35.779  1.00  0.00    -0.354 N 
ATOM     33  N   UNL A   1      41.671  29.627  33.207  1.00  0.00    -0.248 NA
ATOM     34  C   UNL A   1      42.481  28.123  31.611  1.00  0.00     0.031 C 
ATOM     35  C   UNL A   1      43.660  30.483  37.079  1.00  0.00     0.029 A 
ATOM     36  C   UNL A   1      43.059  30.197  35.864  1.00  0.00     0.049 A 
ATOM     37  H   UNL A   1      41.312  31.024  35.017  1.00  0.00     0.167 HD
ATOM     38  C   UNL A   1      42.833  29.038  33.685  1.00  0.00     0.074 A 
ATOM     39  C   UNL A   1      43.267  28.091  32.678  1.00  0.00     0.031 C 
ATOM     40  C   UNL A   1      43.481  29.258  34.855  1.00  0.00     0.031 A 
BRANCH  27  41
ATOM     41  C   UNL A   1      40.846  33.564  38.424  1.00  0.00    -0.014 A 
ATOM     42  C   UNL A   1      41.538  34.785  38.473  1.00  0.00     0.009 A 
ATOM     43  C   UNL A   1      40.171  33.124  39.574  1.00  0.00     0.009 A 
ATOM     44  C   UNL A   1      41.584  35.526  39.658  1.00  0.00     0.001 A 
ATOM     45  C   UNL A   1      40.191  33.882  40.746  1.00  0.00     0.001 A 
ATOM     46  C   UNL A   1      40.906  35.076  40.791  1.00  0.00     0.000 A 
ENDBRANCH  27  41
BRANCH  28  47
ATOM     47  C   UNL A   1      40.236  28.570  29.796  1.00  0.00    -0.014 A 
ATOM     48  C   UNL A   1      39.611  27.315  29.744  1.00  0.00     0.009 A 
ATOM     49  C   UNL A   1      40.784  29.104  28.619  1.00  0.00     0.009 A 
ATOM     50  C   UNL A   1      39.563  26.598  28.546  1.00  0.00     0.001 A 
ATOM     51  C   UNL A   1      40.703  28.401  27.416  1.00  0.00     0.001 A 
ATOM     52  C   UNL A   1      40.104  27.143  27.383  1.00  0.00     0.000 A 
ENDBRANCH  28  47
BRANCH  40  53
ATOM     53  C   UNL A   1      44.697  28.417  35.132  1.00  0.00    -0.014 A 
ATOM     54  C   UNL A   1      44.603  27.172  35.774  1.00  0.00     0.009 A 
ATOM     55  C   UNL A   1      45.960  28.880  34.729  1.00  0.00     0.009 A 
ATOM     56  C   UNL A   1      45.755  26.432  36.049  1.00  0.00     0.001 A 
ATOM     57  C   UNL A   1      47.105  28.121  34.972  1.00  0.00     0.001 A 
ATOM     58  C   UNL A   1      47.004  26.905  35.645  1.00  0.00     0.000 A 
ENDBRANCH  40  53
ENDBRANCH  14  15
ENDBRANCH   7   9
ENDBRANCH   4   5
ENDBRANCH   3   4
ENDBRANCH   2   3
ENDBRANCH   1   2
BRANCH   1  59
ATOM     59  C   UNL A   1      35.624  31.107  28.011  1.00  0.00     0.021 C 
BRANCH  59  60
ATOM     60  C   UNL A   1      35.318  29.732  27.419  1.00  0.00     0.116 C 
BRANCH  60  61
ATOM     61  N   UNL A   1      34.267  29.859  26.432  1.00  0.00    -0.356 N 
ATOM     62  C   UNL A   1      33.486  28.907  25.858  1.00  0.00     0.226 C 
ATOM     63  H   UNL A   1      34.092  30.779  26.128  1.00  0.00     0.163 HD
ATOM     64  O   UNL A   1      32.878  29.218  24.830  1.00  0.00    -0.274 OA
BRANCH  62  65
ATOM     65  C   UNL A   1      33.208  27.560  26.532  1.00  0.00     0.103 C 
ATOM     66  C   UNL A   1      31.812  27.097  26.798  1.00  0.00    -0.016 C 
ATOM     67  C   UNL A   1      33.802  26.447  25.665  1.00  0.00     0.042 C 
ATOM     68  C   UNL A   1      31.580  25.885  26.276  1.00  0.00    -0.011 C 
ATOM     69  C   UNL A   1      32.737  25.363  25.485  1.00  0.00     0.093 C 
BRANCH  69  70
ATOM     70  N   UNL A   1      33.196  24.107  26.052  1.00  0.00    -0.204 NA
ATOM     71  H   UNL A   1      32.484  23.812  26.720  1.00  0.00     0.142 HD
BRANCH  70  72
ATOM     72  S   UNL A   1      33.510  22.782  25.074  1.00  0.00     0.244 S 
ATOM     73  O   UNL A   1      32.788  21.687  25.681  1.00  0.00    -0.207 OA
ATOM     74  O   UNL A   1      33.282  23.149  23.695  1.00  0.00    -0.207 OA
BRANCH  72  75
ATOM     75  C   UNL A   1      35.231  22.462  25.305  1.00  0.00     0.121 A 
ATOM     76  C   UNL A   1      36.088  23.463  25.784  1.00  0.00     0.028 A 
ATOM     77  C   UNL A   1      35.736  21.201  25.004  1.00  0.00     0.181 A 
ATOM     78  C   UNL A   1      37.459  23.208  25.885  1.00  0.00     0.044 A 
ATOM     79  C   UNL A   1      37.103  20.967  25.061  1.00  0.00     0.195 A 
ATOM     80  F   UNL A   1      34.932  20.215  24.583  1.00  0.00    -0.202 F 
ATOM     81  C   UNL A   1      37.961  21.968  25.497  1.00  0.00     0.161 A 
ATOM     82  F   UNL A   1      37.596  19.785  24.665  1.00  0.00    -0.200 F 
ATOM     83  F   UNL A   1      39.282  21.750  25.542  1.00  0.00    -0.204 F 
ENDBRANCH  72  75
ENDBRANCH  70  72
ENDBRANCH  69  70
ENDBRANCH  62  65
ENDBRANCH  60  61
ENDBRANCH  59  60
ENDBRANCH   1  59
TORSDOF 16
ENDMDL
MODEL 3
REMARK VINA RESULT:     -10.9      6.641     12.063
REMARK SMILES O=C(NCCCCCCNC(=O)[C@H]1C=C[C@H](NS(=O)(=O)c2ccc(F)c(F)c2F)C1)c1ccc(-c2c3nc(c(-c4ccccc4)c4ccc([nH]4)c(-c4ccccc4)c4nc(c(-c5ccccc5)c5ccc2[nH]5)C=C4)C=C3)cc1
REMARK SMILES IDX 7 1 6 2 5 3 4 4 3 5 1 6 2 7 31 9 32 10 78 11 33 12 77 13
REMARK SMILES IDX 34 14 35 15 36 16 71 17 37 18 76 19 70 20 72 21 38 22 75 23
REMARK SMILES IDX 69 24 68 25 39 27 61 28 46 29 60 30 47 31 50 32 59 33 73 34
REMARK SMILES IDX 48 35 49 36 58 38 74 39 51 40 40 41 41 42 45 43 42 44 44 45
REMARK SMILES IDX 43 46 62 47 63 48 67 49 64 50 66 51 65 52 52 53 53 54 57 55
REMARK SMILES IDX 54 56 56 57 55 58 8 59 9 60 10 61 11 62 12 64 13 65 14 66
REMARK SMILES IDX 30 67 15 68 16 69 17 70 18 72 19 73 20 74 21 75 22 76 28 77
REMARK SMILES IDX 23 78 26 79 29 80 24 81 27 82 25 83
REMARK H PARENT 3 8 72 26 50 37 10 63 17 71
REMARK Flexibility Score: inf
ROOT
ATOM      1  C   UNL A   1      34.217  32.017  28.036  1.00  0.00     0.002 C 
ENDROOT
BRANCH   1   2
ATOM      2  C   UNL A   1      34.456  33.344  28.767  1.00  0.00     0.002 C 
BRANCH   2   3
ATOM      3  C   UNL A   1      33.286  34.323  28.700  1.00  0.00     0.021 C 
BRANCH   3   4
ATOM      4  C   UNL A   1      33.607  35.702  29.258  1.00  0.00     0.116 C 
BRANCH   4   5
ATOM      5  N   UNL A   1      32.675  36.103  30.301  1.00  0.00    -0.352 N 
ATOM      6  O   UNL A   1      31.694  36.023  32.335  1.00  0.00    -0.269 OA
ATOM      7  C   UNL A   1      32.660  35.757  31.631  1.00  0.00     0.251 C 
ATOM      8  H   UNL A   1      31.954  36.710  30.014  1.00  0.00     0.163 HD
BRANCH   7   9
ATOM      9  C   UNL A   1      33.814  35.028  32.194  1.00  0.00     0.039 A 
ATOM     10  C   UNL A   1      35.024  35.691  32.408  1.00  0.00     0.014 A 
ATOM     11  C   UNL A   1      33.699  33.664  32.474  1.00  0.00     0.014 A 
ATOM     12  C   UNL A   1      36.161  34.959  32.718  1.00  0.00     0.010 A 
ATOM     13  C   UNL A   1      34.821  32.950  32.898  1.00  0.00     0.010 A 
ATOM     14  C   UNL A   1      36.073  33.581  32.978  1.00  0.00    -0.014 A 
BRANCH  14  15
ATOM     15  C   UNL A   1      37.303  32.841  33.361  1.00  0.00     0.031 A 
ATOM     16  C   UNL A   1      37.964  31.878  32.411  1.00  0.00     0.074 A 
ATOM     17  C   UNL A   1      37.851  33.083  34.568  1.00  0.00     0.049 A 
ATOM     18  N   UNL A   1      39.072  31.197  32.571  1.00  0.00    -0.248 NA
ATOM     19  C   UNL A   1      37.299  31.641  31.122  1.00  0.00     0.031 C 
ATOM     20  C   UNL A   1      37.305  33.995  35.576  1.00  0.00     0.029 A 
ATOM     21  N   UNL A   1      39.004  32.610  35.141  1.00  0.00    -0.354 N 
ATOM     22  C   UNL A   1      39.222  30.433  31.420  1.00  0.00     0.074 A 
ATOM     23  C   UNL A   1      38.077  30.713  30.581  1.00  0.00     0.031 C 
ATOM     24  C   UNL A   1      38.153  34.065  36.612  1.00  0.00     0.029 A 
ATOM     25  C   UNL A   1      39.261  33.149  36.377  1.00  0.00     0.049 A 
ATOM     26  H   UNL A   1      39.590  31.948  34.707  1.00  0.00     0.167 HD
ATOM     27  C   UNL A   1      40.221  29.580  31.091  1.00  0.00     0.031 A 
ATOM     28  C   UNL A   1      40.270  32.924  37.238  1.00  0.00     0.031 A 
ATOM     29  C   UNL A   1      41.360  29.303  31.931  1.00  0.00     0.049 A 
ATOM     30  C   UNL A   1      41.342  31.945  36.861  1.00  0.00     0.074 A 
ATOM     31  C   UNL A   1      42.443  28.481  31.670  1.00  0.00     0.029 A 
ATOM     32  N   UNL A   1      41.557  29.832  33.198  1.00  0.00    -0.354 N 
ATOM     33  N   UNL A   1      41.488  31.264  35.752  1.00  0.00    -0.248 NA
ATOM     34  C   UNL A   1      42.393  31.709  37.860  1.00  0.00     0.031 C 
ATOM     35  C   UNL A   1      43.261  28.462  32.805  1.00  0.00     0.029 A 
ATOM     36  C   UNL A   1      42.729  29.332  33.742  1.00  0.00     0.049 A 
ATOM     37  H   UNL A   1      40.953  30.469  33.644  1.00  0.00     0.167 HD
ATOM     38  C   UNL A   1      42.665  30.545  35.902  1.00  0.00     0.074 A 
ATOM     39  C   UNL A   1      43.200  30.888  37.204  1.00  0.00     0.031 C 
ATOM     40  C   UNL A   1      43.252  29.680  35.039  1.00  0.00     0.031 A 
BRANCH  27  41
ATOM     41  C   UNL A   1      40.112  28.848  29.779  1.00  0.00    -0.014 A 
ATOM     42  C   UNL A   1      39.454  27.611  29.678  1.00  0.00     0.009 A 
ATOM     43  C   UNL A   1      40.643  29.427  28.615  1.00  0.00     0.009 A 
ATOM     44  C   UNL A   1      39.367  26.954  28.447  1.00  0.00     0.001 A 
ATOM     45  C   UNL A   1      40.526  28.784  27.382  1.00  0.00     0.001 A 
ATOM     46  C   UNL A   1      39.898  27.544  27.300  1.00  0.00     0.000 A 
ENDBRANCH  27  41
BRANCH  28  47
ATOM     47  C   UNL A   1      40.307  33.638  38.541  1.00  0.00    -0.014 A 
ATOM     48  C   UNL A   1      41.024  34.836  38.680  1.00  0.00     0.009 A 
ATOM     49  C   UNL A   1      39.630  33.119  39.657  1.00  0.00     0.009 A 
ATOM     50  C   UNL A   1      41.085  35.483  39.916  1.00  0.00     0.001 A 
ATOM     51  C   UNL A   1      39.664  33.787  40.881  1.00  0.00     0.001 A 
ATOM     52  C   UNL A   1      40.402  34.962  41.014  1.00  0.00     0.000 A 
ENDBRANCH  28  47
BRANCH  40  53
ATOM     53  C   UNL A   1      44.572  29.091  35.454  1.00  0.00    -0.014 A 
ATOM     54  C   UNL A   1      45.789  29.727  35.164  1.00  0.00     0.009 A 
ATOM     55  C   UNL A   1      44.591  27.878  36.161  1.00  0.00     0.009 A 
ATOM     56  C   UNL A   1      47.000  29.135  35.531  1.00  0.00     0.001 A 
ATOM     57  C   UNL A   1      45.801  27.307  36.560  1.00  0.00     0.001 A 
ATOM     58  C   UNL A   1      47.005  27.929  36.231  1.00  0.00     0.000 A 
ENDBRANCH  40  53
ENDBRANCH  14  15
ENDBRANCH   7   9
ENDBRANCH   4   5
ENDBRANCH   3   4
ENDBRANCH   2   3
ENDBRANCH   1   2
BRANCH   1  59
ATOM     59  C   UNL A   1      35.413  31.052  28.048  1.00  0.00     0.021 C 
BRANCH  59  60
ATOM     60  C   UNL A   1      35.084  29.689  27.441  1.00  0.00     0.116 C 
BRANCH  60  61
ATOM     61  N   UNL A   1      34.110  29.858  26.385  1.00  0.00    -0.356 N 
ATOM     62  C   UNL A   1      33.329  28.939  25.760  1.00  0.00     0.226 C 
ATOM     63  H   UNL A   1      33.995  30.784  26.070  1.00  0.00     0.163 HD
ATOM     64  O   UNL A   1      32.806  29.272  24.693  1.00  0.00    -0.274 OA
BRANCH  62  65
ATOM     65  C   UNL A   1      32.948  27.607  26.414  1.00  0.00     0.103 C 
ATOM     66  C   UNL A   1      31.519  27.221  26.617  1.00  0.00    -0.016 C 
ATOM     67  C   UNL A   1      33.517  26.466  25.567  1.00  0.00     0.042 C 
ATOM     68  C   UNL A   1      31.243  26.025  26.080  1.00  0.00    -0.011 C 
ATOM     69  C   UNL A   1      32.403  25.442  25.336  1.00  0.00     0.093 C 
BRANCH  69  70
ATOM     70  N   UNL A   1      32.767  24.161  25.915  1.00  0.00    -0.204 NA
ATOM     71  H   UNL A   1      31.992  23.884  26.517  1.00  0.00     0.142 HD
BRANCH  70  72
ATOM     72  S   UNL A   1      33.111  22.841  24.942  1.00  0.00     0.244 S 
ATOM     73  O   UNL A   1      32.387  21.738  25.533  1.00  0.00    -0.207 OA
ATOM     74  O   UNL A   1      32.908  23.207  23.559  1.00  0.00    -0.207 OA
BRANCH  72  75
ATOM     75  C   UNL A   1      34.831  22.535  25.206  1.00  0.00     0.121 A 
ATOM     76  C   UNL A   1      35.683  23.562  25.633  1.00  0.00     0.028 A 
ATOM     77  C   UNL A   1      35.337  21.258  24.984  1.00  0.00     0.181 A 
ATOM     78  C   UNL A   1      37.054  23.314  25.760  1.00  0.00     0.044 A 
ATOM     79  C   UNL A   1      36.704  21.028  25.067  1.00  0.00     0.195 A 
ATOM     80  F   UNL A   1      34.537  20.248  24.615  1.00  0.00    -0.202 F 
ATOM     81  C   UNL A   1      37.558  22.053  25.451  1.00  0.00     0.161 A 
ATOM     82  F   UNL A   1      37.200  19.824  24.746  1.00  0.00    -0.200 F 
ATOM     83  F   UNL A   1      38.879  21.839  25.520  1.00  0.00    -0.204 F 
ENDBRANCH  72  75
ENDBRANCH  70  72
ENDBRANCH  69  70
ENDBRANCH  62  65
ENDBRANCH  60  61
ENDBRANCH  59  60
ENDBRANCH   1  59
TORSDOF 16
ENDMDL
