MODEL 1
REMARK VINA RESULT:     -10.8      0.000      0.000
REMARK SMILES O=C(COc1nc(NCc2ccc(F)cc2)nc2c1CCC2)NCCCCCCNC(=O)c1ccc(-c2c3nc(c(-c4ccccc4)c4ccc([nH]4)c(-c4ccccc4)c4nc(c(-c5ccccc5)c5ccc2[nH]5)C=C4)C=C3)cc1
REMARK SMILES IDX 25 1 24 2 23 3 1 4 2 5 3 7 4 8 5 9 6 10 19 11 7 12 18 13
REMARK SMILES IDX 20 14 17 15 22 16 21 17 8 18 9 20 10 21 11 22 16 23 12 24
REMARK SMILES IDX 15 25 13 26 14 27 26 28 27 29 28 30 29 31 30 32 31 33 32 35
REMARK SMILES IDX 33 36 34 37 80 38 35 39 79 40 36 41 37 42 38 43 73 44 39 45
REMARK SMILES IDX 78 46 72 47 74 48 40 49 77 50 71 51 70 52 41 54 63 55 48 56
REMARK SMILES IDX 62 57 49 58 52 59 61 60 75 61 50 62 51 63 60 65 76 66 53 67
REMARK SMILES IDX 42 68 43 69 47 70 44 71 46 72 45 73 64 74 65 75 69 76 66 77
REMARK SMILES IDX 68 78 67 79 54 80 55 81 59 82 56 83 58 84 57 85
REMARK H PARENT 23 6 8 19 30 34 74 53 52 64
REMARK Flexibility Score: inf
ROOT
ATOM      1  C   UNL A   1      35.665  23.018  23.364  1.00  0.00     0.021 C 
ENDROOT
BRANCH   1   2
ATOM      2  C   UNL A   1      34.970  24.160  24.100  1.00  0.00     0.116 C 
BRANCH   2   3
ATOM      3  N   UNL A   1      33.630  24.395  23.612  1.00  0.00    -0.353 N 
ATOM      4  O   UNL A   1      34.202  26.050  22.128  1.00  0.00    -0.271 OA
ATOM      5  C   UNL A   1      33.355  25.302  22.613  1.00  0.00     0.258 C 
ATOM      6  H   UNL A   1      32.886  23.888  24.010  1.00  0.00     0.163 HD
BRANCH   5   7
ATOM      7  C   UNL A   1      31.875  25.379  22.204  1.00  0.00     0.331 C 
BRANCH   7   8
ATOM      8  O   UNL A   1      31.111  26.518  22.584  1.00  0.00    -0.467 OA
BRANCH   8   9
ATOM      9  C   UNL A   1      31.016  26.611  23.951  1.00  0.00     0.222 A 
ATOM     10  N   UNL A   1      30.474  25.576  24.610  1.00  0.00    -0.177 NA
ATOM     11  C   UNL A   1      31.547  27.684  24.592  1.00  0.00     0.036 A 
ATOM     12  C   UNL A   1      30.421  25.647  25.951  1.00  0.00     0.226 A 
ATOM     13  C   UNL A   1      31.435  27.670  25.962  1.00  0.00     0.053 A 
ATOM     14  C   UNL A   1      32.165  28.936  24.092  1.00  0.00     0.043 C 
ATOM     15  N   UNL A   1      30.883  26.679  26.671  1.00  0.00    -0.218 NA
ATOM     16  C   UNL A   1      31.956  28.950  26.551  1.00  0.00     0.057 C 
ATOM     17  C   UNL A   1      32.797  29.487  25.382  1.00  0.00     0.011 C 
BRANCH  12  18
ATOM     18  N   UNL A   1      29.859  24.561  26.550  1.00  0.00    -0.350 N 
ATOM     19  H   UNL A   1      29.336  24.709  27.371  1.00  0.00     0.164 HD
BRANCH  18  20
ATOM     20  C   UNL A   1      29.979  23.215  26.067  1.00  0.00     0.152 C 
BRANCH  20  21
ATOM     21  C   UNL A   1      31.350  22.648  26.375  1.00  0.00    -0.029 A 
ATOM     22  C   UNL A   1      31.973  21.728  25.511  1.00  0.00     0.008 A 
ATOM     23  C   UNL A   1      32.045  23.077  27.518  1.00  0.00     0.008 A 
ATOM     24  C   UNL A   1      33.247  21.234  25.796  1.00  0.00     0.039 A 
ATOM     25  C   UNL A   1      33.324  22.589  27.796  1.00  0.00     0.039 A 
ATOM     26  C   UNL A   1      33.911  21.671  26.935  1.00  0.00     0.123 A 
ATOM     27  F   UNL A   1      35.138  21.203  27.203  1.00  0.00    -0.207 F 
ENDBRANCH  20  21
ENDBRANCH  18  20
ENDBRANCH  12  18
ENDBRANCH   8   9
ENDBRANCH   7   8
ENDBRANCH   5   7
ENDBRANCH   2   3
ENDBRANCH   1   2
BRANCH   1  28
ATOM     28  C   UNL A   1      36.822  22.370  24.134  1.00  0.00     0.002 C 
BRANCH  28  29
ATOM     29  C   UNL A   1      36.558  20.956  24.662  1.00  0.00     0.002 C 
BRANCH  29  30
ATOM     30  C   UNL A   1      37.771  20.024  24.683  1.00  0.00     0.021 C 
BRANCH  30  31
ATOM     31  C   UNL A   1      38.781  20.303  25.790  1.00  0.00     0.116 C 
BRANCH  31  32
ATOM     32  N   UNL A   1      39.916  19.393  25.752  1.00  0.00    -0.352 N 
ATOM     33  C   UNL A   1      41.238  19.632  26.033  1.00  0.00     0.251 C 
ATOM     34  H   UNL A   1      39.704  18.469  25.486  1.00  0.00     0.163 HD
ATOM     35  O   UNL A   1      42.087  18.779  25.795  1.00  0.00    -0.269 OA
BRANCH  33  36
ATOM     36  C   UNL A   1      41.648  20.934  26.601  1.00  0.00     0.039 A 
ATOM     37  C   UNL A   1      42.090  21.938  25.735  1.00  0.00     0.014 A 
ATOM     38  C   UNL A   1      41.601  21.165  27.979  1.00  0.00     0.014 A 
ATOM     39  C   UNL A   1      42.426  23.193  26.245  1.00  0.00     0.010 A 
ATOM     40  C   UNL A   1      41.870  22.437  28.479  1.00  0.00     0.010 A 
ATOM     41  C   UNL A   1      42.289  23.462  27.617  1.00  0.00    -0.014 A 
BRANCH  41  42
ATOM     42  C   UNL A   1      42.594  24.807  28.162  1.00  0.00     0.031 A 
ATOM     43  C   UNL A   1      43.998  25.162  28.563  1.00  0.00     0.074 A 
ATOM     44  C   UNL A   1      41.600  25.700  28.334  1.00  0.00     0.049 A 
ATOM     45  N   UNL A   1      44.456  26.288  29.050  1.00  0.00    -0.248 NA
ATOM     46  C   UNL A   1      45.018  24.112  28.417  1.00  0.00     0.031 C 
ATOM     47  C   UNL A   1      40.189  25.463  28.023  1.00  0.00     0.029 A 
ATOM     48  N   UNL A   1      41.627  26.987  28.807  1.00  0.00    -0.354 N 
ATOM     49  C   UNL A   1      45.810  26.077  29.275  1.00  0.00     0.074 A 
ATOM     50  C   UNL A   1      46.090  24.702  28.925  1.00  0.00     0.031 C 
ATOM     51  C   UNL A   1      39.492  26.582  28.277  1.00  0.00     0.029 A 
ATOM     52  C   UNL A   1      40.398  27.601  28.798  1.00  0.00     0.049 A 
ATOM     53  H   UNL A   1      42.448  27.429  29.124  1.00  0.00     0.167 HD
ATOM     54  C   UNL A   1      46.743  26.956  29.711  1.00  0.00     0.031 A 
ATOM     55  C   UNL A   1      40.041  28.848  29.162  1.00  0.00     0.031 A 
ATOM     56  C   UNL A   1      46.470  28.325  30.048  1.00  0.00     0.049 A 
ATOM     57  C   UNL A   1      41.088  29.799  29.666  1.00  0.00     0.074 A 
ATOM     58  C   UNL A   1      47.361  29.312  30.429  1.00  0.00     0.029 A 
ATOM     59  N   UNL A   1      45.208  28.900  30.051  1.00  0.00    -0.354 N 
ATOM     60  N   UNL A   1      42.378  29.609  29.796  1.00  0.00    -0.248 NA
ATOM     61  C   UNL A   1      40.631  31.138  30.069  1.00  0.00     0.031 C 
ATOM     62  C   UNL A   1      46.632  30.470  30.716  1.00  0.00     0.029 A 
ATOM     63  C   UNL A   1      45.292  30.218  30.464  1.00  0.00     0.049 A 
ATOM     64  H   UNL A   1      44.376  28.439  29.796  1.00  0.00     0.167 HD
ATOM     65  C   UNL A   1      42.890  30.804  30.286  1.00  0.00     0.074 A 
ATOM     66  C   UNL A   1      41.773  31.718  30.414  1.00  0.00     0.031 C 
ATOM     67  C   UNL A   1      44.171  31.112  30.602  1.00  0.00     0.031 A 
BRANCH  54  68
ATOM     68  C   UNL A   1      48.153  26.454  29.846  1.00  0.00    -0.014 A 
ATOM     69  C   UNL A   1      49.072  26.581  28.792  1.00  0.00     0.009 A 
ATOM     70  C   UNL A   1      48.577  25.874  31.051  1.00  0.00     0.009 A 
ATOM     71  C   UNL A   1      50.377  26.102  28.930  1.00  0.00     0.001 A 
ATOM     72  C   UNL A   1      49.890  25.422  31.195  1.00  0.00     0.001 A 
ATOM     73  C   UNL A   1      50.785  25.528  30.132  1.00  0.00     0.000 A 
ENDBRANCH  54  68
BRANCH  55  74
ATOM     74  C   UNL A   1      38.623  29.269  29.027  1.00  0.00    -0.014 A 
ATOM     75  C   UNL A   1      38.132  29.710  27.788  1.00  0.00     0.009 A 
ATOM     76  C   UNL A   1      37.744  29.189  30.117  1.00  0.00     0.009 A 
ATOM     77  C   UNL A   1      36.790  30.066  27.646  1.00  0.00     0.001 A 
ATOM     78  C   UNL A   1      36.396  29.525  29.966  1.00  0.00     0.001 A 
ATOM     79  C   UNL A   1      35.922  29.966  28.732  1.00  0.00     0.000 A 
ENDBRANCH  55  74
BRANCH  67  80
ATOM     80  C   UNL A   1      44.447  32.491  31.126  1.00  0.00    -0.014 A 
ATOM     81  C   UNL A   1      44.461  32.746  32.506  1.00  0.00     0.009 A 
ATOM     82  C   UNL A   1      44.786  33.523  30.238  1.00  0.00     0.009 A 
ATOM     83  C   UNL A   1      44.802  34.012  32.984  1.00  0.00     0.001 A 
ATOM     84  C   UNL A   1      45.150  34.781  30.721  1.00  0.00     0.001 A 
ATOM     85  C   UNL A   1      45.154  35.025  32.093  1.00  0.00     0.000 A 
ENDBRANCH  67  80
ENDBRANCH  41  42
ENDBRANCH  33  36
ENDBRANCH  31  32
ENDBRANCH  30  31
ENDBRANCH  29  30
ENDBRANCH  28  29
ENDBRANCH   1  28
TORSDOF 18
ENDMDL
MODEL 2
REMARK VINA RESULT:     -10.8      2.473      3.937
REMARK SMILES O=C(COc1nc(NCc2ccc(F)cc2)nc2c1CCC2)NCCCCCCNC(=O)c1ccc(-c2c3nc(c(-c4ccccc4)c4ccc([nH]4)c(-c4ccccc4)c4nc(c(-c5ccccc5)c5ccc2[nH]5)C=C4)C=C3)cc1
REMARK SMILES IDX 25 1 24 2 23 3 1 4 2 5 3 7 4 8 5 9 6 10 19 11 7 12 18 13
REMARK SMILES IDX 20 14 17 15 22 16 21 17 8 18 9 20 10 21 11 22 16 23 12 24
REMARK SMILES IDX 15 25 13 26 14 27 26 28 27 29 28 30 29 31 30 32 31 33 32 35
REMARK SMILES IDX 33 36 34 37 80 38 35 39 79 40 36 41 37 42 38 43 73 44 39 45
REMARK SMILES IDX 78 46 72 47 74 48 40 49 77 50 71 51 70 52 41 54 63 55 48 56
REMARK SMILES IDX 62 57 49 58 52 59 61 60 75 61 50 62 51 63 60 65 76 66 53 67
REMARK SMILES IDX 42 68 43 69 47 70 44 71 46 72 45 73 64 74 65 75 69 76 66 77
REMARK SMILES IDX 68 78 67 79 54 80 55 81 59 82 56 83 58 84 57 85
REMARK H PARENT 23 6 8 19 30 34 74 53 52 64
REMARK Flexibility Score: inf
ROOT
ATOM      1  C   UNL A   1      35.362  22.785  26.141  1.00  0.00     0.021 C 
ENDROOT
BRANCH   1   2
ATOM      2  C   UNL A   1      34.088  22.022  26.494  1.00  0.00     0.116 C 
BRANCH   2   3
ATOM      3  N   UNL A   1      32.936  22.888  26.588  1.00  0.00    -0.353 N 
ATOM      4  O   UNL A   1      31.914  22.137  24.676  1.00  0.00    -0.271 OA
ATOM      5  C   UNL A   1      31.899  22.841  25.683  1.00  0.00     0.258 C 
ATOM      6  H   UNL A   1      32.891  23.538  27.327  1.00  0.00     0.163 HD
BRANCH   5   7
ATOM      7  C   UNL A   1      30.745  23.814  25.976  1.00  0.00     0.331 C 
BRANCH   7   8
ATOM      8  O   UNL A   1      31.035  25.068  26.583  1.00  0.00    -0.467 OA
BRANCH   8   9
ATOM      9  C   UNL A   1      31.094  26.067  25.643  1.00  0.00     0.222 A 
ATOM     10  N   UNL A   1      30.028  26.236  24.846  1.00  0.00    -0.177 NA
ATOM     11  C   UNL A   1      32.167  26.899  25.610  1.00  0.00     0.036 A 
ATOM     12  C   UNL A   1      30.066  27.242  23.955  1.00  0.00     0.226 A 
ATOM     13  C   UNL A   1      32.118  27.890  24.659  1.00  0.00     0.053 A 
ATOM     14  C   UNL A   1      33.448  26.901  26.357  1.00  0.00     0.043 C 
ATOM     15  N   UNL A   1      31.095  28.091  23.820  1.00  0.00    -0.218 NA
ATOM     16  C   UNL A   1      33.399  28.675  24.642  1.00  0.00     0.057 C 
ATOM     17  C   UNL A   1      33.987  28.300  26.012  1.00  0.00     0.011 C 
BRANCH  12  18
ATOM     18  N   UNL A   1      28.951  27.352  23.183  1.00  0.00    -0.350 N 
ATOM     19  H   UNL A   1      28.943  26.881  22.318  1.00  0.00     0.164 HD
BRANCH  18  20
ATOM     20  C   UNL A   1      27.785  28.108  23.543  1.00  0.00     0.152 C 
BRANCH  20  21
ATOM     21  C   UNL A   1      27.854  29.512  22.976  1.00  0.00    -0.029 A 
ATOM     22  C   UNL A   1      27.541  30.635  23.764  1.00  0.00     0.008 A 
ATOM     23  C   UNL A   1      28.284  29.714  21.654  1.00  0.00     0.008 A 
ATOM     24  C   UNL A   1      27.634  31.924  23.235  1.00  0.00     0.039 A 
ATOM     25  C   UNL A   1      28.386  31.004  21.130  1.00  0.00     0.039 A 
ATOM     26  C   UNL A   1      28.057  32.096  21.923  1.00  0.00     0.123 A 
ATOM     27  F   UNL A   1      28.155  33.334  21.419  1.00  0.00    -0.207 F 
ENDBRANCH  20  21
ENDBRANCH  18  20
ENDBRANCH  12  18
ENDBRANCH   8   9
ENDBRANCH   7   8
ENDBRANCH   5   7
ENDBRANCH   2   3
ENDBRANCH   1   2
BRANCH   1  28
ATOM     28  C   UNL A   1      36.233  22.117  25.071  1.00  0.00     0.002 C 
BRANCH  28  29
ATOM     29  C   UNL A   1      36.151  20.588  25.006  1.00  0.00     0.002 C 
BRANCH  29  30
ATOM     30  C   UNL A   1      37.481  19.865  24.794  1.00  0.00     0.021 C 
BRANCH  30  31
ATOM     31  C   UNL A   1      38.622  20.333  25.690  1.00  0.00     0.116 C 
BRANCH  31  32
ATOM     32  N   UNL A   1      39.736  19.398  25.709  1.00  0.00    -0.352 N 
ATOM     33  C   UNL A   1      41.051  19.611  26.042  1.00  0.00     0.251 C 
ATOM     34  H   UNL A   1      39.515  18.476  25.445  1.00  0.00     0.163 HD
ATOM     35  O   UNL A   1      41.889  18.736  25.849  1.00  0.00    -0.269 OA
BRANCH  33  36
ATOM     36  C   UNL A   1      41.466  20.910  26.613  1.00  0.00     0.039 A 
ATOM     37  C   UNL A   1      41.991  21.884  25.759  1.00  0.00     0.014 A 
ATOM     38  C   UNL A   1      41.344  21.167  27.981  1.00  0.00     0.014 A 
ATOM     39  C   UNL A   1      42.335  23.137  26.267  1.00  0.00     0.010 A 
ATOM     40  C   UNL A   1      41.621  22.439  28.475  1.00  0.00     0.010 A 
ATOM     41  C   UNL A   1      42.124  23.435  27.624  1.00  0.00    -0.014 A 
BRANCH  41  42
ATOM     42  C   UNL A   1      42.438  24.780  28.164  1.00  0.00     0.031 A 
ATOM     43  C   UNL A   1      43.843  25.126  28.568  1.00  0.00     0.074 A 
ATOM     44  C   UNL A   1      41.450  25.682  28.328  1.00  0.00     0.049 A 
ATOM     45  N   UNL A   1      44.308  26.250  29.053  1.00  0.00    -0.248 NA
ATOM     46  C   UNL A   1      44.855  24.067  28.431  1.00  0.00     0.031 C 
ATOM     47  C   UNL A   1      40.039  25.455  28.012  1.00  0.00     0.029 A 
ATOM     48  N   UNL A   1      41.486  26.971  28.796  1.00  0.00    -0.354 N 
ATOM     49  C   UNL A   1      45.659  26.030  29.284  1.00  0.00     0.074 A 
ATOM     50  C   UNL A   1      45.929  24.651  28.941  1.00  0.00     0.031 C 
ATOM     51  C   UNL A   1      39.349  26.581  28.259  1.00  0.00     0.029 A 
ATOM     52  C   UNL A   1      40.262  27.595  28.779  1.00  0.00     0.049 A 
ATOM     53  H   UNL A   1      42.309  27.407  29.113  1.00  0.00     0.167 HD
ATOM     54  C   UNL A   1      46.598  26.903  29.719  1.00  0.00     0.031 A 
ATOM     55  C   UNL A   1      39.913  28.846  29.136  1.00  0.00     0.031 A 
ATOM     56  C   UNL A   1      46.334  28.276  30.049  1.00  0.00     0.049 A 
ATOM     57  C   UNL A   1      40.966  29.791  29.640  1.00  0.00     0.074 A 
ATOM     58  C   UNL A   1      47.232  29.257  30.429  1.00  0.00     0.029 A 
ATOM     59  N   UNL A   1      45.077  28.861  30.045  1.00  0.00    -0.354 N 
ATOM     60  N   UNL A   1      42.254  29.592  29.776  1.00  0.00    -0.248 NA
ATOM     61  C   UNL A   1      40.518  31.135  30.035  1.00  0.00     0.031 C 
ATOM     62  C   UNL A   1      46.511  30.422  30.708  1.00  0.00     0.029 A 
ATOM     63  C   UNL A   1      45.170  30.180  30.452  1.00  0.00     0.049 A 
ATOM     64  H   UNL A   1      44.243  28.405  29.789  1.00  0.00     0.167 HD
ATOM     65  C   UNL A   1      42.774  30.784  30.263  1.00  0.00     0.074 A 
ATOM     66  C   UNL A   1      41.664  31.708  30.381  1.00  0.00     0.031 C 
ATOM     67  C   UNL A   1      44.056  31.083  30.582  1.00  0.00     0.031 A 
BRANCH  54  68
ATOM     68  C   UNL A   1      48.003  26.390  29.862  1.00  0.00    -0.014 A 
ATOM     69  C   UNL A   1      48.442  25.802  31.059  1.00  0.00     0.009 A 
ATOM     70  C   UNL A   1      48.890  26.468  28.778  1.00  0.00     0.009 A 
ATOM     71  C   UNL A   1      49.753  25.337  31.180  1.00  0.00     0.001 A 
ATOM     72  C   UNL A   1      50.192  25.977  28.892  1.00  0.00     0.001 A 
ATOM     73  C   UNL A   1      50.625  25.422  30.096  1.00  0.00     0.000 A 
ENDBRANCH  54  68
BRANCH  55  74
ATOM     74  C   UNL A   1      38.500  29.278  28.993  1.00  0.00    -0.014 A 
ATOM     75  C   UNL A   1      37.634  29.240  30.097  1.00  0.00     0.009 A 
ATOM     76  C   UNL A   1      38.021  29.774  27.770  1.00  0.00     0.009 A 
ATOM     77  C   UNL A   1      36.316  29.685  29.978  1.00  0.00     0.001 A 
ATOM     78  C   UNL A   1      36.708  30.239  27.660  1.00  0.00     0.001 A 
ATOM     79  C   UNL A   1      35.857  30.191  28.763  1.00  0.00     0.000 A 
ENDBRANCH  55  74
BRANCH  67  80
ATOM     80  C   UNL A   1      44.341  32.463  31.101  1.00  0.00    -0.014 A 
ATOM     81  C   UNL A   1      44.595  33.524  30.220  1.00  0.00     0.009 A 
ATOM     82  C   UNL A   1      44.262  32.722  32.478  1.00  0.00     0.009 A 
ATOM     83  C   UNL A   1      44.774  34.819  30.710  1.00  0.00     0.001 A 
ATOM     84  C   UNL A   1      44.419  34.022  32.963  1.00  0.00     0.001 A 
ATOM     85  C   UNL A   1      44.677  35.068  32.079  1.00  0.00     0.000 A 
ENDBRANCH  67  80
ENDBRANCH  41  42
ENDBRANCH  33  36
ENDBRANCH  31  32
ENDBRANCH  30  31
ENDBRANCH  29  30
ENDBRANCH  28  29
ENDBRANCH   1  28
TORSDOF 18
ENDMDL
MODEL 3
REMARK VINA RESULT:     -10.8      1.944      6.831
REMARK SMILES O=C(COc1nc(NCc2ccc(F)cc2)nc2c1CCC2)NCCCCCCNC(=O)c1ccc(-c2c3nc(c(-c4ccccc4)c4ccc([nH]4)c(-c4ccccc4)c4nc(c(-c5ccccc5)c5ccc2[nH]5)C=C4)C=C3)cc1
REMARK SMILES IDX 25 1 24 2 23 3 1 4 2 5 3 7 4 8 5 9 6 10 19 11 7 12 18 13
REMARK SMILES IDX 20 14 17 15 22 16 21 17 8 18 9 20 10 21 11 22 16 23 12 24
REMARK SMILES IDX 15 25 13 26 14 27 26 28 27 29 28 30 29 31 30 32 31 33 32 35
REMARK SMILES IDX 33 36 34 37 80 38 35 39 79 40 36 41 37 42 38 43 73 44 39 45
REMARK SMILES IDX 78 46 72 47 74 48 40 49 77 50 71 51 70 52 41 54 63 55 48 56
REMARK SMILES IDX 62 57 49 58 52 59 61 60 75 61 50 62 51 63 60 65 76 66 53 67
REMARK SMILES IDX 42 68 43 69 47 70 44 71 46 72 45 73 64 74 65 75 69 76 66 77
REMARK SMILES IDX 68 78 67 79 54 80 55 81 59 82 56 83 58 84 57 85
REMARK H PARENT 23 6 8 19 30 34 74 53 52 64
REMARK Flexibility Score: inf
ROOT
ATOM      1  C   UNL A   1      36.745  23.325  24.560  1.00  0.00     0.021 C 
ENDROOT
BRANCH   1   2
ATOM      2  C   UNL A   1      36.376  23.377  26.040  1.00  0.00     0.116 C 
BRANCH   2   3
ATOM      3  N   UNL A   1      34.966  23.613  26.248  1.00  0.00    -0.353 N 
ATOM      4  O   UNL A   1      34.598  21.751  27.538  1.00  0.00    -0.271 OA
ATOM      5  C   UNL A   1      34.187  22.795  27.035  1.00  0.00     0.258 C 
ATOM      6  H   UNL A   1      34.546  24.389  25.810  1.00  0.00     0.163 HD
BRANCH   5   7
ATOM      7  C   UNL A   1      32.720  23.235  27.165  1.00  0.00     0.331 C 
BRANCH   7   8
ATOM      8  O   UNL A   1      31.692  22.362  26.711  1.00  0.00    -0.467 OA
BRANCH   8   9
ATOM      9  C   UNL A   1      31.751  22.203  25.348  1.00  0.00     0.222 A 
ATOM     10  N   UNL A   1      31.463  23.266  24.583  1.00  0.00    -0.177 NA
ATOM     11  C   UNL A   1      32.182  21.025  24.825  1.00  0.00     0.036 A 
ATOM     12  C   UNL A   1      31.564  23.124  23.250  1.00  0.00     0.226 A 
ATOM     13  C   UNL A   1      32.241  20.974  23.453  1.00  0.00     0.053 A 
ATOM     14  C   UNL A   1      32.530  19.727  25.452  1.00  0.00     0.043 C 
ATOM     15  N   UNL A   1      31.942  21.992  22.639  1.00  0.00    -0.218 NA
ATOM     16  C   UNL A   1      32.623  19.597  22.989  1.00  0.00     0.057 C 
ATOM     17  C   UNL A   1      33.221  19.011  24.278  1.00  0.00     0.011 C 
BRANCH  12  18
ATOM     18  N   UNL A   1      31.256  24.244  22.541  1.00  0.00    -0.350 N 
ATOM     19  H   UNL A   1      30.332  24.344  22.218  1.00  0.00     0.164 HD
BRANCH  18  20
ATOM     20  C   UNL A   1      32.189  25.289  22.229  1.00  0.00     0.152 C 
BRANCH  20  21
ATOM     21  C   UNL A   1      31.788  26.590  22.897  1.00  0.00    -0.029 A 
ATOM     22  C   UNL A   1      30.770  27.402  22.363  1.00  0.00     0.008 A 
ATOM     23  C   UNL A   1      32.403  26.981  24.098  1.00  0.00     0.008 A 
ATOM     24  C   UNL A   1      30.395  28.585  23.002  1.00  0.00     0.039 A 
ATOM     25  C   UNL A   1      32.019  28.159  24.741  1.00  0.00     0.039 A 
ATOM     26  C   UNL A   1      31.022  28.951  24.187  1.00  0.00     0.123 A 
ATOM     27  F   UNL A   1      30.654  30.081  24.805  1.00  0.00    -0.207 F 
ENDBRANCH  20  21
ENDBRANCH  18  20
ENDBRANCH  12  18
ENDBRANCH   8   9
ENDBRANCH   7   8
ENDBRANCH   5   7
ENDBRANCH   2   3
ENDBRANCH   1   2
BRANCH   1  28
ATOM     28  C   UNL A   1      36.723  21.921  23.944  1.00  0.00     0.002 C 
BRANCH  28  29
ATOM     29  C   UNL A   1      36.664  20.759  24.941  1.00  0.00     0.002 C 
BRANCH  29  30
ATOM     30  C   UNL A   1      37.880  19.831  24.944  1.00  0.00     0.021 C 
BRANCH  30  31
ATOM     31  C   UNL A   1      39.059  20.313  25.781  1.00  0.00     0.116 C 
BRANCH  31  32
ATOM     32  N   UNL A   1      40.132  19.334  25.850  1.00  0.00    -0.352 N 
ATOM     33  C   UNL A   1      41.462  19.512  26.141  1.00  0.00     0.251 C 
ATOM     34  H   UNL A   1      39.866  18.405  25.659  1.00  0.00     0.163 HD
ATOM     35  O   UNL A   1      42.258  18.589  25.998  1.00  0.00    -0.269 OA
BRANCH  33  36
ATOM     36  C   UNL A   1      41.945  20.830  26.604  1.00  0.00     0.039 A 
ATOM     37  C   UNL A   1      42.405  21.750  25.657  1.00  0.00     0.014 A 
ATOM     38  C   UNL A   1      41.950  21.158  27.963  1.00  0.00     0.014 A 
ATOM     39  C   UNL A   1      42.811  23.021  26.068  1.00  0.00     0.010 A 
ATOM     40  C   UNL A   1      42.288  22.448  28.363  1.00  0.00     0.010 A 
ATOM     41  C   UNL A   1      42.727  23.390  27.421  1.00  0.00    -0.014 A 
BRANCH  41  42
ATOM     42  C   UNL A   1      43.106  24.755  27.860  1.00  0.00     0.031 A 
ATOM     43  C   UNL A   1      42.048  25.790  28.118  1.00  0.00     0.074 A 
ATOM     44  C   UNL A   1      44.408  25.077  27.990  1.00  0.00     0.049 A 
ATOM     45  N   UNL A   1      42.189  27.030  28.513  1.00  0.00    -0.248 NA
ATOM     46  C   UNL A   1      40.653  25.388  27.883  1.00  0.00     0.031 C 
ATOM     47  C   UNL A   1      45.532  24.176  27.730  1.00  0.00     0.029 A 
ATOM     48  N   UNL A   1      45.004  26.251  28.379  1.00  0.00    -0.354 N 
ATOM     49  C   UNL A   1      40.905  27.556  28.565  1.00  0.00     0.074 A 
ATOM     50  C   UNL A   1      40.003  26.520  28.109  1.00  0.00     0.031 C 
ATOM     51  C   UNL A   1      46.680  24.817  28.005  1.00  0.00     0.029 A 
ATOM     52  C   UNL A   1      46.375  26.181  28.427  1.00  0.00     0.049 A 
ATOM     53  H   UNL A   1      44.497  27.065  28.603  1.00  0.00     0.167 HD
ATOM     54  C   UNL A   1      40.507  28.781  28.980  1.00  0.00     0.031 A 
ATOM     55  C   UNL A   1      47.286  27.109  28.779  1.00  0.00     0.031 A 
ATOM     56  C   UNL A   1      41.399  29.808  29.445  1.00  0.00     0.049 A 
ATOM     57  C   UNL A   1      46.825  28.471  29.211  1.00  0.00     0.074 A 
ATOM     58  C   UNL A   1      41.085  31.055  29.953  1.00  0.00     0.029 A 
ATOM     59  N   UNL A   1      42.782  29.706  29.452  1.00  0.00    -0.354 N 
ATOM     60  N   UNL A   1      45.602  28.925  29.332  1.00  0.00    -0.248 NA
ATOM     61  C   UNL A   1      47.869  29.446  29.560  1.00  0.00     0.031 C 
ATOM     62  C   UNL A   1      42.281  31.731  30.217  1.00  0.00     0.029 A 
ATOM     63  C   UNL A   1      43.337  30.884  29.920  1.00  0.00     0.049 A 
ATOM     64  H   UNL A   1      43.291  28.914  29.166  1.00  0.00     0.167 HD
ATOM     65  C   UNL A   1      45.726  30.234  29.779  1.00  0.00     0.074 A 
ATOM     66  C   UNL A   1      47.143  30.495  29.925  1.00  0.00     0.031 C 
ATOM     67  C   UNL A   1      44.750  31.136  30.044  1.00  0.00     0.031 A 
BRANCH  54  68
ATOM     68  C   UNL A   1      39.033  29.076  28.946  1.00  0.00    -0.014 A 
ATOM     69  C   UNL A   1      38.233  28.899  30.086  1.00  0.00     0.009 A 
ATOM     70  C   UNL A   1      38.444  29.566  27.771  1.00  0.00     0.009 A 
ATOM     71  C   UNL A   1      36.864  29.169  30.038  1.00  0.00     0.001 A 
ATOM     72  C   UNL A   1      37.081  29.863  27.734  1.00  0.00     0.001 A 
ATOM     73  C   UNL A   1      36.291  29.655  28.864  1.00  0.00     0.000 A 
ENDBRANCH  54  68
BRANCH  55  74
ATOM     74  C   UNL A   1      48.729  26.756  28.763  1.00  0.00    -0.014 A 
ATOM     75  C   UNL A   1      49.351  26.275  29.925  1.00  0.00     0.009 A 
ATOM     76  C   UNL A   1      49.478  26.854  27.580  1.00  0.00     0.009 A 
ATOM     77  C   UNL A   1      50.696  25.902  29.903  1.00  0.00     0.001 A 
ATOM     78  C   UNL A   1      50.819  26.460  27.557  1.00  0.00     0.001 A 
ATOM     79  C   UNL A   1      51.426  25.987  28.719  1.00  0.00     0.000 A 
ENDBRANCH  55  74
BRANCH  67  80
ATOM     80  C   UNL A   1      45.170  32.500  30.512  1.00  0.00    -0.014 A 
ATOM     81  C   UNL A   1      45.330  33.554  29.600  1.00  0.00     0.009 A 
ATOM     82  C   UNL A   1      45.317  32.755  31.884  1.00  0.00     0.009 A 
ATOM     83  C   UNL A   1      45.638  34.837  30.055  1.00  0.00     0.001 A 
ATOM     84  C   UNL A   1      45.602  34.044  32.336  1.00  0.00     0.001 A 
ATOM     85  C   UNL A   1      45.765  35.083  31.422  1.00  0.00     0.000 A 
ENDBRANCH  67  80
ENDBRANCH  41  42
ENDBRANCH  33  36
ENDBRANCH  31  32
ENDBRANCH  30  31
ENDBRANCH  29  30
ENDBRANCH  28  29
ENDBRANCH   1  28
TORSDOF 18
ENDMDL
