MODEL 1
REMARK VINA RESULT:     -13.5      0.000      0.000
REMARK SMILES Cc1c(C(=O)NCCCCCCNC(=O)c2ccc(-c3c4nc(c(-c5ccccc5)c5ccc([nH]5)c(-c5ccccc5)c5nc(c(-c6ccccc6)c6ccc3[nH]6)C=C5)C=C4)cc2)cccc1-n1c(C)cc(/C=C2/C(=O)NC(=S)N=C2O)c1C
REMARK SMILES IDX 9 1 8 2 7 3 6 4 4 5 5 6 3 8 1 9 2 10 67 11 64 12 66 13 65 14
REMARK SMILES IDX 68 15 69 16 83 17 70 18 71 19 72 20 84 21 73 22 74 23 75 24
REMARK SMILES IDX 81 25 76 26 77 27 80 28 78 29 79 31 82 32 10 34 11 35 12 36
REMARK SMILES IDX 13 37 14 38 15 40 16 41 17 42 63 43 18 44 62 45 19 46 20 47
REMARK SMILES IDX 21 48 56 49 22 50 61 51 55 52 57 53 23 54 60 55 54 56 53 57
REMARK SMILES IDX 24 59 46 60 31 61 45 62 32 63 35 64 44 65 58 66 33 67 34 68
REMARK SMILES IDX 43 70 59 71 36 72 25 73 26 74 30 75 27 76 29 77 28 78 47 79
REMARK SMILES IDX 48 80 52 81 49 82 51 83 50 84 37 85 38 86 42 87 39 88 41 89
REMARK SMILES IDX 40 90
REMARK H PARENT 6 7 77 30 82 33 13 39 57 58 35 69
REMARK Flexibility Score: inf
ROOT
ATOM      1  C   UNL A   1      33.270  28.613  27.213  1.00  0.00     0.002 C 
ENDROOT
BRANCH   1   2
ATOM      2  C   UNL A   1      33.151  27.255  26.512  1.00  0.00     0.021 C 
BRANCH   2   3
ATOM      3  C   UNL A   1      31.721  26.829  26.128  1.00  0.00     0.116 C 
BRANCH   3   4
ATOM      4  N   UNL A   1      31.409  25.540  26.715  1.00  0.00    -0.352 N 
ATOM      5  C   UNL A   1      31.841  24.254  26.577  1.00  0.00     0.251 C 
ATOM      6  O   UNL A   1      31.294  23.443  27.335  1.00  0.00    -0.269 OA
ATOM      7  H   UNL A   1      30.698  25.614  27.392  1.00  0.00     0.163 HD
BRANCH   5   8
ATOM      8  C   UNL A   1      32.917  23.732  25.669  1.00  0.00     0.044 A 
ATOM      9  C   UNL A   1      34.423  22.583  27.398  1.00  0.00     0.047 C 
ATOM     10  C   UNL A   1      34.089  23.019  26.004  1.00  0.00    -0.014 A 
ATOM     11  C   UNL A   1      35.018  22.750  24.962  1.00  0.00     0.049 A 
ATOM     12  C   UNL A   1      32.771  24.192  24.334  1.00  0.00     0.014 A 
ATOM     13  C   UNL A   1      34.853  23.219  23.653  1.00  0.00     0.027 A 
ATOM     14  C   UNL A   1      33.725  23.954  23.342  1.00  0.00     0.003 A 
BRANCH  11  15
ATOM     15  N   UNL A   1      36.241  22.092  25.232  1.00  0.00    -0.318 N 
ATOM     16  C   UNL A   1      36.451  20.731  25.140  1.00  0.00     0.020 A 
ATOM     17  C   UNL A   1      37.395  22.713  25.704  1.00  0.00     0.027 A 
ATOM     18  C   UNL A   1      35.378  19.753  24.813  1.00  0.00     0.065 C 
ATOM     19  C   UNL A   1      37.781  20.503  25.425  1.00  0.00     0.031 A 
ATOM     20  C   UNL A   1      38.386  21.745  25.763  1.00  0.00    -0.003 A 
ATOM     21  C   UNL A   1      37.383  24.161  26.080  1.00  0.00     0.065 C 
BRANCH  20  22
ATOM     22  C   UNL A   1      39.728  21.845  26.246  1.00  0.00     0.029 C 
ATOM     23  C   UNL A   1      40.754  20.977  26.268  1.00  0.00     0.102 C 
ATOM     24  C   UNL A   1      42.064  21.534  26.698  1.00  0.00     0.262 C 
ATOM     25  C   UNL A   1      40.827  19.575  25.853  1.00  0.00     0.226 C 
ATOM     26  O   UNL A   1      42.203  22.595  27.294  1.00  0.00    -0.269 OA
ATOM     27  N   UNL A   1      43.138  20.772  26.324  1.00  0.00    -0.297 N 
ATOM     28  N   UNL A   1      41.888  18.909  25.581  1.00  0.00    -0.184 NA
ATOM     29  C   UNL A   1      43.096  19.542  25.716  1.00  0.00     0.203 C 
ATOM     30  H   UNL A   1      44.030  21.144  26.510  1.00  0.00     0.172 HD
ATOM     31  S   UNL A   1      44.550  18.866  25.229  1.00  0.00    -0.038 S 
BRANCH  25  32
ATOM     32  O   UNL A   1      39.673  18.904  25.822  1.00  0.00    -0.493 OA
ATOM     33  H   UNL A   1      39.236  18.688  26.622  1.00  0.00     0.295 HD
ENDBRANCH  25  32
ENDBRANCH  20  22
ENDBRANCH  11  15
ENDBRANCH   5   8
ENDBRANCH   3   4
ENDBRANCH   2   3
ENDBRANCH   1   2
BRANCH   1  34
ATOM     34  C   UNL A   1      34.676  29.229  27.260  1.00  0.00     0.002 C 
BRANCH  34  35
ATOM     35  C   UNL A   1      34.864  30.365  28.266  1.00  0.00     0.021 C 
BRANCH  35  36
ATOM     36  C   UNL A   1      34.978  31.740  27.621  1.00  0.00     0.116 C 
BRANCH  36  37
ATOM     37  N   UNL A   1      34.059  32.717  28.195  1.00  0.00    -0.352 N 
ATOM     38  C   UNL A   1      34.182  33.502  29.332  1.00  0.00     0.251 C 
ATOM     39  H   UNL A   1      33.219  32.839  27.696  1.00  0.00     0.163 HD
ATOM     40  O   UNL A   1      33.288  34.249  29.663  1.00  0.00    -0.269 OA
BRANCH  38  41
ATOM     41  C   UNL A   1      35.484  33.527  30.042  1.00  0.00     0.039 A 
ATOM     42  C   UNL A   1      36.550  34.152  29.385  1.00  0.00     0.014 A 
ATOM     43  C   UNL A   1      35.708  32.742  31.169  1.00  0.00     0.014 A 
ATOM     44  C   UNL A   1      37.849  33.755  29.677  1.00  0.00     0.010 A 
ATOM     45  C   UNL A   1      36.985  32.278  31.399  1.00  0.00     0.010 A 
ATOM     46  C   UNL A   1      38.037  32.721  30.592  1.00  0.00    -0.014 A 
BRANCH  46  47
ATOM     47  C   UNL A   1      39.261  31.936  30.649  1.00  0.00     0.031 A 
ATOM     48  C   UNL A   1      39.358  30.650  29.940  1.00  0.00     0.074 A 
ATOM     49  C   UNL A   1      40.323  32.415  31.332  1.00  0.00     0.049 A 
ATOM     50  N   UNL A   1      40.184  29.709  30.252  1.00  0.00    -0.248 NA
ATOM     51  C   UNL A   1      38.457  30.292  28.853  1.00  0.00     0.031 C 
ATOM     52  C   UNL A   1      41.702  31.938  31.294  1.00  0.00     0.029 A 
ATOM     53  N   UNL A   1      40.324  33.328  32.374  1.00  0.00    -0.354 N 
ATOM     54  C   UNL A   1      40.150  28.784  29.236  1.00  0.00     0.074 A 
ATOM     55  C   UNL A   1      38.978  29.125  28.464  1.00  0.00     0.031 C 
ATOM     56  C   UNL A   1      42.345  32.376  32.390  1.00  0.00     0.029 A 
ATOM     57  C   UNL A   1      41.361  33.013  33.252  1.00  0.00     0.049 A 
ATOM     58  H   UNL A   1      39.695  34.078  32.477  1.00  0.00     0.167 HD
ATOM     59  C   UNL A   1      41.209  27.942  29.069  1.00  0.00     0.031 A 
ATOM     60  C   UNL A   1      41.104  32.631  34.539  1.00  0.00     0.031 A 
ATOM     61  C   UNL A   1      42.165  28.049  30.175  1.00  0.00     0.049 A 
ATOM     62  C   UNL A   1      41.528  31.208  34.850  1.00  0.00     0.074 A 
ATOM     63  C   UNL A   1      43.395  28.671  30.306  1.00  0.00     0.029 A 
ATOM     64  N   UNL A   1      41.755  27.714  31.461  1.00  0.00    -0.354 N 
ATOM     65  N   UNL A   1      41.799  30.311  33.942  1.00  0.00    -0.248 NA
ATOM     66  C   UNL A   1      41.641  30.672  36.205  1.00  0.00     0.031 C 
ATOM     67  C   UNL A   1      43.682  28.787  31.694  1.00  0.00     0.029 A 
ATOM     68  C   UNL A   1      42.644  28.205  32.399  1.00  0.00     0.049 A 
ATOM     69  H   UNL A   1      40.944  27.198  31.676  1.00  0.00     0.167 HD
ATOM     70  C   UNL A   1      42.104  29.119  34.545  1.00  0.00     0.074 A 
ATOM     71  C   UNL A   1      42.005  29.400  35.965  1.00  0.00     0.031 C 
ATOM     72  C   UNL A   1      42.399  28.000  33.821  1.00  0.00     0.031 A 
BRANCH  59  73
ATOM     73  C   UNL A   1      41.527  27.260  27.754  1.00  0.00    -0.014 A 
ATOM     74  C   UNL A   1      40.601  26.356  27.199  1.00  0.00     0.009 A 
ATOM     75  C   UNL A   1      42.740  27.386  27.055  1.00  0.00     0.009 A 
ATOM     76  C   UNL A   1      40.908  25.561  26.084  1.00  0.00     0.001 A 
ATOM     77  C   UNL A   1      43.068  26.578  25.957  1.00  0.00     0.001 A 
ATOM     78  C   UNL A   1      42.154  25.652  25.479  1.00  0.00     0.000 A 
ENDBRANCH  59  73
BRANCH  60  79
ATOM     79  C   UNL A   1      39.923  33.308  35.143  1.00  0.00    -0.014 A 
ATOM     80  C   UNL A   1      38.640  32.821  34.822  1.00  0.00     0.009 A 
ATOM     81  C   UNL A   1      40.060  34.141  36.263  1.00  0.00     0.009 A 
ATOM     82  C   UNL A   1      37.549  33.065  35.662  1.00  0.00     0.001 A 
ATOM     83  C   UNL A   1      38.962  34.390  37.097  1.00  0.00     0.001 A 
ATOM     84  C   UNL A   1      37.718  33.824  36.816  1.00  0.00     0.000 A 
ENDBRANCH  60  79
BRANCH  72  85
ATOM     85  C   UNL A   1      42.544  26.602  34.372  1.00  0.00    -0.014 A 
ATOM     86  C   UNL A   1      41.565  25.946  35.129  1.00  0.00     0.009 A 
ATOM     87  C   UNL A   1      43.673  25.839  33.996  1.00  0.00     0.009 A 
ATOM     88  C   UNL A   1      41.724  24.609  35.524  1.00  0.00     0.001 A 
ATOM     89  C   UNL A   1      43.814  24.495  34.348  1.00  0.00     0.001 A 
ATOM     90  C   UNL A   1      42.842  23.881  35.124  1.00  0.00     0.000 A 
ENDBRANCH  72  85
ENDBRANCH  46  47
ENDBRANCH  38  41
ENDBRANCH  36  37
ENDBRANCH  35  36
ENDBRANCH  34  35
ENDBRANCH   1  34
TORSDOF 16
ENDMDL
MODEL 2
REMARK VINA RESULT:     -13.3      3.224      5.631
REMARK SMILES Cc1c(C(=O)NCCCCCCNC(=O)c2ccc(-c3c4nc(c(-c5ccccc5)c5ccc([nH]5)c(-c5ccccc5)c5nc(c(-c6ccccc6)c6ccc3[nH]6)C=C5)C=C4)cc2)cccc1-n1c(C)cc(/C=C2/C(=O)NC(=S)N=C2O)c1C
REMARK SMILES IDX 9 1 8 2 7 3 6 4 4 5 5 6 3 8 1 9 2 10 67 11 64 12 66 13 65 14
REMARK SMILES IDX 68 15 69 16 83 17 70 18 71 19 72 20 84 21 73 22 74 23 75 24
REMARK SMILES IDX 81 25 76 26 77 27 80 28 78 29 79 31 82 32 10 34 11 35 12 36
REMARK SMILES IDX 13 37 14 38 15 40 16 41 17 42 63 43 18 44 62 45 19 46 20 47
REMARK SMILES IDX 21 48 56 49 22 50 61 51 55 52 57 53 23 54 60 55 54 56 53 57
REMARK SMILES IDX 24 59 46 60 31 61 45 62 32 63 35 64 44 65 58 66 33 67 34 68
REMARK SMILES IDX 43 70 59 71 36 72 25 73 26 74 30 75 27 76 29 77 28 78 47 79
REMARK SMILES IDX 48 80 52 81 49 82 51 83 50 84 37 85 38 86 42 87 39 88 41 89
REMARK SMILES IDX 40 90
REMARK H PARENT 6 7 77 30 82 33 13 39 57 58 35 69
REMARK Flexibility Score: inf
ROOT
ATOM      1  C   UNL A   1      32.348  29.145  27.202  1.00  0.00     0.002 C 
ENDROOT
BRANCH   1   2
ATOM      2  C   UNL A   1      31.259  29.002  26.133  1.00  0.00     0.021 C 
BRANCH   2   3
ATOM      3  C   UNL A   1      31.187  30.145  25.101  1.00  0.00     0.116 C 
BRANCH   3   4
ATOM      4  N   UNL A   1      30.623  29.660  23.857  1.00  0.00    -0.352 N 
ATOM      5  C   UNL A   1      30.818  28.597  23.023  1.00  0.00     0.251 C 
ATOM      6  O   UNL A   1      30.057  28.562  22.048  1.00  0.00    -0.269 OA
ATOM      7  H   UNL A   1      29.910  30.254  23.527  1.00  0.00     0.163 HD
BRANCH   5   8
ATOM      8  C   UNL A   1      31.790  27.465  23.181  1.00  0.00     0.044 A 
ATOM      9  C   UNL A   1      30.145  25.514  23.435  1.00  0.00     0.047 C 
ATOM     10  C   UNL A   1      31.526  26.095  23.399  1.00  0.00    -0.014 A 
ATOM     11  C   UNL A   1      32.635  25.240  23.645  1.00  0.00     0.049 A 
ATOM     12  C   UNL A   1      33.133  27.913  23.287  1.00  0.00     0.014 A 
ATOM     13  C   UNL A   1      33.950  25.707  23.749  1.00  0.00     0.027 A 
ATOM     14  C   UNL A   1      34.197  27.057  23.579  1.00  0.00     0.003 A 
BRANCH  11  15
ATOM     15  N   UNL A   1      32.443  23.867  23.929  1.00  0.00    -0.318 N 
ATOM     16  C   UNL A   1      32.099  23.348  25.162  1.00  0.00     0.020 A 
ATOM     17  C   UNL A   1      32.647  22.828  23.024  1.00  0.00     0.027 A 
ATOM     18  C   UNL A   1      31.958  24.175  26.392  1.00  0.00     0.065 C 
ATOM     19  C   UNL A   1      31.952  21.986  25.004  1.00  0.00     0.031 A 
ATOM     20  C   UNL A   1      32.277  21.653  23.660  1.00  0.00    -0.003 A 
ATOM     21  C   UNL A   1      33.214  23.098  21.667  1.00  0.00     0.065 C 
BRANCH  20  22
ATOM     22  C   UNL A   1      32.361  20.303  23.198  1.00  0.00     0.029 C 
ATOM     23  C   UNL A   1      32.729  19.156  23.797  1.00  0.00     0.102 C 
ATOM     24  C   UNL A   1      32.501  17.914  23.013  1.00  0.00     0.262 C 
ATOM     25  C   UNL A   1      33.244  18.907  25.144  1.00  0.00     0.226 C 
ATOM     26  O   UNL A   1      32.296  17.885  21.805  1.00  0.00    -0.269 OA
ATOM     27  N   UNL A   1      32.488  16.775  23.772  1.00  0.00    -0.297 N 
ATOM     28  N   UNL A   1      33.255  17.786  25.766  1.00  0.00    -0.184 NA
ATOM     29  C   UNL A   1      32.769  16.684  25.113  1.00  0.00     0.203 C 
ATOM     30  H   UNL A   1      32.254  15.938  23.311  1.00  0.00     0.172 HD
ATOM     31  S   UNL A   1      32.551  15.196  25.853  1.00  0.00    -0.038 S 
BRANCH  25  32
ATOM     32  O   UNL A   1      33.826  19.939  25.759  1.00  0.00    -0.493 OA
ATOM     33  H   UNL A   1      33.312  20.522  26.282  1.00  0.00     0.295 HD
ENDBRANCH  25  32
ENDBRANCH  20  22
ENDBRANCH  11  15
ENDBRANCH   5   8
ENDBRANCH   3   4
ENDBRANCH   2   3
ENDBRANCH   1   2
BRANCH   1  34
ATOM     34  C   UNL A   1      33.784  28.855  26.747  1.00  0.00     0.002 C 
BRANCH  34  35
ATOM     35  C   UNL A   1      34.786  29.990  26.963  1.00  0.00     0.021 C 
BRANCH  35  36
ATOM     36  C   UNL A   1      34.604  30.724  28.285  1.00  0.00     0.116 C 
BRANCH  36  37
ATOM     37  N   UNL A   1      35.679  31.669  28.565  1.00  0.00    -0.352 N 
ATOM     38  C   UNL A   1      37.033  31.448  28.776  1.00  0.00     0.251 C 
ATOM     39  H   UNL A   1      35.402  32.612  28.610  1.00  0.00     0.163 HD
ATOM     40  O   UNL A   1      37.776  32.372  29.020  1.00  0.00    -0.269 OA
BRANCH  38  41
ATOM     41  C   UNL A   1      37.578  30.087  28.544  1.00  0.00     0.039 A 
ATOM     42  C   UNL A   1      37.648  29.237  29.653  1.00  0.00     0.014 A 
ATOM     43  C   UNL A   1      38.234  29.765  27.360  1.00  0.00     0.014 A 
ATOM     44  C   UNL A   1      38.602  28.227  29.671  1.00  0.00     0.010 A 
ATOM     45  C   UNL A   1      39.243  28.826  27.407  1.00  0.00     0.010 A 
ATOM     46  C   UNL A   1      39.479  28.125  28.593  1.00  0.00    -0.014 A 
BRANCH  46  47
ATOM     47  C   UNL A   1      40.757  27.434  28.683  1.00  0.00     0.031 A 
ATOM     48  C   UNL A   1      40.838  25.982  28.458  1.00  0.00     0.074 A 
ATOM     49  C   UNL A   1      41.876  28.144  28.942  1.00  0.00     0.049 A 
ATOM     50  N   UNL A   1      41.782  25.228  28.912  1.00  0.00    -0.248 NA
ATOM     51  C   UNL A   1      39.796  25.245  27.754  1.00  0.00     0.031 C 
ATOM     52  C   UNL A   1      43.263  27.709  28.808  1.00  0.00     0.029 A 
ATOM     53  N   UNL A   1      41.980  29.366  29.583  1.00  0.00    -0.354 N 
ATOM     54  C   UNL A   1      41.651  24.002  28.304  1.00  0.00     0.074 A 
ATOM     55  C   UNL A   1      40.339  24.025  27.700  1.00  0.00     0.031 C 
ATOM     56  C   UNL A   1      44.046  28.518  29.541  1.00  0.00     0.029 A 
ATOM     57  C   UNL A   1      43.175  29.402  30.300  1.00  0.00     0.049 A 
ATOM     58  H   UNL A   1      41.317  30.092  29.539  1.00  0.00     0.167 HD
ATOM     59  C   UNL A   1      42.732  23.174  28.240  1.00  0.00     0.031 A 
ATOM     60  C   UNL A   1      43.178  29.499  31.664  1.00  0.00     0.031 A 
ATOM     61  C   UNL A   1      43.852  23.684  29.036  1.00  0.00     0.049 A 
ATOM     62  C   UNL A   1      43.767  28.287  32.361  1.00  0.00     0.074 A 
ATOM     63  C   UNL A   1      45.030  24.335  28.706  1.00  0.00     0.029 A 
ATOM     64  N   UNL A   1      43.701  23.822  30.412  1.00  0.00    -0.354 N 
ATOM     65  N   UNL A   1      43.952  27.131  31.784  1.00  0.00    -0.248 NA
ATOM     66  C   UNL A   1      44.157  28.270  33.769  1.00  0.00     0.031 C 
ATOM     67  C   UNL A   1      45.541  24.941  29.886  1.00  0.00     0.029 A 
ATOM     68  C   UNL A   1      44.693  24.629  30.934  1.00  0.00     0.049 A 
ATOM     69  H   UNL A   1      42.985  23.401  30.942  1.00  0.00     0.167 HD
ATOM     70  C   UNL A   1      44.456  26.237  32.692  1.00  0.00     0.074 A 
ATOM     71  C   UNL A   1      44.579  27.002  33.919  1.00  0.00     0.031 C 
ATOM     72  C   UNL A   1      44.716  24.939  32.358  1.00  0.00     0.031 A 
BRANCH  59  73
ATOM     73  C   UNL A   1      42.876  22.076  27.206  1.00  0.00    -0.014 A 
ATOM     74  C   UNL A   1      42.079  20.919  27.308  1.00  0.00     0.009 A 
ATOM     75  C   UNL A   1      43.823  22.067  26.168  1.00  0.00     0.009 A 
ATOM     76  C   UNL A   1      42.285  19.794  26.495  1.00  0.00     0.001 A 
ATOM     77  C   UNL A   1      44.056  20.939  25.367  1.00  0.00     0.001 A 
ATOM     78  C   UNL A   1      43.294  19.794  25.541  1.00  0.00     0.000 A 
ENDBRANCH  59  73
BRANCH  60  79
ATOM     79  C   UNL A   1      42.065  30.325  32.211  1.00  0.00    -0.014 A 
ATOM     80  C   UNL A   1      40.961  29.661  32.782  1.00  0.00     0.009 A 
ATOM     81  C   UNL A   1      42.247  31.686  32.496  1.00  0.00     0.009 A 
ATOM     82  C   UNL A   1      40.132  30.309  33.702  1.00  0.00     0.001 A 
ATOM     83  C   UNL A   1      41.408  32.333  33.412  1.00  0.00     0.001 A 
ATOM     84  C   UNL A   1      40.375  31.637  34.040  1.00  0.00     0.000 A 
ENDBRANCH  60  79
BRANCH  72  85
ATOM     85  C   UNL A   1      45.071  23.831  33.319  1.00  0.00    -0.014 A 
ATOM     86  C   UNL A   1      46.330  23.672  33.911  1.00  0.00     0.009 A 
ATOM     87  C   UNL A   1      44.045  22.970  33.772  1.00  0.00     0.009 A 
ATOM     88  C   UNL A   1      46.563  22.679  34.874  1.00  0.00     0.001 A 
ATOM     89  C   UNL A   1      44.259  22.011  34.763  1.00  0.00     0.001 A 
ATOM     90  C   UNL A   1      45.526  21.857  35.308  1.00  0.00     0.000 A 
ENDBRANCH  72  85
ENDBRANCH  46  47
ENDBRANCH  38  41
ENDBRANCH  36  37
ENDBRANCH  35  36
ENDBRANCH  34  35
ENDBRANCH   1  34
TORSDOF 16
ENDMDL
MODEL 3
REMARK VINA RESULT:     -13.2      3.048      4.268
REMARK SMILES Cc1c(C(=O)NCCCCCCNC(=O)c2ccc(-c3c4nc(c(-c5ccccc5)c5ccc([nH]5)c(-c5ccccc5)c5nc(c(-c6ccccc6)c6ccc3[nH]6)C=C5)C=C4)cc2)cccc1-n1c(C)cc(/C=C2/C(=O)NC(=S)N=C2O)c1C
REMARK SMILES IDX 9 1 8 2 7 3 6 4 4 5 5 6 3 8 1 9 2 10 67 11 64 12 66 13 65 14
REMARK SMILES IDX 68 15 69 16 83 17 70 18 71 19 72 20 84 21 73 22 74 23 75 24
REMARK SMILES IDX 81 25 76 26 77 27 80 28 78 29 79 31 82 32 10 34 11 35 12 36
REMARK SMILES IDX 13 37 14 38 15 40 16 41 17 42 63 43 18 44 62 45 19 46 20 47
REMARK SMILES IDX 21 48 56 49 22 50 61 51 55 52 57 53 23 54 60 55 54 56 53 57
REMARK SMILES IDX 24 59 46 60 31 61 45 62 32 63 35 64 44 65 58 66 33 67 34 68
REMARK SMILES IDX 43 70 59 71 36 72 25 73 26 74 30 75 27 76 29 77 28 78 47 79
REMARK SMILES IDX 48 80 52 81 49 82 51 83 50 84 37 85 38 86 42 87 39 88 41 89
REMARK SMILES IDX 40 90
REMARK H PARENT 6 7 77 30 82 33 13 39 57 58 35 69
REMARK Flexibility Score: inf
ROOT
ATOM      1  C   UNL A   1      32.810  28.102  26.452  1.00  0.00     0.002 C 
ENDROOT
BRANCH   1   2
ATOM      2  C   UNL A   1      31.454  28.780  26.227  1.00  0.00     0.021 C 
BRANCH   2   3
ATOM      3  C   UNL A   1      31.461  29.970  25.247  1.00  0.00     0.116 C 
BRANCH   3   4
ATOM      4  N   UNL A   1      30.723  29.633  24.046  1.00  0.00    -0.352 N 
ATOM      5  C   UNL A   1      30.781  28.672  23.079  1.00  0.00     0.251 C 
ATOM      6  O   UNL A   1      29.895  28.752  22.220  1.00  0.00    -0.269 OA
ATOM      7  H   UNL A   1      29.984  30.264  23.886  1.00  0.00     0.163 HD
BRANCH   5   8
ATOM      8  C   UNL A   1      31.744  27.525  22.972  1.00  0.00     0.044 A 
ATOM      9  C   UNL A   1      30.231  25.614  23.771  1.00  0.00     0.047 C 
ATOM     10  C   UNL A   1      31.543  26.167  23.303  1.00  0.00    -0.014 A 
ATOM     11  C   UNL A   1      32.665  25.297  23.231  1.00  0.00     0.049 A 
ATOM     12  C   UNL A   1      33.062  27.950  22.655  1.00  0.00     0.014 A 
ATOM     13  C   UNL A   1      33.956  25.741  22.920  1.00  0.00     0.027 A 
ATOM     14  C   UNL A   1      34.154  27.081  22.640  1.00  0.00     0.003 A 
BRANCH  11  15
ATOM     15  N   UNL A   1      32.554  23.937  23.602  1.00  0.00    -0.318 N 
ATOM     16  C   UNL A   1      32.443  23.471  24.897  1.00  0.00     0.020 A 
ATOM     17  C   UNL A   1      32.614  22.860  22.721  1.00  0.00     0.027 A 
ATOM     18  C   UNL A   1      32.507  24.350  26.097  1.00  0.00     0.065 C 
ATOM     19  C   UNL A   1      32.297  22.101  24.826  1.00  0.00     0.031 A 
ATOM     20  C   UNL A   1      32.386  21.711  23.462  1.00  0.00    -0.003 A 
ATOM     21  C   UNL A   1      32.926  23.075  21.274  1.00  0.00     0.065 C 
BRANCH  20  22
ATOM     22  C   UNL A   1      32.412  20.343  23.050  1.00  0.00     0.029 C 
ATOM     23  C   UNL A   1      32.760  19.208  23.682  1.00  0.00     0.102 C 
ATOM     24  C   UNL A   1      32.469  17.945  22.953  1.00  0.00     0.262 C 
ATOM     25  C   UNL A   1      33.306  18.992  25.023  1.00  0.00     0.226 C 
ATOM     26  O   UNL A   1      32.228  17.878  21.754  1.00  0.00    -0.269 OA
ATOM     27  N   UNL A   1      32.441  16.837  23.756  1.00  0.00    -0.297 N 
ATOM     28  N   UNL A   1      33.299  17.896  25.687  1.00  0.00    -0.184 NA
ATOM     29  C   UNL A   1      32.758  16.787  25.091  1.00  0.00     0.203 C 
ATOM     30  H   UNL A   1      32.167  15.991  23.334  1.00  0.00     0.172 HD
ATOM     31  S   UNL A   1      32.514  15.335  25.893  1.00  0.00    -0.038 S 
BRANCH  25  32
ATOM     32  O   UNL A   1      33.938  20.027  25.581  1.00  0.00    -0.493 OA
ATOM     33  H   UNL A   1      34.236  20.736  25.047  1.00  0.00     0.295 HD
ENDBRANCH  25  32
ENDBRANCH  20  22
ENDBRANCH  11  15
ENDBRANCH   5   8
ENDBRANCH   3   4
ENDBRANCH   2   3
ENDBRANCH   1   2
BRANCH   1  34
ATOM     34  C   UNL A   1      34.036  28.841  25.898  1.00  0.00     0.002 C 
BRANCH  34  35
ATOM     35  C   UNL A   1      35.027  29.350  26.945  1.00  0.00     0.021 C 
BRANCH  35  36
ATOM     36  C   UNL A   1      34.362  29.965  28.170  1.00  0.00     0.116 C 
BRANCH  36  37
ATOM     37  N   UNL A   1      33.723  31.245  27.888  1.00  0.00    -0.352 N 
ATOM     38  C   UNL A   1      34.039  32.521  28.333  1.00  0.00     0.251 C 
ATOM     39  H   UNL A   1      32.945  31.198  27.286  1.00  0.00     0.163 HD
ATOM     40  O   UNL A   1      33.367  33.472  28.002  1.00  0.00    -0.269 OA
BRANCH  38  41
ATOM     41  C   UNL A   1      35.301  32.719  29.088  1.00  0.00     0.039 A 
ATOM     42  C   UNL A   1      36.347  33.359  28.413  1.00  0.00     0.014 A 
ATOM     43  C   UNL A   1      35.530  32.068  30.296  1.00  0.00     0.014 A 
ATOM     44  C   UNL A   1      37.657  33.098  28.796  1.00  0.00     0.010 A 
ATOM     45  C   UNL A   1      36.826  31.732  30.623  1.00  0.00     0.010 A 
ATOM     46  C   UNL A   1      37.878  32.176  29.817  1.00  0.00    -0.014 A 
BRANCH  46  47
ATOM     47  C   UNL A   1      39.154  31.501  30.002  1.00  0.00     0.031 A 
ATOM     48  C   UNL A   1      39.403  30.191  29.380  1.00  0.00     0.074 A 
ATOM     49  C   UNL A   1      40.124  32.105  30.723  1.00  0.00     0.049 A 
ATOM     50  N   UNL A   1      40.277  29.341  29.802  1.00  0.00    -0.248 NA
ATOM     51  C   UNL A   1      38.612  29.699  28.259  1.00  0.00     0.031 C 
ATOM     52  C   UNL A   1      41.535  31.743  30.804  1.00  0.00     0.029 A 
ATOM     53  N   UNL A   1      39.979  33.070  31.705  1.00  0.00    -0.354 N 
ATOM     54  C   UNL A   1      40.388  28.362  28.843  1.00  0.00     0.074 A 
ATOM     55  C   UNL A   1      39.251  28.561  27.976  1.00  0.00     0.031 C 
ATOM     56  C   UNL A   1      42.063  32.292  31.912  1.00  0.00     0.029 A 
ATOM     57  C   UNL A   1      40.973  32.891  32.666  1.00  0.00     0.049 A 
ATOM     58  H   UNL A   1      39.286  33.769  31.721  1.00  0.00     0.167 HD
ATOM     59  C   UNL A   1      41.520  27.603  28.797  1.00  0.00     0.031 A 
ATOM     60  C   UNL A   1      40.658  32.561  33.955  1.00  0.00     0.031 A 
ATOM     61  C   UNL A   1      42.384  27.850  29.955  1.00  0.00     0.049 A 
ATOM     62  C   UNL A   1      41.171  31.197  34.379  1.00  0.00     0.074 A 
ATOM     63  C   UNL A   1      43.550  28.580  30.129  1.00  0.00     0.029 A 
ATOM     64  N   UNL A   1      41.914  27.554  31.229  1.00  0.00    -0.354 N 
ATOM     65  N   UNL A   1      41.576  30.278  33.546  1.00  0.00    -0.248 NA
ATOM     66  C   UNL A   1      41.231  30.748  35.768  1.00  0.00     0.031 C 
ATOM     67  C   UNL A   1      43.727  28.795  31.522  1.00  0.00     0.029 A 
ATOM     68  C   UNL A   1      42.693  28.168  32.192  1.00  0.00     0.049 A 
ATOM     69  H   UNL A   1      41.133  26.984  31.421  1.00  0.00     0.167 HD
ATOM     70  C   UNL A   1      41.932  29.150  34.239  1.00  0.00     0.074 A 
ATOM     71  C   UNL A   1      41.711  29.499  35.630  1.00  0.00     0.031 C 
ATOM     72  C   UNL A   1      42.366  28.022  33.605  1.00  0.00     0.031 A 
BRANCH  59  73
ATOM     73  C   UNL A   1      41.984  26.879  27.549  1.00  0.00    -0.014 A 
ATOM     74  C   UNL A   1      42.321  25.514  27.624  1.00  0.00     0.009 A 
ATOM     75  C   UNL A   1      42.197  27.486  26.300  1.00  0.00     0.009 A 
ATOM     76  C   UNL A   1      42.923  24.833  26.555  1.00  0.00     0.001 A 
ATOM     77  C   UNL A   1      42.823  26.823  25.234  1.00  0.00     0.001 A 
ATOM     78  C   UNL A   1      43.200  25.496  25.368  1.00  0.00     0.000 A 
ENDBRANCH  59  73
BRANCH  60  79
ATOM     79  C   UNL A   1      39.387  33.168  34.438  1.00  0.00    -0.014 A 
ATOM     80  C   UNL A   1      38.172  32.618  33.986  1.00  0.00     0.009 A 
ATOM     81  C   UNL A   1      39.365  33.996  35.570  1.00  0.00     0.009 A 
ATOM     82  C   UNL A   1      36.989  32.796  34.711  1.00  0.00     0.001 A 
ATOM     83  C   UNL A   1      38.176  34.179  36.288  1.00  0.00     0.001 A 
ATOM     84  C   UNL A   1      36.999  33.551  35.879  1.00  0.00     0.000 A 
ENDBRANCH  60  79
BRANCH  72  85
ATOM     85  C   UNL A   1      42.582  26.673  34.248  1.00  0.00    -0.014 A 
ATOM     86  C   UNL A   1      41.650  26.033  35.074  1.00  0.00     0.009 A 
ATOM     87  C   UNL A   1      43.733  25.931  33.896  1.00  0.00     0.009 A 
ATOM     88  C   UNL A   1      41.875  24.735  35.556  1.00  0.00     0.001 A 
ATOM     89  C   UNL A   1      43.940  24.623  34.336  1.00  0.00     0.001 A 
ATOM     90  C   UNL A   1      43.013  24.027  35.179  1.00  0.00     0.000 A 
ENDBRANCH  72  85
ENDBRANCH  46  47
ENDBRANCH  38  41
ENDBRANCH  36  37
ENDBRANCH  35  36
ENDBRANCH  34  35
ENDBRANCH   1  34
TORSDOF 16
ENDMDL
