MODEL 1
REMARK VINA RESULT:     -11.9      0.000      0.000
REMARK SMILES CC(C)(O)C#Cc1ccc(C(=O)N[C@@H](CC2=c3ccccc3=NC2)C(=O)NCCCCCCNC(=O)c2ccc(-c3c4nc(c(-c5ccccc5)c5ccc([nH]5)c(-c5ccccc5)c5nc(c(-c6ccccc6)c6ccc3[nH]6)C=C5)C=C4)cc2)s1
REMARK SMILES IDX 29 1 28 2 27 3 25 4 26 5 14 7 13 8 11 9 12 10 10 12 7 13
REMARK SMILES IDX 8 14 85 15 9 16 6 17 5 18 2 19 1 20 3 21 4 22 15 24 16 25
REMARK SMILES IDX 17 26 24 27 18 28 22 29 23 30 19 31 21 32 20 33 30 34 31 35
REMARK SMILES IDX 32 36 33 37 34 38 35 39 36 41 37 42 38 43 84 44 39 45 83 46
REMARK SMILES IDX 40 47 41 48 42 49 77 50 43 51 82 52 76 53 78 54 44 55 81 56
REMARK SMILES IDX 75 57 74 58 45 60 67 61 52 62 66 63 53 64 56 65 65 66 79 67
REMARK SMILES IDX 54 68 55 69 64 71 80 72 57 73 46 74 47 75 51 76 48 77 50 78
REMARK SMILES IDX 49 79 68 80 69 81 73 82 70 83 72 84 71 85 58 86 59 87 63 88
REMARK SMILES IDX 60 89 62 90 61 91
REMARK H PARENT 27 6 13 11 4 23 34 40 78 59 56 70
REMARK Flexibility Score: inf
ROOT
ATOM      1  C   UNL A   1      34.310  32.045  28.343  1.00  0.00     0.021 C 
ENDROOT
BRANCH   1   2
ATOM      2  C   UNL A   1      34.334  30.804  27.455  1.00  0.00     0.116 C 
BRANCH   2   3
ATOM      3  N   UNL A   1      33.158  29.982  27.627  1.00  0.00    -0.354 N 
ATOM      4  C   UNL A   1      32.347  29.303  26.784  1.00  0.00     0.242 C 
ATOM      5  O   UNL A   1      31.792  28.337  27.325  1.00  0.00    -0.273 OA
ATOM      6  H   UNL A   1      32.886  29.896  28.570  1.00  0.00     0.163 HD
BRANCH   4   7
ATOM      7  C   UNL A   1      32.029  29.652  25.291  1.00  0.00     0.175 C 
BRANCH   7   8
ATOM      8  N   UNL A   1      33.134  29.553  24.324  1.00  0.00    -0.339 N 
ATOM      9  C   UNL A   1      33.634  28.608  23.468  1.00  0.00     0.262 C 
ATOM     10  O   UNL A   1      34.602  28.965  22.788  1.00  0.00    -0.268 OA
ATOM     11  H   UNL A   1      33.652  30.390  24.281  1.00  0.00     0.164 HD
BRANCH   9  12
ATOM     12  C   UNL A   1      33.226  27.235  23.552  1.00  0.00     0.093 A 
ATOM     13  C   UNL A   1      33.646  24.915  23.837  1.00  0.00     0.078 A 
ATOM     14  C   UNL A   1      32.842  25.110  22.737  1.00  0.00     0.030 A 
ATOM     15  S   UNL A   1      33.529  26.239  24.888  1.00  0.00    -0.121 S 
ATOM     16  C   UNL A   1      32.547  26.502  22.591  1.00  0.00     0.027 A 
BRANCH  13  17
ATOM     17  C   UNL A   1      34.427  23.786  24.145  1.00  0.00    -0.053 C 
ATOM     18  C   UNL A   1      35.125  22.783  24.601  1.00  0.00    -0.063 C 
BRANCH  18  19
ATOM     19  C   UNL A   1      35.937  21.613  25.132  1.00  0.00     0.120 C 
ATOM     20  C   UNL A   1      37.296  21.568  24.436  1.00  0.00     0.056 C 
ATOM     21  C   UNL A   1      35.165  20.313  24.928  1.00  0.00     0.056 C 
BRANCH  19  22
ATOM     22  O   UNL A   1      36.143  21.818  26.527  1.00  0.00    -0.378 OA
ATOM     23  H   UNL A   1      35.370  22.268  26.905  1.00  0.00     0.212 HD
ENDBRANCH  19  22
ENDBRANCH  18  19
ENDBRANCH  13  17
ENDBRANCH   9  12
ENDBRANCH   7   8
BRANCH   7  24
ATOM     24  C   UNL A   1      30.731  29.026  24.746  1.00  0.00     0.068 C 
BRANCH  24  25
ATOM     25  C   UNL A   1      29.895  29.617  23.629  1.00  0.00    -0.037 C 
ATOM     26  C   UNL A   1      29.416  30.825  23.299  1.00  0.00     0.001 A 
ATOM     27  C   UNL A   1      29.547  28.614  22.549  1.00  0.00     0.174 C 
ATOM     28  C   UNL A   1      29.431  32.167  23.810  1.00  0.00     0.010 A 
ATOM     29  C   UNL A   1      28.776  30.565  21.988  1.00  0.00     0.065 A 
ATOM     30  N   UNL A   1      28.826  29.362  21.508  1.00  0.00    -0.280 NA
ATOM     31  C   UNL A   1      28.808  33.153  23.148  1.00  0.00     0.001 A 
ATOM     32  C   UNL A   1      28.143  31.709  21.298  1.00  0.00     0.028 A 
ATOM     33  C   UNL A   1      28.160  32.918  21.879  1.00  0.00     0.002 A 
ENDBRANCH  24  25
ENDBRANCH   7  24
ENDBRANCH   4   7
ENDBRANCH   2   3
ENDBRANCH   1   2
BRANCH   1  34
ATOM     34  C   UNL A   1      35.268  33.153  27.898  1.00  0.00     0.002 C 
BRANCH  34  35
ATOM     35  C   UNL A   1      34.766  34.589  28.096  1.00  0.00     0.002 C 
BRANCH  35  36
ATOM     36  C   UNL A   1      33.354  34.750  28.669  1.00  0.00     0.021 C 
BRANCH  36  37
ATOM     37  C   UNL A   1      33.135  35.978  29.551  1.00  0.00     0.116 C 
BRANCH  37  38
ATOM     38  N   UNL A   1      32.753  35.680  30.917  1.00  0.00    -0.352 N 
ATOM     39  C   UNL A   1      33.272  34.929  31.935  1.00  0.00     0.251 C 
ATOM     40  H   UNL A   1      31.915  36.128  31.176  1.00  0.00     0.163 HD
ATOM     41  O   UNL A   1      32.673  34.989  33.013  1.00  0.00    -0.269 OA
BRANCH  39  42
ATOM     42  C   UNL A   1      34.464  34.038  31.837  1.00  0.00     0.039 A 
ATOM     43  C   UNL A   1      34.440  32.646  31.829  1.00  0.00     0.014 A 
ATOM     44  C   UNL A   1      35.715  34.679  31.722  1.00  0.00     0.014 A 
ATOM     45  C   UNL A   1      35.629  31.918  31.759  1.00  0.00     0.010 A 
ATOM     46  C   UNL A   1      36.907  33.954  31.626  1.00  0.00     0.010 A 
ATOM     47  C   UNL A   1      36.869  32.565  31.662  1.00  0.00    -0.014 A 
BRANCH  47  48
ATOM     48  C   UNL A   1      38.055  31.720  31.481  1.00  0.00     0.031 A 
ATOM     49  C   UNL A   1      38.821  31.403  32.719  1.00  0.00     0.074 A 
ATOM     50  C   UNL A   1      38.458  31.122  30.340  1.00  0.00     0.049 A 
ATOM     51  N   UNL A   1      40.041  31.725  33.003  1.00  0.00    -0.248 NA
ATOM     52  C   UNL A   1      38.126  30.663  33.783  1.00  0.00     0.031 C 
ATOM     53  C   UNL A   1      37.713  30.981  29.090  1.00  0.00     0.029 A 
ATOM     54  N   UNL A   1      39.618  30.428  30.101  1.00  0.00    -0.354 N 
ATOM     55  C   UNL A   1      40.331  31.101  34.213  1.00  0.00     0.074 A 
ATOM     56  C   UNL A   1      39.092  30.543  34.695  1.00  0.00     0.031 C 
ATOM     57  C   UNL A   1      38.340  30.076  28.304  1.00  0.00     0.029 A 
ATOM     58  C   UNL A   1      39.602  29.700  28.924  1.00  0.00     0.049 A 
ATOM     59  H   UNL A   1      40.391  30.446  30.710  1.00  0.00     0.167 HD
ATOM     60  C   UNL A   1      41.610  30.914  34.635  1.00  0.00     0.031 A 
ATOM     61  C   UNL A   1      40.537  28.831  28.477  1.00  0.00     0.031 A 
ATOM     62  C   UNL A   1      42.557  31.701  33.892  1.00  0.00     0.049 A 
ATOM     63  C   UNL A   1      41.841  29.137  29.100  1.00  0.00     0.074 A 
ATOM     64  C   UNL A   1      42.967  33.013  33.847  1.00  0.00     0.029 A 
ATOM     65  N   UNL A   1      43.078  31.073  32.795  1.00  0.00    -0.354 N 
ATOM     66  N   UNL A   1      42.528  30.213  28.848  1.00  0.00    -0.248 NA
ATOM     67  C   UNL A   1      42.356  28.310  30.186  1.00  0.00     0.031 C 
ATOM     68  C   UNL A   1      43.570  33.196  32.566  1.00  0.00     0.029 A 
ATOM     69  C   UNL A   1      43.501  31.991  31.870  1.00  0.00     0.049 A 
ATOM     70  H   UNL A   1      43.139  30.096  32.685  1.00  0.00     0.167 HD
ATOM     71  C   UNL A   1      43.281  30.414  29.985  1.00  0.00     0.074 A 
ATOM     72  C   UNL A   1      43.295  29.129  30.666  1.00  0.00     0.031 C 
ATOM     73  C   UNL A   1      43.518  31.673  30.455  1.00  0.00     0.031 A 
BRANCH  60  74
ATOM     74  C   UNL A   1      42.080  29.717  35.432  1.00  0.00    -0.014 A 
ATOM     75  C   UNL A   1      41.758  28.390  35.096  1.00  0.00     0.009 A 
ATOM     76  C   UNL A   1      43.119  29.897  36.368  1.00  0.00     0.009 A 
ATOM     77  C   UNL A   1      42.442  27.301  35.649  1.00  0.00     0.001 A 
ATOM     78  C   UNL A   1      43.831  28.811  36.893  1.00  0.00     0.001 A 
ATOM     79  C   UNL A   1      43.494  27.513  36.530  1.00  0.00     0.000 A 
ENDBRANCH  60  74
BRANCH  61  80
ATOM     80  C   UNL A   1      40.362  27.648  27.611  1.00  0.00    -0.014 A 
ATOM     81  C   UNL A   1      39.598  26.554  28.056  1.00  0.00     0.009 A 
ATOM     82  C   UNL A   1      41.156  27.474  26.466  1.00  0.00     0.009 A 
ATOM     83  C   UNL A   1      39.653  25.320  27.403  1.00  0.00     0.001 A 
ATOM     84  C   UNL A   1      41.218  26.235  25.818  1.00  0.00     0.001 A 
ATOM     85  C   UNL A   1      40.478  25.155  26.294  1.00  0.00     0.000 A 
ENDBRANCH  61  80
BRANCH  73  86
ATOM     86  C   UNL A   1      43.506  32.809  29.469  1.00  0.00    -0.014 A 
ATOM     87  C   UNL A   1      44.580  32.924  28.572  1.00  0.00     0.009 A 
ATOM     88  C   UNL A   1      42.510  33.799  29.442  1.00  0.00     0.009 A 
ATOM     89  C   UNL A   1      44.653  33.988  27.671  1.00  0.00     0.001 A 
ATOM     90  C   UNL A   1      42.566  34.846  28.519  1.00  0.00     0.001 A 
ATOM     91  C   UNL A   1      43.641  34.943  27.638  1.00  0.00     0.000 A 
ENDBRANCH  73  86
ENDBRANCH  47  48
ENDBRANCH  39  42
ENDBRANCH  37  38
ENDBRANCH  36  37
ENDBRANCH  35  36
ENDBRANCH  34  35
ENDBRANCH   1  34
TORSDOF 20
ENDMDL
MODEL 2
REMARK VINA RESULT:     -11.5      2.748      4.163
REMARK SMILES CC(C)(O)C#Cc1ccc(C(=O)N[C@@H](CC2=c3ccccc3=NC2)C(=O)NCCCCCCNC(=O)c2ccc(-c3c4nc(c(-c5ccccc5)c5ccc([nH]5)c(-c5ccccc5)c5nc(c(-c6ccccc6)c6ccc3[nH]6)C=C5)C=C4)cc2)s1
REMARK SMILES IDX 29 1 28 2 27 3 25 4 26 5 14 7 13 8 11 9 12 10 10 12 7 13
REMARK SMILES IDX 8 14 85 15 9 16 6 17 5 18 2 19 1 20 3 21 4 22 15 24 16 25
REMARK SMILES IDX 17 26 24 27 18 28 22 29 23 30 19 31 21 32 20 33 30 34 31 35
REMARK SMILES IDX 32 36 33 37 34 38 35 39 36 41 37 42 38 43 84 44 39 45 83 46
REMARK SMILES IDX 40 47 41 48 42 49 77 50 43 51 82 52 76 53 78 54 44 55 81 56
REMARK SMILES IDX 75 57 74 58 45 60 67 61 52 62 66 63 53 64 56 65 65 66 79 67
REMARK SMILES IDX 54 68 55 69 64 71 80 72 57 73 46 74 47 75 51 76 48 77 50 78
REMARK SMILES IDX 49 79 68 80 69 81 73 82 70 83 72 84 71 85 58 86 59 87 63 88
REMARK SMILES IDX 60 89 62 90 61 91
REMARK H PARENT 27 6 13 11 4 23 34 40 78 59 56 70
REMARK Flexibility Score: inf
ROOT
ATOM      1  C   UNL A   1      31.753  28.999  26.810  1.00  0.00     0.021 C 
ENDROOT
BRANCH   1   2
ATOM      2  C   UNL A   1      32.908  28.026  27.031  1.00  0.00     0.116 C 
BRANCH   2   3
ATOM      3  N   UNL A   1      33.726  27.868  25.850  1.00  0.00    -0.354 N 
ATOM      4  C   UNL A   1      33.544  27.281  24.645  1.00  0.00     0.242 C 
ATOM      5  O   UNL A   1      34.240  27.788  23.754  1.00  0.00    -0.273 OA
ATOM      6  H   UNL A   1      34.616  28.280  25.944  1.00  0.00     0.163 HD
BRANCH   4   7
ATOM      7  C   UNL A   1      32.629  26.053  24.319  1.00  0.00     0.175 C 
BRANCH   7   8
ATOM      8  N   UNL A   1      31.990  25.367  25.453  1.00  0.00    -0.339 N 
ATOM      9  C   UNL A   1      32.276  24.305  26.270  1.00  0.00     0.262 C 
ATOM     10  O   UNL A   1      31.442  24.075  27.154  1.00  0.00    -0.268 OA
ATOM     11  H   UNL A   1      31.129  25.783  25.688  1.00  0.00     0.164 HD
BRANCH   9  12
ATOM     12  C   UNL A   1      33.325  23.381  25.953  1.00  0.00     0.093 A 
ATOM     13  C   UNL A   1      34.146  21.237  25.345  1.00  0.00     0.078 A 
ATOM     14  C   UNL A   1      34.868  21.726  26.410  1.00  0.00     0.030 A 
ATOM     15  S   UNL A   1      33.413  22.510  24.503  1.00  0.00    -0.121 S 
ATOM     16  C   UNL A   1      34.409  23.037  26.748  1.00  0.00     0.027 A 
BRANCH  13  17
ATOM     17  C   UNL A   1      34.038  19.901  24.918  1.00  0.00    -0.053 C 
ATOM     18  C   UNL A   1      33.816  18.644  24.650  1.00  0.00    -0.063 C 
BRANCH  18  19
ATOM     19  C   UNL A   1      33.556  17.179  24.337  1.00  0.00     0.120 C 
ATOM     20  C   UNL A   1      34.253  16.298  25.372  1.00  0.00     0.056 C 
ATOM     21  C   UNL A   1      34.034  16.861  22.923  1.00  0.00     0.056 C 
BRANCH  19  22
ATOM     22  O   UNL A   1      32.151  16.955  24.414  1.00  0.00    -0.378 OA
ATOM     23  H   UNL A   1      31.750  17.617  25.002  1.00  0.00     0.212 HD
ENDBRANCH  19  22
ENDBRANCH  18  19
ENDBRANCH  13  17
ENDBRANCH   9  12
ENDBRANCH   7   8
BRANCH   7  24
ATOM     24  C   UNL A   1      31.645  26.275  23.154  1.00  0.00     0.068 C 
BRANCH  24  25
ATOM     25  C   UNL A   1      30.278  26.915  23.294  1.00  0.00    -0.037 C 
ATOM     26  C   UNL A   1      29.707  28.084  22.968  1.00  0.00     0.001 A 
ATOM     27  C   UNL A   1      29.244  25.989  23.899  1.00  0.00     0.174 C 
ATOM     28  C   UNL A   1      30.069  29.322  22.337  1.00  0.00     0.010 A 
ATOM     29  C   UNL A   1      28.296  27.867  23.366  1.00  0.00     0.065 A 
ATOM     30  N   UNL A   1      27.970  26.721  23.875  1.00  0.00    -0.280 NA
ATOM     31  C   UNL A   1      29.160  30.296  22.181  1.00  0.00     0.001 A 
ATOM     32  C   UNL A   1      27.343  28.972  23.127  1.00  0.00     0.028 A 
ATOM     33  C   UNL A   1      27.785  30.114  22.580  1.00  0.00     0.002 A 
ENDBRANCH  24  25
ENDBRANCH   7  24
ENDBRANCH   4   7
ENDBRANCH   2   3
ENDBRANCH   1   2
BRANCH   1  34
ATOM     34  C   UNL A   1      32.175  30.353  26.237  1.00  0.00     0.002 C 
BRANCH  34  35
ATOM     35  C   UNL A   1      32.687  31.380  27.256  1.00  0.00     0.002 C 
BRANCH  35  36
ATOM     36  C   UNL A   1      34.177  31.315  27.607  1.00  0.00     0.021 C 
BRANCH  36  37
ATOM     37  C   UNL A   1      34.824  32.644  27.994  1.00  0.00     0.116 C 
BRANCH  37  38
ATOM     38  N   UNL A   1      34.864  32.903  29.419  1.00  0.00    -0.352 N 
ATOM     39  C   UNL A   1      35.667  32.524  30.459  1.00  0.00     0.251 C 
ATOM     40  H   UNL A   1      34.134  33.498  29.710  1.00  0.00     0.163 HD
ATOM     41  O   UNL A   1      35.411  33.033  31.554  1.00  0.00    -0.269 OA
BRANCH  39  42
ATOM     42  C   UNL A   1      36.786  31.540  30.379  1.00  0.00     0.039 A 
ATOM     43  C   UNL A   1      38.123  31.847  30.146  1.00  0.00     0.014 A 
ATOM     44  C   UNL A   1      36.442  30.187  30.579  1.00  0.00     0.014 A 
ATOM     45  C   UNL A   1      39.079  30.832  30.067  1.00  0.00     0.010 A 
ATOM     46  C   UNL A   1      37.399  29.170  30.526  1.00  0.00     0.010 A 
ATOM     47  C   UNL A   1      38.724  29.489  30.251  1.00  0.00    -0.014 A 
BRANCH  47  48
ATOM     48  C   UNL A   1      39.811  28.502  30.261  1.00  0.00     0.031 A 
ATOM     49  C   UNL A   1      40.497  28.307  31.569  1.00  0.00     0.074 A 
ATOM     50  C   UNL A   1      40.175  27.688  29.249  1.00  0.00     0.049 A 
ATOM     51  N   UNL A   1      41.737  28.536  31.857  1.00  0.00    -0.248 NA
ATOM     52  C   UNL A   1      39.691  27.828  32.701  1.00  0.00     0.031 C 
ATOM     53  C   UNL A   1      39.457  27.430  28.002  1.00  0.00     0.029 A 
ATOM     54  N   UNL A   1      41.255  26.842  29.177  1.00  0.00    -0.354 N 
ATOM     55  C   UNL A   1      41.918  28.086  33.162  1.00  0.00     0.074 A 
ATOM     56  C   UNL A   1      40.609  27.751  33.666  1.00  0.00     0.031 C 
ATOM     57  C   UNL A   1      39.998  26.347  27.398  1.00  0.00     0.029 A 
ATOM     58  C   UNL A   1      41.190  25.941  28.129  1.00  0.00     0.049 A 
ATOM     59  H   UNL A   1      42.006  26.874  29.812  1.00  0.00     0.167 HD
ATOM     60  C   UNL A   1      43.154  27.832  33.669  1.00  0.00     0.031 A 
ATOM     61  C   UNL A   1      42.032  24.914  27.869  1.00  0.00     0.031 A 
ATOM     62  C   UNL A   1      44.206  28.381  32.858  1.00  0.00     0.049 A 
ATOM     63  C   UNL A   1      43.343  25.173  28.497  1.00  0.00     0.074 A 
ATOM     64  C   UNL A   1      44.766  29.616  32.627  1.00  0.00     0.029 A 
ATOM     65  N   UNL A   1      44.684  27.532  31.898  1.00  0.00    -0.354 N 
ATOM     66  N   UNL A   1      44.156  26.114  28.113  1.00  0.00    -0.248 NA
ATOM     67  C   UNL A   1      43.727  24.481  29.722  1.00  0.00     0.031 C 
ATOM     68  C   UNL A   1      45.423  29.525  31.364  1.00  0.00     0.029 A 
ATOM     69  C   UNL A   1      45.238  28.238  30.862  1.00  0.00     0.049 A 
ATOM     70  H   UNL A   1      44.636  26.550  31.946  1.00  0.00     0.167 HD
ATOM     71  C   UNL A   1      44.893  26.412  29.239  1.00  0.00     0.074 A 
ATOM     72  C   UNL A   1      44.739  25.260  30.113  1.00  0.00     0.031 C 
ATOM     73  C   UNL A   1      45.259  27.697  29.517  1.00  0.00     0.031 A 
BRANCH  60  74
ATOM     74  C   UNL A   1      43.459  26.735  34.665  1.00  0.00    -0.014 A 
ATOM     75  C   UNL A   1      43.392  25.365  34.351  1.00  0.00     0.009 A 
ATOM     76  C   UNL A   1      44.122  27.077  35.861  1.00  0.00     0.009 A 
ATOM     77  C   UNL A   1      43.967  24.390  35.175  1.00  0.00     0.001 A 
ATOM     78  C   UNL A   1      44.732  26.107  36.666  1.00  0.00     0.001 A 
ATOM     79  C   UNL A   1      44.657  24.763  36.320  1.00  0.00     0.000 A 
ENDBRANCH  60  74
BRANCH  61  80
ATOM     80  C   UNL A   1      41.747  23.634  27.191  1.00  0.00    -0.014 A 
ATOM     81  C   UNL A   1      40.581  22.913  27.504  1.00  0.00     0.009 A 
ATOM     82  C   UNL A   1      42.740  22.986  26.438  1.00  0.00     0.009 A 
ATOM     83  C   UNL A   1      40.428  21.581  27.113  1.00  0.00     0.001 A 
ATOM     84  C   UNL A   1      42.590  21.648  26.053  1.00  0.00     0.001 A 
ATOM     85  C   UNL A   1      41.440  20.943  26.402  1.00  0.00     0.000 A 
ENDBRANCH  61  80
BRANCH  73  86
ATOM     86  C   UNL A   1      45.407  28.654  28.366  1.00  0.00    -0.014 A 
ATOM     87  C   UNL A   1      46.653  28.735  27.723  1.00  0.00     0.009 A 
ATOM     88  C   UNL A   1      44.384  29.519  27.943  1.00  0.00     0.009 A 
ATOM     89  C   UNL A   1      46.869  29.644  26.685  1.00  0.00     0.001 A 
ATOM     90  C   UNL A   1      44.590  30.406  26.883  1.00  0.00     0.001 A 
ATOM     91  C   UNL A   1      45.833  30.471  26.259  1.00  0.00     0.000 A 
ENDBRANCH  73  86
ENDBRANCH  47  48
ENDBRANCH  39  42
ENDBRANCH  37  38
ENDBRANCH  36  37
ENDBRANCH  35  36
ENDBRANCH  34  35
ENDBRANCH   1  34
TORSDOF 20
ENDMDL
MODEL 3
REMARK VINA RESULT:     -11.3      2.077      3.034
REMARK SMILES CC(C)(O)C#Cc1ccc(C(=O)N[C@@H](CC2=c3ccccc3=NC2)C(=O)NCCCCCCNC(=O)c2ccc(-c3c4nc(c(-c5ccccc5)c5ccc([nH]5)c(-c5ccccc5)c5nc(c(-c6ccccc6)c6ccc3[nH]6)C=C5)C=C4)cc2)s1
REMARK SMILES IDX 29 1 28 2 27 3 25 4 26 5 14 7 13 8 11 9 12 10 10 12 7 13
REMARK SMILES IDX 8 14 85 15 9 16 6 17 5 18 2 19 1 20 3 21 4 22 15 24 16 25
REMARK SMILES IDX 17 26 24 27 18 28 22 29 23 30 19 31 21 32 20 33 30 34 31 35
REMARK SMILES IDX 32 36 33 37 34 38 35 39 36 41 37 42 38 43 84 44 39 45 83 46
REMARK SMILES IDX 40 47 41 48 42 49 77 50 43 51 82 52 76 53 78 54 44 55 81 56
REMARK SMILES IDX 75 57 74 58 45 60 67 61 52 62 66 63 53 64 56 65 65 66 79 67
REMARK SMILES IDX 54 68 55 69 64 71 80 72 57 73 46 74 47 75 51 76 48 77 50 78
REMARK SMILES IDX 49 79 68 80 69 81 73 82 70 83 72 84 71 85 58 86 59 87 63 88
REMARK SMILES IDX 60 89 62 90 61 91
REMARK H PARENT 27 6 13 11 4 23 34 40 78 59 56 70
REMARK Flexibility Score: inf
ROOT
ATOM      1  C   UNL A   1      34.897  30.583  27.572  1.00  0.00     0.021 C 
ENDROOT
BRANCH   1   2
ATOM      2  C   UNL A   1      34.659  29.077  27.513  1.00  0.00     0.116 C 
BRANCH   2   3
ATOM      3  N   UNL A   1      33.274  28.731  27.740  1.00  0.00    -0.354 N 
ATOM      4  C   UNL A   1      32.206  28.527  26.934  1.00  0.00     0.242 C 
ATOM      5  O   UNL A   1      31.365  27.768  27.435  1.00  0.00    -0.273 OA
ATOM      6  H   UNL A   1      33.059  28.618  28.694  1.00  0.00     0.163 HD
BRANCH   4   7
ATOM      7  C   UNL A   1      31.938  29.179  25.535  1.00  0.00     0.175 C 
BRANCH   7   8
ATOM      8  N   UNL A   1      33.074  29.274  24.606  1.00  0.00    -0.339 N 
ATOM      9  C   UNL A   1      33.668  28.475  23.666  1.00  0.00     0.262 C 
ATOM     10  O   UNL A   1      34.626  28.978  23.068  1.00  0.00    -0.268 OA
ATOM     11  H   UNL A   1      33.529  30.145  24.680  1.00  0.00     0.164 HD
BRANCH   9  12
ATOM     12  C   UNL A   1      33.363  27.076  23.575  1.00  0.00     0.093 A 
ATOM     13  C   UNL A   1      33.890  24.773  23.822  1.00  0.00     0.078 A 
ATOM     14  C   UNL A   1      33.349  24.995  22.576  1.00  0.00     0.030 A 
ATOM     15  S   UNL A   1      33.428  26.007  24.887  1.00  0.00    -0.121 S 
ATOM     16  C   UNL A   1      32.985  26.372  22.441  1.00  0.00     0.027 A 
BRANCH  13  17
ATOM     17  C   UNL A   1      34.666  23.678  24.242  1.00  0.00    -0.053 C 
ATOM     18  C   UNL A   1      35.233  22.592  24.689  1.00  0.00    -0.063 C 
BRANCH  18  19
ATOM     19  C   UNL A   1      35.893  21.325  25.208  1.00  0.00     0.120 C 
ATOM     20  C   UNL A   1      37.315  21.220  24.660  1.00  0.00     0.056 C 
ATOM     21  C   UNL A   1      35.056  20.110  24.819  1.00  0.00     0.056 C 
BRANCH  19  22
ATOM     22  O   UNL A   1      35.954  21.411  26.629  1.00  0.00    -0.378 OA
ATOM     23  H   UNL A   1      35.410  20.708  27.019  1.00  0.00     0.212 HD
ENDBRANCH  19  22
ENDBRANCH  18  19
ENDBRANCH  13  17
ENDBRANCH   9  12
ENDBRANCH   7   8
BRANCH   7  24
ATOM     24  C   UNL A   1      30.659  28.687  24.831  1.00  0.00     0.068 C 
BRANCH  24  25
ATOM     25  C   UNL A   1      30.010  29.375  23.647  1.00  0.00    -0.037 C 
ATOM     26  C   UNL A   1      29.499  30.586  23.379  1.00  0.00     0.001 A 
ATOM     27  C   UNL A   1      29.975  28.515  22.402  1.00  0.00     0.174 C 
ATOM     28  C   UNL A   1      29.291  31.841  24.046  1.00  0.00     0.010 A 
ATOM     29  C   UNL A   1      29.158  30.473  21.941  1.00  0.00     0.065 A 
ATOM     30  N   UNL A   1      29.410  29.356  21.336  1.00  0.00    -0.280 NA
ATOM     31  C   UNL A   1      28.726  32.869  23.397  1.00  0.00     0.001 A 
ATOM     32  C   UNL A   1      28.573  31.661  21.284  1.00  0.00     0.028 A 
ATOM     33  C   UNL A   1      28.366  32.774  22.002  1.00  0.00     0.002 A 
ENDBRANCH  24  25
ENDBRANCH   7  24
ENDBRANCH   4   7
ENDBRANCH   2   3
ENDBRANCH   1   2
BRANCH   1  34
ATOM     34  C   UNL A   1      36.343  30.976  27.886  1.00  0.00     0.002 C 
BRANCH  34  35
ATOM     35  C   UNL A   1      36.595  32.474  28.105  1.00  0.00     0.002 C 
BRANCH  35  36
ATOM     36  C   UNL A   1      35.393  33.315  28.547  1.00  0.00     0.021 C 
BRANCH  36  37
ATOM     37  C   UNL A   1      35.616  34.196  29.775  1.00  0.00     0.116 C 
BRANCH  37  38
ATOM     38  N   UNL A   1      35.164  33.616  31.024  1.00  0.00    -0.352 N 
ATOM     39  C   UNL A   1      35.594  32.612  31.847  1.00  0.00     0.251 C 
ATOM     40  H   UNL A   1      34.348  34.051  31.362  1.00  0.00     0.163 HD
ATOM     41  O   UNL A   1      34.960  32.463  32.896  1.00  0.00    -0.269 OA
BRANCH  39  42
ATOM     42  C   UNL A   1      36.728  31.684  31.567  1.00  0.00     0.039 A 
ATOM     43  C   UNL A   1      38.068  32.046  31.459  1.00  0.00     0.014 A 
ATOM     44  C   UNL A   1      36.396  30.321  31.422  1.00  0.00     0.014 A 
ATOM     45  C   UNL A   1      39.038  31.086  31.167  1.00  0.00     0.010 A 
ATOM     46  C   UNL A   1      37.368  29.352  31.154  1.00  0.00     0.010 A 
ATOM     47  C   UNL A   1      38.697  29.736  31.008  1.00  0.00    -0.014 A 
BRANCH  47  48
ATOM     48  C   UNL A   1      39.795  28.783  30.813  1.00  0.00     0.031 A 
ATOM     49  C   UNL A   1      40.621  28.490  32.019  1.00  0.00     0.074 A 
ATOM     50  C   UNL A   1      40.064  28.073  29.698  1.00  0.00     0.049 A 
ATOM     51  N   UNL A   1      41.881  28.727  32.194  1.00  0.00    -0.248 NA
ATOM     52  C   UNL A   1      39.950  27.890  33.180  1.00  0.00     0.031 C 
ATOM     53  C   UNL A   1      39.221  27.907  28.515  1.00  0.00     0.029 A 
ATOM     54  N   UNL A   1      41.145  27.267  29.436  1.00  0.00    -0.354 N 
ATOM     55  C   UNL A   1      42.208  28.168  33.427  1.00  0.00     0.074 A 
ATOM     56  C   UNL A   1      40.967  27.753  34.033  1.00  0.00     0.031 C 
ATOM     57  C   UNL A   1      39.714  26.898  27.761  1.00  0.00     0.029 A 
ATOM     58  C   UNL A   1      40.984  26.461  28.322  1.00  0.00     0.049 A 
ATOM     59  H   UNL A   1      41.959  27.262  29.989  1.00  0.00     0.167 HD
ATOM     60  C   UNL A   1      43.495  27.903  33.775  1.00  0.00     0.031 A 
ATOM     61  C   UNL A   1      41.812  25.486  27.882  1.00  0.00     0.031 A 
ATOM     62  C   UNL A   1      44.445  28.551  32.912  1.00  0.00     0.049 A 
ATOM     63  C   UNL A   1      43.178  25.723  28.390  1.00  0.00     0.074 A 
ATOM     64  C   UNL A   1      44.954  29.817  32.739  1.00  0.00     0.029 A 
ATOM     65  N   UNL A   1      44.832  27.805  31.835  1.00  0.00    -0.354 N 
ATOM     66  N   UNL A   1      43.928  26.717  28.011  1.00  0.00    -0.248 NA
ATOM     67  C   UNL A   1      43.703  24.935  29.500  1.00  0.00     0.031 C 
ATOM     68  C   UNL A   1      45.474  29.857  31.410  1.00  0.00     0.029 A 
ATOM     69  C   UNL A   1      45.259  28.615  30.815  1.00  0.00     0.049 A 
ATOM     70  H   UNL A   1      44.807  26.821  31.797  1.00  0.00     0.167 HD
ATOM     71  C   UNL A   1      44.776  26.933  29.077  1.00  0.00     0.074 A 
ATOM     72  C   UNL A   1      44.737  25.704  29.852  1.00  0.00     0.031 C 
ATOM     73  C   UNL A   1      45.147  28.197  29.431  1.00  0.00     0.031 A 
BRANCH  60  74
ATOM     74  C   UNL A   1      43.924  26.731  34.629  1.00  0.00    -0.014 A 
ATOM     75  C   UNL A   1      44.239  26.843  35.996  1.00  0.00     0.009 A 
ATOM     76  C   UNL A   1      43.718  25.427  34.135  1.00  0.00     0.009 A 
ATOM     77  C   UNL A   1      44.330  25.721  36.828  1.00  0.00     0.001 A 
ATOM     78  C   UNL A   1      43.769  24.306  34.973  1.00  0.00     0.001 A 
ATOM     79  C   UNL A   1      44.071  24.455  36.321  1.00  0.00     0.000 A 
ENDBRANCH  60  74
BRANCH  61  80
ATOM     80  C   UNL A   1      41.479  24.263  27.123  1.00  0.00    -0.014 A 
ATOM     81  C   UNL A   1      40.383  23.470  27.507  1.00  0.00     0.009 A 
ATOM     82  C   UNL A   1      42.386  23.729  26.193  1.00  0.00     0.009 A 
ATOM     83  C   UNL A   1      40.219  22.175  27.009  1.00  0.00     0.001 A 
ATOM     84  C   UNL A   1      42.225  22.428  25.702  1.00  0.00     0.001 A 
ATOM     85  C   UNL A   1      41.150  21.647  26.120  1.00  0.00     0.000 A 
ENDBRANCH  61  80
BRANCH  73  86
ATOM     86  C   UNL A   1      45.153  29.257  28.364  1.00  0.00    -0.014 A 
ATOM     87  C   UNL A   1      43.974  29.987  28.143  1.00  0.00     0.009 A 
ATOM     88  C   UNL A   1      46.256  29.511  27.533  1.00  0.00     0.009 A 
ATOM     89  C   UNL A   1      43.901  30.946  27.130  1.00  0.00     0.001 A 
ATOM     90  C   UNL A   1      46.194  30.493  26.539  1.00  0.00     0.001 A 
ATOM     91  C   UNL A   1      45.014  31.205  26.336  1.00  0.00     0.000 A 
ENDBRANCH  73  86
ENDBRANCH  47  48
ENDBRANCH  39  42
ENDBRANCH  37  38
ENDBRANCH  36  37
ENDBRANCH  35  36
ENDBRANCH  34  35
ENDBRANCH   1  34
TORSDOF 20
ENDMDL
