MODEL 1
REMARK VINA RESULT:     -11.6      0.000      0.000
REMARK SMILES O=C(NCCCCCCNC(=O)c1ccc(-c2c3nc(c(-c4ccccc4)c4ccc([nH]4)c(-c4ccccc4)c4nc(c(-c5ccccc5)c5ccc2[nH]5)C=C4)C=C3)cc1)C1=Cc2cc(OC(F)(F)F)ccc2O[C@@H]1C(F)(F)F
REMARK SMILES IDX 6 1 5 2 4 3 3 4 1 5 2 6 61 8 62 9 75 10 63 11 74 12 64 13
REMARK SMILES IDX 73 14 65 15 72 16 71 17 76 18 77 19 78 20 79 21 66 22 67 23
REMARK SMILES IDX 68 24 69 25 70 26 7 27 8 28 9 29 10 30 11 31 12 33 13 34
REMARK SMILES IDX 14 35 60 36 15 37 59 38 16 39 17 40 18 41 53 42 19 43 58 44
REMARK SMILES IDX 52 45 54 46 20 47 57 48 51 49 50 50 21 52 43 53 28 54 42 55
REMARK SMILES IDX 29 56 32 57 41 58 55 59 30 60 31 61 40 63 56 64 33 65 22 66
REMARK SMILES IDX 23 67 27 68 24 69 26 70 25 71 44 72 45 73 49 74 46 75 48 76
REMARK SMILES IDX 47 77 34 78 35 79 39 80 36 81 38 82 37 83
REMARK H PARENT 3 7 10 32 54 51 32 62
REMARK Flexibility Score: inf
ROOT
ATOM      1  C   UNL A   1      36.303  21.965  24.400  1.00  0.00     0.002 C 
ENDROOT
BRANCH   1   2
ATOM      2  C   UNL A   1      34.935  22.643  24.378  1.00  0.00     0.021 C 
BRANCH   2   3
ATOM      3  C   UNL A   1      34.918  24.095  23.916  1.00  0.00     0.116 C 
BRANCH   3   4
ATOM      4  N   UNL A   1      34.028  24.390  22.807  1.00  0.00    -0.352 N 
ATOM      5  O   UNL A   1      32.478  25.519  21.642  1.00  0.00    -0.270 OA
ATOM      6  C   UNL A   1      32.992  25.280  22.733  1.00  0.00     0.251 C 
ATOM      7  H   UNL A   1      34.196  23.872  21.987  1.00  0.00     0.163 HD
BRANCH   6   8
ATOM      8  C   UNL A   1      32.517  26.059  23.917  1.00  0.00     0.067 C 
ATOM      9  C   UNL A   1      32.365  27.397  23.886  1.00  0.00     0.025 C 
ATOM     10  C   UNL A   1      31.634  25.242  24.831  1.00  0.00     0.314 C 
ATOM     11  C   UNL A   1      30.925  27.772  23.876  1.00  0.00     0.021 A 
ATOM     12  O   UNL A   1      30.228  25.541  24.601  1.00  0.00    -0.475 OA
ATOM     13  C   UNL A   1      30.556  29.015  23.341  1.00  0.00     0.058 A 
ATOM     14  C   UNL A   1      29.947  26.792  24.111  1.00  0.00     0.128 A 
ATOM     15  C   UNL A   1      29.239  29.233  22.928  1.00  0.00     0.130 A 
ATOM     16  C   UNL A   1      28.630  27.025  23.725  1.00  0.00     0.051 A 
ATOM     17  C   UNL A   1      28.279  28.235  23.117  1.00  0.00     0.050 A 
BRANCH  10  18
ATOM     18  C   UNL A   1      32.016  25.397  26.313  1.00  0.00     0.429 C 
ATOM     19  F   UNL A   1      31.638  24.314  27.034  1.00  0.00    -0.167 F 
ATOM     20  F   UNL A   1      33.356  25.527  26.472  1.00  0.00    -0.167 F 
ATOM     21  F   UNL A   1      31.442  26.480  26.886  1.00  0.00    -0.167 F 
ENDBRANCH  10  18
BRANCH  15  22
ATOM     22  O   UNL A   1      28.948  30.470  22.427  1.00  0.00    -0.406 OA
BRANCH  22  23
ATOM     23  C   UNL A   1      28.339  31.372  23.344  1.00  0.00     0.573 C 
ATOM     24  F   UNL A   1      27.242  30.816  23.905  1.00  0.00    -0.132 F 
ATOM     25  F   UNL A   1      29.184  31.762  24.321  1.00  0.00    -0.132 F 
ATOM     26  F   UNL A   1      27.945  32.476  22.670  1.00  0.00    -0.132 F 
ENDBRANCH  22  23
ENDBRANCH  15  22
ENDBRANCH   6   8
ENDBRANCH   3   4
ENDBRANCH   2   3
ENDBRANCH   1   2
BRANCH   1  27
ATOM     27  C   UNL A   1      36.356  20.544  24.977  1.00  0.00     0.002 C 
BRANCH  27  28
ATOM     28  C   UNL A   1      37.676  19.783  24.823  1.00  0.00     0.021 C 
BRANCH  28  29
ATOM     29  C   UNL A   1      38.850  20.293  25.654  1.00  0.00     0.116 C 
BRANCH  29  30
ATOM     30  N   UNL A   1      39.951  19.351  25.735  1.00  0.00    -0.352 N 
ATOM     31  C   UNL A   1      41.253  19.548  26.124  1.00  0.00     0.251 C 
ATOM     32  H   UNL A   1      39.731  18.428  25.471  1.00  0.00     0.163 HD
ATOM     33  O   UNL A   1      42.066  18.630  26.012  1.00  0.00    -0.269 OA
BRANCH  31  34
ATOM     34  C   UNL A   1      41.705  20.858  26.646  1.00  0.00     0.039 A 
ATOM     35  C   UNL A   1      42.053  21.856  25.729  1.00  0.00     0.014 A 
ATOM     36  C   UNL A   1      41.822  21.107  28.016  1.00  0.00     0.014 A 
ATOM     37  C   UNL A   1      42.463  23.112  26.184  1.00  0.00     0.010 A 
ATOM     38  C   UNL A   1      42.160  22.385  28.469  1.00  0.00     0.010 A 
ATOM     39  C   UNL A   1      42.492  23.400  27.558  1.00  0.00    -0.014 A 
BRANCH  39  40
ATOM     40  C   UNL A   1      42.877  24.751  28.044  1.00  0.00     0.031 A 
ATOM     41  C   UNL A   1      41.832  25.813  28.263  1.00  0.00     0.074 A 
ATOM     42  C   UNL A   1      44.175  25.037  28.270  1.00  0.00     0.049 A 
ATOM     43  N   UNL A   1      41.983  27.050  28.668  1.00  0.00    -0.248 NA
ATOM     44  C   UNL A   1      40.438  25.444  27.971  1.00  0.00     0.031 C 
ATOM     45  C   UNL A   1      45.294  24.113  28.070  1.00  0.00     0.029 A 
ATOM     46  N   UNL A   1      44.774  26.190  28.718  1.00  0.00    -0.354 N 
ATOM     47  C   UNL A   1      40.708  27.603  28.678  1.00  0.00     0.074 A 
ATOM     48  C   UNL A   1      39.805  26.589  28.180  1.00  0.00     0.031 C 
ATOM     49  C   UNL A   1      46.437  24.725  28.419  1.00  0.00     0.029 A 
ATOM     50  C   UNL A   1      46.140  26.095  28.826  1.00  0.00     0.049 A 
ATOM     51  H   UNL A   1      44.271  27.006  28.941  1.00  0.00     0.167 HD
ATOM     52  C   UNL A   1      40.318  28.835  29.087  1.00  0.00     0.031 A 
ATOM     53  C   UNL A   1      47.056  27.009  29.200  1.00  0.00     0.031 A 
ATOM     54  C   UNL A   1      41.213  29.850  29.576  1.00  0.00     0.049 A 
ATOM     55  C   UNL A   1      46.602  28.383  29.611  1.00  0.00     0.074 A 
ATOM     56  C   UNL A   1      40.906  31.117  30.041  1.00  0.00     0.029 A 
ATOM     57  N   UNL A   1      42.590  29.716  29.660  1.00  0.00    -0.354 N 
ATOM     58  N   UNL A   1      45.385  28.869  29.672  1.00  0.00    -0.248 NA
ATOM     59  C   UNL A   1      47.648  29.332  30.018  1.00  0.00     0.031 C 
ATOM     60  C   UNL A   1      42.103  31.770  30.354  1.00  0.00     0.029 A 
ATOM     61  C   UNL A   1      43.148  30.886  30.147  1.00  0.00     0.049 A 
ATOM     62  H   UNL A   1      43.095  28.908  29.411  1.00  0.00     0.167 HD
ATOM     63  C   UNL A   1      45.518  30.166  30.150  1.00  0.00     0.074 A 
ATOM     64  C   UNL A   1      46.930  30.384  30.384  1.00  0.00     0.031 C 
ATOM     65  C   UNL A   1      44.555  31.093  30.375  1.00  0.00     0.031 A 
BRANCH  52  66
ATOM     66  C   UNL A   1      38.848  29.154  29.015  1.00  0.00    -0.014 A 
ATOM     67  C   UNL A   1      38.022  29.021  30.143  1.00  0.00     0.009 A 
ATOM     68  C   UNL A   1      38.292  29.637  27.821  1.00  0.00     0.009 A 
ATOM     69  C   UNL A   1      36.662  29.326  30.065  1.00  0.00     0.001 A 
ATOM     70  C   UNL A   1      36.938  29.973  27.755  1.00  0.00     0.001 A 
ATOM     71  C   UNL A   1      36.122  29.808  28.873  1.00  0.00     0.000 A 
ENDBRANCH  52  66
BRANCH  53  72
ATOM     72  C   UNL A   1      48.503  26.661  29.198  1.00  0.00    -0.014 A 
ATOM     73  C   UNL A   1      49.114  26.117  30.339  1.00  0.00     0.009 A 
ATOM     74  C   UNL A   1      49.287  26.892  28.057  1.00  0.00     0.009 A 
ATOM     75  C   UNL A   1      50.484  25.846  30.347  1.00  0.00     0.001 A 
ATOM     76  C   UNL A   1      50.650  26.588  28.056  1.00  0.00     0.001 A 
ATOM     77  C   UNL A   1      51.249  26.077  29.206  1.00  0.00     0.000 A 
ENDBRANCH  53  72
BRANCH  65  78
ATOM     78  C   UNL A   1      44.991  32.419  30.939  1.00  0.00    -0.014 A 
ATOM     79  C   UNL A   1      45.146  32.613  32.320  1.00  0.00     0.009 A 
ATOM     80  C   UNL A   1      45.292  33.477  30.067  1.00  0.00     0.009 A 
ATOM     81  C   UNL A   1      45.556  33.852  32.818  1.00  0.00     0.001 A 
ATOM     82  C   UNL A   1      45.733  34.704  30.564  1.00  0.00     0.001 A 
ATOM     83  C   UNL A   1      45.855  34.894  31.939  1.00  0.00     0.000 A 
ENDBRANCH  65  78
ENDBRANCH  39  40
ENDBRANCH  31  34
ENDBRANCH  29  30
ENDBRANCH  28  29
ENDBRANCH  27  28
ENDBRANCH   1  27
TORSDOF 16
ENDMDL
MODEL 2
REMARK VINA RESULT:     -11.6      3.995      9.461
REMARK SMILES O=C(NCCCCCCNC(=O)c1ccc(-c2c3nc(c(-c4ccccc4)c4ccc([nH]4)c(-c4ccccc4)c4nc(c(-c5ccccc5)c5ccc2[nH]5)C=C4)C=C3)cc1)C1=Cc2cc(OC(F)(F)F)ccc2O[C@@H]1C(F)(F)F
REMARK SMILES IDX 6 1 5 2 4 3 3 4 1 5 2 6 61 8 62 9 75 10 63 11 74 12 64 13
REMARK SMILES IDX 73 14 65 15 72 16 71 17 76 18 77 19 78 20 79 21 66 22 67 23
REMARK SMILES IDX 68 24 69 25 70 26 7 27 8 28 9 29 10 30 11 31 12 33 13 34
REMARK SMILES IDX 14 35 60 36 15 37 59 38 16 39 17 40 18 41 53 42 19 43 58 44
REMARK SMILES IDX 52 45 54 46 20 47 57 48 51 49 50 50 21 52 43 53 28 54 42 55
REMARK SMILES IDX 29 56 32 57 41 58 55 59 30 60 31 61 40 63 56 64 33 65 22 66
REMARK SMILES IDX 23 67 27 68 24 69 26 70 25 71 44 72 45 73 49 74 46 75 48 76
REMARK SMILES IDX 47 77 34 78 35 79 39 80 36 81 38 82 37 83
REMARK H PARENT 3 7 10 32 54 51 32 62
REMARK Flexibility Score: inf
ROOT
ATOM      1  C   UNL A   1      32.005  29.087  26.449  1.00  0.00     0.002 C 
ENDROOT
BRANCH   1   2
ATOM      2  C   UNL A   1      31.328  27.755  26.139  1.00  0.00     0.021 C 
BRANCH   2   3
ATOM      3  C   UNL A   1      32.094  26.505  26.553  1.00  0.00     0.116 C 
BRANCH   3   4
ATOM      4  N   UNL A   1      31.296  25.300  26.700  1.00  0.00    -0.352 N 
ATOM      5  O   UNL A   1      30.858  23.099  26.731  1.00  0.00    -0.270 OA
ATOM      6  C   UNL A   1      31.593  24.010  26.352  1.00  0.00     0.251 C 
ATOM      7  H   UNL A   1      30.411  25.431  27.110  1.00  0.00     0.163 HD
BRANCH   6   8
ATOM      8  C   UNL A   1      32.835  23.645  25.608  1.00  0.00     0.067 C 
ATOM      9  C   UNL A   1      33.583  22.573  25.934  1.00  0.00     0.025 C 
ATOM     10  C   UNL A   1      32.806  24.108  24.169  1.00  0.00     0.314 C 
ATOM     11  C   UNL A   1      33.435  21.490  24.923  1.00  0.00     0.021 A 
ATOM     12  O   UNL A   1      32.455  23.012  23.277  1.00  0.00    -0.475 OA
ATOM     13  C   UNL A   1      33.690  20.166  25.312  1.00  0.00     0.058 A 
ATOM     14  C   UNL A   1      32.771  21.750  23.714  1.00  0.00     0.128 A 
ATOM     15  C   UNL A   1      33.174  19.108  24.560  1.00  0.00     0.130 A 
ATOM     16  C   UNL A   1      32.285  20.691  22.953  1.00  0.00     0.051 A 
ATOM     17  C   UNL A   1      32.469  19.373  23.383  1.00  0.00     0.050 A 
BRANCH  10  18
ATOM     18  C   UNL A   1      34.115  24.795  23.744  1.00  0.00     0.429 C 
ATOM     19  F   UNL A   1      33.874  25.849  22.929  1.00  0.00    -0.167 F 
ATOM     20  F   UNL A   1      34.799  25.271  24.812  1.00  0.00    -0.167 F 
ATOM     21  F   UNL A   1      34.948  23.958  23.081  1.00  0.00    -0.167 F 
ENDBRANCH  10  18
BRANCH  15  22
ATOM     22  O   UNL A   1      33.471  17.846  24.991  1.00  0.00    -0.406 OA
BRANCH  22  23
ATOM     23  C   UNL A   1      34.630  17.259  24.410  1.00  0.00     0.573 C 
ATOM     24  F   UNL A   1      34.395  16.904  23.126  1.00  0.00    -0.132 F 
ATOM     25  F   UNL A   1      35.699  18.081  24.451  1.00  0.00    -0.132 F 
ATOM     26  F   UNL A   1      34.940  16.138  25.098  1.00  0.00    -0.132 F 
ENDBRANCH  22  23
ENDBRANCH  15  22
ENDBRANCH   6   8
ENDBRANCH   3   4
ENDBRANCH   2   3
ENDBRANCH   1   2
BRANCH   1  27
ATOM     27  C   UNL A   1      31.501  30.311  25.673  1.00  0.00     0.002 C 
BRANCH  27  28
ATOM     28  C   UNL A   1      31.324  31.609  26.467  1.00  0.00     0.021 C 
BRANCH  28  29
ATOM     29  C   UNL A   1      32.600  32.253  27.001  1.00  0.00     0.116 C 
BRANCH  29  30
ATOM     30  N   UNL A   1      32.396  33.591  27.524  1.00  0.00    -0.352 N 
ATOM     31  C   UNL A   1      33.158  34.320  28.403  1.00  0.00     0.251 C 
ATOM     32  H   UNL A   1      31.585  34.047  27.199  1.00  0.00     0.163 HD
ATOM     33  O   UNL A   1      32.744  35.406  28.810  1.00  0.00    -0.269 OA
BRANCH  31  34
ATOM     34  C   UNL A   1      34.457  33.808  28.896  1.00  0.00     0.039 A 
ATOM     35  C   UNL A   1      34.473  33.065  30.081  1.00  0.00     0.014 A 
ATOM     36  C   UNL A   1      35.657  34.074  28.230  1.00  0.00     0.014 A 
ATOM     37  C   UNL A   1      35.676  32.547  30.565  1.00  0.00     0.010 A 
ATOM     38  C   UNL A   1      36.847  33.493  28.675  1.00  0.00     0.010 A 
ATOM     39  C   UNL A   1      36.871  32.729  29.851  1.00  0.00    -0.014 A 
BRANCH  39  40
ATOM     40  C   UNL A   1      38.146  32.135  30.336  1.00  0.00     0.031 A 
ATOM     41  C   UNL A   1      38.636  30.821  29.786  1.00  0.00     0.074 A 
ATOM     42  C   UNL A   1      38.858  32.763  31.293  1.00  0.00     0.049 A 
ATOM     43  N   UNL A   1      39.714  30.145  30.098  1.00  0.00    -0.248 NA
ATOM     44  C   UNL A   1      37.798  30.174  28.764  1.00  0.00     0.031 C 
ATOM     45  C   UNL A   1      38.484  34.025  31.936  1.00  0.00     0.029 A 
ATOM     46  N   UNL A   1      40.047  32.426  31.892  1.00  0.00    -0.354 N 
ATOM     47  C   UNL A   1      39.682  28.998  29.315  1.00  0.00     0.074 A 
ATOM     48  C   UNL A   1      38.449  29.038  28.560  1.00  0.00     0.031 C 
ATOM     49  C   UNL A   1      39.436  34.368  32.818  1.00  0.00     0.029 A 
ATOM     50  C   UNL A   1      40.465  33.332  32.836  1.00  0.00     0.049 A 
ATOM     51  H   UNL A   1      40.551  31.612  31.666  1.00  0.00     0.167 HD
ATOM     52  C   UNL A   1      40.603  28.010  29.214  1.00  0.00     0.031 A 
ATOM     53  C   UNL A   1      41.549  33.329  33.636  1.00  0.00     0.031 A 
ATOM     54  C   UNL A   1      41.828  27.961  29.969  1.00  0.00     0.049 A 
ATOM     55  C   UNL A   1      42.538  32.201  33.533  1.00  0.00     0.074 A 
ATOM     56  C   UNL A   1      42.838  27.016  29.911  1.00  0.00     0.029 A 
ATOM     57  N   UNL A   1      42.208  28.894  30.920  1.00  0.00    -0.354 N 
ATOM     58  N   UNL A   1      42.521  31.154  32.743  1.00  0.00    -0.248 NA
ATOM     59  C   UNL A   1      43.705  32.261  34.425  1.00  0.00     0.031 C 
ATOM     60  C   UNL A   1      43.802  27.347  30.868  1.00  0.00     0.029 A 
ATOM     61  C   UNL A   1      43.425  28.534  31.473  1.00  0.00     0.049 A 
ATOM     62  H   UNL A   1      41.689  29.694  31.165  1.00  0.00     0.167 HD
ATOM     63  C   UNL A   1      43.684  30.449  33.022  1.00  0.00     0.074 A 
ATOM     64  C   UNL A   1      44.395  31.197  34.038  1.00  0.00     0.031 C 
ATOM     65  C   UNL A   1      44.124  29.285  32.484  1.00  0.00     0.031 A 
BRANCH  52  66
ATOM     66  C   UNL A   1      40.316  26.891  28.249  1.00  0.00    -0.014 A 
ATOM     67  C   UNL A   1      40.844  26.903  26.948  1.00  0.00     0.009 A 
ATOM     68  C   UNL A   1      39.546  25.791  28.658  1.00  0.00     0.009 A 
ATOM     69  C   UNL A   1      40.574  25.856  26.064  1.00  0.00     0.001 A 
ATOM     70  C   UNL A   1      39.305  24.730  27.782  1.00  0.00     0.001 A 
ATOM     71  C   UNL A   1      39.811  24.767  26.484  1.00  0.00     0.000 A 
ENDBRANCH  52  66
BRANCH  53  72
ATOM     72  C   UNL A   1      41.758  34.431  34.615  1.00  0.00    -0.014 A 
ATOM     73  C   UNL A   1      41.253  34.339  35.922  1.00  0.00     0.009 A 
ATOM     74  C   UNL A   1      42.450  35.593  34.237  1.00  0.00     0.009 A 
ATOM     75  C   UNL A   1      41.406  35.401  36.815  1.00  0.00     0.001 A 
ATOM     76  C   UNL A   1      42.630  36.639  35.144  1.00  0.00     0.001 A 
ATOM     77  C   UNL A   1      42.098  36.548  36.428  1.00  0.00     0.000 A 
ENDBRANCH  53  72
BRANCH  65  78
ATOM     78  C   UNL A   1      45.456  28.766  32.956  1.00  0.00    -0.014 A 
ATOM     79  C   UNL A   1      45.555  27.873  34.034  1.00  0.00     0.009 A 
ATOM     80  C   UNL A   1      46.626  29.148  32.280  1.00  0.00     0.009 A 
ATOM     81  C   UNL A   1      46.803  27.403  34.449  1.00  0.00     0.001 A 
ATOM     82  C   UNL A   1      47.869  28.652  32.675  1.00  0.00     0.001 A 
ATOM     83  C   UNL A   1      47.957  27.788  33.766  1.00  0.00     0.000 A 
ENDBRANCH  65  78
ENDBRANCH  39  40
ENDBRANCH  31  34
ENDBRANCH  29  30
ENDBRANCH  28  29
ENDBRANCH  27  28
ENDBRANCH   1  27
TORSDOF 16
ENDMDL
MODEL 3
REMARK VINA RESULT:     -11.6      2.459      8.060
REMARK SMILES O=C(NCCCCCCNC(=O)c1ccc(-c2c3nc(c(-c4ccccc4)c4ccc([nH]4)c(-c4ccccc4)c4nc(c(-c5ccccc5)c5ccc2[nH]5)C=C4)C=C3)cc1)C1=Cc2cc(OC(F)(F)F)ccc2O[C@@H]1C(F)(F)F
REMARK SMILES IDX 6 1 5 2 4 3 3 4 1 5 2 6 61 8 62 9 75 10 63 11 74 12 64 13
REMARK SMILES IDX 73 14 65 15 72 16 71 17 76 18 77 19 78 20 79 21 66 22 67 23
REMARK SMILES IDX 68 24 69 25 70 26 7 27 8 28 9 29 10 30 11 31 12 33 13 34
REMARK SMILES IDX 14 35 60 36 15 37 59 38 16 39 17 40 18 41 53 42 19 43 58 44
REMARK SMILES IDX 52 45 54 46 20 47 57 48 51 49 50 50 21 52 43 53 28 54 42 55
REMARK SMILES IDX 29 56 32 57 41 58 55 59 30 60 31 61 40 63 56 64 33 65 22 66
REMARK SMILES IDX 23 67 27 68 24 69 26 70 25 71 44 72 45 73 49 74 46 75 48 76
REMARK SMILES IDX 47 77 34 78 35 79 39 80 36 81 38 82 37 83
REMARK H PARENT 3 7 10 32 54 51 32 62
REMARK Flexibility Score: inf
ROOT
ATOM      1  C   UNL A   1      31.095  28.936  24.267  1.00  0.00     0.002 C 
ENDROOT
BRANCH   1   2
ATOM      2  C   UNL A   1      31.663  28.576  22.897  1.00  0.00     0.021 C 
BRANCH   2   3
ATOM      3  C   UNL A   1      31.185  27.257  22.302  1.00  0.00     0.116 C 
BRANCH   3   4
ATOM      4  N   UNL A   1      32.231  26.364  21.835  1.00  0.00    -0.352 N 
ATOM      5  O   UNL A   1      33.343  24.431  21.587  1.00  0.00    -0.270 OA
ATOM      6  C   UNL A   1      32.537  25.093  22.238  1.00  0.00     0.251 C 
ATOM      7  H   UNL A   1      32.804  26.727  21.122  1.00  0.00     0.163 HD
BRANCH   6   8
ATOM      8  C   UNL A   1      31.854  24.431  23.390  1.00  0.00     0.067 C 
ATOM      9  C   UNL A   1      31.539  23.121  23.386  1.00  0.00     0.025 C 
ATOM     10  C   UNL A   1      32.151  25.108  24.708  1.00  0.00     0.314 C 
ATOM     11  C   UNL A   1      32.423  22.355  24.306  1.00  0.00     0.021 A 
ATOM     12  O   UNL A   1      33.177  24.386  25.446  1.00  0.00    -0.475 OA
ATOM     13  C   UNL A   1      32.614  20.985  24.074  1.00  0.00     0.058 A 
ATOM     14  C   UNL A   1      33.274  23.041  25.188  1.00  0.00     0.128 A 
ATOM     15  C   UNL A   1      33.721  20.332  24.620  1.00  0.00     0.130 A 
ATOM     16  C   UNL A   1      34.359  22.379  25.754  1.00  0.00     0.051 A 
ATOM     17  C   UNL A   1      34.595  21.032  25.457  1.00  0.00     0.050 A 
BRANCH  10  18
ATOM     18  C   UNL A   1      30.887  25.330  25.555  1.00  0.00     0.429 C 
ATOM     19  F   UNL A   1      31.055  26.349  26.431  1.00  0.00    -0.167 F 
ATOM     20  F   UNL A   1      29.818  25.647  24.784  1.00  0.00    -0.167 F 
ATOM     21  F   UNL A   1      30.546  24.235  26.274  1.00  0.00    -0.167 F 
ENDBRANCH  10  18
BRANCH  15  22
ATOM     22  O   UNL A   1      33.837  18.996  24.362  1.00  0.00    -0.406 OA
BRANCH  22  23
ATOM     23  C   UNL A   1      33.012  18.148  25.153  1.00  0.00     0.573 C 
ATOM     24  F   UNL A   1      33.635  16.975  25.407  1.00  0.00    -0.132 F 
ATOM     25  F   UNL A   1      32.656  18.719  26.322  1.00  0.00    -0.132 F 
ATOM     26  F   UNL A   1      31.883  17.874  24.463  1.00  0.00    -0.132 F 
ENDBRANCH  22  23
ENDBRANCH  15  22
ENDBRANCH   6   8
ENDBRANCH   3   4
ENDBRANCH   2   3
ENDBRANCH   1   2
BRANCH   1  27
ATOM     27  C   UNL A   1      32.078  29.532  25.284  1.00  0.00     0.002 C 
BRANCH  27  28
ATOM     28  C   UNL A   1      33.237  28.636  25.732  1.00  0.00     0.021 C 
BRANCH  28  29
ATOM     29  C   UNL A   1      33.648  28.747  27.197  1.00  0.00     0.116 C 
BRANCH  29  30
ATOM     30  N   UNL A   1      33.610  30.107  27.705  1.00  0.00    -0.352 N 
ATOM     31  C   UNL A   1      34.572  30.827  28.367  1.00  0.00     0.251 C 
ATOM     32  H   UNL A   1      32.763  30.585  27.552  1.00  0.00     0.163 HD
ATOM     33  O   UNL A   1      34.296  31.939  28.817  1.00  0.00    -0.269 OA
BRANCH  31  34
ATOM     34  C   UNL A   1      35.930  30.276  28.579  1.00  0.00     0.039 A 
ATOM     35  C   UNL A   1      36.844  30.334  27.521  1.00  0.00     0.014 A 
ATOM     36  C   UNL A   1      36.305  29.675  29.784  1.00  0.00     0.014 A 
ATOM     37  C   UNL A   1      38.141  29.843  27.690  1.00  0.00     0.010 A 
ATOM     38  C   UNL A   1      37.623  29.254  29.976  1.00  0.00     0.010 A 
ATOM     39  C   UNL A   1      38.554  29.327  28.929  1.00  0.00    -0.014 A 
BRANCH  39  40
ATOM     40  C   UNL A   1      39.949  28.851  29.129  1.00  0.00     0.031 A 
ATOM     41  C   UNL A   1      40.986  29.757  29.740  1.00  0.00     0.074 A 
ATOM     42  C   UNL A   1      40.297  27.609  28.738  1.00  0.00     0.049 A 
ATOM     43  N   UNL A   1      42.252  29.520  29.978  1.00  0.00    -0.248 NA
ATOM     44  C   UNL A   1      40.548  31.109  30.119  1.00  0.00     0.031 C 
ATOM     45  C   UNL A   1      39.402  26.639  28.103  1.00  0.00     0.029 A 
ATOM     46  N   UNL A   1      41.499  26.948  28.817  1.00  0.00    -0.354 N 
ATOM     47  C   UNL A   1      42.759  30.691  30.530  1.00  0.00     0.074 A 
ATOM     48  C   UNL A   1      41.680  31.655  30.535  1.00  0.00     0.031 C 
ATOM     49  C   UNL A   1      40.077  25.501  27.876  1.00  0.00     0.029 A 
ATOM     50  C   UNL A   1      41.461  25.673  28.308  1.00  0.00     0.049 A 
ATOM     51  H   UNL A   1      42.310  27.351  29.203  1.00  0.00     0.167 HD
ATOM     52  C   UNL A   1      44.001  30.937  31.011  1.00  0.00     0.031 A 
ATOM     53  C   UNL A   1      42.432  24.746  28.191  1.00  0.00     0.031 A 
ATOM     54  C   UNL A   1      45.080  29.984  31.002  1.00  0.00     0.049 A 
ATOM     55  C   UNL A   1      43.814  25.057  28.697  1.00  0.00     0.074 A 
ATOM     56  C   UNL A   1      46.365  30.132  31.495  1.00  0.00     0.029 A 
ATOM     57  N   UNL A   1      45.001  28.707  30.469  1.00  0.00    -0.354 N 
ATOM     58  N   UNL A   1      44.258  26.149  29.272  1.00  0.00    -0.248 NA
ATOM     59  C   UNL A   1      44.826  24.001  28.550  1.00  0.00     0.031 C 
ATOM     60  C   UNL A   1      47.080  28.965  31.210  1.00  0.00     0.029 A 
ATOM     61  C   UNL A   1      46.222  28.066  30.600  1.00  0.00     0.049 A 
ATOM     62  H   UNL A   1      44.197  28.315  30.059  1.00  0.00     0.167 HD
ATOM     63  C   UNL A   1      45.589  25.900  29.579  1.00  0.00     0.074 A 
ATOM     64  C   UNL A   1      45.874  24.547  29.148  1.00  0.00     0.031 C 
ATOM     65  C   UNL A   1      46.495  26.720  30.167  1.00  0.00     0.031 A 
BRANCH  52  66
ATOM     66  C   UNL A   1      44.262  32.303  31.588  1.00  0.00    -0.014 A 
ATOM     67  C   UNL A   1      44.722  33.355  30.781  1.00  0.00     0.009 A 
ATOM     68  C   UNL A   1      44.003  32.553  32.945  1.00  0.00     0.009 A 
ATOM     69  C   UNL A   1      44.954  34.619  31.327  1.00  0.00     0.001 A 
ATOM     70  C   UNL A   1      44.205  33.826  33.482  1.00  0.00     0.001 A 
ATOM     71  C   UNL A   1      44.689  34.855  32.676  1.00  0.00     0.000 A 
ENDBRANCH  52  66
BRANCH  53  72
ATOM     72  C   UNL A   1      42.136  23.431  27.560  1.00  0.00    -0.014 A 
ATOM     73  C   UNL A   1      41.539  22.396  28.298  1.00  0.00     0.009 A 
ATOM     74  C   UNL A   1      42.471  23.197  26.217  1.00  0.00     0.009 A 
ATOM     75  C   UNL A   1      41.317  21.147  27.713  1.00  0.00     0.001 A 
ATOM     76  C   UNL A   1      42.217  21.958  25.626  1.00  0.00     0.001 A 
ATOM     77  C   UNL A   1      41.651  20.930  26.378  1.00  0.00     0.000 A 
ENDBRANCH  53  72
BRANCH  65  78
ATOM     78  C   UNL A   1      47.872  26.164  30.414  1.00  0.00    -0.014 A 
ATOM     79  C   UNL A   1      48.845  26.138  29.403  1.00  0.00     0.009 A 
ATOM     80  C   UNL A   1      48.210  25.697  31.694  1.00  0.00     0.009 A 
ATOM     81  C   UNL A   1      50.116  25.620  29.660  1.00  0.00     0.001 A 
ATOM     82  C   UNL A   1      49.491  25.211  31.958  1.00  0.00     0.001 A 
ATOM     83  C   UNL A   1      50.440  25.163  30.937  1.00  0.00     0.000 A 
ENDBRANCH  65  78
ENDBRANCH  39  40
ENDBRANCH  31  34
ENDBRANCH  29  30
ENDBRANCH  28  29
ENDBRANCH  27  28
ENDBRANCH   1  27
TORSDOF 16
ENDMDL
