MODEL 1
REMARK VINA RESULT:      -8.5      0.000      0.000
REMARK SMILES CCCCCCNC(=O)Oc1cccc(-c2ccc([C@H](C)C(=O)NCCCCCCNC(=O)c3ccc(-c4c5nc(c(-c6ccccc6)c6ccc([nH]6)c(-c6ccccc6)c6nc(c(-c7ccccc7)c7ccc4[nH]7)C=C6)C=C5)cc3)cc2F)c1
REMARK SMILES IDX 22 1 23 2 24 3 20 5 21 6 19 7 16 8 17 9 83 10 18 11 82 12
REMARK SMILES IDX 84 13 15 14 11 15 12 16 85 17 13 18 14 19 10 20 8 21 7 22
REMARK SMILES IDX 9 24 6 25 5 26 4 27 3 28 2 29 1 30 25 31 26 32 27 33 28 34
REMARK SMILES IDX 29 35 30 36 31 37 32 38 33 40 34 41 35 42 81 43 36 44 80 45
REMARK SMILES IDX 37 46 38 47 39 48 74 49 40 50 79 51 73 52 75 53 41 54 78 55
REMARK SMILES IDX 72 56 71 57 42 59 64 60 49 61 63 62 50 63 53 64 62 65 76 66
REMARK SMILES IDX 51 67 52 68 61 70 77 71 54 72 43 73 44 74 48 75 45 76 47 77
REMARK SMILES IDX 46 78 65 79 66 80 70 81 67 82 69 83 68 84 55 85 56 86 60 87
REMARK SMILES IDX 57 88 59 89 58 90
REMARK H PARENT 24 4 7 23 31 39 75 58 53 69
REMARK Flexibility Score: inf
ROOT
ATOM      1  C   UNL A   1      42.203  19.782  26.927  1.00  0.00     0.227 C 
ATOM      2  O   UNL A   1      42.031  19.693  28.146  1.00  0.00    -0.274 OA
ATOM      3  N   UNL A   1      43.283  19.145  26.395  1.00  0.00    -0.356 N 
ATOM      4  H   UNL A   1      43.856  18.686  27.051  1.00  0.00     0.163 HD
ENDROOT
BRANCH   1   5
ATOM      5  C   UNL A   1      41.235  20.596  26.059  1.00  0.00     0.105 C 
ATOM      6  C   UNL A   1      39.917  19.831  25.900  1.00  0.00     0.023 C 
BRANCH   5   7
ATOM      7  C   UNL A   1      41.146  22.058  26.482  1.00  0.00    -0.033 A 
ATOM      8  C   UNL A   1      40.858  24.801  27.195  1.00  0.00     0.018 A 
ATOM      9  C   UNL A   1      42.116  24.254  26.902  1.00  0.00     0.012 A 
ATOM     10  C   UNL A   1      39.755  23.940  27.154  1.00  0.00     0.131 A 
ATOM     11  C   UNL A   1      42.261  22.903  26.563  1.00  0.00     0.005 A 
ATOM     12  C   UNL A   1      39.890  22.595  26.810  1.00  0.00     0.044 A 
ATOM     13  F   UNL A   1      38.525  24.399  27.430  1.00  0.00    -0.206 F 
BRANCH   8  14
ATOM     14  C   UNL A   1      40.719  26.218  27.553  1.00  0.00    -0.012 A 
ATOM     15  C   UNL A   1      40.576  27.966  29.229  1.00  0.00     0.133 A 
ATOM     16  C   UNL A   1      40.483  28.945  28.244  1.00  0.00     0.047 A 
ATOM     17  C   UNL A   1      40.670  26.615  28.897  1.00  0.00     0.056 A 
ATOM     18  C   UNL A   1      40.519  28.567  26.904  1.00  0.00     0.004 A 
ATOM     19  C   UNL A   1      40.641  27.215  26.562  1.00  0.00     0.009 A 
BRANCH  15  20
ATOM     20  O   UNL A   1      40.462  28.383  30.564  1.00  0.00    -0.410 OA
BRANCH  20  21
ATOM     21  C   UNL A   1      39.201  28.354  31.138  1.00  0.00     0.412 C 
ATOM     22  N   UNL A   1      38.726  29.595  31.457  1.00  0.00    -0.321 N 
ATOM     23  H   UNL A   1      37.834  29.633  31.870  1.00  0.00     0.167 HD
ATOM     24  O   UNL A   1      38.533  27.350  31.372  1.00  0.00    -0.224 OA
BRANCH  22  25
ATOM     25  C   UNL A   1      39.399  30.862  31.248  1.00  0.00     0.119 C 
BRANCH  25  26
ATOM     26  C   UNL A   1      38.499  31.880  30.549  1.00  0.00     0.021 C 
BRANCH  26  27
ATOM     27  C   UNL A   1      38.182  31.562  29.082  1.00  0.00     0.002 C 
BRANCH  27  28
ATOM     28  C   UNL A   1      36.909  30.741  28.844  1.00  0.00    -0.000 C 
BRANCH  28  29
ATOM     29  C   UNL A   1      35.928  31.328  27.825  1.00  0.00    -0.003 C 
ATOM     30  C   UNL A   1      35.565  32.778  28.105  1.00  0.00     0.004 C 
ENDBRANCH  28  29
ENDBRANCH  27  28
ENDBRANCH  26  27
ENDBRANCH  25  26
ENDBRANCH  22  25
ENDBRANCH  20  21
ENDBRANCH  15  20
ENDBRANCH   8  14
ENDBRANCH   5   7
ENDBRANCH   1   5
BRANCH   3  31
ATOM     31  C   UNL A   1      43.725  19.034  25.019  1.00  0.00     0.116 C 
BRANCH  31  32
ATOM     32  C   UNL A   1      45.012  19.818  24.774  1.00  0.00     0.021 C 
BRANCH  32  33
ATOM     33  C   UNL A   1      44.800  21.263  24.310  1.00  0.00     0.002 C 
BRANCH  33  34
ATOM     34  C   UNL A   1      45.977  22.212  24.558  1.00  0.00     0.002 C 
BRANCH  34  35
ATOM     35  C   UNL A   1      45.677  23.414  25.458  1.00  0.00     0.021 C 
BRANCH  35  36
ATOM     36  C   UNL A   1      46.894  24.237  25.868  1.00  0.00     0.116 C 
BRANCH  36  37
ATOM     37  N   UNL A   1      47.213  25.277  24.905  1.00  0.00    -0.352 N 
ATOM     38  C   UNL A   1      46.843  26.598  24.892  1.00  0.00     0.251 C 
ATOM     39  H   UNL A   1      47.779  24.992  24.151  1.00  0.00     0.163 HD
ATOM     40  O   UNL A   1      47.074  27.295  23.909  1.00  0.00    -0.269 OA
BRANCH  38  41
ATOM     41  C   UNL A   1      46.139  27.183  26.055  1.00  0.00     0.039 A 
ATOM     42  C   UNL A   1      46.896  27.778  27.069  1.00  0.00     0.014 A 
ATOM     43  C   UNL A   1      44.746  27.128  26.159  1.00  0.00     0.014 A 
ATOM     44  C   UNL A   1      46.253  28.371  28.157  1.00  0.00     0.010 A 
ATOM     45  C   UNL A   1      44.104  27.774  27.214  1.00  0.00     0.010 A 
ATOM     46  C   UNL A   1      44.850  28.401  28.224  1.00  0.00    -0.014 A 
BRANCH  46  47
ATOM     47  C   UNL A   1      44.148  29.087  29.339  1.00  0.00     0.031 A 
ATOM     48  C   UNL A   1      43.799  30.546  29.231  1.00  0.00     0.074 A 
ATOM     49  C   UNL A   1      43.884  28.413  30.475  1.00  0.00     0.049 A 
ATOM     50  N   UNL A   1      43.251  31.331  30.126  1.00  0.00    -0.248 NA
ATOM     51  C   UNL A   1      44.129  31.217  27.964  1.00  0.00     0.031 C 
ATOM     52  C   UNL A   1      44.208  27.007  30.724  1.00  0.00     0.029 A 
ATOM     53  N   UNL A   1      43.293  28.829  31.643  1.00  0.00    -0.354 N 
ATOM     54  C   UNL A   1      43.192  32.588  29.538  1.00  0.00     0.074 A 
ATOM     55  C   UNL A   1      43.792  32.472  28.227  1.00  0.00     0.031 C 
ATOM     56  C   UNL A   1      43.796  26.672  31.958  1.00  0.00     0.029 A 
ATOM     57  C   UNL A   1      43.216  27.847  32.601  1.00  0.00     0.049 A 
ATOM     58  H   UNL A   1      42.957  29.743  31.780  1.00  0.00     0.167 HD
ATOM     59  C   UNL A   1      42.672  33.733  30.040  1.00  0.00     0.031 A 
ATOM     60  C   UNL A   1      42.740  27.888  33.859  1.00  0.00     0.031 A 
ATOM     61  C   UNL A   1      42.054  33.847  31.333  1.00  0.00     0.049 A 
ATOM     62  C   UNL A   1      42.162  29.171  34.388  1.00  0.00     0.074 A 
ATOM     63  C   UNL A   1      41.437  34.950  31.899  1.00  0.00     0.029 A 
ATOM     64  N   UNL A   1      41.972  32.821  32.262  1.00  0.00    -0.354 N 
ATOM     65  N   UNL A   1      42.048  30.333  33.791  1.00  0.00    -0.248 NA
ATOM     66  C   UNL A   1      41.637  29.145  35.760  1.00  0.00     0.031 C 
ATOM     67  C   UNL A   1      41.021  34.605  33.189  1.00  0.00     0.029 A 
ATOM     68  C   UNL A   1      41.336  33.273  33.405  1.00  0.00     0.049 A 
ATOM     69  H   UNL A   1      42.316  31.909  32.128  1.00  0.00     0.167 HD
ATOM     70  C   UNL A   1      41.415  31.166  34.703  1.00  0.00     0.074 A 
ATOM     71  C   UNL A   1      41.155  30.373  35.887  1.00  0.00     0.031 C 
ATOM     72  C   UNL A   1      41.079  32.472  34.573  1.00  0.00     0.031 A 
BRANCH  59  73
ATOM     73  C   UNL A   1      42.751  34.967  29.186  1.00  0.00    -0.014 A 
ATOM     74  C   UNL A   1      41.680  35.353  28.364  1.00  0.00     0.009 A 
ATOM     75  C   UNL A   1      43.889  35.787  29.248  1.00  0.00     0.009 A 
ATOM     76  C   UNL A   1      41.759  36.520  27.602  1.00  0.00     0.001 A 
ATOM     77  C   UNL A   1      43.954  36.966  28.505  1.00  0.00     0.001 A 
ATOM     78  C   UNL A   1      42.892  37.328  27.677  1.00  0.00     0.000 A 
ENDBRANCH  59  73
BRANCH  60  79
ATOM     79  C   UNL A   1      42.782  26.673  34.715  1.00  0.00    -0.014 A 
ATOM     80  C   UNL A   1      41.637  25.879  34.882  1.00  0.00     0.009 A 
ATOM     81  C   UNL A   1      43.960  26.317  35.387  1.00  0.00     0.009 A 
ATOM     82  C   UNL A   1      41.663  24.770  35.730  1.00  0.00     0.001 A 
ATOM     83  C   UNL A   1      43.992  25.191  36.213  1.00  0.00     0.001 A 
ATOM     84  C   UNL A   1      42.841  24.425  36.393  1.00  0.00     0.000 A 
ENDBRANCH  60  79
BRANCH  72  85
ATOM     85  C   UNL A   1      40.361  33.115  35.724  1.00  0.00    -0.014 A 
ATOM     86  C   UNL A   1      38.962  33.071  35.824  1.00  0.00     0.009 A 
ATOM     87  C   UNL A   1      41.100  33.738  36.742  1.00  0.00     0.009 A 
ATOM     88  C   UNL A   1      38.315  33.667  36.908  1.00  0.00     0.001 A 
ATOM     89  C   UNL A   1      40.451  34.308  37.838  1.00  0.00     0.001 A 
ATOM     90  C   UNL A   1      39.060  34.281  37.916  1.00  0.00     0.000 A 
ENDBRANCH  72  85
ENDBRANCH  46  47
ENDBRANCH  38  41
ENDBRANCH  36  37
ENDBRANCH  35  36
ENDBRANCH  34  35
ENDBRANCH  33  34
ENDBRANCH  32  33
ENDBRANCH  31  32
ENDBRANCH   3  31
TORSDOF 22
ENDMDL
MODEL 2
REMARK VINA RESULT:      -8.3      0.482      5.615
REMARK SMILES CCCCCCNC(=O)Oc1cccc(-c2ccc([C@H](C)C(=O)NCCCCCCNC(=O)c3ccc(-c4c5nc(c(-c6ccccc6)c6ccc([nH]6)c(-c6ccccc6)c6nc(c(-c7ccccc7)c7ccc4[nH]7)C=C6)C=C5)cc3)cc2F)c1
REMARK SMILES IDX 22 1 23 2 24 3 20 5 21 6 19 7 16 8 17 9 83 10 18 11 82 12
REMARK SMILES IDX 84 13 15 14 11 15 12 16 85 17 13 18 14 19 10 20 8 21 7 22
REMARK SMILES IDX 9 24 6 25 5 26 4 27 3 28 2 29 1 30 25 31 26 32 27 33 28 34
REMARK SMILES IDX 29 35 30 36 31 37 32 38 33 40 34 41 35 42 81 43 36 44 80 45
REMARK SMILES IDX 37 46 38 47 39 48 74 49 40 50 79 51 73 52 75 53 41 54 78 55
REMARK SMILES IDX 72 56 71 57 42 59 64 60 49 61 63 62 50 63 53 64 62 65 76 66
REMARK SMILES IDX 51 67 52 68 61 70 77 71 54 72 43 73 44 74 48 75 45 76 47 77
REMARK SMILES IDX 46 78 65 79 66 80 70 81 67 82 69 83 68 84 55 85 56 86 60 87
REMARK SMILES IDX 57 88 59 89 58 90
REMARK H PARENT 24 4 7 23 31 39 75 58 53 69
REMARK Flexibility Score: inf
ROOT
ATOM      1  C   UNL A   1      42.087  19.800  26.927  1.00  0.00     0.227 C 
ATOM      2  O   UNL A   1      41.824  19.724  28.131  1.00  0.00    -0.274 OA
ATOM      3  N   UNL A   1      43.177  19.120  26.475  1.00  0.00    -0.356 N 
ATOM      4  H   UNL A   1      43.684  18.644  27.171  1.00  0.00     0.163 HD
ENDROOT
BRANCH   1   5
ATOM      5  C   UNL A   1      41.214  20.645  25.990  1.00  0.00     0.105 C 
ATOM      6  C   UNL A   1      39.880  19.933  25.745  1.00  0.00     0.023 C 
BRANCH   5   7
ATOM      7  C   UNL A   1      41.156  22.113  26.398  1.00  0.00    -0.033 A 
ATOM      8  C   UNL A   1      40.910  24.857  27.120  1.00  0.00     0.018 A 
ATOM      9  C   UNL A   1      42.059  24.376  26.477  1.00  0.00     0.012 A 
ATOM     10  C   UNL A   1      39.902  23.932  27.420  1.00  0.00     0.131 A 
ATOM     11  C   UNL A   1      42.187  23.024  26.132  1.00  0.00     0.005 A 
ATOM     12  C   UNL A   1      40.019  22.586  27.073  1.00  0.00     0.044 A 
ATOM     13  F   UNL A   1      38.780  24.328  28.040  1.00  0.00    -0.206 F 
BRANCH   8  14
ATOM     14  C   UNL A   1      40.788  26.276  27.481  1.00  0.00    -0.012 A 
ATOM     15  C   UNL A   1      40.679  28.023  29.159  1.00  0.00     0.133 A 
ATOM     16  C   UNL A   1      40.585  29.004  28.176  1.00  0.00     0.047 A 
ATOM     17  C   UNL A   1      40.756  26.671  28.825  1.00  0.00     0.056 A 
ATOM     18  C   UNL A   1      40.604  28.627  26.836  1.00  0.00     0.004 A 
ATOM     19  C   UNL A   1      40.709  27.275  26.491  1.00  0.00     0.009 A 
BRANCH  15  20
ATOM     20  O   UNL A   1      40.582  28.440  30.496  1.00  0.00    -0.410 OA
BRANCH  20  21
ATOM     21  C   UNL A   1      39.320  28.473  31.067  1.00  0.00     0.412 C 
ATOM     22  N   UNL A   1      38.983  29.703  31.558  1.00  0.00    -0.321 N 
ATOM     23  H   UNL A   1      38.096  29.782  31.977  1.00  0.00     0.167 HD
ATOM     24  O   UNL A   1      38.542  27.528  31.161  1.00  0.00    -0.224 OA
BRANCH  22  25
ATOM     25  C   UNL A   1      39.795  30.903  31.526  1.00  0.00     0.119 C 
BRANCH  25  26
ATOM     26  C   UNL A   1      39.012  32.112  31.017  1.00  0.00     0.021 C 
BRANCH  26  27
ATOM     27  C   UNL A   1      38.706  32.098  29.514  1.00  0.00     0.002 C 
BRANCH  27  28
ATOM     28  C   UNL A   1      37.228  31.938  29.141  1.00  0.00    -0.000 C 
BRANCH  28  29
ATOM     29  C   UNL A   1      36.912  30.786  28.183  1.00  0.00    -0.003 C 
ATOM     30  C   UNL A   1      36.515  29.502  28.896  1.00  0.00     0.004 C 
ENDBRANCH  28  29
ENDBRANCH  27  28
ENDBRANCH  26  27
ENDBRANCH  25  26
ENDBRANCH  22  25
ENDBRANCH  20  21
ENDBRANCH  15  20
ENDBRANCH   8  14
ENDBRANCH   5   7
ENDBRANCH   1   5
BRANCH   3  31
ATOM     31  C   UNL A   1      43.711  18.986  25.134  1.00  0.00     0.116 C 
BRANCH  31  32
ATOM     32  C   UNL A   1      45.029  19.739  24.973  1.00  0.00     0.021 C 
BRANCH  32  33
ATOM     33  C   UNL A   1      44.882  21.187  24.495  1.00  0.00     0.002 C 
BRANCH  33  34
ATOM     34  C   UNL A   1      46.034  22.124  24.870  1.00  0.00     0.002 C 
BRANCH  34  35
ATOM     35  C   UNL A   1      45.669  23.274  25.814  1.00  0.00     0.021 C 
BRANCH  35  36
ATOM     36  C   UNL A   1      46.804  24.246  26.121  1.00  0.00     0.116 C 
BRANCH  36  37
ATOM     37  N   UNL A   1      47.003  25.221  25.063  1.00  0.00    -0.352 N 
ATOM     38  C   UNL A   1      46.615  26.537  25.005  1.00  0.00     0.251 C 
ATOM     39  H   UNL A   1      47.489  24.891  24.273  1.00  0.00     0.163 HD
ATOM     40  O   UNL A   1      46.730  27.167  23.958  1.00  0.00    -0.269 OA
BRANCH  38  41
ATOM     41  C   UNL A   1      46.032  27.192  26.195  1.00  0.00     0.039 A 
ATOM     42  C   UNL A   1      46.891  27.789  27.123  1.00  0.00     0.014 A 
ATOM     43  C   UNL A   1      44.651  27.202  26.411  1.00  0.00     0.014 A 
ATOM     44  C   UNL A   1      46.362  28.448  28.235  1.00  0.00     0.010 A 
ATOM     45  C   UNL A   1      44.122  27.913  27.488  1.00  0.00     0.010 A 
ATOM     46  C   UNL A   1      44.972  28.542  28.411  1.00  0.00    -0.014 A 
BRANCH  46  47
ATOM     47  C   UNL A   1      44.391  29.297  29.550  1.00  0.00     0.031 A 
ATOM     48  C   UNL A   1      44.058  28.593  30.836  1.00  0.00     0.074 A 
ATOM     49  C   UNL A   1      44.100  30.605  29.403  1.00  0.00     0.049 A 
ATOM     50  N   UNL A   1      43.482  29.070  31.912  1.00  0.00    -0.248 NA
ATOM     51  C   UNL A   1      44.395  27.163  30.918  1.00  0.00     0.031 C 
ATOM     52  C   UNL A   1      44.334  31.396  28.193  1.00  0.00     0.029 A 
ATOM     53  N   UNL A   1      43.529  31.496  30.277  1.00  0.00    -0.354 N 
ATOM     54  C   UNL A   1      43.368  27.996  32.785  1.00  0.00     0.074 A 
ATOM     55  C   UNL A   1      43.899  26.836  32.103  1.00  0.00     0.031 C 
ATOM     56  C   UNL A   1      43.926  32.658  28.408  1.00  0.00     0.029 A 
ATOM     57  C   UNL A   1      43.369  32.756  29.753  1.00  0.00     0.049 A 
ATOM     58  H   UNL A   1      43.260  31.255  31.193  1.00  0.00     0.167 HD
ATOM     59  C   UNL A   1      42.878  27.979  34.047  1.00  0.00     0.031 A 
ATOM     60  C   UNL A   1      42.827  33.865  30.290  1.00  0.00     0.031 A 
ATOM     61  C   UNL A   1      42.371  29.134  34.738  1.00  0.00     0.049 A 
ATOM     62  C   UNL A   1      42.296  33.819  31.696  1.00  0.00     0.074 A 
ATOM     63  C   UNL A   1      41.917  29.228  36.042  1.00  0.00     0.029 A 
ATOM     64  N   UNL A   1      42.251  30.397  34.180  1.00  0.00    -0.354 N 
ATOM     65  N   UNL A   1      42.263  32.812  32.534  1.00  0.00    -0.248 NA
ATOM     66  C   UNL A   1      41.739  35.068  32.234  1.00  0.00     0.031 C 
ATOM     67  C   UNL A   1      41.480  30.539  36.261  1.00  0.00     0.029 A 
ATOM     68  C   UNL A   1      41.710  31.271  35.107  1.00  0.00     0.049 A 
ATOM     69  H   UNL A   1      42.512  30.637  33.261  1.00  0.00     0.167 HD
ATOM     70  C   UNL A   1      41.708  33.312  33.704  1.00  0.00     0.074 A 
ATOM     71  C   UNL A   1      41.434  34.715  33.474  1.00  0.00     0.031 C 
ATOM     72  C   UNL A   1      41.447  32.665  34.866  1.00  0.00     0.031 A 
BRANCH  59  73
ATOM     73  C   UNL A   1      42.862  26.662  34.771  1.00  0.00    -0.014 A 
ATOM     74  C   UNL A   1      44.021  26.150  35.374  1.00  0.00     0.009 A 
ATOM     75  C   UNL A   1      41.657  25.954  34.904  1.00  0.00     0.009 A 
ATOM     76  C   UNL A   1      43.980  24.940  36.070  1.00  0.00     0.001 A 
ATOM     77  C   UNL A   1      41.613  24.759  35.622  1.00  0.00     0.001 A 
ATOM     78  C   UNL A   1      42.776  24.249  36.199  1.00  0.00     0.000 A 
ENDBRANCH  59  73
BRANCH  60  79
ATOM     79  C   UNL A   1      42.758  35.122  29.500  1.00  0.00    -0.014 A 
ATOM     80  C   UNL A   1      43.786  36.074  29.584  1.00  0.00     0.009 A 
ATOM     81  C   UNL A   1      41.653  35.387  28.679  1.00  0.00     0.009 A 
ATOM     82  C   UNL A   1      43.694  37.279  28.885  1.00  0.00     0.001 A 
ATOM     83  C   UNL A   1      41.575  36.581  27.958  1.00  0.00     0.001 A 
ATOM     84  C   UNL A   1      42.590  37.531  28.070  1.00  0.00     0.000 A 
ENDBRANCH  60  79
BRANCH  72  85
ATOM     85  C   UNL A   1      40.870  33.477  35.990  1.00  0.00    -0.014 A 
ATOM     86  C   UNL A   1      41.698  34.162  36.892  1.00  0.00     0.009 A 
ATOM     87  C   UNL A   1      39.478  33.590  36.120  1.00  0.00     0.009 A 
ATOM     88  C   UNL A   1      41.141  34.920  37.924  1.00  0.00     0.001 A 
ATOM     89  C   UNL A   1      38.924  34.370  37.135  1.00  0.00     0.001 A 
ATOM     90  C   UNL A   1      39.754  35.027  38.041  1.00  0.00     0.000 A 
ENDBRANCH  72  85
ENDBRANCH  46  47
ENDBRANCH  38  41
ENDBRANCH  36  37
ENDBRANCH  35  36
ENDBRANCH  34  35
ENDBRANCH  33  34
ENDBRANCH  32  33
ENDBRANCH  31  32
ENDBRANCH   3  31
TORSDOF 22
ENDMDL
MODEL 3
REMARK VINA RESULT:      -8.1      2.153      3.286
REMARK SMILES CCCCCCNC(=O)Oc1cccc(-c2ccc([C@H](C)C(=O)NCCCCCCNC(=O)c3ccc(-c4c5nc(c(-c6ccccc6)c6ccc([nH]6)c(-c6ccccc6)c6nc(c(-c7ccccc7)c7ccc4[nH]7)C=C6)C=C5)cc3)cc2F)c1
REMARK SMILES IDX 22 1 23 2 24 3 20 5 21 6 19 7 16 8 17 9 83 10 18 11 82 12
REMARK SMILES IDX 84 13 15 14 11 15 12 16 85 17 13 18 14 19 10 20 8 21 7 22
REMARK SMILES IDX 9 24 6 25 5 26 4 27 3 28 2 29 1 30 25 31 26 32 27 33 28 34
REMARK SMILES IDX 29 35 30 36 31 37 32 38 33 40 34 41 35 42 81 43 36 44 80 45
REMARK SMILES IDX 37 46 38 47 39 48 74 49 40 50 79 51 73 52 75 53 41 54 78 55
REMARK SMILES IDX 72 56 71 57 42 59 64 60 49 61 63 62 50 63 53 64 62 65 76 66
REMARK SMILES IDX 51 67 52 68 61 70 77 71 54 72 43 73 44 74 48 75 45 76 47 77
REMARK SMILES IDX 46 78 65 79 66 80 70 81 67 82 69 83 68 84 55 85 56 86 60 87
REMARK SMILES IDX 57 88 59 89 58 90
REMARK H PARENT 24 4 7 23 31 39 75 58 53 69
REMARK Flexibility Score: inf
ROOT
ATOM      1  C   UNL A   1      41.242  25.317  26.101  1.00  0.00     0.227 C 
ATOM      2  O   UNL A   1      41.442  25.933  25.050  1.00  0.00    -0.274 OA
ATOM      3  N   UNL A   1      42.289  24.634  26.641  1.00  0.00    -0.356 N 
ATOM      4  H   UNL A   1      43.121  24.670  26.115  1.00  0.00     0.163 HD
ENDROOT
BRANCH   1   5
ATOM      5  C   UNL A   1      39.855  25.321  26.756  1.00  0.00     0.105 C 
ATOM      6  C   UNL A   1      39.454  23.890  27.126  1.00  0.00     0.023 C 
BRANCH   5   7
ATOM      7  C   UNL A   1      39.714  26.386  27.838  1.00  0.00    -0.033 A 
ATOM      8  C   UNL A   1      39.588  28.409  29.839  1.00  0.00     0.018 A 
ATOM      9  C   UNL A   1      38.943  27.176  30.012  1.00  0.00     0.012 A 
ATOM     10  C   UNL A   1      40.270  28.618  28.635  1.00  0.00     0.131 A 
ATOM     11  C   UNL A   1      38.994  26.184  29.024  1.00  0.00     0.005 A 
ATOM     12  C   UNL A   1      40.331  27.633  27.649  1.00  0.00     0.044 A 
ATOM     13  F   UNL A   1      40.902  29.779  28.406  1.00  0.00    -0.206 F 
BRANCH   8  14
ATOM     14  C   UNL A   1      39.524  29.443  30.881  1.00  0.00    -0.012 A 
ATOM     15  C   UNL A   1      39.561  31.777  31.541  1.00  0.00     0.133 A 
ATOM     16  C   UNL A   1      39.372  31.434  32.876  1.00  0.00     0.047 A 
ATOM     17  C   UNL A   1      39.660  30.799  30.551  1.00  0.00     0.056 A 
ATOM     18  C   UNL A   1      39.245  30.090  33.222  1.00  0.00     0.004 A 
ATOM     19  C   UNL A   1      39.317  29.104  32.232  1.00  0.00     0.009 A 
BRANCH  15  20
ATOM     20  O   UNL A   1      39.756  33.134  31.246  1.00  0.00    -0.410 OA
BRANCH  20  21
ATOM     21  C   UNL A   1      38.746  34.017  31.596  1.00  0.00     0.412 C 
ATOM     22  N   UNL A   1      37.940  34.356  30.546  1.00  0.00    -0.321 N 
ATOM     23  H   UNL A   1      37.207  34.982  30.738  1.00  0.00     0.167 HD
ATOM     24  O   UNL A   1      38.550  34.489  32.712  1.00  0.00    -0.224 OA
BRANCH  22  25
ATOM     25  C   UNL A   1      38.052  33.888  29.179  1.00  0.00     0.119 C 
BRANCH  25  26
ATOM     26  C   UNL A   1      36.980  32.854  28.837  1.00  0.00     0.021 C 
BRANCH  26  27
ATOM     27  C   UNL A   1      35.844  32.739  29.861  1.00  0.00     0.002 C 
BRANCH  27  28
ATOM     28  C   UNL A   1      35.905  31.514  30.781  1.00  0.00    -0.000 C 
BRANCH  28  29
ATOM     29  C   UNL A   1      35.879  31.815  32.281  1.00  0.00    -0.003 C 
ATOM     30  C   UNL A   1      34.864  32.883  32.664  1.00  0.00     0.004 C 
ENDBRANCH  28  29
ENDBRANCH  27  28
ENDBRANCH  26  27
ENDBRANCH  25  26
ENDBRANCH  22  25
ENDBRANCH  20  21
ENDBRANCH  15  20
ENDBRANCH   8  14
ENDBRANCH   5   7
ENDBRANCH   1   5
BRANCH   3  31
ATOM     31  C   UNL A   1      42.377  23.861  27.864  1.00  0.00     0.116 C 
BRANCH  31  32
ATOM     32  C   UNL A   1      43.072  24.642  28.976  1.00  0.00     0.021 C 
BRANCH  32  33
ATOM     33  C   UNL A   1      44.572  24.863  28.759  1.00  0.00     0.002 C 
BRANCH  33  34
ATOM     34  C   UNL A   1      45.334  23.674  28.166  1.00  0.00     0.002 C 
BRANCH  34  35
ATOM     35  C   UNL A   1      46.188  23.984  26.934  1.00  0.00     0.021 C 
BRANCH  35  36
ATOM     36  C   UNL A   1      45.405  24.359  25.680  1.00  0.00     0.116 C 
BRANCH  36  37
ATOM     37  N   UNL A   1      46.104  25.333  24.858  1.00  0.00    -0.352 N 
ATOM     38  C   UNL A   1      46.174  26.697  24.991  1.00  0.00     0.251 C 
ATOM     39  H   UNL A   1      46.602  24.959  24.096  1.00  0.00     0.163 HD
ATOM     40  O   UNL A   1      46.683  27.378  24.106  1.00  0.00    -0.269 OA
BRANCH  38  41
ATOM     41  C   UNL A   1      45.612  27.356  26.190  1.00  0.00     0.039 A 
ATOM     42  C   UNL A   1      46.474  27.694  27.238  1.00  0.00     0.014 A 
ATOM     43  C   UNL A   1      44.243  27.622  26.295  1.00  0.00     0.014 A 
ATOM     44  C   UNL A   1      45.974  28.352  28.364  1.00  0.00     0.010 A 
ATOM     45  C   UNL A   1      43.756  28.333  27.391  1.00  0.00     0.010 A 
ATOM     46  C   UNL A   1      44.616  28.704  28.436  1.00  0.00    -0.014 A 
BRANCH  46  47
ATOM     47  C   UNL A   1      44.080  29.464  29.594  1.00  0.00     0.031 A 
ATOM     48  C   UNL A   1      43.884  30.952  29.499  1.00  0.00     0.074 A 
ATOM     49  C   UNL A   1      43.831  28.824  30.754  1.00  0.00     0.049 A 
ATOM     50  N   UNL A   1      43.495  31.793  30.425  1.00  0.00    -0.248 NA
ATOM     51  C   UNL A   1      44.188  31.582  28.204  1.00  0.00     0.031 C 
ATOM     52  C   UNL A   1      44.018  27.391  30.990  1.00  0.00     0.029 A 
ATOM     53  N   UNL A   1      43.380  29.303  31.958  1.00  0.00    -0.354 N 
ATOM     54  C   UNL A   1      43.529  33.049  29.832  1.00  0.00     0.074 A 
ATOM     55  C   UNL A   1      44.011  32.866  28.480  1.00  0.00     0.031 C 
ATOM     56  C   UNL A   1      43.668  27.105  32.255  1.00  0.00     0.029 A 
ATOM     57  C   UNL A   1      43.269  28.337  32.929  1.00  0.00     0.049 A 
ATOM     58  H   UNL A   1      43.156  30.250  32.112  1.00  0.00     0.167 HD
ATOM     59  C   UNL A   1      43.176  34.244  30.360  1.00  0.00     0.031 A 
ATOM     60  C   UNL A   1      42.897  28.431  34.219  1.00  0.00     0.031 A 
ATOM     61  C   UNL A   1      42.674  34.427  31.695  1.00  0.00     0.049 A 
ATOM     62  C   UNL A   1      42.505  29.771  34.777  1.00  0.00     0.074 A 
ATOM     63  C   UNL A   1      42.226  35.591  32.296  1.00  0.00     0.029 A 
ATOM     64  N   UNL A   1      42.552  33.418  32.637  1.00  0.00    -0.354 N 
ATOM     65  N   UNL A   1      42.473  30.937  34.180  1.00  0.00    -0.248 NA
ATOM     66  C   UNL A   1      42.086  29.805  36.186  1.00  0.00     0.031 C 
ATOM     67  C   UNL A   1      41.874  35.296  33.617  1.00  0.00     0.029 A 
ATOM     68  C   UNL A   1      42.058  33.937  33.821  1.00  0.00     0.049 A 
ATOM     69  H   UNL A   1      42.784  32.473  32.487  1.00  0.00     0.167 HD
ATOM     70  C   UNL A   1      42.006  31.835  35.130  1.00  0.00     0.074 A 
ATOM     71  C   UNL A   1      41.752  31.078  36.337  1.00  0.00     0.031 C 
ATOM     72  C   UNL A   1      41.805  33.170  35.012  1.00  0.00     0.031 A 
BRANCH  59  73
ATOM     73  C   UNL A   1      43.323  35.461  29.490  1.00  0.00    -0.014 A 
ATOM     74  C   UNL A   1      44.526  36.182  29.446  1.00  0.00     0.009 A 
ATOM     75  C   UNL A   1      42.263  35.857  28.659  1.00  0.00     0.009 A 
ATOM     76  C   UNL A   1      44.656  37.292  28.609  1.00  0.00     0.001 A 
ATOM     77  C   UNL A   1      42.404  36.950  27.804  1.00  0.00     0.001 A 
ATOM     78  C   UNL A   1      43.597  37.672  27.784  1.00  0.00     0.000 A 
ENDBRANCH  59  73
BRANCH  60  79
ATOM     79  C   UNL A   1      42.873  27.221  35.081  1.00  0.00    -0.014 A 
ATOM     80  C   UNL A   1      41.729  26.409  35.136  1.00  0.00     0.009 A 
ATOM     81  C   UNL A   1      43.983  26.885  35.869  1.00  0.00     0.009 A 
ATOM     82  C   UNL A   1      41.686  25.303  35.988  1.00  0.00     0.001 A 
ATOM     83  C   UNL A   1      43.948  25.762  36.700  1.00  0.00     0.001 A 
ATOM     84  C   UNL A   1      42.797  24.979  36.767  1.00  0.00     0.000 A 
ENDBRANCH  60  79
BRANCH  72  85
ATOM     85  C   UNL A   1      41.251  33.890  36.208  1.00  0.00    -0.014 A 
ATOM     86  C   UNL A   1      39.867  34.002  36.413  1.00  0.00     0.009 A 
ATOM     87  C   UNL A   1      42.129  34.426  37.163  1.00  0.00     0.009 A 
ATOM     88  C   UNL A   1      39.373  34.666  37.537  1.00  0.00     0.001 A 
ATOM     89  C   UNL A   1      41.631  35.065  38.300  1.00  0.00     0.001 A 
ATOM     90  C   UNL A   1      40.255  35.193  38.481  1.00  0.00     0.000 A 
ENDBRANCH  72  85
ENDBRANCH  46  47
ENDBRANCH  38  41
ENDBRANCH  36  37
ENDBRANCH  35  36
ENDBRANCH  34  35
ENDBRANCH  33  34
ENDBRANCH  32  33
ENDBRANCH  31  32
ENDBRANCH   3  31
TORSDOF 22
ENDMDL
