MODEL 1
REMARK VINA RESULT:     -10.8      0.000      0.000
REMARK SMILES C[C@H](C(=O)NCCCCCCNC(=O)c1ccc(-c2c3nc(c(-c4ccccc4)c4ccc([nH]4)c(-c4ccccc4)c4nc(c(-c5ccccc5)c5ccc2[nH]5)C=C4)C=C3)cc1)N1CCc2ccccc21
REMARK SMILES IDX 9 1 8 2 7 3 6 4 5 5 3 6 4 7 2 9 1 10 63 11 64 12 71 13 65 14
REMARK SMILES IDX 66 15 70 16 67 17 69 18 68 19 10 20 11 21 12 22 13 23 14 25
REMARK SMILES IDX 15 26 16 27 62 28 17 29 61 30 18 31 19 32 20 33 55 34 21 35
REMARK SMILES IDX 60 36 54 37 56 38 22 39 59 40 53 41 52 42 23 44 45 45 30 46
REMARK SMILES IDX 44 47 31 48 34 49 43 50 57 51 32 52 33 53 42 55 58 56 35 57
REMARK SMILES IDX 24 58 25 59 29 60 26 61 28 62 27 63 46 64 47 65 51 66 48 67
REMARK SMILES IDX 50 68 49 69 36 70 37 71 41 72 38 73 40 74 39 75
REMARK H PARENT 5 8 12 24 56 43 34 54
REMARK Flexibility Score: inf
ROOT
ATOM      1  C   UNL A   1      31.848  30.321  25.877  1.00  0.00     0.002 C 
ENDROOT
BRANCH   1   2
ATOM      2  C   UNL A   1      33.256  29.811  26.179  1.00  0.00     0.002 C 
BRANCH   2   3
ATOM      3  C   UNL A   1      33.287  28.590  27.102  1.00  0.00     0.021 C 
BRANCH   3   4
ATOM      4  C   UNL A   1      32.122  27.616  26.915  1.00  0.00     0.116 C 
BRANCH   4   5
ATOM      5  N   UNL A   1      32.489  26.415  26.189  1.00  0.00    -0.354 N 
ATOM      6  C   UNL A   1      32.439  26.120  24.858  1.00  0.00     0.242 C 
ATOM      7  O   UNL A   1      32.853  24.998  24.538  1.00  0.00    -0.273 OA
ATOM      8  H   UNL A   1      32.835  25.688  26.755  1.00  0.00     0.163 HD
BRANCH   6   9
ATOM      9  C   UNL A   1      32.010  27.149  23.784  1.00  0.00     0.168 C 
ATOM     10  C   UNL A   1      32.902  27.032  22.537  1.00  0.00     0.042 C 
BRANCH   9  11
ATOM     11  N   UNL A   1      30.596  27.083  23.392  1.00  0.00    -0.359 N 
ATOM     12  C   UNL A   1      29.678  26.175  24.094  1.00  0.00     0.122 C 
ATOM     13  C   UNL A   1      29.852  28.187  22.994  1.00  0.00     0.041 A 
ATOM     14  C   UNL A   1      28.243  26.694  23.876  1.00  0.00     0.059 C 
ATOM     15  C   UNL A   1      28.492  28.034  23.269  1.00  0.00    -0.023 A 
ATOM     16  C   UNL A   1      30.299  29.328  22.345  1.00  0.00     0.026 A 
ATOM     17  C   UNL A   1      27.570  29.020  22.958  1.00  0.00     0.006 A 
ATOM     18  C   UNL A   1      29.382  30.322  22.002  1.00  0.00     0.002 A 
ATOM     19  C   UNL A   1      28.027  30.176  22.323  1.00  0.00     0.000 A 
ENDBRANCH   9  11
ENDBRANCH   6   9
ENDBRANCH   4   5
ENDBRANCH   3   4
ENDBRANCH   2   3
ENDBRANCH   1   2
BRANCH   1  20
ATOM     20  C   UNL A   1      31.505  31.668  26.519  1.00  0.00     0.021 C 
BRANCH  20  21
ATOM     21  C   UNL A   1      32.670  32.332  27.247  1.00  0.00     0.116 C 
BRANCH  21  22
ATOM     22  N   UNL A   1      32.432  33.758  27.434  1.00  0.00    -0.352 N 
ATOM     23  C   UNL A   1      32.985  34.586  28.377  1.00  0.00     0.251 C 
ATOM     24  H   UNL A   1      31.796  34.177  26.810  1.00  0.00     0.163 HD
ATOM     25  O   UNL A   1      32.500  35.687  28.627  1.00  0.00    -0.269 OA
BRANCH  23  26
ATOM     26  C   UNL A   1      34.188  34.124  29.094  1.00  0.00     0.039 A 
ATOM     27  C   UNL A   1      34.053  33.372  30.262  1.00  0.00     0.014 A 
ATOM     28  C   UNL A   1      35.450  34.409  28.565  1.00  0.00     0.014 A 
ATOM     29  C   UNL A   1      35.196  32.853  30.876  1.00  0.00     0.010 A 
ATOM     30  C   UNL A   1      36.576  33.828  29.133  1.00  0.00     0.010 A 
ATOM     31  C   UNL A   1      36.461  33.055  30.300  1.00  0.00    -0.014 A 
BRANCH  31  32
ATOM     32  C   UNL A   1      37.691  32.485  30.903  1.00  0.00     0.031 A 
ATOM     33  C   UNL A   1      38.317  31.261  30.297  1.00  0.00     0.074 A 
ATOM     34  C   UNL A   1      38.184  33.005  32.043  1.00  0.00     0.049 A 
ATOM     35  N   UNL A   1      39.323  30.546  30.731  1.00  0.00    -0.248 NA
ATOM     36  C   UNL A   1      37.708  30.755  29.056  1.00  0.00     0.031 C 
ATOM     37  C   UNL A   1      37.639  34.163  32.752  1.00  0.00     0.029 A 
ATOM     38  N   UNL A   1      39.245  32.608  32.817  1.00  0.00    -0.354 N 
ATOM     39  C   UNL A   1      39.447  29.493  29.833  1.00  0.00     0.074 A 
ATOM     40  C   UNL A   1      38.383  29.633  28.865  1.00  0.00     0.031 C 
ATOM     41  C   UNL A   1      38.375  34.389  33.851  1.00  0.00     0.029 A 
ATOM     42  C   UNL A   1      39.413  33.367  33.949  1.00  0.00     0.049 A 
ATOM     43  H   UNL A   1      39.830  31.851  32.584  1.00  0.00     0.167 HD
ATOM     44  C   UNL A   1      40.375  28.507  29.807  1.00  0.00     0.031 A 
ATOM     45  C   UNL A   1      40.290  33.243  34.964  1.00  0.00     0.031 A 
ATOM     46  C   UNL A   1      41.432  28.373  30.774  1.00  0.00     0.049 A 
ATOM     47  C   UNL A   1      41.305  32.135  34.926  1.00  0.00     0.074 A 
ATOM     48  C   UNL A   1      42.463  27.452  30.801  1.00  0.00     0.029 A 
ATOM     49  N   UNL A   1      41.583  29.180  31.891  1.00  0.00    -0.354 N 
ATOM     50  N   UNL A   1      41.465  31.194  34.027  1.00  0.00    -0.248 NA
ATOM     51  C   UNL A   1      42.266  32.075  36.036  1.00  0.00     0.031 C 
ATOM     52  C   UNL A   1      43.199  27.659  31.972  1.00  0.00     0.029 A 
ATOM     53  C   UNL A   1      42.671  28.755  32.635  1.00  0.00     0.049 A 
ATOM     54  H   UNL A   1      41.005  29.942  32.122  1.00  0.00     0.167 HD
ATOM     55  C   UNL A   1      42.559  30.448  34.445  1.00  0.00     0.074 A 
ATOM     56  C   UNL A   1      43.030  31.052  35.676  1.00  0.00     0.031 C 
ATOM     57  C   UNL A   1      43.125  29.365  33.860  1.00  0.00     0.031 A 
BRANCH  44  58
ATOM     58  C   UNL A   1      40.260  27.482  28.710  1.00  0.00    -0.014 A 
ATOM     59  C   UNL A   1      39.525  26.298  28.883  1.00  0.00     0.009 A 
ATOM     60  C   UNL A   1      40.902  27.705  27.482  1.00  0.00     0.009 A 
ATOM     61  C   UNL A   1      39.484  25.334  27.873  1.00  0.00     0.001 A 
ATOM     62  C   UNL A   1      40.829  26.757  26.459  1.00  0.00     0.001 A 
ATOM     63  C   UNL A   1      40.133  25.567  26.661  1.00  0.00     0.000 A 
ENDBRANCH  44  58
BRANCH  45  64
ATOM     64  C   UNL A   1      40.238  34.201  36.098  1.00  0.00    -0.014 A 
ATOM     65  C   UNL A   1      40.961  35.402  36.057  1.00  0.00     0.009 A 
ATOM     66  C   UNL A   1      39.432  33.934  37.217  1.00  0.00     0.009 A 
ATOM     67  C   UNL A   1      40.891  36.307  37.119  1.00  0.00     0.001 A 
ATOM     68  C   UNL A   1      39.340  34.853  38.264  1.00  0.00     0.001 A 
ATOM     69  C   UNL A   1      40.075  36.036  38.218  1.00  0.00     0.000 A 
ENDBRANCH  45  64
BRANCH  57  70
ATOM     70  C   UNL A   1      44.342  28.774  34.516  1.00  0.00    -0.014 A 
ATOM     71  C   UNL A   1      45.621  29.310  34.305  1.00  0.00     0.009 A 
ATOM     72  C   UNL A   1      44.191  27.712  35.423  1.00  0.00     0.009 A 
ATOM     73  C   UNL A   1      46.726  28.782  34.976  1.00  0.00     0.001 A 
ATOM     74  C   UNL A   1      45.292  27.206  36.113  1.00  0.00     0.001 A 
ATOM     75  C   UNL A   1      46.560  27.737  35.885  1.00  0.00     0.000 A 
ENDBRANCH  57  70
ENDBRANCH  31  32
ENDBRANCH  23  26
ENDBRANCH  21  22
ENDBRANCH  20  21
ENDBRANCH   1  20
TORSDOF 14
ENDMDL
MODEL 2
REMARK VINA RESULT:     -10.6      1.005      6.120
REMARK SMILES C[C@H](C(=O)NCCCCCCNC(=O)c1ccc(-c2c3nc(c(-c4ccccc4)c4ccc([nH]4)c(-c4ccccc4)c4nc(c(-c5ccccc5)c5ccc2[nH]5)C=C4)C=C3)cc1)N1CCc2ccccc21
REMARK SMILES IDX 9 1 8 2 7 3 6 4 5 5 3 6 4 7 2 9 1 10 63 11 64 12 71 13 65 14
REMARK SMILES IDX 66 15 70 16 67 17 69 18 68 19 10 20 11 21 12 22 13 23 14 25
REMARK SMILES IDX 15 26 16 27 62 28 17 29 61 30 18 31 19 32 20 33 55 34 21 35
REMARK SMILES IDX 60 36 54 37 56 38 22 39 59 40 53 41 52 42 23 44 45 45 30 46
REMARK SMILES IDX 44 47 31 48 34 49 43 50 57 51 32 52 33 53 42 55 58 56 35 57
REMARK SMILES IDX 24 58 25 59 29 60 26 61 28 62 27 63 46 64 47 65 51 66 48 67
REMARK SMILES IDX 50 68 49 69 36 70 37 71 41 72 38 73 40 74 39 75
REMARK H PARENT 5 8 12 24 56 43 34 54
REMARK Flexibility Score: inf
ROOT
ATOM      1  C   UNL A   1      31.612  30.584  26.000  1.00  0.00     0.002 C 
ENDROOT
BRANCH   1   2
ATOM      2  C   UNL A   1      32.836  29.802  26.474  1.00  0.00     0.002 C 
BRANCH   2   3
ATOM      3  C   UNL A   1      32.509  28.676  27.459  1.00  0.00     0.021 C 
BRANCH   3   4
ATOM      4  C   UNL A   1      31.536  27.623  26.927  1.00  0.00     0.116 C 
BRANCH   4   5
ATOM      5  N   UNL A   1      32.194  26.527  26.243  1.00  0.00    -0.354 N 
ATOM      6  C   UNL A   1      32.382  26.281  24.915  1.00  0.00     0.242 C 
ATOM      7  O   UNL A   1      33.016  25.253  24.640  1.00  0.00    -0.273 OA
ATOM      8  H   UNL A   1      32.571  25.842  26.841  1.00  0.00     0.163 HD
BRANCH   6   9
ATOM      9  C   UNL A   1      31.945  27.269  23.806  1.00  0.00     0.168 C 
ATOM     10  C   UNL A   1      32.861  27.142  22.577  1.00  0.00     0.042 C 
BRANCH   9  11
ATOM     11  N   UNL A   1      30.540  27.157  23.393  1.00  0.00    -0.359 N 
ATOM     12  C   UNL A   1      29.663  26.163  24.027  1.00  0.00     0.122 C 
ATOM     13  C   UNL A   1      29.745  28.244  23.053  1.00  0.00     0.041 A 
ATOM     14  C   UNL A   1      28.206  26.621  23.823  1.00  0.00     0.059 C 
ATOM     15  C   UNL A   1      28.392  28.006  23.301  1.00  0.00    -0.023 A 
ATOM     16  C   UNL A   1      30.140  29.443  22.480  1.00  0.00     0.026 A 
ATOM     17  C   UNL A   1      27.424  28.962  23.039  1.00  0.00     0.006 A 
ATOM     18  C   UNL A   1      29.177  30.409  22.186  1.00  0.00     0.002 A 
ATOM     19  C   UNL A   1      27.828  30.176  22.481  1.00  0.00     0.000 A 
ENDBRANCH   9  11
ENDBRANCH   6   9
ENDBRANCH   4   5
ENDBRANCH   3   4
ENDBRANCH   2   3
ENDBRANCH   1   2
BRANCH   1  20
ATOM     20  C   UNL A   1      31.464  31.976  26.621  1.00  0.00     0.021 C 
BRANCH  20  21
ATOM     21  C   UNL A   1      32.761  32.557  27.177  1.00  0.00     0.116 C 
BRANCH  21  22
ATOM     22  N   UNL A   1      32.593  33.955  27.553  1.00  0.00    -0.352 N 
ATOM     23  C   UNL A   1      33.219  34.634  28.568  1.00  0.00     0.251 C 
ATOM     24  H   UNL A   1      31.953  34.475  27.015  1.00  0.00     0.163 HD
ATOM     25  O   UNL A   1      32.793  35.711  28.975  1.00  0.00    -0.269 OA
BRANCH  23  26
ATOM     26  C   UNL A   1      34.426  34.037  29.167  1.00  0.00     0.039 A 
ATOM     27  C   UNL A   1      34.324  33.301  30.349  1.00  0.00     0.014 A 
ATOM     28  C   UNL A   1      35.654  34.178  28.515  1.00  0.00     0.014 A 
ATOM     29  C   UNL A   1      35.455  32.656  30.852  1.00  0.00     0.010 A 
ATOM     30  C   UNL A   1      36.758  33.473  28.975  1.00  0.00     0.010 A 
ATOM     31  C   UNL A   1      36.672  32.714  30.153  1.00  0.00    -0.014 A 
BRANCH  31  32
ATOM     32  C   UNL A   1      37.883  32.007  30.637  1.00  0.00     0.031 A 
ATOM     33  C   UNL A   1      38.742  32.644  31.692  1.00  0.00     0.074 A 
ATOM     34  C   UNL A   1      38.260  30.849  30.063  1.00  0.00     0.049 A 
ATOM     35  N   UNL A   1      39.893  32.247  32.172  1.00  0.00    -0.248 NA
ATOM     36  C   UNL A   1      38.258  33.913  32.259  1.00  0.00     0.031 C 
ATOM     37  C   UNL A   1      37.536  30.154  28.999  1.00  0.00     0.029 A 
ATOM     38  N   UNL A   1      39.364  30.064  30.284  1.00  0.00    -0.354 N 
ATOM     39  C   UNL A   1      40.282  33.231  33.073  1.00  0.00     0.074 A 
ATOM     40  C   UNL A   1      39.274  34.266  33.032  1.00  0.00     0.031 C 
ATOM     41  C   UNL A   1      38.208  29.041  28.666  1.00  0.00     0.029 A 
ATOM     42  C   UNL A   1      39.432  28.968  29.459  1.00  0.00     0.049 A 
ATOM     43  H   UNL A   1      40.043  30.267  30.968  1.00  0.00     0.167 HD
ATOM     44  C   UNL A   1      41.373  33.262  33.874  1.00  0.00     0.031 A 
ATOM     45  C   UNL A   1      40.382  28.022  29.337  1.00  0.00     0.031 A 
ATOM     46  C   UNL A   1      42.373  32.229  33.910  1.00  0.00     0.049 A 
ATOM     47  C   UNL A   1      41.594  28.079  30.225  1.00  0.00     0.074 A 
ATOM     48  C   UNL A   1      43.480  32.130  34.733  1.00  0.00     0.029 A 
ATOM     49  N   UNL A   1      42.390  31.121  33.076  1.00  0.00    -0.354 N 
ATOM     50  N   UNL A   1      41.908  28.971  31.133  1.00  0.00    -0.248 NA
ATOM     51  C   UNL A   1      42.575  26.995  30.082  1.00  0.00     0.031 C 
ATOM     52  C   UNL A   1      44.205  30.996  34.351  1.00  0.00     0.029 A 
ATOM     53  C   UNL A   1      43.510  30.351  33.340  1.00  0.00     0.049 A 
ATOM     54  H   UNL A   1      41.709  30.912  32.398  1.00  0.00     0.167 HD
ATOM     55  C   UNL A   1      43.108  28.544  31.687  1.00  0.00     0.074 A 
ATOM     56  C   UNL A   1      43.460  27.307  31.020  1.00  0.00     0.031 C 
ATOM     57  C   UNL A   1      43.848  29.122  32.665  1.00  0.00     0.031 A 
BRANCH  44  58
ATOM     58  C   UNL A   1      41.547  34.472  34.752  1.00  0.00    -0.014 A 
ATOM     59  C   UNL A   1      40.980  34.538  36.035  1.00  0.00     0.009 A 
ATOM     60  C   UNL A   1      42.292  35.567  34.286  1.00  0.00     0.009 A 
ATOM     61  C   UNL A   1      41.104  35.695  36.808  1.00  0.00     0.001 A 
ATOM     62  C   UNL A   1      42.447  36.709  35.076  1.00  0.00     0.001 A 
ATOM     63  C   UNL A   1      41.840  36.778  36.328  1.00  0.00     0.000 A 
ENDBRANCH  44  58
BRANCH  45  64
ATOM     64  C   UNL A   1      40.216  26.942  28.329  1.00  0.00    -0.014 A 
ATOM     65  C   UNL A   1      40.775  27.064  27.048  1.00  0.00     0.009 A 
ATOM     66  C   UNL A   1      39.525  25.765  28.658  1.00  0.00     0.009 A 
ATOM     67  C   UNL A   1      40.631  26.036  26.113  1.00  0.00     0.001 A 
ATOM     68  C   UNL A   1      39.409  24.726  27.732  1.00  0.00     0.001 A 
ATOM     69  C   UNL A   1      39.956  24.865  26.458  1.00  0.00     0.000 A 
ENDBRANCH  45  64
BRANCH  57  70
ATOM     70  C   UNL A   1      45.098  28.412  33.106  1.00  0.00    -0.014 A 
ATOM     71  C   UNL A   1      45.067  27.426  34.104  1.00  0.00     0.009 A 
ATOM     72  C   UNL A   1      46.312  28.682  32.453  1.00  0.00     0.009 A 
ATOM     73  C   UNL A   1      46.231  26.738  34.451  1.00  0.00     0.001 A 
ATOM     74  C   UNL A   1      47.467  27.971  32.781  1.00  0.00     0.001 A 
ATOM     75  C   UNL A   1      47.427  27.005  33.784  1.00  0.00     0.000 A 
ENDBRANCH  57  70
ENDBRANCH  31  32
ENDBRANCH  23  26
ENDBRANCH  21  22
ENDBRANCH  20  21
ENDBRANCH   1  20
TORSDOF 14
ENDMDL
MODEL 3
REMARK VINA RESULT:     -10.6      5.554     10.353
REMARK SMILES C[C@H](C(=O)NCCCCCCNC(=O)c1ccc(-c2c3nc(c(-c4ccccc4)c4ccc([nH]4)c(-c4ccccc4)c4nc(c(-c5ccccc5)c5ccc2[nH]5)C=C4)C=C3)cc1)N1CCc2ccccc21
REMARK SMILES IDX 9 1 8 2 7 3 6 4 5 5 3 6 4 7 2 9 1 10 63 11 64 12 71 13 65 14
REMARK SMILES IDX 66 15 70 16 67 17 69 18 68 19 10 20 11 21 12 22 13 23 14 25
REMARK SMILES IDX 15 26 16 27 62 28 17 29 61 30 18 31 19 32 20 33 55 34 21 35
REMARK SMILES IDX 60 36 54 37 56 38 22 39 59 40 53 41 52 42 23 44 45 45 30 46
REMARK SMILES IDX 44 47 31 48 34 49 43 50 57 51 32 52 33 53 42 55 58 56 35 57
REMARK SMILES IDX 24 58 25 59 29 60 26 61 28 62 27 63 46 64 47 65 51 66 48 67
REMARK SMILES IDX 50 68 49 69 36 70 37 71 41 72 38 73 40 74 39 75
REMARK H PARENT 5 8 12 24 56 43 34 54
REMARK Flexibility Score: inf
ROOT
ATOM      1  C   UNL A   1      36.544  20.392  25.022  1.00  0.00     0.002 C 
ENDROOT
BRANCH   1   2
ATOM      2  C   UNL A   1      36.300  21.757  25.664  1.00  0.00     0.002 C 
BRANCH   2   3
ATOM      3  C   UNL A   1      36.612  22.939  24.742  1.00  0.00     0.021 C 
BRANCH   3   4
ATOM      4  C   UNL A   1      35.681  23.074  23.535  1.00  0.00     0.116 C 
BRANCH   4   5
ATOM      5  N   UNL A   1      34.708  24.138  23.678  1.00  0.00    -0.354 N 
ATOM      6  C   UNL A   1      33.477  24.157  24.267  1.00  0.00     0.242 C 
ATOM      7  O   UNL A   1      32.885  25.244  24.247  1.00  0.00    -0.273 OA
ATOM      8  H   UNL A   1      34.982  24.996  23.281  1.00  0.00     0.163 HD
BRANCH   6   9
ATOM      9  C   UNL A   1      32.889  22.941  25.025  1.00  0.00     0.168 C 
ATOM     10  C   UNL A   1      31.914  23.407  26.120  1.00  0.00     0.042 C 
BRANCH   9  11
ATOM     11  N   UNL A   1      32.239  21.935  24.174  1.00  0.00    -0.359 N 
ATOM     12  C   UNL A   1      31.997  22.218  22.753  1.00  0.00     0.122 C 
ATOM     13  C   UNL A   1      32.460  20.569  24.287  1.00  0.00     0.041 A 
ATOM     14  C   UNL A   1      31.836  20.869  22.025  1.00  0.00     0.059 C 
ATOM     15  C   UNL A   1      32.268  19.902  23.076  1.00  0.00    -0.023 A 
ATOM     16  C   UNL A   1      32.782  19.848  25.427  1.00  0.00     0.026 A 
ATOM     17  C   UNL A   1      32.442  18.532  22.962  1.00  0.00     0.006 A 
ATOM     18  C   UNL A   1      32.938  18.464  25.338  1.00  0.00     0.002 A 
ATOM     19  C   UNL A   1      32.786  17.812  24.108  1.00  0.00     0.000 A 
ENDBRANCH   9  11
ENDBRANCH   6   9
ENDBRANCH   4   5
ENDBRANCH   3   4
ENDBRANCH   2   3
ENDBRANCH   1   2
BRANCH   1  20
ATOM     20  C   UNL A   1      38.004  20.112  24.654  1.00  0.00     0.021 C 
BRANCH  20  21
ATOM     21  C   UNL A   1      38.998  20.370  25.783  1.00  0.00     0.116 C 
BRANCH  21  22
ATOM     22  N   UNL A   1      39.912  19.248  25.948  1.00  0.00    -0.352 N 
ATOM     23  C   UNL A   1      41.274  19.289  26.111  1.00  0.00     0.251 C 
ATOM     24  H   UNL A   1      39.505  18.351  25.939  1.00  0.00     0.163 HD
ATOM     25  O   UNL A   1      41.969  18.290  25.948  1.00  0.00    -0.269 OA
BRANCH  23  26
ATOM     26  C   UNL A   1      41.893  20.572  26.489  1.00  0.00     0.039 A 
ATOM     27  C   UNL A   1      42.289  21.471  25.498  1.00  0.00     0.014 A 
ATOM     28  C   UNL A   1      42.034  20.890  27.843  1.00  0.00     0.014 A 
ATOM     29  C   UNL A   1      42.780  22.725  25.869  1.00  0.00     0.010 A 
ATOM     30  C   UNL A   1      42.450  22.164  28.207  1.00  0.00     0.010 A 
ATOM     31  C   UNL A   1      42.837  23.090  27.224  1.00  0.00    -0.014 A 
BRANCH  31  32
ATOM     32  C   UNL A   1      43.315  24.427  27.652  1.00  0.00     0.031 A 
ATOM     33  C   UNL A   1      42.320  25.489  28.022  1.00  0.00     0.074 A 
ATOM     34  C   UNL A   1      44.630  24.715  27.612  1.00  0.00     0.049 A 
ATOM     35  N   UNL A   1      42.523  26.747  28.315  1.00  0.00    -0.248 NA
ATOM     36  C   UNL A   1      40.903  25.089  28.031  1.00  0.00     0.031 C 
ATOM     37  C   UNL A   1      45.691  23.784  27.226  1.00  0.00     0.029 A 
ATOM     38  N   UNL A   1      45.294  25.886  27.880  1.00  0.00    -0.354 N 
ATOM     39  C   UNL A   1      41.261  27.293  28.514  1.00  0.00     0.074 A 
ATOM     40  C   UNL A   1      40.300  26.245  28.256  1.00  0.00     0.031 C 
ATOM     41  C   UNL A   1      46.873  24.416  27.293  1.00  0.00     0.029 A 
ATOM     42  C   UNL A   1      46.650  25.806  27.680  1.00  0.00     0.049 A 
ATOM     43  H   UNL A   1      44.841  26.704  28.188  1.00  0.00     0.167 HD
ATOM     44  C   UNL A   1      40.932  28.551  28.895  1.00  0.00     0.031 A 
ATOM     45  C   UNL A   1      47.606  26.751  27.775  1.00  0.00     0.031 A 
ATOM     46  C   UNL A   1      41.894  29.589  29.151  1.00  0.00     0.049 A 
ATOM     47  C   UNL A   1      47.222  28.145  28.185  1.00  0.00     0.074 A 
ATOM     48  C   UNL A   1      41.671  30.876  29.606  1.00  0.00     0.029 A 
ATOM     49  N   UNL A   1      43.261  29.460  28.961  1.00  0.00    -0.354 N 
ATOM     50  N   UNL A   1      46.032  28.627  28.452  1.00  0.00    -0.248 NA
ATOM     51  C   UNL A   1      48.311  29.123  28.318  1.00  0.00     0.031 C 
ATOM     52  C   UNL A   1      42.898  31.547  29.627  1.00  0.00     0.029 A 
ATOM     53  C   UNL A   1      43.893  30.657  29.256  1.00  0.00     0.049 A 
ATOM     54  H   UNL A   1      43.716  28.640  28.662  1.00  0.00     0.167 HD
ATOM     55  C   UNL A   1      46.230  29.955  28.810  1.00  0.00     0.074 A 
ATOM     56  C   UNL A   1      47.657  30.199  28.736  1.00  0.00     0.031 C 
ATOM     57  C   UNL A   1      45.314  30.885  29.174  1.00  0.00     0.031 A 
BRANCH  44  58
ATOM     58  C   UNL A   1      39.467  28.870  29.024  1.00  0.00    -0.014 A 
ATOM     59  C   UNL A   1      38.787  28.722  30.244  1.00  0.00     0.009 A 
ATOM     60  C   UNL A   1      38.753  29.326  27.904  1.00  0.00     0.009 A 
ATOM     61  C   UNL A   1      37.414  28.966  30.325  1.00  0.00     0.001 A 
ATOM     62  C   UNL A   1      37.389  29.606  27.997  1.00  0.00     0.001 A 
ATOM     63  C   UNL A   1      36.717  29.411  29.202  1.00  0.00     0.000 A 
ENDBRANCH  44  58
BRANCH  45  64
ATOM     64  C   UNL A   1      49.017  26.398  27.473  1.00  0.00    -0.014 A 
ATOM     65  C   UNL A   1      49.511  26.473  26.161  1.00  0.00     0.009 A 
ATOM     66  C   UNL A   1      49.890  26.015  28.504  1.00  0.00     0.009 A 
ATOM     67  C   UNL A   1      50.845  26.159  25.889  1.00  0.00     0.001 A 
ATOM     68  C   UNL A   1      51.230  25.731  28.234  1.00  0.00     0.001 A 
ATOM     69  C   UNL A   1      51.705  25.796  26.926  1.00  0.00     0.000 A 
ENDBRANCH  45  64
BRANCH  57  70
ATOM     70  C   UNL A   1      45.818  32.248  29.556  1.00  0.00    -0.014 A 
ATOM     71  C   UNL A   1      45.929  33.280  28.612  1.00  0.00     0.009 A 
ATOM     72  C   UNL A   1      46.112  32.524  30.902  1.00  0.00     0.009 A 
ATOM     73  C   UNL A   1      46.342  34.554  29.006  1.00  0.00     0.001 A 
ATOM     74  C   UNL A   1      46.494  33.805  31.297  1.00  0.00     0.001 A 
ATOM     75  C   UNL A   1      46.615  34.818  30.348  1.00  0.00     0.000 A 
ENDBRANCH  57  70
ENDBRANCH  31  32
ENDBRANCH  23  26
ENDBRANCH  21  22
ENDBRANCH  20  21
ENDBRANCH   1  20
TORSDOF 14
ENDMDL
