MODEL 1
REMARK VINA RESULT:     -11.1      0.000      0.000
REMARK SMILES CC[C@@H](C(=O)NCCCCCCNC(=O)c1ccc(-c2c3nc(c(-c4ccccc4)c4ccc([nH]4)c(-c4ccccc4)c4nc(c(-c5ccccc5)c5ccc2[nH]5)C=C4)C=C3)cc1)n1c(SCc2cccc(C(F)(F)F)c2)nc2ccncc21
REMARK SMILES IDX 8 1 7 2 6 3 4 4 5 5 3 7 2 8 1 9 64 10 65 11 84 12 78 13
REMARK SMILES IDX 79 14 83 15 80 16 82 17 81 18 66 19 67 20 68 21 69 22 77 23
REMARK SMILES IDX 70 24 72 25 71 26 73 27 74 28 75 29 76 30 9 31 10 32 11 33
REMARK SMILES IDX 12 34 13 35 14 36 15 38 16 39 17 40 63 41 18 42 62 43 19 44
REMARK SMILES IDX 20 45 21 46 56 47 22 48 61 49 55 50 57 51 23 52 60 53 54 54
REMARK SMILES IDX 53 55 24 57 46 58 31 59 45 60 32 61 35 62 44 63 58 64 33 65
REMARK SMILES IDX 34 66 43 68 59 69 36 70 25 71 26 72 30 73 27 74 29 75 28 76
REMARK SMILES IDX 47 77 48 78 52 79 49 80 51 81 50 82 37 83 38 84 42 85 39 86
REMARK SMILES IDX 41 87 40 88
REMARK H PARENT 6 6 13 37 57 56 35 67
REMARK Flexibility Score: inf
ROOT
ATOM      1  C   UNL A   1      37.064  22.832  25.670  1.00  0.00     0.021 C 
ENDROOT
BRANCH   1   2
ATOM      2  C   UNL A   1      35.817  23.600  26.121  1.00  0.00     0.116 C 
BRANCH   2   3
ATOM      3  N   UNL A   1      35.002  22.724  26.945  1.00  0.00    -0.354 N 
ATOM      4  C   UNL A   1      33.646  22.762  27.127  1.00  0.00     0.243 C 
ATOM      5  O   UNL A   1      33.211  22.524  28.254  1.00  0.00    -0.273 OA
ATOM      6  H   UNL A   1      35.484  22.017  27.433  1.00  0.00     0.163 HD
BRANCH   4   7
ATOM      7  C   UNL A   1      32.727  23.061  25.942  1.00  0.00     0.178 C 
BRANCH   7   8
ATOM      8  C   UNL A   1      31.261  23.063  26.424  1.00  0.00     0.032 C 
ATOM      9  C   UNL A   1      30.453  24.317  26.133  1.00  0.00     0.006 C 
ENDBRANCH   7   8
BRANCH   7  10
ATOM     10  N   UNL A   1      32.989  22.155  24.786  1.00  0.00    -0.305 N 
ATOM     11  C   UNL A   1      32.948  22.519  23.446  1.00  0.00     0.170 A 
ATOM     12  C   UNL A   1      32.888  20.765  24.783  1.00  0.00     0.088 A 
ATOM     13  N   UNL A   1      32.435  21.567  22.701  1.00  0.00    -0.222 NA
ATOM     14  C   UNL A   1      32.437  20.454  23.500  1.00  0.00     0.093 A 
ATOM     15  C   UNL A   1      33.134  19.756  25.706  1.00  0.00     0.139 A 
ATOM     16  C   UNL A   1      32.126  19.133  23.171  1.00  0.00     0.051 A 
ATOM     17  N   UNL A   1      32.870  18.471  25.375  1.00  0.00    -0.262 NA
ATOM     18  C   UNL A   1      32.376  18.190  24.151  1.00  0.00     0.113 A 
BRANCH  11  19
ATOM     19  S   UNL A   1      33.839  23.841  22.785  1.00  0.00    -0.083 SA
BRANCH  19  20
ATOM     20  C   UNL A   1      32.733  25.181  22.338  1.00  0.00     0.113 C 
BRANCH  20  21
ATOM     21  C   UNL A   1      32.263  26.208  23.340  1.00  0.00    -0.037 A 
ATOM     22  C   UNL A   1      30.981  26.767  23.185  1.00  0.00     0.004 A 
ATOM     23  C   UNL A   1      32.995  26.579  24.470  1.00  0.00     0.017 A 
ATOM     24  C   UNL A   1      30.491  27.715  24.086  1.00  0.00     0.001 A 
ATOM     25  C   UNL A   1      32.573  27.618  25.313  1.00  0.00     0.056 A 
ATOM     26  C   UNL A   1      31.297  28.163  25.129  1.00  0.00     0.013 A 
BRANCH  25  27
ATOM     27  C   UNL A   1      33.512  28.189  26.345  1.00  0.00     0.416 C 
ATOM     28  F   UNL A   1      34.676  27.475  26.405  1.00  0.00    -0.166 F 
ATOM     29  F   UNL A   1      33.869  29.475  26.101  1.00  0.00    -0.166 F 
ATOM     30  F   UNL A   1      33.014  28.158  27.613  1.00  0.00    -0.166 F 
ENDBRANCH  25  27
ENDBRANCH  20  21
ENDBRANCH  19  20
ENDBRANCH  11  19
ENDBRANCH   7  10
ENDBRANCH   4   7
ENDBRANCH   2   3
ENDBRANCH   1   2
BRANCH   1  31
ATOM     31  C   UNL A   1      36.784  21.866  24.512  1.00  0.00     0.002 C 
BRANCH  31  32
ATOM     32  C   UNL A   1      36.749  20.389  24.912  1.00  0.00     0.002 C 
BRANCH  32  33
ATOM     33  C   UNL A   1      38.090  19.659  24.810  1.00  0.00     0.021 C 
BRANCH  33  34
ATOM     34  C   UNL A   1      39.007  19.835  26.016  1.00  0.00     0.116 C 
BRANCH  34  35
ATOM     35  N   UNL A   1      40.252  19.101  25.868  1.00  0.00    -0.352 N 
ATOM     36  C   UNL A   1      41.544  19.552  25.972  1.00  0.00     0.251 C 
ATOM     37  H   UNL A   1      40.155  18.143  25.663  1.00  0.00     0.163 HD
ATOM     38  O   UNL A   1      42.476  18.845  25.610  1.00  0.00    -0.269 OA
BRANCH  36  39
ATOM     39  C   UNL A   1      41.807  20.904  26.511  1.00  0.00     0.039 A 
ATOM     40  C   UNL A   1      41.697  21.113  27.888  1.00  0.00     0.014 A 
ATOM     41  C   UNL A   1      42.137  21.964  25.663  1.00  0.00     0.014 A 
ATOM     42  C   UNL A   1      41.951  22.380  28.416  1.00  0.00     0.010 A 
ATOM     43  C   UNL A   1      42.470  23.205  26.199  1.00  0.00     0.010 A 
ATOM     44  C   UNL A   1      42.360  23.432  27.578  1.00  0.00    -0.014 A 
BRANCH  44  45
ATOM     45  C   UNL A   1      42.634  24.783  28.129  1.00  0.00     0.031 A 
ATOM     46  C   UNL A   1      44.031  25.161  28.542  1.00  0.00     0.074 A 
ATOM     47  C   UNL A   1      41.623  25.658  28.289  1.00  0.00     0.049 A 
ATOM     48  N   UNL A   1      44.466  26.288  29.049  1.00  0.00    -0.248 NA
ATOM     49  C   UNL A   1      45.073  24.132  28.389  1.00  0.00     0.031 C 
ATOM     50  C   UNL A   1      40.219  25.402  27.965  1.00  0.00     0.029 A 
ATOM     51  N   UNL A   1      41.625  26.947  28.762  1.00  0.00    -0.354 N 
ATOM     52  C   UNL A   1      45.821  26.095  29.286  1.00  0.00     0.074 A 
ATOM     53  C   UNL A   1      46.126  24.728  28.928  1.00  0.00     0.031 C 
ATOM     54  C   UNL A   1      39.501  26.509  28.213  1.00  0.00     0.029 A 
ATOM     55  C   UNL A   1      40.385  27.540  28.748  1.00  0.00     0.049 A 
ATOM     56  H   UNL A   1      42.437  27.403  29.080  1.00  0.00     0.167 HD
ATOM     57  C   UNL A   1      46.740  26.982  29.739  1.00  0.00     0.031 A 
ATOM     58  C   UNL A   1      40.005  28.776  29.122  1.00  0.00     0.031 A 
ATOM     59  C   UNL A   1      46.441  28.345  30.090  1.00  0.00     0.049 A 
ATOM     60  C   UNL A   1      41.041  29.739  29.632  1.00  0.00     0.074 A 
ATOM     61  C   UNL A   1      47.309  29.337  30.511  1.00  0.00     0.029 A 
ATOM     62  N   UNL A   1      45.174  28.906  30.061  1.00  0.00    -0.354 N 
ATOM     63  N   UNL A   1      42.331  29.564  29.785  1.00  0.00    -0.248 NA
ATOM     64  C   UNL A   1      40.568  31.079  30.003  1.00  0.00     0.031 C 
ATOM     65  C   UNL A   1      46.557  30.484  30.790  1.00  0.00     0.029 A 
ATOM     66  C   UNL A   1      45.232  30.226  30.478  1.00  0.00     0.049 A 
ATOM     67  H   UNL A   1      44.354  28.437  29.784  1.00  0.00     0.167 HD
ATOM     68  C   UNL A   1      42.828  30.780  30.235  1.00  0.00     0.074 A 
ATOM     69  C   UNL A   1      41.703  31.688  30.314  1.00  0.00     0.031 C 
ATOM     70  C   UNL A   1      44.103  31.117  30.552  1.00  0.00     0.031 A 
BRANCH  57  71
ATOM     71  C   UNL A   1      48.157  26.497  29.888  1.00  0.00    -0.014 A 
ATOM     72  C   UNL A   1      49.094  26.650  28.853  1.00  0.00     0.009 A 
ATOM     73  C   UNL A   1      48.569  25.901  31.090  1.00  0.00     0.009 A 
ATOM     74  C   UNL A   1      50.400  26.179  29.002  1.00  0.00     0.001 A 
ATOM     75  C   UNL A   1      49.884  25.460  31.249  1.00  0.00     0.001 A 
ATOM     76  C   UNL A   1      50.796  25.589  30.202  1.00  0.00     0.000 A 
ENDBRANCH  57  71
BRANCH  58  77
ATOM     77  C   UNL A   1      38.581  29.186  29.004  1.00  0.00    -0.014 A 
ATOM     78  C   UNL A   1      38.073  29.660  27.784  1.00  0.00     0.009 A 
ATOM     79  C   UNL A   1      37.724  29.120  30.113  1.00  0.00     0.009 A 
ATOM     80  C   UNL A   1      36.747  30.089  27.687  1.00  0.00     0.001 A 
ATOM     81  C   UNL A   1      36.390  29.520  30.005  1.00  0.00     0.001 A 
ATOM     82  C   UNL A   1      35.906  30.015  28.796  1.00  0.00     0.000 A 
ENDBRANCH  58  77
BRANCH  70  83
ATOM     83  C   UNL A   1      44.354  32.541  30.965  1.00  0.00    -0.014 A 
ATOM     84  C   UNL A   1      44.658  33.537  30.024  1.00  0.00     0.009 A 
ATOM     85  C   UNL A   1      44.257  32.895  32.320  1.00  0.00     0.009 A 
ATOM     86  C   UNL A   1      44.903  34.848  30.438  1.00  0.00     0.001 A 
ATOM     87  C   UNL A   1      44.468  34.212  32.728  1.00  0.00     0.001 A 
ATOM     88  C   UNL A   1      44.804  35.186  31.788  1.00  0.00     0.000 A 
ENDBRANCH  70  83
ENDBRANCH  44  45
ENDBRANCH  36  39
ENDBRANCH  34  35
ENDBRANCH  33  34
ENDBRANCH  32  33
ENDBRANCH  31  32
ENDBRANCH   1  31
TORSDOF 19
ENDMDL
MODEL 2
REMARK VINA RESULT:     -11.1      0.418      5.629
REMARK SMILES CC[C@@H](C(=O)NCCCCCCNC(=O)c1ccc(-c2c3nc(c(-c4ccccc4)c4ccc([nH]4)c(-c4ccccc4)c4nc(c(-c5ccccc5)c5ccc2[nH]5)C=C4)C=C3)cc1)n1c(SCc2cccc(C(F)(F)F)c2)nc2ccncc21
REMARK SMILES IDX 8 1 7 2 6 3 4 4 5 5 3 7 2 8 1 9 64 10 65 11 84 12 78 13
REMARK SMILES IDX 79 14 83 15 80 16 82 17 81 18 66 19 67 20 68 21 69 22 77 23
REMARK SMILES IDX 70 24 72 25 71 26 73 27 74 28 75 29 76 30 9 31 10 32 11 33
REMARK SMILES IDX 12 34 13 35 14 36 15 38 16 39 17 40 63 41 18 42 62 43 19 44
REMARK SMILES IDX 20 45 21 46 56 47 22 48 61 49 55 50 57 51 23 52 60 53 54 54
REMARK SMILES IDX 53 55 24 57 46 58 31 59 45 60 32 61 35 62 44 63 58 64 33 65
REMARK SMILES IDX 34 66 43 68 59 69 36 70 25 71 26 72 30 73 27 74 29 75 28 76
REMARK SMILES IDX 47 77 48 78 52 79 49 80 51 81 50 82 37 83 38 84 42 85 39 86
REMARK SMILES IDX 41 87 40 88
REMARK H PARENT 6 6 13 37 57 56 35 67
REMARK Flexibility Score: inf
ROOT
ATOM      1  C   UNL A   1      36.685  22.843  25.604  1.00  0.00     0.021 C 
ENDROOT
BRANCH   1   2
ATOM      2  C   UNL A   1      35.422  23.613  25.999  1.00  0.00     0.116 C 
BRANCH   2   3
ATOM      3  N   UNL A   1      34.613  22.773  26.864  1.00  0.00    -0.354 N 
ATOM      4  C   UNL A   1      33.249  22.760  26.989  1.00  0.00     0.243 C 
ATOM      5  O   UNL A   1      32.778  22.598  28.115  1.00  0.00    -0.273 OA
ATOM      6  H   UNL A   1      35.105  22.135  27.431  1.00  0.00     0.163 HD
BRANCH   4   7
ATOM      7  C   UNL A   1      32.370  22.909  25.748  1.00  0.00     0.178 C 
BRANCH   7   8
ATOM      8  C   UNL A   1      30.886  22.836  26.166  1.00  0.00     0.032 C 
ATOM      9  C   UNL A   1      30.180  24.162  26.399  1.00  0.00     0.006 C 
ENDBRANCH   7   8
BRANCH   7  10
ATOM     10  N   UNL A   1      32.750  21.950  24.671  1.00  0.00    -0.305 N 
ATOM     11  C   UNL A   1      32.801  22.236  23.312  1.00  0.00     0.170 A 
ATOM     12  C   UNL A   1      32.695  20.559  24.742  1.00  0.00     0.088 A 
ATOM     13  N   UNL A   1      32.379  21.225  22.588  1.00  0.00    -0.222 NA
ATOM     14  C   UNL A   1      32.355  20.160  23.450  1.00  0.00     0.093 A 
ATOM     15  C   UNL A   1      32.902  19.615  25.739  1.00  0.00     0.139 A 
ATOM     16  C   UNL A   1      32.115  18.812  23.177  1.00  0.00     0.051 A 
ATOM     17  N   UNL A   1      32.707  18.303  25.466  1.00  0.00    -0.262 NA
ATOM     18  C   UNL A   1      32.319  17.936  24.227  1.00  0.00     0.113 A 
BRANCH  11  19
ATOM     19  S   UNL A   1      33.697  23.551  22.643  1.00  0.00    -0.083 SA
BRANCH  19  20
ATOM     20  C   UNL A   1      32.609  24.930  22.279  1.00  0.00     0.113 C 
BRANCH  20  21
ATOM     21  C   UNL A   1      32.169  25.912  23.338  1.00  0.00    -0.037 A 
ATOM     22  C   UNL A   1      30.845  26.389  23.311  1.00  0.00     0.004 A 
ATOM     23  C   UNL A   1      32.978  26.317  24.402  1.00  0.00     0.017 A 
ATOM     24  C   UNL A   1      30.382  27.293  24.270  1.00  0.00     0.001 A 
ATOM     25  C   UNL A   1      32.571  27.317  25.298  1.00  0.00     0.056 A 
ATOM     26  C   UNL A   1      31.251  27.781  25.241  1.00  0.00     0.013 A 
BRANCH  25  27
ATOM     27  C   UNL A   1      33.564  27.936  26.249  1.00  0.00     0.416 C 
ATOM     28  F   UNL A   1      34.006  29.143  25.787  1.00  0.00    -0.166 F 
ATOM     29  F   UNL A   1      33.058  28.166  27.487  1.00  0.00    -0.166 F 
ATOM     30  F   UNL A   1      34.691  27.190  26.423  1.00  0.00    -0.166 F 
ENDBRANCH  25  27
ENDBRANCH  20  21
ENDBRANCH  19  20
ENDBRANCH  11  19
ENDBRANCH   7  10
ENDBRANCH   4   7
ENDBRANCH   2   3
ENDBRANCH   1   2
BRANCH   1  31
ATOM     31  C   UNL A   1      36.433  21.807  24.500  1.00  0.00     0.002 C 
BRANCH  31  32
ATOM     32  C   UNL A   1      36.523  20.351  24.963  1.00  0.00     0.002 C 
BRANCH  32  33
ATOM     33  C   UNL A   1      37.896  19.700  24.785  1.00  0.00     0.021 C 
BRANCH  33  34
ATOM     34  C   UNL A   1      38.965  20.186  25.758  1.00  0.00     0.116 C 
BRANCH  34  35
ATOM     35  N   UNL A   1      40.096  19.276  25.827  1.00  0.00    -0.352 N 
ATOM     36  C   UNL A   1      41.413  19.547  26.104  1.00  0.00     0.251 C 
ATOM     37  H   UNL A   1      39.888  18.330  25.650  1.00  0.00     0.163 HD
ATOM     38  O   UNL A   1      42.271  18.695  25.915  1.00  0.00    -0.269 OA
BRANCH  36  39
ATOM     39  C   UNL A   1      41.794  20.879  26.621  1.00  0.00     0.039 A 
ATOM     40  C   UNL A   1      42.231  21.852  25.719  1.00  0.00     0.014 A 
ATOM     41  C   UNL A   1      41.746  21.159  27.989  1.00  0.00     0.014 A 
ATOM     42  C   UNL A   1      42.586  23.118  26.188  1.00  0.00     0.010 A 
ATOM     43  C   UNL A   1      42.021  22.445  28.444  1.00  0.00     0.010 A 
ATOM     44  C   UNL A   1      42.465  23.432  27.553  1.00  0.00    -0.014 A 
BRANCH  44  45
ATOM     45  C   UNL A   1      42.839  24.775  28.062  1.00  0.00     0.031 A 
ATOM     46  C   UNL A   1      41.781  25.827  28.267  1.00  0.00     0.074 A 
ATOM     47  C   UNL A   1      44.131  25.061  28.310  1.00  0.00     0.049 A 
ATOM     48  N   UNL A   1      41.912  27.057  28.696  1.00  0.00    -0.248 NA
ATOM     49  C   UNL A   1      40.398  25.457  27.921  1.00  0.00     0.031 C 
ATOM     50  C   UNL A   1      45.256  24.144  28.116  1.00  0.00     0.029 A 
ATOM     51  N   UNL A   1      44.716  26.208  28.786  1.00  0.00    -0.354 N 
ATOM     52  C   UNL A   1      40.637  27.607  28.657  1.00  0.00     0.074 A 
ATOM     53  C   UNL A   1      39.757  26.601  28.106  1.00  0.00     0.031 C 
ATOM     54  C   UNL A   1      46.389  24.750  28.505  1.00  0.00     0.029 A 
ATOM     55  C   UNL A   1      46.079  26.109  28.937  1.00  0.00     0.049 A 
ATOM     56  H   UNL A   1      44.209  27.024  28.998  1.00  0.00     0.167 HD
ATOM     57  C   UNL A   1      40.226  28.831  29.066  1.00  0.00     0.031 A 
ATOM     58  C   UNL A   1      46.975  27.011  29.379  1.00  0.00     0.031 A 
ATOM     59  C   UNL A   1      41.099  29.831  29.622  1.00  0.00     0.049 A 
ATOM     60  C   UNL A   1      46.496  28.368  29.817  1.00  0.00     0.074 A 
ATOM     61  C   UNL A   1      40.773  31.084  30.112  1.00  0.00     0.029 A 
ATOM     62  N   UNL A   1      42.471  29.691  29.760  1.00  0.00    -0.354 N 
ATOM     63  N   UNL A   1      45.277  28.848  29.839  1.00  0.00    -0.248 NA
ATOM     64  C   UNL A   1      47.519  29.299  30.309  1.00  0.00     0.031 C 
ATOM     65  C   UNL A   1      41.957  31.724  30.496  1.00  0.00     0.029 A 
ATOM     66  C   UNL A   1      43.011  30.843  30.307  1.00  0.00     0.049 A 
ATOM     67  H   UNL A   1      42.986  28.891  29.507  1.00  0.00     0.167 HD
ATOM     68  C   UNL A   1      45.382  30.123  30.381  1.00  0.00     0.074 A 
ATOM     69  C   UNL A   1      46.781  30.333  30.687  1.00  0.00     0.031 C 
ATOM     70  C   UNL A   1      44.406  31.037  30.606  1.00  0.00     0.031 A 
BRANCH  57  71
ATOM     71  C   UNL A   1      38.765  29.157  28.917  1.00  0.00    -0.014 A 
ATOM     72  C   UNL A   1      38.228  29.557  27.682  1.00  0.00     0.009 A 
ATOM     73  C   UNL A   1      37.906  29.037  30.021  1.00  0.00     0.009 A 
ATOM     74  C   UNL A   1      36.872  29.871  27.566  1.00  0.00     0.001 A 
ATOM     75  C   UNL A   1      36.544  29.320  29.895  1.00  0.00     0.001 A 
ATOM     76  C   UNL A   1      36.030  29.747  28.671  1.00  0.00     0.000 A 
ENDBRANCH  57  71
BRANCH  58  77
ATOM     77  C   UNL A   1      48.416  26.654  29.455  1.00  0.00    -0.014 A 
ATOM     78  C   UNL A   1      48.936  26.023  30.597  1.00  0.00     0.009 A 
ATOM     79  C   UNL A   1      49.284  26.954  28.394  1.00  0.00     0.009 A 
ATOM     80  C   UNL A   1      50.300  25.732  30.687  1.00  0.00     0.001 A 
ATOM     81  C   UNL A   1      50.641  26.632  28.474  1.00  0.00     0.001 A 
ATOM     82  C   UNL A   1      51.149  26.032  29.624  1.00  0.00     0.000 A 
ENDBRANCH  58  77
BRANCH  70  83
ATOM     83  C   UNL A   1      44.814  32.329  31.261  1.00  0.00    -0.014 A 
ATOM     84  C   UNL A   1      45.276  33.420  30.509  1.00  0.00     0.009 A 
ATOM     85  C   UNL A   1      44.707  32.461  32.654  1.00  0.00     0.009 A 
ATOM     86  C   UNL A   1      45.665  34.601  31.146  1.00  0.00     0.001 A 
ATOM     87  C   UNL A   1      45.062  33.654  33.284  1.00  0.00     0.001 A 
ATOM     88  C   UNL A   1      45.554  34.719  32.531  1.00  0.00     0.000 A 
ENDBRANCH  70  83
ENDBRANCH  44  45
ENDBRANCH  36  39
ENDBRANCH  34  35
ENDBRANCH  33  34
ENDBRANCH  32  33
ENDBRANCH  31  32
ENDBRANCH   1  31
TORSDOF 19
ENDMDL
MODEL 3
REMARK VINA RESULT:     -10.9      1.583      2.239
REMARK SMILES CC[C@@H](C(=O)NCCCCCCNC(=O)c1ccc(-c2c3nc(c(-c4ccccc4)c4ccc([nH]4)c(-c4ccccc4)c4nc(c(-c5ccccc5)c5ccc2[nH]5)C=C4)C=C3)cc1)n1c(SCc2cccc(C(F)(F)F)c2)nc2ccncc21
REMARK SMILES IDX 8 1 7 2 6 3 4 4 5 5 3 7 2 8 1 9 64 10 65 11 84 12 78 13
REMARK SMILES IDX 79 14 83 15 80 16 82 17 81 18 66 19 67 20 68 21 69 22 77 23
REMARK SMILES IDX 70 24 72 25 71 26 73 27 74 28 75 29 76 30 9 31 10 32 11 33
REMARK SMILES IDX 12 34 13 35 14 36 15 38 16 39 17 40 63 41 18 42 62 43 19 44
REMARK SMILES IDX 20 45 21 46 56 47 22 48 61 49 55 50 57 51 23 52 60 53 54 54
REMARK SMILES IDX 53 55 24 57 46 58 31 59 45 60 32 61 35 62 44 63 58 64 33 65
REMARK SMILES IDX 34 66 43 68 59 69 36 70 25 71 26 72 30 73 27 74 29 75 28 76
REMARK SMILES IDX 47 77 48 78 52 79 49 80 51 81 50 82 37 83 38 84 42 85 39 86
REMARK SMILES IDX 41 87 40 88
REMARK H PARENT 6 6 13 37 57 56 35 67
REMARK Flexibility Score: inf
ROOT
ATOM      1  C   UNL A   1      36.804  22.519  23.891  1.00  0.00     0.021 C 
ENDROOT
BRANCH   1   2
ATOM      2  C   UNL A   1      35.505  22.950  23.203  1.00  0.00     0.116 C 
BRANCH   2   3
ATOM      3  N   UNL A   1      34.963  24.099  23.906  1.00  0.00    -0.354 N 
ATOM      4  C   UNL A   1      33.881  24.864  23.559  1.00  0.00     0.243 C 
ATOM      5  O   UNL A   1      33.952  26.078  23.750  1.00  0.00    -0.273 OA
ATOM      6  H   UNL A   1      35.430  24.361  24.732  1.00  0.00     0.163 HD
BRANCH   4   7
ATOM      7  C   UNL A   1      32.630  24.198  22.987  1.00  0.00     0.178 C 
BRANCH   7   8
ATOM      8  C   UNL A   1      31.602  25.286  22.613  1.00  0.00     0.032 C 
ATOM      9  C   UNL A   1      31.821  26.002  21.290  1.00  0.00     0.006 C 
ENDBRANCH   7   8
BRANCH   7  10
ATOM     10  N   UNL A   1      32.096  23.136  23.889  1.00  0.00    -0.305 N 
ATOM     11  C   UNL A   1      31.845  23.279  25.248  1.00  0.00     0.170 A 
ATOM     12  C   UNL A   1      32.162  21.760  23.680  1.00  0.00     0.088 A 
ATOM     13  N   UNL A   1      32.156  22.191  25.915  1.00  0.00    -0.222 NA
ATOM     14  C   UNL A   1      32.307  21.223  24.958  1.00  0.00     0.093 A 
ATOM     15  C   UNL A   1      32.106  20.928  22.569  1.00  0.00     0.139 A 
ATOM     16  C   UNL A   1      32.506  19.850  25.120  1.00  0.00     0.051 A 
ATOM     17  N   UNL A   1      32.260  19.593  22.727  1.00  0.00    -0.262 NA
ATOM     18  C   UNL A   1      32.461  19.092  23.964  1.00  0.00     0.113 A 
BRANCH  11  19
ATOM     19  S   UNL A   1      30.858  24.530  25.913  1.00  0.00    -0.083 SA
BRANCH  19  20
ATOM     20  C   UNL A   1      31.879  25.808  26.651  1.00  0.00     0.113 C 
BRANCH  20  21
ATOM     21  C   UNL A   1      31.770  27.259  26.249  1.00  0.00    -0.037 A 
ATOM     22  C   UNL A   1      32.317  28.239  27.098  1.00  0.00     0.004 A 
ATOM     23  C   UNL A   1      31.229  27.688  25.035  1.00  0.00     0.017 A 
ATOM     24  C   UNL A   1      32.253  29.596  26.773  1.00  0.00     0.001 A 
ATOM     25  C   UNL A   1      31.043  29.049  24.751  1.00  0.00     0.056 A 
ATOM     26  C   UNL A   1      31.589  30.003  25.619  1.00  0.00     0.013 A 
BRANCH  25  27
ATOM     27  C   UNL A   1      30.200  29.473  23.575  1.00  0.00     0.416 C 
ATOM     28  F   UNL A   1      29.667  30.716  23.770  1.00  0.00    -0.166 F 
ATOM     29  F   UNL A   1      30.889  29.535  22.408  1.00  0.00    -0.166 F 
ATOM     30  F   UNL A   1      29.129  28.660  23.351  1.00  0.00    -0.166 F 
ENDBRANCH  25  27
ENDBRANCH  20  21
ENDBRANCH  19  20
ENDBRANCH  11  19
ENDBRANCH   7  10
ENDBRANCH   4   7
ENDBRANCH   2   3
ENDBRANCH   1   2
BRANCH   1  31
ATOM     31  C   UNL A   1      36.561  21.662  25.142  1.00  0.00     0.002 C 
BRANCH  31  32
ATOM     32  C   UNL A   1      36.425  20.163  24.867  1.00  0.00     0.002 C 
BRANCH  32  33
ATOM     33  C   UNL A   1      37.737  19.377  24.905  1.00  0.00     0.021 C 
BRANCH  33  34
ATOM     34  C   UNL A   1      38.870  20.061  25.663  1.00  0.00     0.116 C 
BRANCH  34  35
ATOM     35  N   UNL A   1      40.048  19.215  25.765  1.00  0.00    -0.352 N 
ATOM     36  C   UNL A   1      41.339  19.560  26.078  1.00  0.00     0.251 C 
ATOM     37  H   UNL A   1      39.898  18.260  25.584  1.00  0.00     0.163 HD
ATOM     38  O   UNL A   1      42.249  18.758  25.914  1.00  0.00    -0.269 OA
BRANCH  36  39
ATOM     39  C   UNL A   1      41.631  20.912  26.602  1.00  0.00     0.039 A 
ATOM     40  C   UNL A   1      41.484  21.150  27.971  1.00  0.00     0.014 A 
ATOM     41  C   UNL A   1      42.023  21.945  25.747  1.00  0.00     0.014 A 
ATOM     42  C   UNL A   1      41.765  22.417  28.485  1.00  0.00     0.010 A 
ATOM     43  C   UNL A   1      42.381  23.183  26.272  1.00  0.00     0.010 A 
ATOM     44  C   UNL A   1      42.235  23.439  27.643  1.00  0.00    -0.014 A 
BRANCH  44  45
ATOM     45  C   UNL A   1      42.537  24.790  28.179  1.00  0.00     0.031 A 
ATOM     46  C   UNL A   1      43.944  25.146  28.580  1.00  0.00     0.074 A 
ATOM     47  C   UNL A   1      41.544  25.685  28.338  1.00  0.00     0.049 A 
ATOM     48  N   UNL A   1      44.403  26.270  29.072  1.00  0.00    -0.248 NA
ATOM     49  C   UNL A   1      44.966  24.097  28.429  1.00  0.00     0.031 C 
ATOM     50  C   UNL A   1      40.133  25.451  28.025  1.00  0.00     0.029 A 
ATOM     51  N   UNL A   1      41.572  26.978  28.798  1.00  0.00    -0.354 N 
ATOM     52  C   UNL A   1      45.756  26.055  29.303  1.00  0.00     0.074 A 
ATOM     53  C   UNL A   1      46.033  24.679  28.955  1.00  0.00     0.031 C 
ATOM     54  C   UNL A   1      39.437  26.574  28.267  1.00  0.00     0.029 A 
ATOM     55  C   UNL A   1      40.343  27.593  28.787  1.00  0.00     0.049 A 
ATOM     56  H   UNL A   1      42.394  27.422  29.107  1.00  0.00     0.167 HD
ATOM     57  C   UNL A   1      46.694  26.929  29.741  1.00  0.00     0.031 A 
ATOM     58  C   UNL A   1      39.989  28.839  29.152  1.00  0.00     0.031 A 
ATOM     59  C   UNL A   1      46.421  28.301  30.080  1.00  0.00     0.049 A 
ATOM     60  C   UNL A   1      41.045  29.789  29.646  1.00  0.00     0.074 A 
ATOM     61  C   UNL A   1      47.310  29.281  30.486  1.00  0.00     0.029 A 
ATOM     62  N   UNL A   1      45.165  28.885  30.054  1.00  0.00    -0.354 N 
ATOM     63  N   UNL A   1      42.332  29.591  29.791  1.00  0.00    -0.248 NA
ATOM     64  C   UNL A   1      40.598  31.140  30.007  1.00  0.00     0.031 C 
ATOM     65  C   UNL A   1      46.582  30.444  30.760  1.00  0.00     0.029 A 
ATOM     66  C   UNL A   1      45.250  30.207  30.459  1.00  0.00     0.049 A 
ATOM     67  H   UNL A   1      44.334  28.428  29.788  1.00  0.00     0.167 HD
ATOM     68  C   UNL A   1      42.855  30.802  30.226  1.00  0.00     0.074 A 
ATOM     69  C   UNL A   1      41.747  31.731  30.305  1.00  0.00     0.031 C 
ATOM     70  C   UNL A   1      44.138  31.118  30.532  1.00  0.00     0.031 A 
BRANCH  57  71
ATOM     71  C   UNL A   1      48.102  26.420  29.885  1.00  0.00    -0.014 A 
ATOM     72  C   UNL A   1      48.545  25.822  31.077  1.00  0.00     0.009 A 
ATOM     73  C   UNL A   1      48.994  26.515  28.805  1.00  0.00     0.009 A 
ATOM     74  C   UNL A   1      49.860  25.369  31.198  1.00  0.00     0.001 A 
ATOM     75  C   UNL A   1      50.299  26.032  28.917  1.00  0.00     0.001 A 
ATOM     76  C   UNL A   1      50.735  25.470  30.117  1.00  0.00     0.000 A 
ENDBRANCH  57  71
BRANCH  58  77
ATOM     77  C   UNL A   1      38.571  29.274  29.040  1.00  0.00    -0.014 A 
ATOM     78  C   UNL A   1      38.079  29.800  27.834  1.00  0.00     0.009 A 
ATOM     79  C   UNL A   1      37.705  29.179  30.140  1.00  0.00     0.009 A 
ATOM     80  C   UNL A   1      36.760  30.253  27.745  1.00  0.00     0.001 A 
ATOM     81  C   UNL A   1      36.378  29.602  30.037  1.00  0.00     0.001 A 
ATOM     82  C   UNL A   1      35.910  30.149  28.844  1.00  0.00     0.000 A 
ENDBRANCH  58  77
BRANCH  70  83
ATOM     83  C   UNL A   1      44.418  32.542  30.929  1.00  0.00    -0.014 A 
ATOM     84  C   UNL A   1      44.717  33.527  29.975  1.00  0.00     0.009 A 
ATOM     85  C   UNL A   1      44.351  32.906  32.284  1.00  0.00     0.009 A 
ATOM     86  C   UNL A   1      44.990  34.837  30.376  1.00  0.00     0.001 A 
ATOM     87  C   UNL A   1      44.589  34.223  32.677  1.00  0.00     0.001 A 
ATOM     88  C   UNL A   1      44.921  35.185  31.725  1.00  0.00     0.000 A 
ENDBRANCH  70  83
ENDBRANCH  44  45
ENDBRANCH  36  39
ENDBRANCH  34  35
ENDBRANCH  33  34
ENDBRANCH  32  33
ENDBRANCH  31  32
ENDBRANCH   1  31
TORSDOF 19
ENDMDL
