MODEL 1
REMARK VINA RESULT:     -11.0      0.000      0.000
REMARK SMILES O=C(NCCCCCCNC(=O)c1ccc2c(=O)n(CCC[NH+]3CCOCC3)c(=O)[nH]c2c1)c1ccc(-c2c3nc(c(-c4ccccc4)c4ccc([nH]4)c(-c4ccccc4)c4nc(c(-c5ccccc5)c5ccc2[nH]5)C=C4)C=C3)cc1
REMARK SMILES IDX 7 1 6 2 5 3 4 4 3 5 1 6 2 7 34 9 35 10 81 11 36 12 80 13
REMARK SMILES IDX 37 14 38 15 39 16 74 17 40 18 79 19 73 20 75 21 41 22 78 23
REMARK SMILES IDX 72 24 71 25 42 27 64 28 49 29 63 30 50 31 53 32 62 33 76 34
REMARK SMILES IDX 51 35 52 36 61 38 77 39 54 40 43 41 44 42 48 43 45 44 47 45
REMARK SMILES IDX 46 46 65 47 66 48 70 49 67 50 69 51 68 52 55 53 56 54 60 55
REMARK SMILES IDX 57 56 59 57 58 58 8 59 9 60 10 61 11 62 12 64 13 65 14 66
REMARK SMILES IDX 33 67 15 68 32 69 16 70 31 71 17 72 29 73 18 75 19 76 30 77
REMARK SMILES IDX 20 78 21 79 22 80 23 81 24 82 28 83 25 85 27 86 26 87
REMARK H PARENT 3 8 75 26 53 37 10 63 31 74 23 84
REMARK Flexibility Score: inf
ROOT
ATOM      1  C   UNL A   1      35.630  22.712  25.565  1.00  0.00     0.002 C 
ENDROOT
BRANCH   1   2
ATOM      2  C   UNL A   1      35.974  22.001  24.253  1.00  0.00     0.002 C 
BRANCH   2   3
ATOM      3  C   UNL A   1      37.367  21.367  24.203  1.00  0.00     0.021 C 
BRANCH   3   4
ATOM      4  C   UNL A   1      38.061  21.245  25.556  1.00  0.00     0.116 C 
BRANCH   4   5
ATOM      5  N   UNL A   1      38.968  20.113  25.595  1.00  0.00    -0.352 N 
ATOM      6  O   UNL A   1      40.950  19.056  25.644  1.00  0.00    -0.269 OA
ATOM      7  C   UNL A   1      40.306  20.073  25.884  1.00  0.00     0.251 C 
ATOM      8  H   UNL A   1      38.560  19.243  25.381  1.00  0.00     0.163 HD
BRANCH   7   9
ATOM      9  C   UNL A   1      40.982  21.237  26.498  1.00  0.00     0.039 A 
ATOM     10  C   UNL A   1      40.960  21.366  27.890  1.00  0.00     0.014 A 
ATOM     11  C   UNL A   1      41.536  22.249  25.709  1.00  0.00     0.014 A 
ATOM     12  C   UNL A   1      41.487  22.510  28.493  1.00  0.00     0.010 A 
ATOM     13  C   UNL A   1      42.111  23.365  26.313  1.00  0.00     0.010 A 
ATOM     14  C   UNL A   1      42.056  23.521  27.708  1.00  0.00    -0.014 A 
BRANCH  14  15
ATOM     15  C   UNL A   1      42.491  24.808  28.302  1.00  0.00     0.031 A 
ATOM     16  C   UNL A   1      41.468  25.889  28.527  1.00  0.00     0.074 A 
ATOM     17  C   UNL A   1      43.785  25.026  28.598  1.00  0.00     0.049 A 
ATOM     18  N   UNL A   1      41.649  27.132  28.893  1.00  0.00    -0.248 NA
ATOM     19  C   UNL A   1      40.058  25.531  28.292  1.00  0.00     0.031 C 
ATOM     20  C   UNL A   1      44.866  24.053  28.443  1.00  0.00     0.029 A 
ATOM     21  N   UNL A   1      44.413  26.149  29.083  1.00  0.00    -0.354 N 
ATOM     22  C   UNL A   1      40.383  27.706  28.907  1.00  0.00     0.074 A 
ATOM     23  C   UNL A   1      39.447  26.692  28.482  1.00  0.00     0.031 C 
ATOM     24  C   UNL A   1      46.023  24.620  28.825  1.00  0.00     0.029 A 
ATOM     25  C   UNL A   1      45.773  26.009  29.205  1.00  0.00     0.049 A 
ATOM     26  H   UNL A   1      43.932  26.975  29.318  1.00  0.00     0.167 HD
ATOM     27  C   UNL A   1      40.034  28.964  29.259  1.00  0.00     0.031 A 
ATOM     28  C   UNL A   1      46.718  26.904  29.561  1.00  0.00     0.031 A 
ATOM     29  C   UNL A   1      40.963  29.957  29.721  1.00  0.00     0.049 A 
ATOM     30  C   UNL A   1      46.306  28.307  29.922  1.00  0.00     0.074 A 
ATOM     31  C   UNL A   1      40.694  31.247  30.142  1.00  0.00     0.029 A 
ATOM     32  N   UNL A   1      42.330  29.768  29.836  1.00  0.00    -0.354 N 
ATOM     33  N   UNL A   1      45.105  28.829  29.947  1.00  0.00    -0.248 NA
ATOM     34  C   UNL A   1      47.375  29.243  30.304  1.00  0.00     0.031 C 
ATOM     35  C   UNL A   1      41.906  31.858  30.464  1.00  0.00     0.029 A 
ATOM     36  C   UNL A   1      42.920  30.929  30.301  1.00  0.00     0.049 A 
ATOM     37  H   UNL A   1      42.807  28.936  29.619  1.00  0.00     0.167 HD
ATOM     38  C   UNL A   1      45.269  30.142  30.369  1.00  0.00     0.074 A 
ATOM     39  C   UNL A   1      46.684  30.337  30.598  1.00  0.00     0.031 C 
ATOM     40  C   UNL A   1      44.328  31.100  30.546  1.00  0.00     0.031 A 
BRANCH  27  41
ATOM     41  C   UNL A   1      38.587  29.354  29.178  1.00  0.00    -0.014 A 
ATOM     42  C   UNL A   1      38.091  29.943  28.004  1.00  0.00     0.009 A 
ATOM     43  C   UNL A   1      37.751  29.263  30.301  1.00  0.00     0.009 A 
ATOM     44  C   UNL A   1      36.793  30.454  27.962  1.00  0.00     0.001 A 
ATOM     45  C   UNL A   1      36.445  29.751  30.247  1.00  0.00     0.001 A 
ATOM     46  C   UNL A   1      35.972  30.357  29.084  1.00  0.00     0.000 A 
ENDBRANCH  27  41
BRANCH  28  47
ATOM     47  C   UNL A   1      48.147  26.495  29.578  1.00  0.00    -0.014 A 
ATOM     48  C   UNL A   1      48.712  25.927  30.732  1.00  0.00     0.009 A 
ATOM     49  C   UNL A   1      48.963  26.693  28.454  1.00  0.00     0.009 A 
ATOM     50  C   UNL A   1      50.066  25.584  30.767  1.00  0.00     0.001 A 
ATOM     51  C   UNL A   1      50.310  26.321  28.481  1.00  0.00     0.001 A 
ATOM     52  C   UNL A   1      50.862  25.775  29.639  1.00  0.00     0.000 A 
ENDBRANCH  28  47
BRANCH  40  53
ATOM     53  C   UNL A   1      44.762  32.452  31.036  1.00  0.00    -0.014 A 
ATOM     54  C   UNL A   1      44.735  32.730  32.412  1.00  0.00     0.009 A 
ATOM     55  C   UNL A   1      45.025  33.491  30.133  1.00  0.00     0.009 A 
ATOM     56  C   UNL A   1      44.930  34.031  32.875  1.00  0.00     0.001 A 
ATOM     57  C   UNL A   1      45.247  34.788  30.601  1.00  0.00     0.001 A 
ATOM     58  C   UNL A   1      45.184  35.060  31.969  1.00  0.00     0.000 A 
ENDBRANCH  40  53
ENDBRANCH  14  15
ENDBRANCH   7   9
ENDBRANCH   4   5
ENDBRANCH   3   4
ENDBRANCH   2   3
ENDBRANCH   1   2
BRANCH   1  59
ATOM     59  C   UNL A   1      35.490  21.794  26.784  1.00  0.00     0.021 C 
BRANCH  59  60
ATOM     60  C   UNL A   1      34.050  21.429  27.142  1.00  0.00     0.116 C 
BRANCH  60  61
ATOM     61  N   UNL A   1      33.500  20.468  26.200  1.00  0.00    -0.352 N 
ATOM     62  C   UNL A   1      32.453  20.627  25.337  1.00  0.00     0.251 C 
ATOM     63  H   UNL A   1      33.941  19.587  26.181  1.00  0.00     0.163 HD
ATOM     64  O   UNL A   1      31.952  19.670  24.751  1.00  0.00    -0.269 OA
BRANCH  62  65
ATOM     65  C   UNL A   1      31.928  21.977  25.104  1.00  0.00     0.041 A 
ATOM     66  C   UNL A   1      31.086  22.556  26.062  1.00  0.00     0.015 A 
ATOM     67  C   UNL A   1      32.280  22.655  23.933  1.00  0.00     0.040 A 
ATOM     68  C   UNL A   1      30.589  23.835  25.844  1.00  0.00     0.017 A 
ATOM     69  C   UNL A   1      31.744  23.918  23.708  1.00  0.00     0.056 A 
ATOM     70  C   UNL A   1      30.928  24.509  24.666  1.00  0.00     0.064 A 
ATOM     71  N   UNL A   1      31.987  24.587  22.513  1.00  0.00    -0.307 N 
ATOM     72  C   UNL A   1      30.429  25.866  24.419  1.00  0.00     0.264 A 
ATOM     73  C   UNL A   1      31.396  25.774  22.172  1.00  0.00     0.328 A 
ATOM     74  H   UNL A   1      32.621  24.186  21.876  1.00  0.00     0.171 HD
ATOM     75  O   UNL A   1      29.926  26.474  25.359  1.00  0.00    -0.268 OA
ATOM     76  N   UNL A   1      30.582  26.363  23.131  1.00  0.00    -0.260 N 
ATOM     77  O   UNL A   1      31.613  26.248  21.058  1.00  0.00    -0.248 OA
BRANCH  76  78
ATOM     78  C   UNL A   1      29.943  27.636  22.816  1.00  0.00     0.137 C 
BRANCH  78  79
ATOM     79  C   UNL A   1      30.906  28.831  22.880  1.00  0.00     0.083 C 
BRANCH  79  80
ATOM     80  C   UNL A   1      31.257  29.353  24.285  1.00  0.00     0.264 C 
BRANCH  80  81
ATOM     81  N   UNL A   1      32.670  29.654  24.545  1.00  0.00    -0.331 N 
ATOM     82  C   UNL A   1      33.564  28.625  23.964  1.00  0.00     0.291 C 
ATOM     83  C   UNL A   1      33.045  29.847  25.955  1.00  0.00     0.291 C 
ATOM     84  H   UNL A   1      32.793  30.557  24.088  1.00  0.00     0.348 HD
ATOM     85  C   UNL A   1      33.654  27.337  24.807  1.00  0.00     0.221 C 
ATOM     86  C   UNL A   1      33.089  28.542  26.755  1.00  0.00     0.221 C 
ATOM     87  O   UNL A   1      34.006  27.611  26.170  1.00  0.00    -0.370 OA
ENDBRANCH  80  81
ENDBRANCH  79  80
ENDBRANCH  78  79
ENDBRANCH  76  78
ENDBRANCH  62  65
ENDBRANCH  60  61
ENDBRANCH  59  60
ENDBRANCH   1  59
TORSDOF 17
ENDMDL
MODEL 2
REMARK VINA RESULT:     -10.9      2.300      4.091
REMARK SMILES O=C(NCCCCCCNC(=O)c1ccc2c(=O)n(CCC[NH+]3CCOCC3)c(=O)[nH]c2c1)c1ccc(-c2c3nc(c(-c4ccccc4)c4ccc([nH]4)c(-c4ccccc4)c4nc(c(-c5ccccc5)c5ccc2[nH]5)C=C4)C=C3)cc1
REMARK SMILES IDX 7 1 6 2 5 3 4 4 3 5 1 6 2 7 34 9 35 10 81 11 36 12 80 13
REMARK SMILES IDX 37 14 38 15 39 16 74 17 40 18 79 19 73 20 75 21 41 22 78 23
REMARK SMILES IDX 72 24 71 25 42 27 64 28 49 29 63 30 50 31 53 32 62 33 76 34
REMARK SMILES IDX 51 35 52 36 61 38 77 39 54 40 43 41 44 42 48 43 45 44 47 45
REMARK SMILES IDX 46 46 65 47 66 48 70 49 67 50 69 51 68 52 55 53 56 54 60 55
REMARK SMILES IDX 57 56 59 57 58 58 8 59 9 60 10 61 11 62 12 64 13 65 14 66
REMARK SMILES IDX 33 67 15 68 32 69 16 70 31 71 17 72 29 73 18 75 19 76 30 77
REMARK SMILES IDX 20 78 21 79 22 80 23 81 24 82 28 83 25 85 27 86 26 87
REMARK H PARENT 3 8 75 26 53 37 10 63 31 74 23 84
REMARK Flexibility Score: inf
ROOT
ATOM      1  C   UNL A   1      41.207  23.175  27.666  1.00  0.00     0.002 C 
ENDROOT
BRANCH   1   2
ATOM      2  C   UNL A   1      41.076  21.672  27.927  1.00  0.00     0.002 C 
BRANCH   2   3
ATOM      3  C   UNL A   1      42.278  20.829  27.491  1.00  0.00     0.021 C 
BRANCH   3   4
ATOM      4  C   UNL A   1      42.639  20.949  26.014  1.00  0.00     0.116 C 
BRANCH   4   5
ATOM      5  N   UNL A   1      44.070  20.845  25.800  1.00  0.00    -0.352 N 
ATOM      6  O   UNL A   1      46.162  21.579  25.429  1.00  0.00    -0.269 OA
ATOM      7  C   UNL A   1      45.038  21.813  25.863  1.00  0.00     0.251 C 
ATOM      8  H   UNL A   1      44.395  19.944  25.576  1.00  0.00     0.163 HD
BRANCH   7   9
ATOM      9  C   UNL A   1      44.748  23.133  26.464  1.00  0.00     0.039 A 
ATOM     10  C   UNL A   1      44.361  24.181  25.623  1.00  0.00     0.014 A 
ATOM     11  C   UNL A   1      44.961  23.370  27.826  1.00  0.00     0.014 A 
ATOM     12  C   UNL A   1      44.192  25.467  26.141  1.00  0.00     0.010 A 
ATOM     13  C   UNL A   1      44.739  24.640  28.353  1.00  0.00     0.010 A 
ATOM     14  C   UNL A   1      44.391  25.706  27.508  1.00  0.00    -0.014 A 
BRANCH  14  15
ATOM     15  C   UNL A   1      44.362  27.080  28.064  1.00  0.00     0.031 A 
ATOM     16  C   UNL A   1      43.042  27.670  28.483  1.00  0.00     0.074 A 
ATOM     17  C   UNL A   1      45.491  27.808  28.157  1.00  0.00     0.049 A 
ATOM     18  N   UNL A   1      42.766  28.894  28.853  1.00  0.00    -0.248 NA
ATOM     19  C   UNL A   1      41.875  26.769  28.465  1.00  0.00     0.031 C 
ATOM     20  C   UNL A   1      46.831  27.343  27.801  1.00  0.00     0.029 A 
ATOM     21  N   UNL A   1      45.684  29.104  28.569  1.00  0.00    -0.354 N 
ATOM     22  C   UNL A   1      41.397  28.913  29.087  1.00  0.00     0.074 A 
ATOM     23  C   UNL A   1      40.890  27.595  28.787  1.00  0.00     0.031 C 
ATOM     24  C   UNL A   1      47.709  28.338  28.010  1.00  0.00     0.029 A 
ATOM     25  C   UNL A   1      46.988  29.525  28.468  1.00  0.00     0.049 A 
ATOM     26  H   UNL A   1      44.957  29.677  28.904  1.00  0.00     0.167 HD
ATOM     27  C   UNL A   1      40.634  29.939  29.529  1.00  0.00     0.031 A 
ATOM     28  C   UNL A   1      47.539  30.735  28.696  1.00  0.00     0.031 A 
ATOM     29  C   UNL A   1      41.148  31.237  29.867  1.00  0.00     0.049 A 
ATOM     30  C   UNL A   1      46.663  31.868  29.161  1.00  0.00     0.074 A 
ATOM     31  C   UNL A   1      40.456  32.326  30.365  1.00  0.00     0.029 A 
ATOM     32  N   UNL A   1      42.476  31.614  29.757  1.00  0.00    -0.354 N 
ATOM     33  N   UNL A   1      45.373  31.867  29.393  1.00  0.00    -0.248 NA
ATOM     34  C   UNL A   1      47.314  33.166  29.396  1.00  0.00     0.031 C 
ATOM     35  C   UNL A   1      41.356  33.381  30.508  1.00  0.00     0.029 A 
ATOM     36  C   UNL A   1      42.618  32.930  30.157  1.00  0.00     0.049 A 
ATOM     37  H   UNL A   1      43.205  31.035  29.441  1.00  0.00     0.167 HD
ATOM     38  C   UNL A   1      45.063  33.151  29.825  1.00  0.00     0.074 A 
ATOM     39  C   UNL A   1      46.299  33.903  29.831  1.00  0.00     0.031 C 
ATOM     40  C   UNL A   1      43.859  33.658  30.179  1.00  0.00     0.031 A 
BRANCH  27  41
ATOM     41  C   UNL A   1      39.159  29.715  29.692  1.00  0.00    -0.014 A 
ATOM     42  C   UNL A   1      38.289  30.008  28.629  1.00  0.00     0.009 A 
ATOM     43  C   UNL A   1      38.618  29.343  30.933  1.00  0.00     0.009 A 
ATOM     44  C   UNL A   1      36.907  29.956  28.810  1.00  0.00     0.001 A 
ATOM     45  C   UNL A   1      37.235  29.267  31.103  1.00  0.00     0.001 A 
ATOM     46  C   UNL A   1      36.382  29.585  30.047  1.00  0.00     0.000 A 
ENDBRANCH  27  41
BRANCH  28  47
ATOM     47  C   UNL A   1      48.995  30.932  28.471  1.00  0.00    -0.014 A 
ATOM     48  C   UNL A   1      49.913  30.709  29.512  1.00  0.00     0.009 A 
ATOM     49  C   UNL A   1      49.476  31.368  27.228  1.00  0.00     0.009 A 
ATOM     50  C   UNL A   1      51.277  30.938  29.318  1.00  0.00     0.001 A 
ATOM     51  C   UNL A   1      50.846  31.568  27.029  1.00  0.00     0.001 A 
ATOM     52  C   UNL A   1      51.743  31.361  28.075  1.00  0.00     0.000 A 
ENDBRANCH  28  47
BRANCH  40  53
ATOM     53  C   UNL A   1      43.788  35.088  30.635  1.00  0.00    -0.014 A 
ATOM     54  C   UNL A   1      43.671  36.112  29.680  1.00  0.00     0.009 A 
ATOM     55  C   UNL A   1      44.010  35.425  31.976  1.00  0.00     0.009 A 
ATOM     56  C   UNL A   1      43.811  37.448  30.056  1.00  0.00     0.001 A 
ATOM     57  C   UNL A   1      44.124  36.765  32.354  1.00  0.00     0.001 A 
ATOM     58  C   UNL A   1      44.039  37.773  31.393  1.00  0.00     0.000 A 
ENDBRANCH  40  53
ENDBRANCH  14  15
ENDBRANCH   7   9
ENDBRANCH   4   5
ENDBRANCH   3   4
ENDBRANCH   2   3
ENDBRANCH   1   2
BRANCH   1  59
ATOM     59  C   UNL A   1      40.359  23.710  26.507  1.00  0.00     0.021 C 
BRANCH  59  60
ATOM     60  C   UNL A   1      38.940  23.146  26.447  1.00  0.00     0.116 C 
BRANCH  60  61
ATOM     61  N   UNL A   1      38.894  21.918  25.671  1.00  0.00    -0.352 N 
ATOM     62  C   UNL A   1      37.818  21.337  25.062  1.00  0.00     0.251 C 
ATOM     63  H   UNL A   1      39.750  21.442  25.571  1.00  0.00     0.163 HD
ATOM     64  O   UNL A   1      37.869  20.190  24.622  1.00  0.00    -0.269 OA
BRANCH  62  65
ATOM     65  C   UNL A   1      36.580  22.112  24.925  1.00  0.00     0.041 A 
ATOM     66  C   UNL A   1      36.440  22.991  23.843  1.00  0.00     0.015 A 
ATOM     67  C   UNL A   1      35.567  21.956  25.876  1.00  0.00     0.040 A 
ATOM     68  C   UNL A   1      35.267  23.723  23.711  1.00  0.00     0.017 A 
ATOM     69  C   UNL A   1      34.415  22.725  25.755  1.00  0.00     0.056 A 
ATOM     70  C   UNL A   1      34.259  23.580  24.670  1.00  0.00     0.064 A 
ATOM     71  N   UNL A   1      33.425  22.675  26.731  1.00  0.00    -0.307 N 
ATOM     72  C   UNL A   1      33.005  24.330  24.545  1.00  0.00     0.264 A 
ATOM     73  C   UNL A   1      32.325  23.491  26.741  1.00  0.00     0.328 A 
ATOM     74  H   UNL A   1      33.519  22.016  27.456  1.00  0.00     0.171 HD
ATOM     75  O   UNL A   1      32.770  24.882  23.475  1.00  0.00    -0.268 OA
ATOM     76  N   UNL A   1      32.171  24.343  25.656  1.00  0.00    -0.260 N 
ATOM     77  O   UNL A   1      31.546  23.427  27.691  1.00  0.00    -0.248 OA
BRANCH  76  78
ATOM     78  C   UNL A   1      31.006  25.220  25.617  1.00  0.00     0.137 C 
BRANCH  78  79
ATOM     79  C   UNL A   1      31.335  26.681  25.960  1.00  0.00     0.083 C 
BRANCH  79  80
ATOM     80  C   UNL A   1      30.936  27.736  24.914  1.00  0.00     0.264 C 
BRANCH  80  81
ATOM     81  N   UNL A   1      30.493  27.237  23.606  1.00  0.00    -0.331 N 
ATOM     82  C   UNL A   1      31.242  27.873  22.497  1.00  0.00     0.291 C 
ATOM     83  C   UNL A   1      29.055  27.354  23.318  1.00  0.00     0.291 C 
ATOM     84  H   UNL A   1      30.694  26.240  23.669  1.00  0.00     0.348 HD
ATOM     85  C   UNL A   1      30.749  29.292  22.153  1.00  0.00     0.221 C 
ATOM     86  C   UNL A   1      28.612  28.788  23.015  1.00  0.00     0.221 C 
ATOM     87  O   UNL A   1      29.338  29.326  21.903  1.00  0.00    -0.370 OA
ENDBRANCH  80  81
ENDBRANCH  79  80
ENDBRANCH  78  79
ENDBRANCH  76  78
ENDBRANCH  62  65
ENDBRANCH  60  61
ENDBRANCH  59  60
ENDBRANCH   1  59
TORSDOF 17
ENDMDL
MODEL 3
REMARK VINA RESULT:     -10.6      2.668      6.878
REMARK SMILES O=C(NCCCCCCNC(=O)c1ccc2c(=O)n(CCC[NH+]3CCOCC3)c(=O)[nH]c2c1)c1ccc(-c2c3nc(c(-c4ccccc4)c4ccc([nH]4)c(-c4ccccc4)c4nc(c(-c5ccccc5)c5ccc2[nH]5)C=C4)C=C3)cc1
REMARK SMILES IDX 7 1 6 2 5 3 4 4 3 5 1 6 2 7 34 9 35 10 81 11 36 12 80 13
REMARK SMILES IDX 37 14 38 15 39 16 74 17 40 18 79 19 73 20 75 21 41 22 78 23
REMARK SMILES IDX 72 24 71 25 42 27 64 28 49 29 63 30 50 31 53 32 62 33 76 34
REMARK SMILES IDX 51 35 52 36 61 38 77 39 54 40 43 41 44 42 48 43 45 44 47 45
REMARK SMILES IDX 46 46 65 47 66 48 70 49 67 50 69 51 68 52 55 53 56 54 60 55
REMARK SMILES IDX 57 56 59 57 58 58 8 59 9 60 10 61 11 62 12 64 13 65 14 66
REMARK SMILES IDX 33 67 15 68 32 69 16 70 31 71 17 72 29 73 18 75 19 76 30 77
REMARK SMILES IDX 20 78 21 79 22 80 23 81 24 82 28 83 25 85 27 86 26 87
REMARK H PARENT 3 8 75 26 53 37 10 63 31 74 23 84
REMARK Flexibility Score: inf
ROOT
ATOM      1  C   UNL A   1      41.101  21.883  27.783  1.00  0.00     0.002 C 
ENDROOT
BRANCH   1   2
ATOM      2  C   UNL A   1      41.165  20.361  27.626  1.00  0.00     0.002 C 
BRANCH   2   3
ATOM      3  C   UNL A   1      42.437  19.829  26.959  1.00  0.00     0.021 C 
BRANCH   3   4
ATOM      4  C   UNL A   1      42.380  19.764  25.436  1.00  0.00     0.116 C 
BRANCH   4   5
ATOM      5  N   UNL A   1      43.566  19.140  24.880  1.00  0.00    -0.352 N 
ATOM      6  O   UNL A   1      45.539  19.043  23.809  1.00  0.00    -0.269 OA
ATOM      7  C   UNL A   1      44.739  19.709  24.460  1.00  0.00     0.251 C 
ATOM      8  H   UNL A   1      43.521  18.161  24.791  1.00  0.00     0.163 HD
BRANCH   7   9
ATOM      9  C   UNL A   1      45.061  21.112  24.797  1.00  0.00     0.039 A 
ATOM     10  C   UNL A   1      45.531  21.402  26.082  1.00  0.00     0.014 A 
ATOM     11  C   UNL A   1      44.801  22.150  23.896  1.00  0.00     0.014 A 
ATOM     12  C   UNL A   1      45.734  22.729  26.468  1.00  0.00     0.010 A 
ATOM     13  C   UNL A   1      45.055  23.469  24.262  1.00  0.00     0.010 A 
ATOM     14  C   UNL A   1      45.487  23.771  25.564  1.00  0.00    -0.014 A 
BRANCH  14  15
ATOM     15  C   UNL A   1      45.553  25.191  25.985  1.00  0.00     0.031 A 
ATOM     16  C   UNL A   1      46.874  25.910  25.922  1.00  0.00     0.074 A 
ATOM     17  C   UNL A   1      44.460  25.820  26.456  1.00  0.00     0.049 A 
ATOM     18  N   UNL A   1      47.190  27.096  26.374  1.00  0.00    -0.248 NA
ATOM     19  C   UNL A   1      47.991  25.193  25.282  1.00  0.00     0.031 C 
ATOM     20  C   UNL A   1      43.121  25.238  26.550  1.00  0.00     0.029 A 
ATOM     21  N   UNL A   1      44.308  27.090  26.958  1.00  0.00    -0.354 N 
ATOM     22  C   UNL A   1      48.542  27.254  26.096  1.00  0.00     0.074 A 
ATOM     23  C   UNL A   1      48.997  26.036  25.468  1.00  0.00     0.031 C 
ATOM     24  C   UNL A   1      42.285  26.147  27.076  1.00  0.00     0.029 A 
ATOM     25  C   UNL A   1      43.037  27.358  27.402  1.00  0.00     0.049 A 
ATOM     26  H   UNL A   1      45.043  27.744  26.997  1.00  0.00     0.167 HD
ATOM     27  C   UNL A   1      49.328  28.329  26.330  1.00  0.00     0.031 A 
ATOM     28  C   UNL A   1      42.536  28.446  28.022  1.00  0.00     0.031 A 
ATOM     29  C   UNL A   1      48.862  29.555  26.917  1.00  0.00     0.049 A 
ATOM     30  C   UNL A   1      43.439  29.619  28.297  1.00  0.00     0.074 A 
ATOM     31  C   UNL A   1      49.578  30.715  27.152  1.00  0.00     0.029 A 
ATOM     32  N   UNL A   1      47.564  29.783  27.343  1.00  0.00    -0.354 N 
ATOM     33  N   UNL A   1      44.711  29.761  28.013  1.00  0.00    -0.248 NA
ATOM     34  C   UNL A   1      42.843  30.782  28.974  1.00  0.00     0.031 C 
ATOM     35  C   UNL A   1      48.726  31.630  27.770  1.00  0.00     0.029 A 
ATOM     36  C   UNL A   1      47.466  31.061  27.862  1.00  0.00     0.049 A 
ATOM     37  H   UNL A   1      46.826  29.136  27.285  1.00  0.00     0.167 HD
ATOM     38  C   UNL A   1      45.060  31.032  28.452  1.00  0.00     0.074 A 
ATOM     39  C   UNL A   1      43.866  31.626  29.014  1.00  0.00     0.031 C 
ATOM     40  C   UNL A   1      46.265  31.647  28.397  1.00  0.00     0.031 A 
BRANCH  27  41
ATOM     41  C   UNL A   1      50.777  28.253  25.947  1.00  0.00    -0.014 A 
ATOM     42  C   UNL A   1      51.172  28.609  24.647  1.00  0.00     0.009 A 
ATOM     43  C   UNL A   1      51.727  27.706  26.822  1.00  0.00     0.009 A 
ATOM     44  C   UNL A   1      52.484  28.397  24.222  1.00  0.00     0.001 A 
ATOM     45  C   UNL A   1      53.045  27.520  26.403  1.00  0.00     0.001 A 
ATOM     46  C   UNL A   1      53.419  27.853  25.101  1.00  0.00     0.000 A 
ENDBRANCH  27  41
BRANCH  28  47
ATOM     47  C   UNL A   1      41.108  28.464  28.435  1.00  0.00    -0.014 A 
ATOM     48  C   UNL A   1      40.724  27.973  29.694  1.00  0.00     0.009 A 
ATOM     49  C   UNL A   1      40.117  28.946  27.568  1.00  0.00     0.009 A 
ATOM     50  C   UNL A   1      39.379  27.945  30.068  1.00  0.00     0.001 A 
ATOM     51  C   UNL A   1      38.774  28.945  27.956  1.00  0.00     0.001 A 
ATOM     52  C   UNL A   1      38.406  28.437  29.201  1.00  0.00     0.000 A 
ENDBRANCH  28  47
BRANCH  40  53
ATOM     53  C   UNL A   1      46.382  33.047  28.927  1.00  0.00    -0.014 A 
ATOM     54  C   UNL A   1      46.259  34.133  28.045  1.00  0.00     0.009 A 
ATOM     55  C   UNL A   1      46.785  33.282  30.249  1.00  0.00     0.009 A 
ATOM     56  C   UNL A   1      46.569  35.426  28.467  1.00  0.00     0.001 A 
ATOM     57  C   UNL A   1      47.068  34.581  30.676  1.00  0.00     0.001 A 
ATOM     58  C   UNL A   1      46.975  35.648  29.782  1.00  0.00     0.000 A 
ENDBRANCH  40  53
ENDBRANCH  14  15
ENDBRANCH   7   9
ENDBRANCH   4   5
ENDBRANCH   3   4
ENDBRANCH   2   3
ENDBRANCH   1   2
BRANCH   1  59
ATOM     59  C   UNL A   1      40.532  22.637  26.576  1.00  0.00     0.021 C 
BRANCH  59  60
ATOM     60  C   UNL A   1      39.066  22.333  26.271  1.00  0.00     0.116 C 
BRANCH  60  61
ATOM     61  N   UNL A   1      38.930  21.096  25.519  1.00  0.00    -0.352 N 
ATOM     62  C   UNL A   1      37.800  20.547  24.984  1.00  0.00     0.251 C 
ATOM     63  H   UNL A   1      39.761  20.588  25.377  1.00  0.00     0.163 HD
ATOM     64  O   UNL A   1      37.784  19.393  24.561  1.00  0.00    -0.269 OA
BRANCH  62  65
ATOM     65  C   UNL A   1      36.584  21.365  24.909  1.00  0.00     0.041 A 
ATOM     66  C   UNL A   1      36.436  22.271  23.852  1.00  0.00     0.015 A 
ATOM     67  C   UNL A   1      35.601  21.220  25.892  1.00  0.00     0.040 A 
ATOM     68  C   UNL A   1      35.284  23.044  23.777  1.00  0.00     0.017 A 
ATOM     69  C   UNL A   1      34.472  22.029  25.829  1.00  0.00     0.056 A 
ATOM     70  C   UNL A   1      34.306  22.913  24.769  1.00  0.00     0.064 A 
ATOM     71  N   UNL A   1      33.515  21.990  26.839  1.00  0.00    -0.307 N 
ATOM     72  C   UNL A   1      33.074  23.706  24.705  1.00  0.00     0.264 A 
ATOM     73  C   UNL A   1      32.444  22.840  26.906  1.00  0.00     0.328 A 
ATOM     74  H   UNL A   1      33.613  21.312  27.546  1.00  0.00     0.171 HD
ATOM     75  O   UNL A   1      32.820  24.289  23.656  1.00  0.00    -0.268 OA
ATOM     76  N   UNL A   1      32.281  23.721  25.845  1.00  0.00    -0.260 N 
ATOM     77  O   UNL A   1      31.698  22.780  27.881  1.00  0.00    -0.248 OA
BRANCH  76  78
ATOM     78  C   UNL A   1      31.145  24.636  25.867  1.00  0.00     0.137 C 
BRANCH  78  79
ATOM     79  C   UNL A   1      31.535  26.079  26.219  1.00  0.00     0.083 C 
BRANCH  79  80
ATOM     80  C   UNL A   1      31.107  27.168  25.220  1.00  0.00     0.264 C 
BRANCH  80  81
ATOM     81  N   UNL A   1      31.913  28.394  25.190  1.00  0.00    -0.331 N 
ATOM     82  C   UNL A   1      31.313  29.422  24.308  1.00  0.00     0.291 C 
ATOM     83  C   UNL A   1      33.327  28.235  24.816  1.00  0.00     0.291 C 
ATOM     84  H   UNL A   1      31.905  28.688  26.166  1.00  0.00     0.348 HD
ATOM     85  C   UNL A   1      31.577  29.179  22.809  1.00  0.00     0.221 C 
ATOM     86  C   UNL A   1      33.533  27.964  23.323  1.00  0.00     0.221 C 
ATOM     87  O   UNL A   1      32.974  29.017  22.528  1.00  0.00    -0.370 OA
ENDBRANCH  80  81
ENDBRANCH  79  80
ENDBRANCH  78  79
ENDBRANCH  76  78
ENDBRANCH  62  65
ENDBRANCH  60  61
ENDBRANCH  59  60
ENDBRANCH   1  59
TORSDOF 17
ENDMDL
