MODEL 1
REMARK VINA RESULT:     -11.0      0.000      0.000
REMARK SMILES O=C(CC1CC[NH+](C[C@H]2Cc3ccccc3O2)CC1)NCCCCCCNC(=O)c1ccc(-c2c3nc(c(-c4ccccc4)c4ccc([nH]4)c(-c4ccccc4)c4nc(c(-c5ccccc5)c5ccc2[nH]5)C=C4)C=C3)cc1
REMARK SMILES IDX 23 1 22 2 21 3 20 4 1 5 2 6 3 8 4 9 5 10 19 11 6 12 18 13
REMARK SMILES IDX 7 14 8 16 9 17 10 18 17 19 11 20 16 21 12 22 15 23 13 24
REMARK SMILES IDX 14 25 24 26 25 27 26 28 27 29 28 30 29 32 30 33 31 34 77 35
REMARK SMILES IDX 32 36 76 37 33 38 34 39 35 40 70 41 36 42 75 43 69 44 71 45
REMARK SMILES IDX 37 46 74 47 68 48 67 49 38 51 60 52 45 53 59 54 46 55 49 56
REMARK SMILES IDX 58 57 72 58 47 59 48 60 57 62 73 63 50 64 39 65 40 66 44 67
REMARK SMILES IDX 41 68 43 69 42 70 61 71 62 72 66 73 63 74 65 75 64 76 51 77
REMARK SMILES IDX 52 78 56 79 53 80 55 81 54 82
REMARK H PARENT 20 7 7 15 27 31 71 50 49 61
REMARK Flexibility Score: inf
ROOT
ATOM      1  C   UNL A   1      35.063  33.790  29.125  1.00  0.00     0.002 C 
ENDROOT
BRANCH   1   2
ATOM      2  C   UNL A   1      34.519  32.361  29.149  1.00  0.00     0.021 C 
BRANCH   2   3
ATOM      3  C   UNL A   1      34.483  31.654  27.800  1.00  0.00     0.116 C 
BRANCH   3   4
ATOM      4  N   UNL A   1      33.623  30.484  27.761  1.00  0.00    -0.356 N 
ATOM      5  O   UNL A   1      31.860  31.541  26.752  1.00  0.00    -0.275 OA
ATOM      6  C   UNL A   1      32.404  30.519  27.115  1.00  0.00     0.220 C 
ATOM      7  H   UNL A   1      33.914  29.654  28.203  1.00  0.00     0.163 HD
BRANCH   6   8
ATOM      8  C   UNL A   1      31.771  29.170  26.863  1.00  0.00     0.104 C 
BRANCH   8   9
ATOM      9  C   UNL A   1      31.590  28.750  25.390  1.00  0.00     0.009 C 
ATOM     10  C   UNL A   1      31.031  27.345  25.167  1.00  0.00     0.066 C 
ATOM     11  C   UNL A   1      32.822  28.929  24.497  1.00  0.00     0.066 C 
ATOM     12  C   UNL A   1      32.077  26.223  25.254  1.00  0.00     0.262 C 
ATOM     13  C   UNL A   1      33.851  27.804  24.610  1.00  0.00     0.262 C 
ATOM     14  N   UNL A   1      33.308  26.458  24.505  1.00  0.00    -0.332 N 
ATOM     15  H   UNL A   1      33.039  26.438  23.521  1.00  0.00     0.348 HD
BRANCH  14  16
ATOM     16  C   UNL A   1      34.281  25.344  24.650  1.00  0.00     0.308 C 
BRANCH  16  17
ATOM     17  C   UNL A   1      34.492  24.113  23.698  1.00  0.00     0.232 C 
ATOM     18  C   UNL A   1      35.497  23.033  24.121  1.00  0.00     0.090 C 
ATOM     19  O   UNL A   1      33.248  23.486  23.270  1.00  0.00    -0.484 OA
ATOM     20  C   UNL A   1      34.584  21.878  24.257  1.00  0.00    -0.002 A 
ATOM     21  C   UNL A   1      33.379  22.171  23.643  1.00  0.00     0.123 A 
ATOM     22  C   UNL A   1      34.787  20.657  24.878  1.00  0.00     0.007 A 
ATOM     23  C   UNL A   1      32.384  21.221  23.512  1.00  0.00     0.047 A 
ATOM     24  C   UNL A   1      33.753  19.717  24.845  1.00  0.00     0.001 A 
ATOM     25  C   UNL A   1      32.569  19.985  24.139  1.00  0.00     0.004 A 
ENDBRANCH  16  17
ENDBRANCH  14  16
ENDBRANCH   8   9
ENDBRANCH   6   8
ENDBRANCH   3   4
ENDBRANCH   2   3
ENDBRANCH   1   2
BRANCH   1  26
ATOM     26  C   UNL A   1      34.342  34.758  28.183  1.00  0.00     0.002 C 
BRANCH  26  27
ATOM     27  C   UNL A   1      33.076  35.412  28.745  1.00  0.00     0.021 C 
BRANCH  27  28
ATOM     28  C   UNL A   1      33.298  36.408  29.880  1.00  0.00     0.116 C 
BRANCH  28  29
ATOM     29  N   UNL A   1      32.353  36.244  30.974  1.00  0.00    -0.352 N 
ATOM     30  C   UNL A   1      32.478  35.539  32.141  1.00  0.00     0.251 C 
ATOM     31  H   UNL A   1      31.494  36.710  30.856  1.00  0.00     0.163 HD
ATOM     32  O   UNL A   1      31.521  35.434  32.902  1.00  0.00    -0.269 OA
BRANCH  30  33
ATOM     33  C   UNL A   1      33.757  34.881  32.476  1.00  0.00     0.039 A 
ATOM     34  C   UNL A   1      33.730  33.538  32.863  1.00  0.00     0.014 A 
ATOM     35  C   UNL A   1      34.966  35.580  32.434  1.00  0.00     0.014 A 
ATOM     36  C   UNL A   1      34.924  32.883  33.164  1.00  0.00     0.010 A 
ATOM     37  C   UNL A   1      36.162  34.910  32.677  1.00  0.00     0.010 A 
ATOM     38  C   UNL A   1      36.150  33.559  33.053  1.00  0.00    -0.014 A 
BRANCH  38  39
ATOM     39  C   UNL A   1      37.423  32.856  33.330  1.00  0.00     0.031 A 
ATOM     40  C   UNL A   1      38.168  33.110  34.609  1.00  0.00     0.074 A 
ATOM     41  C   UNL A   1      37.926  32.013  32.408  1.00  0.00     0.049 A 
ATOM     42  N   UNL A   1      39.282  32.570  35.036  1.00  0.00    -0.248 NA
ATOM     43  C   UNL A   1      37.602  34.120  35.517  1.00  0.00     0.031 C 
ATOM     44  C   UNL A   1      37.318  31.719  31.109  1.00  0.00     0.029 A 
ATOM     45  N   UNL A   1      39.061  31.244  32.429  1.00  0.00    -0.354 N 
ATOM     46  C   UNL A   1      39.556  33.186  36.250  1.00  0.00     0.074 A 
ATOM     47  C   UNL A   1      38.519  34.170  36.472  1.00  0.00     0.031 C 
ATOM     48  C   UNL A   1      38.065  30.801  30.475  1.00  0.00     0.029 A 
ATOM     49  C   UNL A   1      39.214  30.465  31.309  1.00  0.00     0.049 A 
ATOM     50  H   UNL A   1      39.703  31.250  33.174  1.00  0.00     0.167 HD
ATOM     51  C   UNL A   1      40.573  32.942  37.112  1.00  0.00     0.031 A 
ATOM     52  C   UNL A   1      40.166  29.568  30.997  1.00  0.00     0.031 A 
ATOM     53  C   UNL A   1      41.595  31.953  36.898  1.00  0.00     0.049 A 
ATOM     54  C   UNL A   1      41.277  29.308  31.974  1.00  0.00     0.074 A 
ATOM     55  C   UNL A   1      42.624  31.577  37.743  1.00  0.00     0.029 A 
ATOM     56  N   UNL A   1      41.720  31.189  35.749  1.00  0.00    -0.354 N 
ATOM     57  N   UNL A   1      41.478  29.836  33.156  1.00  0.00    -0.248 NA
ATOM     58  C   UNL A   1      42.285  28.316  31.575  1.00  0.00     0.031 C 
ATOM     59  C   UNL A   1      43.397  30.613  37.086  1.00  0.00     0.029 A 
ATOM     60  C   UNL A   1      42.824  30.359  35.851  1.00  0.00     0.049 A 
ATOM     61  H   UNL A   1      41.113  31.228  34.974  1.00  0.00     0.167 HD
ATOM     62  C   UNL A   1      42.621  29.225  33.654  1.00  0.00     0.074 A 
ATOM     63  C   UNL A   1      43.058  28.276  32.650  1.00  0.00     0.031 C 
ATOM     64  C   UNL A   1      43.250  29.430  34.837  1.00  0.00     0.031 A 
BRANCH  51  65
ATOM     65  C   UNL A   1      40.628  33.777  38.361  1.00  0.00    -0.014 A 
ATOM     66  C   UNL A   1      39.980  33.371  39.539  1.00  0.00     0.009 A 
ATOM     67  C   UNL A   1      41.348  34.982  38.363  1.00  0.00     0.009 A 
ATOM     68  C   UNL A   1      40.016  34.177  40.680  1.00  0.00     0.001 A 
ATOM     69  C   UNL A   1      41.405  35.771  39.513  1.00  0.00     0.001 A 
ATOM     70  C   UNL A   1      40.730  35.374  40.666  1.00  0.00     0.000 A 
ENDBRANCH  51  65
BRANCH  52  71
ATOM     71  C   UNL A   1      40.085  28.813  29.722  1.00  0.00    -0.014 A 
ATOM     72  C   UNL A   1      40.619  29.358  28.544  1.00  0.00     0.009 A 
ATOM     73  C   UNL A   1      39.486  27.545  29.674  1.00  0.00     0.009 A 
ATOM     74  C   UNL A   1      40.534  28.658  27.339  1.00  0.00     0.001 A 
ATOM     75  C   UNL A   1      39.424  26.837  28.472  1.00  0.00     0.001 A 
ATOM     76  C   UNL A   1      39.942  27.397  27.304  1.00  0.00     0.000 A 
ENDBRANCH  52  71
BRANCH  64  77
ATOM     77  C   UNL A   1      44.467  28.593  35.110  1.00  0.00    -0.014 A 
ATOM     78  C   UNL A   1      45.749  29.038  34.754  1.00  0.00     0.009 A 
ATOM     79  C   UNL A   1      44.327  27.350  35.746  1.00  0.00     0.009 A 
ATOM     80  C   UNL A   1      46.865  28.235  34.996  1.00  0.00     0.001 A 
ATOM     81  C   UNL A   1      45.448  26.561  36.010  1.00  0.00     0.001 A 
ATOM     82  C   UNL A   1      46.714  27.000  35.625  1.00  0.00     0.000 A 
ENDBRANCH  64  77
ENDBRANCH  38  39
ENDBRANCH  30  33
ENDBRANCH  28  29
ENDBRANCH  27  28
ENDBRANCH  26  27
ENDBRANCH   1  26
TORSDOF 16
ENDMDL
MODEL 2
REMARK VINA RESULT:     -10.8      2.201      3.924
REMARK SMILES O=C(CC1CC[NH+](C[C@H]2Cc3ccccc3O2)CC1)NCCCCCCNC(=O)c1ccc(-c2c3nc(c(-c4ccccc4)c4ccc([nH]4)c(-c4ccccc4)c4nc(c(-c5ccccc5)c5ccc2[nH]5)C=C4)C=C3)cc1
REMARK SMILES IDX 23 1 22 2 21 3 20 4 1 5 2 6 3 8 4 9 5 10 19 11 6 12 18 13
REMARK SMILES IDX 7 14 8 16 9 17 10 18 17 19 11 20 16 21 12 22 15 23 13 24
REMARK SMILES IDX 14 25 24 26 25 27 26 28 27 29 28 30 29 32 30 33 31 34 77 35
REMARK SMILES IDX 32 36 76 37 33 38 34 39 35 40 70 41 36 42 75 43 69 44 71 45
REMARK SMILES IDX 37 46 74 47 68 48 67 49 38 51 60 52 45 53 59 54 46 55 49 56
REMARK SMILES IDX 58 57 72 58 47 59 48 60 57 62 73 63 50 64 39 65 40 66 44 67
REMARK SMILES IDX 41 68 43 69 42 70 61 71 62 72 66 73 63 74 65 75 64 76 51 77
REMARK SMILES IDX 52 78 56 79 53 80 55 81 54 82
REMARK H PARENT 20 7 7 15 27 31 71 50 49 61
REMARK Flexibility Score: inf
ROOT
ATOM      1  C   UNL A   1      34.692  34.437  28.799  1.00  0.00     0.002 C 
ENDROOT
BRANCH   1   2
ATOM      2  C   UNL A   1      34.630  32.922  28.994  1.00  0.00     0.021 C 
BRANCH   2   3
ATOM      3  C   UNL A   1      35.360  32.098  27.940  1.00  0.00     0.116 C 
BRANCH   3   4
ATOM      4  N   UNL A   1      34.518  31.149  27.234  1.00  0.00    -0.356 N 
ATOM      5  O   UNL A   1      35.483  29.280  28.142  1.00  0.00    -0.275 OA
ATOM      6  C   UNL A   1      34.589  29.797  27.504  1.00  0.00     0.220 C 
ATOM      7  H   UNL A   1      33.886  31.475  26.552  1.00  0.00     0.163 HD
BRANCH   6   8
ATOM      8  C   UNL A   1      33.448  28.971  26.955  1.00  0.00     0.104 C 
BRANCH   8   9
ATOM      9  C   UNL A   1      33.818  27.830  25.986  1.00  0.00     0.009 C 
ATOM     10  C   UNL A   1      34.323  28.269  24.612  1.00  0.00     0.066 C 
ATOM     11  C   UNL A   1      32.741  26.758  25.787  1.00  0.00     0.066 C 
ATOM     12  C   UNL A   1      33.214  28.625  23.610  1.00  0.00     0.262 C 
ATOM     13  C   UNL A   1      31.645  27.141  24.793  1.00  0.00     0.262 C 
ATOM     14  N   UNL A   1      32.121  27.661  23.520  1.00  0.00    -0.332 N 
ATOM     15  H   UNL A   1      32.529  26.820  23.112  1.00  0.00     0.348 HD
BRANCH  14  16
ATOM     16  C   UNL A   1      31.076  28.078  22.549  1.00  0.00     0.308 C 
BRANCH  16  17
ATOM     17  C   UNL A   1      29.659  28.683  22.853  1.00  0.00     0.232 C 
ATOM     18  C   UNL A   1      29.551  29.767  23.934  1.00  0.00     0.090 C 
ATOM     19  O   UNL A   1      28.936  29.104  21.660  1.00  0.00    -0.484 OA
ATOM     20  C   UNL A   1      29.081  30.900  23.109  1.00  0.00    -0.002 A 
ATOM     21  C   UNL A   1      28.637  30.425  21.887  1.00  0.00     0.123 A 
ATOM     22  C   UNL A   1      29.047  32.254  23.401  1.00  0.00     0.007 A 
ATOM     23  C   UNL A   1      28.028  31.256  20.966  1.00  0.00     0.047 A 
ATOM     24  C   UNL A   1      28.528  33.126  22.439  1.00  0.00     0.001 A 
ATOM     25  C   UNL A   1      27.992  32.627  21.240  1.00  0.00     0.004 A 
ENDBRANCH  16  17
ENDBRANCH  14  16
ENDBRANCH   8   9
ENDBRANCH   6   8
ENDBRANCH   3   4
ENDBRANCH   2   3
ENDBRANCH   1   2
BRANCH   1  26
ATOM     26  C   UNL A   1      33.341  35.158  28.782  1.00  0.00     0.002 C 
BRANCH  26  27
ATOM     27  C   UNL A   1      33.393  36.670  29.022  1.00  0.00     0.021 C 
BRANCH  27  28
ATOM     28  C   UNL A   1      33.476  37.102  30.484  1.00  0.00     0.116 C 
BRANCH  28  29
ATOM     29  N   UNL A   1      32.415  36.538  31.304  1.00  0.00    -0.352 N 
ATOM     30  C   UNL A   1      32.458  35.506  32.203  1.00  0.00     0.251 C 
ATOM     31  H   UNL A   1      31.534  36.962  31.195  1.00  0.00     0.163 HD
ATOM     32  O   UNL A   1      31.425  35.104  32.727  1.00  0.00    -0.269 OA
BRANCH  30  33
ATOM     33  C   UNL A   1      33.745  34.858  32.526  1.00  0.00     0.039 A 
ATOM     34  C   UNL A   1      33.728  33.529  32.959  1.00  0.00     0.014 A 
ATOM     35  C   UNL A   1      34.953  35.553  32.428  1.00  0.00     0.014 A 
ATOM     36  C   UNL A   1      34.928  32.883  33.251  1.00  0.00     0.010 A 
ATOM     37  C   UNL A   1      36.154  34.889  32.662  1.00  0.00     0.010 A 
ATOM     38  C   UNL A   1      36.151  33.551  33.083  1.00  0.00    -0.014 A 
BRANCH  38  39
ATOM     39  C   UNL A   1      37.431  32.857  33.351  1.00  0.00     0.031 A 
ATOM     40  C   UNL A   1      38.178  33.105  34.630  1.00  0.00     0.074 A 
ATOM     41  C   UNL A   1      37.938  32.026  32.420  1.00  0.00     0.049 A 
ATOM     42  N   UNL A   1      39.297  32.570  35.048  1.00  0.00    -0.248 NA
ATOM     43  C   UNL A   1      37.606  34.102  35.549  1.00  0.00     0.031 C 
ATOM     44  C   UNL A   1      37.327  31.738  31.120  1.00  0.00     0.029 A 
ATOM     45  N   UNL A   1      39.078  31.265  32.430  1.00  0.00    -0.354 N 
ATOM     46  C   UNL A   1      39.570  33.177  36.267  1.00  0.00     0.074 A 
ATOM     47  C   UNL A   1      38.526  34.151  36.500  1.00  0.00     0.031 C 
ATOM     48  C   UNL A   1      38.079  30.832  30.476  1.00  0.00     0.029 A 
ATOM     49  C   UNL A   1      39.233  30.497  31.302  1.00  0.00     0.049 A 
ATOM     50  H   UNL A   1      39.723  31.270  33.173  1.00  0.00     0.167 HD
ATOM     51  C   UNL A   1      40.592  32.933  37.124  1.00  0.00     0.031 A 
ATOM     52  C   UNL A   1      40.192  29.611  30.979  1.00  0.00     0.031 A 
ATOM     53  C   UNL A   1      41.621  31.955  36.897  1.00  0.00     0.049 A 
ATOM     54  C   UNL A   1      41.308  29.351  31.951  1.00  0.00     0.074 A 
ATOM     55  C   UNL A   1      42.655  31.578  37.736  1.00  0.00     0.029 A 
ATOM     56  N   UNL A   1      41.748  31.201  35.741  1.00  0.00    -0.354 N 
ATOM     57  N   UNL A   1      41.508  29.870  33.137  1.00  0.00    -0.248 NA
ATOM     58  C   UNL A   1      42.322  28.370  31.540  1.00  0.00     0.031 C 
ATOM     59  C   UNL A   1      43.434  30.627  37.068  1.00  0.00     0.029 A 
ATOM     60  C   UNL A   1      42.859  30.379  35.833  1.00  0.00     0.049 A 
ATOM     61  H   UNL A   1      41.139  31.243  34.969  1.00  0.00     0.167 HD
ATOM     62  C   UNL A   1      42.657  29.263  33.626  1.00  0.00     0.074 A 
ATOM     63  C   UNL A   1      43.099  28.327  32.612  1.00  0.00     0.031 C 
ATOM     64  C   UNL A   1      43.289  29.463  34.809  1.00  0.00     0.031 A 
BRANCH  51  65
ATOM     65  C   UNL A   1      40.645  33.757  38.380  1.00  0.00    -0.014 A 
ATOM     66  C   UNL A   1      40.043  33.314  39.569  1.00  0.00     0.009 A 
ATOM     67  C   UNL A   1      41.315  34.990  38.377  1.00  0.00     0.009 A 
ATOM     68  C   UNL A   1      40.075  34.109  40.717  1.00  0.00     0.001 A 
ATOM     69  C   UNL A   1      41.369  35.770  39.533  1.00  0.00     0.001 A 
ATOM     70  C   UNL A   1      40.740  35.335  40.699  1.00  0.00     0.000 A 
ENDBRANCH  51  65
BRANCH  52  71
ATOM     71  C   UNL A   1      40.112  28.866  29.698  1.00  0.00    -0.014 A 
ATOM     72  C   UNL A   1      40.671  29.409  28.531  1.00  0.00     0.009 A 
ATOM     73  C   UNL A   1      39.490  27.610  29.633  1.00  0.00     0.009 A 
ATOM     74  C   UNL A   1      40.589  28.720  27.320  1.00  0.00     0.001 A 
ATOM     75  C   UNL A   1      39.431  26.912  28.426  1.00  0.00     0.001 A 
ATOM     76  C   UNL A   1      39.973  27.470  27.269  1.00  0.00     0.000 A 
ENDBRANCH  52  71
BRANCH  64  77
ATOM     77  C   UNL A   1      44.513  28.633  35.070  1.00  0.00    -0.014 A 
ATOM     78  C   UNL A   1      45.799  29.143  34.837  1.00  0.00     0.009 A 
ATOM     79  C   UNL A   1      44.375  27.329  35.572  1.00  0.00     0.009 A 
ATOM     80  C   UNL A   1      46.924  28.347  35.064  1.00  0.00     0.001 A 
ATOM     81  C   UNL A   1      45.502  26.546  35.824  1.00  0.00     0.001 A 
ATOM     82  C   UNL A   1      46.775  27.052  35.560  1.00  0.00     0.000 A 
ENDBRANCH  64  77
ENDBRANCH  38  39
ENDBRANCH  30  33
ENDBRANCH  28  29
ENDBRANCH  27  28
ENDBRANCH  26  27
ENDBRANCH   1  26
TORSDOF 16
ENDMDL
MODEL 3
REMARK VINA RESULT:     -10.7      4.674      8.447
REMARK SMILES O=C(CC1CC[NH+](C[C@H]2Cc3ccccc3O2)CC1)NCCCCCCNC(=O)c1ccc(-c2c3nc(c(-c4ccccc4)c4ccc([nH]4)c(-c4ccccc4)c4nc(c(-c5ccccc5)c5ccc2[nH]5)C=C4)C=C3)cc1
REMARK SMILES IDX 23 1 22 2 21 3 20 4 1 5 2 6 3 8 4 9 5 10 19 11 6 12 18 13
REMARK SMILES IDX 7 14 8 16 9 17 10 18 17 19 11 20 16 21 12 22 15 23 13 24
REMARK SMILES IDX 14 25 24 26 25 27 26 28 27 29 28 30 29 32 30 33 31 34 77 35
REMARK SMILES IDX 32 36 76 37 33 38 34 39 35 40 70 41 36 42 75 43 69 44 71 45
REMARK SMILES IDX 37 46 74 47 68 48 67 49 38 51 60 52 45 53 59 54 46 55 49 56
REMARK SMILES IDX 58 57 72 58 47 59 48 60 57 62 73 63 50 64 39 65 40 66 44 67
REMARK SMILES IDX 41 68 43 69 42 70 61 71 62 72 66 73 63 74 65 75 64 76 51 77
REMARK SMILES IDX 52 78 56 79 53 80 55 81 54 82
REMARK H PARENT 20 7 7 15 27 31 71 50 49 61
REMARK Flexibility Score: inf
ROOT
ATOM      1  C   UNL A   1      31.465  29.842  25.197  1.00  0.00     0.002 C 
ENDROOT
BRANCH   1   2
ATOM      2  C   UNL A   1      30.638  29.327  24.019  1.00  0.00     0.021 C 
BRANCH   2   3
ATOM      3  C   UNL A   1      31.426  29.030  22.749  1.00  0.00     0.116 C 
BRANCH   3   4
ATOM      4  N   UNL A   1      31.888  27.658  22.639  1.00  0.00    -0.356 N 
ATOM      5  O   UNL A   1      34.021  28.088  23.355  1.00  0.00    -0.275 OA
ATOM      6  C   UNL A   1      33.145  27.294  23.078  1.00  0.00     0.220 C 
ATOM      7  H   UNL A   1      31.296  26.977  22.245  1.00  0.00     0.163 HD
BRANCH   6   8
ATOM      8  C   UNL A   1      33.373  25.806  23.214  1.00  0.00     0.104 C 
BRANCH   8   9
ATOM      9  C   UNL A   1      32.442  24.883  22.402  1.00  0.00     0.009 C 
ATOM     10  C   UNL A   1      31.182  24.411  23.129  1.00  0.00     0.066 C 
ATOM     11  C   UNL A   1      33.116  23.665  21.761  1.00  0.00     0.066 C 
ATOM     12  C   UNL A   1      31.396  23.209  24.060  1.00  0.00     0.262 C 
ATOM     13  C   UNL A   1      33.326  22.487  22.712  1.00  0.00     0.262 C 
ATOM     14  N   UNL A   1      32.155  22.102  23.486  1.00  0.00    -0.332 N 
ATOM     15  H   UNL A   1      31.562  21.713  22.752  1.00  0.00     0.348 HD
BRANCH  14  16
ATOM     16  C   UNL A   1      32.342  20.983  24.447  1.00  0.00     0.308 C 
BRANCH  16  17
ATOM     17  C   UNL A   1      33.511  20.777  25.475  1.00  0.00     0.232 C 
ATOM     18  C   UNL A   1      34.773  20.046  24.999  1.00  0.00     0.090 C 
ATOM     19  O   UNL A   1      33.885  21.992  26.186  1.00  0.00    -0.484 OA
ATOM     20  C   UNL A   1      35.767  21.129  25.158  1.00  0.00    -0.002 A 
ATOM     21  C   UNL A   1      35.229  22.133  25.943  1.00  0.00     0.123 A 
ATOM     22  C   UNL A   1      37.051  21.235  24.649  1.00  0.00     0.007 A 
ATOM     23  C   UNL A   1      35.986  23.214  26.355  1.00  0.00     0.047 A 
ATOM     24  C   UNL A   1      37.800  22.371  24.971  1.00  0.00     0.001 A 
ATOM     25  C   UNL A   1      37.282  23.341  25.845  1.00  0.00     0.004 A 
ENDBRANCH  16  17
ENDBRANCH  14  16
ENDBRANCH   8   9
ENDBRANCH   6   8
ENDBRANCH   3   4
ENDBRANCH   2   3
ENDBRANCH   1   2
BRANCH   1  26
ATOM     26  C   UNL A   1      31.426  28.979  26.462  1.00  0.00     0.002 C 
BRANCH  26  27
ATOM     27  C   UNL A   1      32.571  27.973  26.615  1.00  0.00     0.021 C 
BRANCH  27  28
ATOM     28  C   UNL A   1      33.926  28.570  26.988  1.00  0.00     0.116 C 
BRANCH  28  29
ATOM     29  N   UNL A   1      33.817  29.872  27.626  1.00  0.00    -0.352 N 
ATOM     30  C   UNL A   1      34.742  30.569  28.359  1.00  0.00     0.251 C 
ATOM     31  H   UNL A   1      32.948  30.319  27.516  1.00  0.00     0.163 HD
ATOM     32  O   UNL A   1      34.426  31.619  28.909  1.00  0.00    -0.269 OA
BRANCH  30  33
ATOM     33  C   UNL A   1      36.114  30.046  28.509  1.00  0.00     0.039 A 
ATOM     34  C   UNL A   1      36.991  30.162  27.426  1.00  0.00     0.014 A 
ATOM     35  C   UNL A   1      36.531  29.429  29.692  1.00  0.00     0.014 A 
ATOM     36  C   UNL A   1      38.300  29.698  27.546  1.00  0.00     0.010 A 
ATOM     37  C   UNL A   1      37.855  29.021  29.830  1.00  0.00     0.010 A 
ATOM     38  C   UNL A   1      38.747  29.144  28.755  1.00  0.00    -0.014 A 
BRANCH  38  39
ATOM     39  C   UNL A   1      40.149  28.690  28.902  1.00  0.00     0.031 A 
ATOM     40  C   UNL A   1      40.539  27.293  28.512  1.00  0.00     0.074 A 
ATOM     41  C   UNL A   1      41.064  29.530  29.421  1.00  0.00     0.049 A 
ATOM     42  N   UNL A   1      41.719  26.726  28.545  1.00  0.00    -0.248 NA
ATOM     43  C   UNL A   1      39.459  26.407  28.048  1.00  0.00     0.031 C 
ATOM     44  C   UNL A   1      40.798  30.895  29.877  1.00  0.00     0.029 A 
ATOM     45  N   UNL A   1      42.406  29.358  29.643  1.00  0.00    -0.354 N 
ATOM     46  C   UNL A   1      41.519  25.418  28.123  1.00  0.00     0.074 A 
ATOM     47  C   UNL A   1      40.102  25.261  27.882  1.00  0.00     0.031 C 
ATOM     48  C   UNL A   1      41.949  31.452  30.286  1.00  0.00     0.029 A 
ATOM     49  C   UNL A   1      43.024  30.476  30.147  1.00  0.00     0.049 A 
ATOM     50  H   UNL A   1      42.880  28.516  29.459  1.00  0.00     0.167 HD
ATOM     51  C   UNL A   1      42.438  24.440  27.937  1.00  0.00     0.031 A 
ATOM     52  C   UNL A   1      44.317  30.694  30.448  1.00  0.00     0.031 A 
ATOM     53  C   UNL A   1      43.849  24.602  28.162  1.00  0.00     0.049 A 
ATOM     54  C   UNL A   1      45.317  29.596  30.222  1.00  0.00     0.074 A 
ATOM     55  C   UNL A   1      44.871  23.697  27.931  1.00  0.00     0.029 A 
ATOM     56  N   UNL A   1      44.436  25.747  28.679  1.00  0.00    -0.354 N 
ATOM     57  N   UNL A   1      45.128  28.392  29.743  1.00  0.00    -0.248 NA
ATOM     58  C   UNL A   1      46.713  29.898  30.569  1.00  0.00     0.031 C 
ATOM     59  C   UNL A   1      46.072  24.281  28.350  1.00  0.00     0.029 A 
ATOM     60  C   UNL A   1      45.804  25.563  28.799  1.00  0.00     0.049 A 
ATOM     61  H   UNL A   1      43.953  26.569  28.923  1.00  0.00     0.167 HD
ATOM     62  C   UNL A   1      46.382  27.798  29.707  1.00  0.00     0.074 A 
ATOM     63  C   UNL A   1      47.325  28.782  30.200  1.00  0.00     0.031 C 
ATOM     64  C   UNL A   1      46.724  26.550  29.302  1.00  0.00     0.031 A 
BRANCH  51  65
ATOM     65  C   UNL A   1      41.931  23.101  27.478  1.00  0.00    -0.014 A 
ATOM     66  C   UNL A   1      41.863  22.775  26.114  1.00  0.00     0.009 A 
ATOM     67  C   UNL A   1      41.525  22.147  28.425  1.00  0.00     0.009 A 
ATOM     68  C   UNL A   1      41.357  21.539  25.706  1.00  0.00     0.001 A 
ATOM     69  C   UNL A   1      41.047  20.902  28.015  1.00  0.00     0.001 A 
ATOM     70  C   UNL A   1      40.952  20.602  26.657  1.00  0.00     0.000 A 
ENDBRANCH  51  65
BRANCH  52  71
ATOM     71  C   UNL A   1      44.748  32.023  30.948  1.00  0.00    -0.014 A 
ATOM     72  C   UNL A   1      44.803  32.272  32.328  1.00  0.00     0.009 A 
ATOM     73  C   UNL A   1      45.115  33.043  30.058  1.00  0.00     0.009 A 
ATOM     74  C   UNL A   1      45.196  33.524  32.806  1.00  0.00     0.001 A 
ATOM     75  C   UNL A   1      45.530  34.286  30.539  1.00  0.00     0.001 A 
ATOM     76  C   UNL A   1      45.564  34.528  31.912  1.00  0.00     0.000 A 
ENDBRANCH  52  71
BRANCH  64  77
ATOM     77  C   UNL A   1      48.181  26.196  29.358  1.00  0.00    -0.014 A 
ATOM     78  C   UNL A   1      49.007  26.336  28.231  1.00  0.00     0.009 A 
ATOM     79  C   UNL A   1      48.738  25.730  30.559  1.00  0.00     0.009 A 
ATOM     80  C   UNL A   1      50.355  25.980  28.298  1.00  0.00     0.001 A 
ATOM     81  C   UNL A   1      50.093  25.400  30.629  1.00  0.00     0.001 A 
ATOM     82  C   UNL A   1      50.897  25.515  29.496  1.00  0.00     0.000 A 
ENDBRANCH  64  77
ENDBRANCH  38  39
ENDBRANCH  30  33
ENDBRANCH  28  29
ENDBRANCH  27  28
ENDBRANCH  26  27
ENDBRANCH   1  26
TORSDOF 16
ENDMDL
