MODEL 1
REMARK VINA RESULT:     -12.3      0.000      0.000
REMARK SMILES Cc1c(CC(=O)NCCCCCCNC(=O)c2ccc(-c3c4nc(c(-c5ccccc5)c5ccc([nH]5)c(-c5ccccc5)c5nc(c(-c6ccccc6)c6ccc3[nH]6)C=C5)C=C4)cc2)cccc1-c1ccn(C(F)F)c(=O)c1
REMARK SMILES IDX 10 1 9 2 8 3 7 4 5 5 6 6 4 8 3 9 1 10 2 11 68 12 65 13 67 14
REMARK SMILES IDX 66 15 69 16 70 17 78 18 71 19 76 20 72 21 77 22 73 23 74 24
REMARK SMILES IDX 75 25 11 26 12 27 13 28 14 29 15 30 16 32 17 33 18 34 64 35
REMARK SMILES IDX 19 36 63 37 20 38 21 39 22 40 57 41 23 42 62 43 56 44 58 45
REMARK SMILES IDX 24 46 61 47 55 48 54 49 25 51 47 52 32 53 46 54 33 55 36 56
REMARK SMILES IDX 45 57 59 58 34 59 35 60 44 62 60 63 37 64 26 65 27 66 31 67
REMARK SMILES IDX 28 68 30 69 29 70 48 71 49 72 53 73 50 74 52 75 51 76 38 77
REMARK SMILES IDX 39 78 43 79 40 80 42 81 41 82
REMARK H PARENT 7 7 14 31 58 50 36 61
REMARK Flexibility Score: inf
ROOT
ATOM      1  C   UNL A   1      31.814  28.038  26.353  1.00  0.00     0.002 C 
ENDROOT
BRANCH   1   2
ATOM      2  C   UNL A   1      31.845  28.150  24.823  1.00  0.00     0.021 C 
BRANCH   2   3
ATOM      3  C   UNL A   1      33.242  28.122  24.202  1.00  0.00     0.116 C 
BRANCH   3   4
ATOM      4  N   UNL A   1      33.350  27.177  23.110  1.00  0.00    -0.356 N 
ATOM      5  C   UNL A   1      33.702  25.858  23.143  1.00  0.00     0.224 C 
ATOM      6  O   UNL A   1      33.705  25.229  22.082  1.00  0.00    -0.275 OA
ATOM      7  H   UNL A   1      33.140  27.536  22.218  1.00  0.00     0.163 HD
BRANCH   5   8
ATOM      8  C   UNL A   1      34.033  25.171  24.464  1.00  0.00     0.135 C 
BRANCH   8   9
ATOM      9  C   UNL A   1      33.062  24.070  24.855  1.00  0.00    -0.035 A 
ATOM     10  C   UNL A   1      34.710  22.233  24.223  1.00  0.00     0.045 C 
ATOM     11  C   UNL A   1      33.342  22.688  24.685  1.00  0.00    -0.040 A 
ATOM     12  C   UNL A   1      32.333  21.740  25.000  1.00  0.00    -0.015 A 
ATOM     13  C   UNL A   1      31.826  24.463  25.402  1.00  0.00     0.004 A 
ATOM     14  C   UNL A   1      31.105  22.172  25.530  1.00  0.00     0.009 A 
ATOM     15  C   UNL A   1      30.858  23.523  25.740  1.00  0.00     0.001 A 
BRANCH  12  16
ATOM     16  C   UNL A   1      32.494  20.295  24.722  1.00  0.00    -0.011 A 
ATOM     17  C   UNL A   1      32.973  19.338  25.700  1.00  0.00     0.027 A 
ATOM     18  C   UNL A   1      32.249  19.882  23.466  1.00  0.00     0.080 A 
ATOM     19  C   UNL A   1      33.249  18.080  25.335  1.00  0.00     0.095 A 
ATOM     20  C   UNL A   1      32.509  18.476  23.057  1.00  0.00     0.255 A 
ATOM     21  N   UNL A   1      33.044  17.654  24.036  1.00  0.00    -0.258 N 
ATOM     22  O   UNL A   1      32.270  18.153  21.897  1.00  0.00    -0.269 OA
BRANCH  21  23
ATOM     23  C   UNL A   1      33.382  16.310  23.643  1.00  0.00     0.451 C 
ATOM     24  F   UNL A   1      34.501  16.292  22.878  1.00  0.00    -0.185 F 
ATOM     25  F   UNL A   1      33.604  15.528  24.729  1.00  0.00    -0.185 F 
ENDBRANCH  21  23
ENDBRANCH  12  16
ENDBRANCH   8   9
ENDBRANCH   5   8
ENDBRANCH   3   4
ENDBRANCH   2   3
ENDBRANCH   1   2
BRANCH   1  26
ATOM     26  C   UNL A   1      32.151  29.315  27.145  1.00  0.00     0.002 C 
BRANCH  26  27
ATOM     27  C   UNL A   1      33.598  29.449  27.633  1.00  0.00     0.021 C 
BRANCH  27  28
ATOM     28  C   UNL A   1      34.218  30.817  27.377  1.00  0.00     0.116 C 
BRANCH  28  29
ATOM     29  N   UNL A   1      34.675  31.493  28.585  1.00  0.00    -0.352 N 
ATOM     30  C   UNL A   1      35.733  31.176  29.419  1.00  0.00     0.251 C 
ATOM     31  H   UNL A   1      34.158  32.289  28.845  1.00  0.00     0.163 HD
ATOM     32  O   UNL A   1      35.958  31.852  30.411  1.00  0.00    -0.269 OA
BRANCH  30  33
ATOM     33  C   UNL A   1      36.676  30.101  29.021  1.00  0.00     0.039 A 
ATOM     34  C   UNL A   1      36.994  29.135  29.983  1.00  0.00     0.014 A 
ATOM     35  C   UNL A   1      37.386  30.159  27.825  1.00  0.00     0.014 A 
ATOM     36  C   UNL A   1      38.176  28.412  29.857  1.00  0.00     0.010 A 
ATOM     37  C   UNL A   1      38.605  29.515  27.739  1.00  0.00     0.010 A 
ATOM     38  C   UNL A   1      39.030  28.704  28.793  1.00  0.00    -0.014 A 
BRANCH  38  39
ATOM     39  C   UNL A   1      40.432  28.305  28.787  1.00  0.00     0.031 A 
ATOM     40  C   UNL A   1      40.830  27.001  28.232  1.00  0.00     0.074 A 
ATOM     41  C   UNL A   1      41.362  29.126  29.320  1.00  0.00     0.049 A 
ATOM     42  N   UNL A   1      41.806  26.285  28.682  1.00  0.00    -0.248 NA
ATOM     43  C   UNL A   1      40.097  26.374  27.139  1.00  0.00     0.031 C 
ATOM     44  C   UNL A   1      42.814  28.971  29.266  1.00  0.00     0.029 A 
ATOM     45  N   UNL A   1      41.165  30.159  30.240  1.00  0.00    -0.354 N 
ATOM     46  C   UNL A   1      42.011  25.269  27.777  1.00  0.00     0.074 A 
ATOM     47  C   UNL A   1      40.867  25.310  26.892  1.00  0.00     0.031 C 
ATOM     48  C   UNL A   1      43.349  29.626  30.311  1.00  0.00     0.029 A 
ATOM     49  C   UNL A   1      42.246  30.106  31.130  1.00  0.00     0.049 A 
ATOM     50  H   UNL A   1      40.415  30.797  30.260  1.00  0.00     0.167 HD
ATOM     51  C   UNL A   1      43.198  24.598  27.759  1.00  0.00     0.031 A 
ATOM     52  C   UNL A   1      42.109  29.905  32.472  1.00  0.00     0.031 A 
ATOM     53  C   UNL A   1      44.105  25.064  28.803  1.00  0.00     0.049 A 
ATOM     54  C   UNL A   1      42.877  28.698  32.966  1.00  0.00     0.074 A 
ATOM     55  C   UNL A   1      45.160  25.962  28.784  1.00  0.00     0.029 A 
ATOM     56  N   UNL A   1      43.799  24.840  30.140  1.00  0.00    -0.354 N 
ATOM     57  N   UNL A   1      43.296  27.739  32.189  1.00  0.00    -0.248 NA
ATOM     58  C   UNL A   1      43.163  28.443  34.376  1.00  0.00     0.031 C 
ATOM     59  C   UNL A   1      45.436  26.341  30.121  1.00  0.00     0.029 A 
ATOM     60  C   UNL A   1      44.571  25.651  30.950  1.00  0.00     0.049 A 
ATOM     61  H   UNL A   1      43.128  24.197  30.463  1.00  0.00     0.167 HD
ATOM     62  C   UNL A   1      43.886  26.765  32.949  1.00  0.00     0.074 A 
ATOM     63  C   UNL A   1      43.783  27.252  34.312  1.00  0.00     0.031 C 
ATOM     64  C   UNL A   1      44.404  25.632  32.395  1.00  0.00     0.031 A 
BRANCH  51  65
ATOM     65  C   UNL A   1      43.646  23.766  26.580  1.00  0.00    -0.014 A 
ATOM     66  C   UNL A   1      43.390  22.383  26.567  1.00  0.00     0.009 A 
ATOM     67  C   UNL A   1      44.374  24.267  25.488  1.00  0.00     0.009 A 
ATOM     68  C   UNL A   1      43.930  21.535  25.590  1.00  0.00     0.001 A 
ATOM     69  C   UNL A   1      44.955  23.422  24.531  1.00  0.00     0.001 A 
ATOM     70  C   UNL A   1      44.745  22.051  24.592  1.00  0.00     0.000 A 
ENDBRANCH  51  65
BRANCH  52  71
ATOM     71  C   UNL A   1      40.805  30.335  33.042  1.00  0.00    -0.014 A 
ATOM     72  C   UNL A   1      40.504  31.710  33.086  1.00  0.00     0.009 A 
ATOM     73  C   UNL A   1      39.760  29.415  33.209  1.00  0.00     0.009 A 
ATOM     74  C   UNL A   1      39.182  32.150  33.193  1.00  0.00     0.001 A 
ATOM     75  C   UNL A   1      38.438  29.861  33.325  1.00  0.00     0.001 A 
ATOM     76  C   UNL A   1      38.147  31.225  33.287  1.00  0.00     0.000 A 
ENDBRANCH  52  71
BRANCH  64  77
ATOM     77  C   UNL A   1      44.882  24.429  33.160  1.00  0.00    -0.014 A 
ATOM     78  C   UNL A   1      46.137  24.347  33.779  1.00  0.00     0.009 A 
ATOM     79  C   UNL A   1      43.980  23.369  33.398  1.00  0.00     0.009 A 
ATOM     80  C   UNL A   1      46.489  23.236  34.556  1.00  0.00     0.001 A 
ATOM     81  C   UNL A   1      44.313  22.281  34.206  1.00  0.00     0.001 A 
ATOM     82  C   UNL A   1      45.576  22.209  34.777  1.00  0.00     0.000 A 
ENDBRANCH  64  77
ENDBRANCH  38  39
ENDBRANCH  30  33
ENDBRANCH  28  29
ENDBRANCH  27  28
ENDBRANCH  26  27
ENDBRANCH   1  26
TORSDOF 16
ENDMDL
MODEL 2
REMARK VINA RESULT:     -12.0      3.608      5.269
REMARK SMILES Cc1c(CC(=O)NCCCCCCNC(=O)c2ccc(-c3c4nc(c(-c5ccccc5)c5ccc([nH]5)c(-c5ccccc5)c5nc(c(-c6ccccc6)c6ccc3[nH]6)C=C5)C=C4)cc2)cccc1-c1ccn(C(F)F)c(=O)c1
REMARK SMILES IDX 10 1 9 2 8 3 7 4 5 5 6 6 4 8 3 9 1 10 2 11 68 12 65 13 67 14
REMARK SMILES IDX 66 15 69 16 70 17 78 18 71 19 76 20 72 21 77 22 73 23 74 24
REMARK SMILES IDX 75 25 11 26 12 27 13 28 14 29 15 30 16 32 17 33 18 34 64 35
REMARK SMILES IDX 19 36 63 37 20 38 21 39 22 40 57 41 23 42 62 43 56 44 58 45
REMARK SMILES IDX 24 46 61 47 55 48 54 49 25 51 47 52 32 53 46 54 33 55 36 56
REMARK SMILES IDX 45 57 59 58 34 59 35 60 44 62 60 63 37 64 26 65 27 66 31 67
REMARK SMILES IDX 28 68 30 69 29 70 48 71 49 72 53 73 50 74 52 75 51 76 38 77
REMARK SMILES IDX 39 78 43 79 40 80 42 81 41 82
REMARK H PARENT 7 7 14 31 58 50 36 61
REMARK Flexibility Score: inf
ROOT
ATOM      1  C   UNL A   1      33.661  26.428  25.917  1.00  0.00     0.002 C 
ENDROOT
BRANCH   1   2
ATOM      2  C   UNL A   1      34.530  25.263  25.422  1.00  0.00     0.021 C 
BRANCH   2   3
ATOM      3  C   UNL A   1      33.962  23.871  25.698  1.00  0.00     0.116 C 
BRANCH   3   4
ATOM      4  N   UNL A   1      32.854  23.892  26.630  1.00  0.00    -0.356 N 
ATOM      5  C   UNL A   1      31.527  23.671  26.397  1.00  0.00     0.224 C 
ATOM      6  O   UNL A   1      30.751  23.717  27.355  1.00  0.00    -0.275 OA
ATOM      7  H   UNL A   1      33.092  24.097  27.563  1.00  0.00     0.163 HD
BRANCH   5   8
ATOM      8  C   UNL A   1      31.027  23.324  24.998  1.00  0.00     0.135 C 
BRANCH   8   9
ATOM      9  C   UNL A   1      31.224  24.428  23.973  1.00  0.00    -0.035 A 
ATOM     10  C   UNL A   1      29.703  26.033  25.238  1.00  0.00     0.045 C 
ATOM     11  C   UNL A   1      30.557  25.680  24.039  1.00  0.00    -0.040 A 
ATOM     12  C   UNL A   1      30.742  26.612  22.984  1.00  0.00    -0.015 A 
ATOM     13  C   UNL A   1      32.109  24.171  22.909  1.00  0.00     0.004 A 
ATOM     14  C   UNL A   1      31.623  26.313  21.930  1.00  0.00     0.009 A 
ATOM     15  C   UNL A   1      32.310  25.106  21.899  1.00  0.00     0.001 A 
BRANCH  12  16
ATOM     16  C   UNL A   1      29.978  27.877  22.906  1.00  0.00    -0.011 A 
ATOM     17  C   UNL A   1      30.596  29.179  22.742  1.00  0.00     0.027 A 
ATOM     18  C   UNL A   1      28.647  27.801  23.076  1.00  0.00     0.080 A 
ATOM     19  C   UNL A   1      29.862  30.293  22.843  1.00  0.00     0.095 A 
ATOM     20  C   UNL A   1      27.811  29.030  23.146  1.00  0.00     0.255 A 
ATOM     21  N   UNL A   1      28.498  30.230  23.062  1.00  0.00    -0.258 N 
ATOM     22  O   UNL A   1      26.600  28.903  23.304  1.00  0.00    -0.269 OA
BRANCH  21  23
ATOM     23  C   UNL A   1      27.723  31.435  23.210  1.00  0.00     0.451 C 
ATOM     24  F   UNL A   1      26.981  31.402  24.345  1.00  0.00    -0.185 F 
ATOM     25  F   UNL A   1      28.527  32.525  23.266  1.00  0.00    -0.185 F 
ENDBRANCH  21  23
ENDBRANCH  12  16
ENDBRANCH   8   9
ENDBRANCH   5   8
ENDBRANCH   3   4
ENDBRANCH   2   3
ENDBRANCH   1   2
BRANCH   1  26
ATOM     26  C   UNL A   1      33.681  27.712  25.068  1.00  0.00     0.002 C 
BRANCH  26  27
ATOM     27  C   UNL A   1      33.441  29.027  25.818  1.00  0.00     0.021 C 
BRANCH  27  28
ATOM     28  C   UNL A   1      34.107  29.095  27.186  1.00  0.00     0.116 C 
BRANCH  28  29
ATOM     29  N   UNL A   1      34.623  30.416  27.526  1.00  0.00    -0.352 N 
ATOM     30  C   UNL A   1      35.895  30.782  27.927  1.00  0.00     0.251 C 
ATOM     31  H   UNL A   1      33.973  31.152  27.461  1.00  0.00     0.163 HD
ATOM     32  O   UNL A   1      36.143  31.948  28.194  1.00  0.00    -0.269 OA
BRANCH  30  33
ATOM     33  C   UNL A   1      36.987  29.778  27.890  1.00  0.00     0.039 A 
ATOM     34  C   UNL A   1      37.170  28.984  29.028  1.00  0.00     0.014 A 
ATOM     35  C   UNL A   1      37.930  29.763  26.866  1.00  0.00     0.014 A 
ATOM     36  C   UNL A   1      38.407  28.387  29.250  1.00  0.00     0.010 A 
ATOM     37  C   UNL A   1      39.188  29.254  27.123  1.00  0.00     0.010 A 
ATOM     38  C   UNL A   1      39.443  28.635  28.349  1.00  0.00    -0.014 A 
BRANCH  38  39
ATOM     39  C   UNL A   1      40.841  28.398  28.684  1.00  0.00     0.031 A 
ATOM     40  C   UNL A   1      41.540  27.214  28.157  1.00  0.00     0.074 A 
ATOM     41  C   UNL A   1      41.486  29.255  29.505  1.00  0.00     0.049 A 
ATOM     42  N   UNL A   1      42.458  26.567  28.794  1.00  0.00    -0.248 NA
ATOM     43  C   UNL A   1      41.200  26.632  26.865  1.00  0.00     0.031 C 
ATOM     44  C   UNL A   1      42.910  29.270  29.826  1.00  0.00     0.029 A 
ATOM     45  N   UNL A   1      40.923  30.153  30.416  1.00  0.00    -0.354 N 
ATOM     46  C   UNL A   1      43.022  25.685  27.900  1.00  0.00     0.074 A 
ATOM     47  C   UNL A   1      42.145  25.694  26.750  1.00  0.00     0.031 C 
ATOM     48  C   UNL A   1      43.070  29.863  31.022  1.00  0.00     0.029 A 
ATOM     49  C   UNL A   1      41.741  30.124  31.554  1.00  0.00     0.049 A 
ATOM     50  H   UNL A   1      40.113  30.697  30.285  1.00  0.00     0.167 HD
ATOM     51  C   UNL A   1      44.254  25.156  28.147  1.00  0.00     0.031 A 
ATOM     52  C   UNL A   1      41.297  29.765  32.792  1.00  0.00     0.031 A 
ATOM     53  C   UNL A   1      44.796  25.604  29.426  1.00  0.00     0.049 A 
ATOM     54  C   UNL A   1      42.072  28.604  33.379  1.00  0.00     0.074 A 
ATOM     55  C   UNL A   1      45.689  26.611  29.755  1.00  0.00     0.029 A 
ATOM     56  N   UNL A   1      44.195  25.204  30.613  1.00  0.00    -0.354 N 
ATOM     57  N   UNL A   1      42.800  27.788  32.669  1.00  0.00    -0.248 NA
ATOM     58  C   UNL A   1      42.023  28.231  34.790  1.00  0.00     0.031 C 
ATOM     59  C   UNL A   1      45.564  26.871  31.142  1.00  0.00     0.029 A 
ATOM     60  C   UNL A   1      44.619  26.003  31.658  1.00  0.00     0.049 A 
ATOM     61  H   UNL A   1      43.558  24.459  30.697  1.00  0.00     0.167 HD
ATOM     62  C   UNL A   1      43.306  26.810  33.483  1.00  0.00     0.074 A 
ATOM     63  C   UNL A   1      42.796  27.131  34.802  1.00  0.00     0.031 C 
ATOM     64  C   UNL A   1      44.096  25.809  33.001  1.00  0.00     0.031 A 
BRANCH  51  65
ATOM     65  C   UNL A   1      45.096  24.513  27.069  1.00  0.00    -0.014 A 
ATOM     66  C   UNL A   1      45.855  25.321  26.204  1.00  0.00     0.009 A 
ATOM     67  C   UNL A   1      45.136  23.132  26.814  1.00  0.00     0.009 A 
ATOM     68  C   UNL A   1      46.513  24.797  25.082  1.00  0.00     0.001 A 
ATOM     69  C   UNL A   1      45.754  22.604  25.671  1.00  0.00     0.001 A 
ATOM     70  C   UNL A   1      46.431  23.443  24.795  1.00  0.00     0.000 A 
ENDBRANCH  51  65
BRANCH  52  71
ATOM     71  C   UNL A   1      39.846  29.982  33.027  1.00  0.00    -0.014 A 
ATOM     72  C   UNL A   1      39.348  31.300  33.025  1.00  0.00     0.009 A 
ATOM     73  C   UNL A   1      38.935  28.923  32.906  1.00  0.00     0.009 A 
ATOM     74  C   UNL A   1      37.991  31.552  32.809  1.00  0.00     0.001 A 
ATOM     75  C   UNL A   1      37.575  29.180  32.698  1.00  0.00     0.001 A 
ATOM     76  C   UNL A   1      37.109  30.492  32.619  1.00  0.00     0.000 A 
ENDBRANCH  52  71
BRANCH  64  77
ATOM     77  C   UNL A   1      44.524  24.590  33.773  1.00  0.00    -0.014 A 
ATOM     78  C   UNL A   1      43.629  23.675  34.343  1.00  0.00     0.009 A 
ATOM     79  C   UNL A   1      45.895  24.258  33.816  1.00  0.00     0.009 A 
ATOM     80  C   UNL A   1      44.088  22.509  34.969  1.00  0.00     0.001 A 
ATOM     81  C   UNL A   1      46.352  23.077  34.403  1.00  0.00     0.001 A 
ATOM     82  C   UNL A   1      45.446  22.206  34.992  1.00  0.00     0.000 A 
ENDBRANCH  64  77
ENDBRANCH  38  39
ENDBRANCH  30  33
ENDBRANCH  28  29
ENDBRANCH  27  28
ENDBRANCH  26  27
ENDBRANCH   1  26
TORSDOF 16
ENDMDL
MODEL 3
REMARK VINA RESULT:     -11.9      1.799      2.723
REMARK SMILES Cc1c(CC(=O)NCCCCCCNC(=O)c2ccc(-c3c4nc(c(-c5ccccc5)c5ccc([nH]5)c(-c5ccccc5)c5nc(c(-c6ccccc6)c6ccc3[nH]6)C=C5)C=C4)cc2)cccc1-c1ccn(C(F)F)c(=O)c1
REMARK SMILES IDX 10 1 9 2 8 3 7 4 5 5 6 6 4 8 3 9 1 10 2 11 68 12 65 13 67 14
REMARK SMILES IDX 66 15 69 16 70 17 78 18 71 19 76 20 72 21 77 22 73 23 74 24
REMARK SMILES IDX 75 25 11 26 12 27 13 28 14 29 15 30 16 32 17 33 18 34 64 35
REMARK SMILES IDX 19 36 63 37 20 38 21 39 22 40 57 41 23 42 62 43 56 44 58 45
REMARK SMILES IDX 24 46 61 47 55 48 54 49 25 51 47 52 32 53 46 54 33 55 36 56
REMARK SMILES IDX 45 57 59 58 34 59 35 60 44 62 60 63 37 64 26 65 27 66 31 67
REMARK SMILES IDX 28 68 30 69 29 70 48 71 49 72 53 73 50 74 52 75 51 76 38 77
REMARK SMILES IDX 39 78 43 79 40 80 42 81 41 82
REMARK H PARENT 7 7 14 31 58 50 36 61
REMARK Flexibility Score: inf
ROOT
ATOM      1  C   UNL A   1      31.746  28.901  25.778  1.00  0.00     0.002 C 
ENDROOT
BRANCH   1   2
ATOM      2  C   UNL A   1      32.463  29.109  24.437  1.00  0.00     0.021 C 
BRANCH   2   3
ATOM      3  C   UNL A   1      31.738  28.533  23.221  1.00  0.00     0.116 C 
BRANCH   3   4
ATOM      4  N   UNL A   1      32.630  27.848  22.310  1.00  0.00    -0.356 N 
ATOM      5  C   UNL A   1      32.735  26.512  22.047  1.00  0.00     0.224 C 
ATOM      6  O   UNL A   1      33.559  26.146  21.205  1.00  0.00    -0.275 OA
ATOM      7  H   UNL A   1      33.249  28.427  21.810  1.00  0.00     0.163 HD
BRANCH   5   8
ATOM      8  C   UNL A   1      31.820  25.506  22.738  1.00  0.00     0.135 C 
BRANCH   8   9
ATOM      9  C   UNL A   1      32.476  24.746  23.878  1.00  0.00    -0.035 A 
ATOM     10  C   UNL A   1      32.826  22.670  22.444  1.00  0.00     0.045 C 
ATOM     11  C   UNL A   1      32.893  23.392  23.773  1.00  0.00    -0.040 A 
ATOM     12  C   UNL A   1      33.415  22.744  24.923  1.00  0.00    -0.015 A 
ATOM     13  C   UNL A   1      32.662  25.434  25.092  1.00  0.00     0.004 A 
ATOM     14  C   UNL A   1      33.571  23.461  26.122  1.00  0.00     0.009 A 
ATOM     15  C   UNL A   1      33.207  24.799  26.202  1.00  0.00     0.001 A 
BRANCH  12  16
ATOM     16  C   UNL A   1      33.742  21.301  24.935  1.00  0.00    -0.011 A 
ATOM     17  C   UNL A   1      35.092  20.782  24.832  1.00  0.00     0.027 A 
ATOM     18  C   UNL A   1      32.710  20.440  24.967  1.00  0.00     0.080 A 
ATOM     19  C   UNL A   1      35.302  19.469  24.685  1.00  0.00     0.095 A 
ATOM     20  C   UNL A   1      32.931  18.973  24.849  1.00  0.00     0.255 A 
ATOM     21  N   UNL A   1      34.247  18.576  24.671  1.00  0.00    -0.258 N 
ATOM     22  O   UNL A   1      31.954  18.232  24.882  1.00  0.00    -0.269 OA
BRANCH  21  23
ATOM     23  C   UNL A   1      34.480  17.168  24.472  1.00  0.00     0.451 C 
ATOM     24  F   UNL A   1      34.530  16.864  23.152  1.00  0.00    -0.185 F 
ATOM     25  F   UNL A   1      35.652  16.786  25.035  1.00  0.00    -0.185 F 
ENDBRANCH  21  23
ENDBRANCH  12  16
ENDBRANCH   8   9
ENDBRANCH   5   8
ENDBRANCH   3   4
ENDBRANCH   2   3
ENDBRANCH   1   2
BRANCH   1  26
ATOM     26  C   UNL A   1      32.638  28.606  26.998  1.00  0.00     0.002 C 
BRANCH  26  27
ATOM     27  C   UNL A   1      34.147  28.549  26.739  1.00  0.00     0.021 C 
BRANCH  27  28
ATOM     28  C   UNL A   1      34.929  29.709  27.342  1.00  0.00     0.116 C 
BRANCH  28  29
ATOM     29  N   UNL A   1      34.152  30.935  27.479  1.00  0.00    -0.352 N 
ATOM     30  C   UNL A   1      34.365  32.018  28.314  1.00  0.00     0.251 C 
ATOM     31  H   UNL A   1      33.364  31.003  26.893  1.00  0.00     0.163 HD
ATOM     32  O   UNL A   1      33.589  32.961  28.308  1.00  0.00    -0.269 OA
BRANCH  30  33
ATOM     33  C   UNL A   1      35.617  32.089  29.108  1.00  0.00     0.039 A 
ATOM     34  C   UNL A   1      36.618  32.957  28.654  1.00  0.00     0.014 A 
ATOM     35  C   UNL A   1      35.884  31.185  30.132  1.00  0.00     0.014 A 
ATOM     36  C   UNL A   1      37.936  32.737  29.042  1.00  0.00     0.010 A 
ATOM     37  C   UNL A   1      37.199  30.902  30.447  1.00  0.00     0.010 A 
ATOM     38  C   UNL A   1      38.224  31.630  29.840  1.00  0.00    -0.014 A 
BRANCH  38  39
ATOM     39  C   UNL A   1      39.573  31.093  29.970  1.00  0.00     0.031 A 
ATOM     40  C   UNL A   1      39.959  29.872  29.243  1.00  0.00     0.074 A 
ATOM     41  C   UNL A   1      40.461  31.707  30.783  1.00  0.00     0.049 A 
ATOM     42  N   UNL A   1      40.790  28.991  29.691  1.00  0.00    -0.248 NA
ATOM     43  C   UNL A   1      39.374  29.527  27.954  1.00  0.00     0.031 C 
ATOM     44  C   UNL A   1      41.884  31.413  30.919  1.00  0.00     0.029 A 
ATOM     45  N   UNL A   1      40.190  32.577  31.842  1.00  0.00    -0.354 N 
ATOM     46  C   UNL A   1      41.066  28.133  28.650  1.00  0.00     0.074 A 
ATOM     47  C   UNL A   1      40.093  28.449  27.627  1.00  0.00     0.031 C 
ATOM     48  C   UNL A   1      42.286  31.814  32.137  1.00  0.00     0.029 A 
ATOM     49  C   UNL A   1      41.100  32.255  32.858  1.00  0.00     0.049 A 
ATOM     50  H   UNL A   1      39.498  33.276  31.870  1.00  0.00     0.167 HD
ATOM     51  C   UNL A   1      42.186  27.356  28.684  1.00  0.00     0.031 A 
ATOM     52  C   UNL A   1      40.727  31.838  34.101  1.00  0.00     0.031 A 
ATOM     53  C   UNL A   1      42.938  27.534  29.922  1.00  0.00     0.049 A 
ATOM     54  C   UNL A   1      41.308  30.489  34.466  1.00  0.00     0.074 A 
ATOM     55  C   UNL A   1      44.046  28.306  30.233  1.00  0.00     0.029 A 
ATOM     56  N   UNL A   1      42.398  27.112  31.130  1.00  0.00    -0.354 N 
ATOM     57  N   UNL A   1      41.778  29.643  33.593  1.00  0.00    -0.248 NA
ATOM     58  C   UNL A   1      41.335  29.962  35.829  1.00  0.00     0.031 C 
ATOM     59  C   UNL A   1      44.123  28.414  31.643  1.00  0.00     0.029 A 
ATOM     60  C   UNL A   1      43.081  27.683  32.187  1.00  0.00     0.049 A 
ATOM     61  H   UNL A   1      41.635  26.496  31.221  1.00  0.00     0.167 HD
ATOM     62  C   UNL A   1      42.159  28.495  34.235  1.00  0.00     0.074 A 
ATOM     63  C   UNL A   1      41.866  28.743  35.633  1.00  0.00     0.031 C 
ATOM     64  C   UNL A   1      42.675  27.429  33.560  1.00  0.00     0.031 A 
BRANCH  51  65
ATOM     65  C   UNL A   1      42.761  26.701  27.449  1.00  0.00    -0.014 A 
ATOM     66  C   UNL A   1      42.320  25.420  27.071  1.00  0.00     0.009 A 
ATOM     67  C   UNL A   1      43.776  27.261  26.656  1.00  0.00     0.009 A 
ATOM     68  C   UNL A   1      42.936  24.693  26.044  1.00  0.00     0.001 A 
ATOM     69  C   UNL A   1      44.428  26.525  25.656  1.00  0.00     0.001 A 
ATOM     70  C   UNL A   1      44.016  25.232  25.360  1.00  0.00     0.000 A 
ENDBRANCH  51  65
BRANCH  52  71
ATOM     71  C   UNL A   1      39.382  32.295  34.539  1.00  0.00    -0.014 A 
ATOM     72  C   UNL A   1      39.280  33.487  35.282  1.00  0.00     0.009 A 
ATOM     73  C   UNL A   1      38.221  31.771  33.952  1.00  0.00     0.009 A 
ATOM     74  C   UNL A   1      38.072  34.186  35.351  1.00  0.00     0.001 A 
ATOM     75  C   UNL A   1      37.012  32.470  34.031  1.00  0.00     0.001 A 
ATOM     76  C   UNL A   1      36.944  33.690  34.703  1.00  0.00     0.000 A 
ENDBRANCH  52  71
BRANCH  64  77
ATOM     77  C   UNL A   1      42.927  26.066  34.146  1.00  0.00    -0.014 A 
ATOM     78  C   UNL A   1      42.067  25.438  35.056  1.00  0.00     0.009 A 
ATOM     79  C   UNL A   1      44.011  25.305  33.658  1.00  0.00     0.009 A 
ATOM     80  C   UNL A   1      42.308  24.130  35.495  1.00  0.00     0.001 A 
ATOM     81  C   UNL A   1      44.230  23.987  34.062  1.00  0.00     0.001 A 
ATOM     82  C   UNL A   1      43.382  23.403  34.993  1.00  0.00     0.000 A 
ENDBRANCH  64  77
ENDBRANCH  38  39
ENDBRANCH  30  33
ENDBRANCH  28  29
ENDBRANCH  27  28
ENDBRANCH  26  27
ENDBRANCH   1  26
TORSDOF 16
ENDMDL
