MODEL 1
REMARK VINA RESULT:     -11.4      0.000      0.000
REMARK SMILES Cc1ccc(C)c(N2C(=O)C[C@@H](SCC(=O)NCCCCCCNC(=O)c3ccc(-c4c5nc(c(-c6ccccc6)c6ccc([nH]6)c(-c6ccccc6)c6nc(c(-c7ccccc7)c7ccc4[nH]7)C=C6)C=C5)cc3)C2=O)c1
REMARK SMILES IDX 20 1 19 2 18 3 17 4 15 5 16 6 14 8 13 9 12 10 8 11 9 12
REMARK SMILES IDX 75 13 10 14 11 15 76 16 7 17 1 18 2 19 3 20 77 21 4 22 5 23
REMARK SMILES IDX 6 24 21 25 22 26 23 27 24 28 25 29 26 31 27 32 28 33 74 34
REMARK SMILES IDX 29 35 73 36 30 37 31 38 32 39 67 40 33 41 72 42 66 43 68 44
REMARK SMILES IDX 34 45 71 46 65 47 64 48 35 50 57 51 42 52 56 53 43 54 46 55
REMARK SMILES IDX 55 56 69 57 44 58 45 59 54 61 70 62 47 63 36 64 37 65 41 66
REMARK SMILES IDX 38 67 40 68 39 69 58 70 59 71 63 72 60 73 62 74 61 75 48 76
REMARK SMILES IDX 49 77 53 78 50 79 52 80 51 81
REMARK H PARENT 17 7 24 30 68 49 46 60
REMARK Flexibility Score: inf
ROOT
ATOM      1  C   UNL A   1      32.515  30.523  26.941  1.00  0.00     0.002 C 
ENDROOT
BRANCH   1   2
ATOM      2  C   UNL A   1      31.630  30.185  25.734  1.00  0.00     0.021 C 
BRANCH   2   3
ATOM      3  C   UNL A   1      32.307  29.340  24.650  1.00  0.00     0.116 C 
BRANCH   3   4
ATOM      4  N   UNL A   1      31.483  29.269  23.455  1.00  0.00    -0.355 N 
ATOM      5  C   UNL A   1      30.505  28.384  23.119  1.00  0.00     0.230 C 
ATOM      6  O   UNL A   1      30.063  28.411  21.967  1.00  0.00    -0.274 OA
ATOM      7  H   UNL A   1      31.660  29.969  22.785  1.00  0.00     0.163 HD
BRANCH   5   8
ATOM      8  C   UNL A   1      29.963  27.399  24.130  1.00  0.00     0.170 C 
BRANCH   8   9
ATOM      9  S   UNL A   1      30.326  25.661  23.767  1.00  0.00    -0.138 SA
BRANCH   9  10
ATOM     10  C   UNL A   1      32.133  25.695  23.420  1.00  0.00     0.146 C 
ATOM     11  N   UNL A   1      33.245  23.623  23.468  1.00  0.00    -0.249 N 
ATOM     12  C   UNL A   1      33.212  23.987  22.144  1.00  0.00     0.235 C 
ATOM     13  C   UNL A   1      32.750  24.615  24.279  1.00  0.00     0.247 C 
ATOM     14  O   UNL A   1      33.636  23.371  21.175  1.00  0.00    -0.274 OA
ATOM     15  C   UNL A   1      32.524  25.315  22.008  1.00  0.00     0.125 C 
ATOM     16  O   UNL A   1      32.771  24.688  25.503  1.00  0.00    -0.273 OA
BRANCH  11  17
ATOM     17  C   UNL A   1      33.776  22.385  23.923  1.00  0.00     0.055 A 
ATOM     18  C   UNL A   1      32.503  18.789  24.307  1.00  0.00     0.044 C 
ATOM     19  C   UNL A   1      33.381  20.003  24.391  1.00  0.00    -0.049 A 
ATOM     20  C   UNL A   1      34.695  19.878  24.838  1.00  0.00     0.004 A 
ATOM     21  C   UNL A   1      32.924  21.261  23.969  1.00  0.00     0.030 A 
ATOM     22  C   UNL A   1      35.549  20.982  24.818  1.00  0.00     0.006 A 
ATOM     23  C   UNL A   1      35.114  22.238  24.351  1.00  0.00    -0.027 A 
ATOM     24  C   UNL A   1      36.139  23.341  24.344  1.00  0.00     0.046 C 
ENDBRANCH  11  17
ENDBRANCH   9  10
ENDBRANCH   8   9
ENDBRANCH   5   8
ENDBRANCH   3   4
ENDBRANCH   2   3
ENDBRANCH   1   2
BRANCH   1  25
ATOM     25  C   UNL A   1      33.992  30.112  26.865  1.00  0.00     0.002 C 
BRANCH  25  26
ATOM     26  C   UNL A   1      34.937  30.574  27.984  1.00  0.00     0.021 C 
BRANCH  26  27
ATOM     27  C   UNL A   1      35.064  32.082  28.180  1.00  0.00     0.116 C 
BRANCH  27  28
ATOM     28  N   UNL A   1      34.619  32.541  29.502  1.00  0.00    -0.352 N 
ATOM     29  C   UNL A   1      35.091  32.329  30.791  1.00  0.00     0.251 C 
ATOM     30  H   UNL A   1      33.822  33.118  29.468  1.00  0.00     0.163 HD
ATOM     31  O   UNL A   1      34.380  32.600  31.745  1.00  0.00    -0.269 OA
BRANCH  29  32
ATOM     32  C   UNL A   1      36.455  31.808  31.030  1.00  0.00     0.039 A 
ATOM     33  C   UNL A   1      37.607  32.600  30.962  1.00  0.00     0.014 A 
ATOM     34  C   UNL A   1      36.619  30.442  31.114  1.00  0.00     0.014 A 
ATOM     35  C   UNL A   1      38.845  31.958  30.827  1.00  0.00     0.010 A 
ATOM     36  C   UNL A   1      37.807  29.897  31.471  1.00  0.00     0.010 A 
ATOM     37  C   UNL A   1      38.899  30.574  30.991  1.00  0.00    -0.014 A 
BRANCH  37  38
ATOM     38  C   UNL A   1      40.017  29.724  30.642  1.00  0.00     0.031 A 
ATOM     39  C   UNL A   1      40.700  29.082  31.776  1.00  0.00     0.074 A 
ATOM     40  C   UNL A   1      40.213  29.261  29.388  1.00  0.00     0.049 A 
ATOM     41  N   UNL A   1      41.894  29.326  32.192  1.00  0.00    -0.248 NA
ATOM     42  C   UNL A   1      39.940  28.145  32.616  1.00  0.00     0.031 C 
ATOM     43  C   UNL A   1      39.359  29.415  28.199  1.00  0.00     0.029 A 
ATOM     44  N   UNL A   1      41.187  28.417  28.951  1.00  0.00    -0.354 N 
ATOM     45  C   UNL A   1      42.098  28.470  33.263  1.00  0.00     0.074 A 
ATOM     46  C   UNL A   1      40.808  27.922  33.602  1.00  0.00     0.031 C 
ATOM     47  C   UNL A   1      39.741  28.524  27.254  1.00  0.00     0.029 A 
ATOM     48  C   UNL A   1      40.942  27.847  27.711  1.00  0.00     0.049 A 
ATOM     49  H   UNL A   1      41.999  28.227  29.473  1.00  0.00     0.167 HD
ATOM     50  C   UNL A   1      43.345  28.096  33.651  1.00  0.00     0.031 A 
ATOM     51  C   UNL A   1      41.630  26.816  27.167  1.00  0.00     0.031 A 
ATOM     52  C   UNL A   1      44.370  28.844  32.963  1.00  0.00     0.049 A 
ATOM     53  C   UNL A   1      42.893  26.633  27.915  1.00  0.00     0.074 A 
ATOM     54  C   UNL A   1      44.673  30.187  32.835  1.00  0.00     0.029 A 
ATOM     55  N   UNL A   1      45.013  28.214  31.922  1.00  0.00    -0.354 N 
ATOM     56  N   UNL A   1      43.916  27.416  27.785  1.00  0.00    -0.248 NA
ATOM     57  C   UNL A   1      42.906  25.779  29.097  1.00  0.00     0.031 C 
ATOM     58  C   UNL A   1      45.086  30.353  31.479  1.00  0.00     0.029 A 
ATOM     59  C   UNL A   1      45.054  29.099  30.872  1.00  0.00     0.049 A 
ATOM     60  H   UNL A   1      45.378  27.300  31.929  1.00  0.00     0.167 HD
ATOM     61  C   UNL A   1      44.416  27.522  29.070  1.00  0.00     0.074 A 
ATOM     62  C   UNL A   1      43.873  26.379  29.796  1.00  0.00     0.031 C 
ATOM     63  C   UNL A   1      44.941  28.708  29.492  1.00  0.00     0.031 A 
BRANCH  50  64
ATOM     64  C   UNL A   1      43.643  26.824  34.393  1.00  0.00    -0.014 A 
ATOM     65  C   UNL A   1      43.864  25.651  33.654  1.00  0.00     0.009 A 
ATOM     66  C   UNL A   1      43.502  26.682  35.787  1.00  0.00     0.009 A 
ATOM     67  C   UNL A   1      43.909  24.399  34.276  1.00  0.00     0.001 A 
ATOM     68  C   UNL A   1      43.594  25.440  36.417  1.00  0.00     0.001 A 
ATOM     69  C   UNL A   1      43.775  24.294  35.657  1.00  0.00     0.000 A 
ENDBRANCH  50  64
BRANCH  51  70
ATOM     70  C   UNL A   1      41.075  25.631  26.482  1.00  0.00    -0.014 A 
ATOM     71  C   UNL A   1      42.001  24.739  25.913  1.00  0.00     0.009 A 
ATOM     72  C   UNL A   1      39.883  25.132  27.019  1.00  0.00     0.009 A 
ATOM     73  C   UNL A   1      41.860  23.372  26.135  1.00  0.00     0.001 A 
ATOM     74  C   UNL A   1      39.768  23.771  27.265  1.00  0.00     0.001 A 
ATOM     75  C   UNL A   1      40.783  22.905  26.879  1.00  0.00     0.000 A 
ENDBRANCH  51  70
BRANCH  63  76
ATOM     76  C   UNL A   1      45.088  29.768  28.428  1.00  0.00    -0.014 A 
ATOM     77  C   UNL A   1      46.300  29.975  27.737  1.00  0.00     0.009 A 
ATOM     78  C   UNL A   1      43.991  30.562  28.087  1.00  0.00     0.009 A 
ATOM     79  C   UNL A   1      46.435  30.991  26.790  1.00  0.00     0.001 A 
ATOM     80  C   UNL A   1      44.116  31.561  27.116  1.00  0.00     0.001 A 
ATOM     81  C   UNL A   1      45.338  31.785  26.481  1.00  0.00     0.000 A 
ENDBRANCH  63  76
ENDBRANCH  37  38
ENDBRANCH  29  32
ENDBRANCH  27  28
ENDBRANCH  26  27
ENDBRANCH  25  26
ENDBRANCH   1  25
TORSDOF 16
ENDMDL
MODEL 2
REMARK VINA RESULT:     -11.2      2.855      8.541
REMARK SMILES Cc1ccc(C)c(N2C(=O)C[C@@H](SCC(=O)NCCCCCCNC(=O)c3ccc(-c4c5nc(c(-c6ccccc6)c6ccc([nH]6)c(-c6ccccc6)c6nc(c(-c7ccccc7)c7ccc4[nH]7)C=C6)C=C5)cc3)C2=O)c1
REMARK SMILES IDX 20 1 19 2 18 3 17 4 15 5 16 6 14 8 13 9 12 10 8 11 9 12
REMARK SMILES IDX 75 13 10 14 11 15 76 16 7 17 1 18 2 19 3 20 77 21 4 22 5 23
REMARK SMILES IDX 6 24 21 25 22 26 23 27 24 28 25 29 26 31 27 32 28 33 74 34
REMARK SMILES IDX 29 35 73 36 30 37 31 38 32 39 67 40 33 41 72 42 66 43 68 44
REMARK SMILES IDX 34 45 71 46 65 47 64 48 35 50 57 51 42 52 56 53 43 54 46 55
REMARK SMILES IDX 55 56 69 57 44 58 45 59 54 61 70 62 47 63 36 64 37 65 41 66
REMARK SMILES IDX 38 67 40 68 39 69 58 70 59 71 63 72 60 73 62 74 61 75 48 76
REMARK SMILES IDX 49 77 53 78 50 79 52 80 51 81
REMARK H PARENT 17 7 24 30 68 49 46 60
REMARK Flexibility Score: inf
ROOT
ATOM      1  C   UNL A   1      40.011  21.411  26.378  1.00  0.00     0.002 C 
ENDROOT
BRANCH   1   2
ATOM      2  C   UNL A   1      38.667  21.089  25.712  1.00  0.00     0.021 C 
BRANCH   2   3
ATOM      3  C   UNL A   1      37.721  22.282  25.549  1.00  0.00     0.116 C 
BRANCH   3   4
ATOM      4  N   UNL A   1      37.486  22.575  24.145  1.00  0.00    -0.355 N 
ATOM      5  C   UNL A   1      36.386  23.091  23.532  1.00  0.00     0.230 C 
ATOM      6  O   UNL A   1      36.349  23.085  22.298  1.00  0.00    -0.274 OA
ATOM      7  H   UNL A   1      38.240  22.369  23.546  1.00  0.00     0.163 HD
BRANCH   5   8
ATOM      8  C   UNL A   1      35.243  23.667  24.336  1.00  0.00     0.170 C 
BRANCH   8   9
ATOM      9  S   UNL A   1      33.948  22.478  24.774  1.00  0.00    -0.138 SA
BRANCH   9  10
ATOM     10  C   UNL A   1      32.607  22.893  23.584  1.00  0.00     0.146 C 
ATOM     11  N   UNL A   1      32.104  25.176  23.329  1.00  0.00    -0.249 N 
ATOM     12  C   UNL A   1      32.722  24.807  22.159  1.00  0.00     0.235 C 
ATOM     13  C   UNL A   1      31.892  24.097  24.152  1.00  0.00     0.247 C 
ATOM     14  O   UNL A   1      32.991  25.504  21.189  1.00  0.00    -0.274 OA
ATOM     15  C   UNL A   1      33.076  23.349  22.219  1.00  0.00     0.125 C 
ATOM     16  O   UNL A   1      31.240  24.039  25.189  1.00  0.00    -0.273 OA
BRANCH  11  17
ATOM     17  C   UNL A   1      31.700  26.510  23.610  1.00  0.00     0.055 A 
ATOM     18  C   UNL A   1      28.646  28.704  22.868  1.00  0.00     0.044 C 
ATOM     19  C   UNL A   1      30.007  28.271  23.326  1.00  0.00    -0.049 A 
ATOM     20  C   UNL A   1      30.802  29.147  24.063  1.00  0.00     0.004 A 
ATOM     21  C   UNL A   1      30.478  26.972  23.078  1.00  0.00     0.030 A 
ATOM     22  C   UNL A   1      32.023  28.716  24.582  1.00  0.00     0.006 A 
ATOM     23  C   UNL A   1      32.483  27.399  24.381  1.00  0.00    -0.027 A 
ATOM     24  C   UNL A   1      33.797  27.044  25.023  1.00  0.00     0.046 C 
ENDBRANCH  11  17
ENDBRANCH   9  10
ENDBRANCH   8   9
ENDBRANCH   5   8
ENDBRANCH   3   4
ENDBRANCH   2   3
ENDBRANCH   1   2
BRANCH   1  25
ATOM     25  C   UNL A   1      40.957  20.233  26.652  1.00  0.00     0.002 C 
BRANCH  25  26
ATOM     26  C   UNL A   1      42.443  20.393  26.298  1.00  0.00     0.021 C 
BRANCH  26  27
ATOM     27  C   UNL A   1      43.191  19.116  25.929  1.00  0.00     0.116 C 
BRANCH  27  28
ATOM     28  N   UNL A   1      43.849  19.179  24.617  1.00  0.00    -0.352 N 
ATOM     29  C   UNL A   1      44.410  20.216  23.884  1.00  0.00     0.251 C 
ATOM     30  H   UNL A   1      43.901  18.306  24.164  1.00  0.00     0.163 HD
ATOM     31  O   UNL A   1      44.647  20.055  22.698  1.00  0.00    -0.269 OA
BRANCH  29  32
ATOM     32  C   UNL A   1      44.755  21.505  24.522  1.00  0.00     0.039 A 
ATOM     33  C   UNL A   1      45.813  21.662  25.423  1.00  0.00     0.014 A 
ATOM     34  C   UNL A   1      43.865  22.550  24.388  1.00  0.00     0.014 A 
ATOM     35  C   UNL A   1      45.821  22.797  26.245  1.00  0.00     0.010 A 
ATOM     36  C   UNL A   1      44.174  23.796  24.821  1.00  0.00     0.010 A 
ATOM     37  C   UNL A   1      44.911  23.819  25.977  1.00  0.00    -0.014 A 
BRANCH  37  38
ATOM     38  C   UNL A   1      44.603  24.929  26.854  1.00  0.00     0.031 A 
ATOM     39  C   UNL A   1      45.427  26.133  26.661  1.00  0.00     0.074 A 
ATOM     40  C   UNL A   1      43.444  25.008  27.545  1.00  0.00     0.049 A 
ATOM     41  N   UNL A   1      46.295  26.609  27.484  1.00  0.00    -0.248 NA
ATOM     42  C   UNL A   1      45.366  26.827  25.367  1.00  0.00     0.031 C 
ATOM     43  C   UNL A   1      42.277  24.114  27.501  1.00  0.00     0.029 A 
ATOM     44  N   UNL A   1      43.020  26.019  28.351  1.00  0.00    -0.354 N 
ATOM     45  C   UNL A   1      46.795  27.751  26.878  1.00  0.00     0.074 A 
ATOM     46  C   UNL A   1      46.344  27.721  25.510  1.00  0.00     0.031 C 
ATOM     47  C   UNL A   1      41.217  24.732  28.075  1.00  0.00     0.029 A 
ATOM     48  C   UNL A   1      41.666  25.989  28.646  1.00  0.00     0.049 A 
ATOM     49  H   UNL A   1      43.625  26.714  28.696  1.00  0.00     0.167 HD
ATOM     50  C   UNL A   1      47.355  28.756  27.601  1.00  0.00     0.031 A 
ATOM     51  C   UNL A   1      40.963  26.990  29.226  1.00  0.00     0.031 A 
ATOM     52  C   UNL A   1      47.535  28.389  28.984  1.00  0.00     0.049 A 
ATOM     53  C   UNL A   1      41.908  27.958  29.825  1.00  0.00     0.074 A 
ATOM     54  C   UNL A   1      48.204  27.373  29.642  1.00  0.00     0.029 A 
ATOM     55  N   UNL A   1      46.620  28.880  29.888  1.00  0.00    -0.354 N 
ATOM     56  N   UNL A   1      42.549  27.736  30.928  1.00  0.00    -0.248 NA
ATOM     57  C   UNL A   1      42.431  29.046  29.006  1.00  0.00     0.031 C 
ATOM     58  C   UNL A   1      47.351  26.997  30.723  1.00  0.00     0.029 A 
ATOM     59  C   UNL A   1      46.236  27.833  30.690  1.00  0.00     0.049 A 
ATOM     60  H   UNL A   1      46.300  29.809  29.949  1.00  0.00     0.167 HD
ATOM     61  C   UNL A   1      43.799  28.282  30.698  1.00  0.00     0.074 A 
ATOM     62  C   UNL A   1      43.622  29.211  29.588  1.00  0.00     0.031 C 
ATOM     63  C   UNL A   1      44.905  27.671  31.211  1.00  0.00     0.031 A 
BRANCH  50  64
ATOM     64  C   UNL A   1      47.419  30.184  27.136  1.00  0.00    -0.014 A 
ATOM     65  C   UNL A   1      48.651  30.854  27.193  1.00  0.00     0.009 A 
ATOM     66  C   UNL A   1      46.282  30.963  26.849  1.00  0.00     0.009 A 
ATOM     67  C   UNL A   1      48.733  32.239  27.005  1.00  0.00     0.001 A 
ATOM     68  C   UNL A   1      46.367  32.336  26.612  1.00  0.00     0.001 A 
ATOM     69  C   UNL A   1      47.591  32.978  26.713  1.00  0.00     0.000 A 
ENDBRANCH  50  64
BRANCH  51  70
ATOM     70  C   UNL A   1      39.638  27.505  28.825  1.00  0.00    -0.014 A 
ATOM     71  C   UNL A   1      38.787  27.935  29.858  1.00  0.00     0.009 A 
ATOM     72  C   UNL A   1      39.598  28.157  27.587  1.00  0.00     0.009 A 
ATOM     73  C   UNL A   1      38.130  29.156  29.739  1.00  0.00     0.001 A 
ATOM     74  C   UNL A   1      38.967  29.389  27.490  1.00  0.00     0.001 A 
ATOM     75  C   UNL A   1      38.290  29.912  28.584  1.00  0.00     0.000 A 
ENDBRANCH  51  70
BRANCH  63  76
ATOM     76  C   UNL A   1      44.634  26.522  32.153  1.00  0.00    -0.014 A 
ATOM     77  C   UNL A   1      44.428  26.717  33.534  1.00  0.00     0.009 A 
ATOM     78  C   UNL A   1      44.555  25.222  31.651  1.00  0.00     0.009 A 
ATOM     79  C   UNL A   1      44.227  25.641  34.400  1.00  0.00     0.001 A 
ATOM     80  C   UNL A   1      44.323  24.145  32.513  1.00  0.00     0.001 A 
ATOM     81  C   UNL A   1      44.175  24.352  33.885  1.00  0.00     0.000 A 
ENDBRANCH  63  76
ENDBRANCH  37  38
ENDBRANCH  29  32
ENDBRANCH  27  28
ENDBRANCH  26  27
ENDBRANCH  25  26
ENDBRANCH   1  25
TORSDOF 16
ENDMDL
MODEL 3
REMARK VINA RESULT:     -11.2      3.045      4.650
REMARK SMILES Cc1ccc(C)c(N2C(=O)C[C@@H](SCC(=O)NCCCCCCNC(=O)c3ccc(-c4c5nc(c(-c6ccccc6)c6ccc([nH]6)c(-c6ccccc6)c6nc(c(-c7ccccc7)c7ccc4[nH]7)C=C6)C=C5)cc3)C2=O)c1
REMARK SMILES IDX 20 1 19 2 18 3 17 4 15 5 16 6 14 8 13 9 12 10 8 11 9 12
REMARK SMILES IDX 75 13 10 14 11 15 76 16 7 17 1 18 2 19 3 20 77 21 4 22 5 23
REMARK SMILES IDX 6 24 21 25 22 26 23 27 24 28 25 29 26 31 27 32 28 33 74 34
REMARK SMILES IDX 29 35 73 36 30 37 31 38 32 39 67 40 33 41 72 42 66 43 68 44
REMARK SMILES IDX 34 45 71 46 65 47 64 48 35 50 57 51 42 52 56 53 43 54 46 55
REMARK SMILES IDX 55 56 69 57 44 58 45 59 54 61 70 62 47 63 36 64 37 65 41 66
REMARK SMILES IDX 38 67 40 68 39 69 58 70 59 71 63 72 60 73 62 74 61 75 48 76
REMARK SMILES IDX 49 77 53 78 50 79 52 80 51 81
REMARK H PARENT 17 7 24 30 68 49 46 60
REMARK Flexibility Score: inf
ROOT
ATOM      1  C   UNL A   1      34.516  34.574  28.867  1.00  0.00     0.002 C 
ENDROOT
BRANCH   1   2
ATOM      2  C   UNL A   1      34.534  33.427  27.848  1.00  0.00     0.021 C 
BRANCH   2   3
ATOM      3  C   UNL A   1      33.513  32.315  28.105  1.00  0.00     0.116 C 
BRANCH   3   4
ATOM      4  N   UNL A   1      34.128  31.004  27.984  1.00  0.00    -0.355 N 
ATOM      5  C   UNL A   1      33.649  29.862  27.417  1.00  0.00     0.230 C 
ATOM      6  O   UNL A   1      34.278  28.815  27.593  1.00  0.00    -0.274 OA
ATOM      7  H   UNL A   1      35.030  30.930  28.371  1.00  0.00     0.163 HD
BRANCH   5   8
ATOM      8  C   UNL A   1      32.386  29.874  26.586  1.00  0.00     0.170 C 
BRANCH   8   9
ATOM      9  S   UNL A   1      32.617  29.418  24.848  1.00  0.00    -0.138 SA
BRANCH   9  10
ATOM     10  C   UNL A   1      31.477  27.986  24.657  1.00  0.00     0.146 C 
ATOM     11  N   UNL A   1      32.453  25.850  24.787  1.00  0.00    -0.249 N 
ATOM     12  C   UNL A   1      31.725  25.988  25.944  1.00  0.00     0.235 C 
ATOM     13  C   UNL A   1      32.262  26.913  23.938  1.00  0.00     0.247 C 
ATOM     14  O   UNL A   1      31.615  25.197  26.872  1.00  0.00    -0.274 OA
ATOM     15  C   UNL A   1      31.048  27.329  25.951  1.00  0.00     0.125 C 
ATOM     16  O   UNL A   1      32.631  27.043  22.776  1.00  0.00    -0.273 OA
BRANCH  11  17
ATOM     17  C   UNL A   1      33.262  24.715  24.506  1.00  0.00     0.055 A 
ATOM     18  C   UNL A   1      36.885  23.651  25.165  1.00  0.00     0.044 C 
ATOM     19  C   UNL A   1      35.478  23.657  24.646  1.00  0.00    -0.049 A 
ATOM     20  C   UNL A   1      34.982  22.541  23.974  1.00  0.00     0.004 A 
ATOM     21  C   UNL A   1      34.623  24.746  24.876  1.00  0.00     0.030 A 
ATOM     22  C   UNL A   1      33.643  22.498  23.583  1.00  0.00     0.006 A 
ATOM     23  C   UNL A   1      32.764  23.566  23.852  1.00  0.00    -0.027 A 
ATOM     24  C   UNL A   1      31.336  23.383  23.413  1.00  0.00     0.046 C 
ENDBRANCH  11  17
ENDBRANCH   9  10
ENDBRANCH   8   9
ENDBRANCH   5   8
ENDBRANCH   3   4
ENDBRANCH   2   3
ENDBRANCH   1   2
BRANCH   1  25
ATOM     25  C   UNL A   1      34.126  35.965  28.349  1.00  0.00     0.002 C 
BRANCH  25  26
ATOM     26  C   UNL A   1      33.161  36.813  29.192  1.00  0.00     0.021 C 
BRANCH  26  27
ATOM     27  C   UNL A   1      33.537  37.008  30.657  1.00  0.00     0.116 C 
BRANCH  27  28
ATOM     28  N   UNL A   1      32.602  36.371  31.593  1.00  0.00    -0.352 N 
ATOM     29  C   UNL A   1      32.687  35.247  32.405  1.00  0.00     0.251 C 
ATOM     30  H   UNL A   1      31.737  36.836  31.658  1.00  0.00     0.163 HD
ATOM     31  O   UNL A   1      31.670  34.772  32.883  1.00  0.00    -0.269 OA
BRANCH  29  32
ATOM     32  C   UNL A   1      33.993  34.632  32.726  1.00  0.00     0.039 A 
ATOM     33  C   UNL A   1      35.037  35.319  33.356  1.00  0.00     0.014 A 
ATOM     34  C   UNL A   1      34.272  33.393  32.191  1.00  0.00     0.014 A 
ATOM     35  C   UNL A   1      36.329  34.784  33.271  1.00  0.00     0.010 A 
ATOM     36  C   UNL A   1      35.383  32.705  32.551  1.00  0.00     0.010 A 
ATOM     37  C   UNL A   1      36.483  33.494  32.765  1.00  0.00    -0.014 A 
BRANCH  37  38
ATOM     38  C   UNL A   1      37.735  32.884  32.371  1.00  0.00     0.031 A 
ATOM     39  C   UNL A   1      38.616  32.478  33.478  1.00  0.00     0.074 A 
ATOM     40  C   UNL A   1      37.945  32.396  31.128  1.00  0.00     0.049 A 
ATOM     41  N   UNL A   1      39.752  33.000  33.787  1.00  0.00    -0.248 NA
ATOM     42  C   UNL A   1      38.138  31.454  34.417  1.00  0.00     0.031 C 
ATOM     43  C   UNL A   1      37.001  32.287  30.005  1.00  0.00     0.029 A 
ATOM     44  N   UNL A   1      39.050  31.757  30.657  1.00  0.00    -0.354 N 
ATOM     45  C   UNL A   1      40.209  32.277  34.877  1.00  0.00     0.074 A 
ATOM     46  C   UNL A   1      39.097  31.487  35.342  1.00  0.00     0.031 C 
ATOM     47  C   UNL A   1      37.507  31.441  29.076  1.00  0.00     0.029 A 
ATOM     48  C   UNL A   1      38.855  31.070  29.469  1.00  0.00     0.049 A 
ATOM     49  H   UNL A   1      39.916  31.780  31.123  1.00  0.00     0.167 HD
ATOM     50  C   UNL A   1      41.531  32.206  35.184  1.00  0.00     0.031 A 
ATOM     51  C   UNL A   1      39.714  30.179  28.922  1.00  0.00     0.031 A 
ATOM     52  C   UNL A   1      42.318  33.112  34.384  1.00  0.00     0.049 A 
ATOM     53  C   UNL A   1      41.034  30.320  29.577  1.00  0.00     0.074 A 
ATOM     54  C   UNL A   1      42.311  34.478  34.169  1.00  0.00     0.029 A 
ATOM     55  N   UNL A   1      43.014  32.572  33.326  1.00  0.00    -0.354 N 
ATOM     56  N   UNL A   1      41.849  31.295  29.330  1.00  0.00    -0.248 NA
ATOM     57  C   UNL A   1      41.312  29.565  30.794  1.00  0.00     0.031 C 
ATOM     58  C   UNL A   1      42.587  34.643  32.778  1.00  0.00     0.029 A 
ATOM     59  C   UNL A   1      42.790  33.376  32.236  1.00  0.00     0.049 A 
ATOM     60  H   UNL A   1      43.570  31.759  33.348  1.00  0.00     0.167 HD
ATOM     61  C   UNL A   1      42.397  31.588  30.565  1.00  0.00     0.074 A 
ATOM     62  C   UNL A   1      42.168  30.403  31.385  1.00  0.00     0.031 C 
ATOM     63  C   UNL A   1      42.675  32.883  30.889  1.00  0.00     0.031 A 
BRANCH  50  64
ATOM     64  C   UNL A   1      42.149  31.078  35.960  1.00  0.00    -0.014 A 
ATOM     65  C   UNL A   1      43.231  31.358  36.808  1.00  0.00     0.009 A 
ATOM     66  C   UNL A   1      41.855  29.720  35.729  1.00  0.00     0.009 A 
ATOM     67  C   UNL A   1      43.999  30.332  37.369  1.00  0.00     0.001 A 
ATOM     68  C   UNL A   1      42.589  28.692  36.326  1.00  0.00     0.001 A 
ATOM     69  C   UNL A   1      43.677  29.000  37.129  1.00  0.00     0.000 A 
ENDBRANCH  50  64
BRANCH  51  70
ATOM     70  C   UNL A   1      39.390  28.861  28.340  1.00  0.00    -0.014 A 
ATOM     71  C   UNL A   1      40.233  28.397  27.316  1.00  0.00     0.009 A 
ATOM     72  C   UNL A   1      38.814  27.941  29.223  1.00  0.00     0.009 A 
ATOM     73  C   UNL A   1      40.706  27.088  27.358  1.00  0.00     0.001 A 
ATOM     74  C   UNL A   1      39.316  26.648  29.279  1.00  0.00     0.001 A 
ATOM     75  C   UNL A   1      40.303  26.246  28.388  1.00  0.00     0.000 A 
ENDBRANCH  51  70
BRANCH  63  76
ATOM     76  C   UNL A   1      42.515  33.881  29.767  1.00  0.00    -0.014 A 
ATOM     77  C   UNL A   1      41.314  34.592  29.562  1.00  0.00     0.009 A 
ATOM     78  C   UNL A   1      43.588  34.139  28.914  1.00  0.00     0.009 A 
ATOM     79  C   UNL A   1      41.164  35.476  28.493  1.00  0.00     0.001 A 
ATOM     80  C   UNL A   1      43.450  35.047  27.859  1.00  0.00     0.001 A 
ATOM     81  C   UNL A   1      42.237  35.702  27.639  1.00  0.00     0.000 A 
ENDBRANCH  63  76
ENDBRANCH  37  38
ENDBRANCH  29  32
ENDBRANCH  27  28
ENDBRANCH  26  27
ENDBRANCH  25  26
ENDBRANCH   1  25
TORSDOF 16
ENDMDL
