MODEL 1
REMARK VINA RESULT:     -11.4      0.000      0.000
REMARK SMILES Cc1c(Cl)cc2c(c1C)O[C@@H](C(F)(F)F)C(C(=O)NCCCCCCNC(=O)c1ccc(-c3c4nc(c(-c5ccccc5)c5ccc([nH]5)c(-c5ccccc5)c5nc(c(-c6ccccc6)c6ccc3[nH]6)C=C5)C=C4)cc1)=C2
REMARK SMILES IDX 23 1 22 2 21 3 20 4 19 5 17 6 18 7 16 9 1 10 2 11 3 12 8 13
REMARK SMILES IDX 4 14 5 15 7 16 9 17 6 18 10 19 77 20 11 21 12 22 13 23 14 24
REMARK SMILES IDX 15 25 24 26 25 27 26 28 27 29 28 31 29 32 30 33 76 34 31 35
REMARK SMILES IDX 75 36 32 37 33 38 34 39 69 40 35 41 74 42 68 43 70 44 36 45
REMARK SMILES IDX 73 46 67 47 66 48 37 50 59 51 44 52 58 53 45 54 48 55 57 56
REMARK SMILES IDX 71 57 46 58 47 59 56 61 72 62 49 63 38 64 39 65 43 66 40 67
REMARK SMILES IDX 42 68 41 69 60 70 61 71 65 72 62 73 64 74 63 75 50 76 51 77
REMARK SMILES IDX 55 78 52 79 54 80 53 81
REMARK H PARENT 19 8 26 30 70 49 48 60
REMARK Flexibility Score: inf
ROOT
ATOM      1  C   UNL A   1      32.464  29.142  24.072  1.00  0.00     0.002 C 
ENDROOT
BRANCH   1   2
ATOM      2  C   UNL A   1      31.918  28.580  22.753  1.00  0.00     0.002 C 
BRANCH   2   3
ATOM      3  C   UNL A   1      30.443  28.177  22.778  1.00  0.00     0.021 C 
BRANCH   3   4
ATOM      4  C   UNL A   1      30.169  26.849  23.481  1.00  0.00     0.116 C 
BRANCH   4   5
ATOM      5  N   UNL A   1      30.382  26.940  24.915  1.00  0.00    -0.352 N 
ATOM      6  C   UNL A   1      31.063  26.265  25.870  1.00  0.00     0.251 C 
ATOM      7  O   UNL A   1      30.987  26.746  27.006  1.00  0.00    -0.270 OA
ATOM      8  H   UNL A   1      29.896  27.707  25.299  1.00  0.00     0.163 HD
BRANCH   6   9
ATOM      9  C   UNL A   1      31.872  25.027  25.650  1.00  0.00     0.067 C 
ATOM     10  C   UNL A   1      36.561  20.515  24.926  1.00  0.00     0.046 C 
ATOM     11  C   UNL A   1      35.695  21.726  25.164  1.00  0.00    -0.026 A 
ATOM     12  C   UNL A   1      36.229  22.929  25.671  1.00  0.00     0.045 A 
ATOM     13  C   UNL A   1      34.305  21.662  24.908  1.00  0.00    -0.004 A 
ATOM     14  Cl  UNL A   1      37.903  23.098  26.076  1.00  0.00    -0.084 Cl
ATOM     15  C   UNL A   1      35.421  24.053  25.876  1.00  0.00     0.032 A 
ATOM     16  C   UNL A   1      33.513  22.806  25.120  1.00  0.00     0.131 A 
ATOM     17  C   UNL A   1      33.618  20.412  24.409  1.00  0.00     0.049 C 
ATOM     18  C   UNL A   1      34.058  23.998  25.593  1.00  0.00     0.019 A 
ATOM     19  O   UNL A   1      32.190  22.703  24.790  1.00  0.00    -0.475 OA
ATOM     20  C   UNL A   1      33.206  25.171  25.757  1.00  0.00     0.025 C 
ATOM     21  C   UNL A   1      31.286  23.674  25.376  1.00  0.00     0.314 C 
BRANCH  21  22
ATOM     22  C   UNL A   1      30.588  23.054  26.598  1.00  0.00     0.429 C 
ATOM     23  F   UNL A   1      31.441  22.809  27.618  1.00  0.00    -0.167 F 
ATOM     24  F   UNL A   1      29.600  23.833  27.091  1.00  0.00    -0.167 F 
ATOM     25  F   UNL A   1      30.014  21.871  26.259  1.00  0.00    -0.167 F 
ENDBRANCH  21  22
ENDBRANCH   6   9
ENDBRANCH   4   5
ENDBRANCH   3   4
ENDBRANCH   2   3
ENDBRANCH   1   2
BRANCH   1  26
ATOM     26  C   UNL A   1      33.813  28.573  24.522  1.00  0.00     0.021 C 
BRANCH  26  27
ATOM     27  C   UNL A   1      34.065  28.636  26.026  1.00  0.00     0.116 C 
BRANCH  27  28
ATOM     28  N   UNL A   1      33.773  29.952  26.569  1.00  0.00    -0.352 N 
ATOM     29  C   UNL A   1      34.420  30.648  27.555  1.00  0.00     0.251 C 
ATOM     30  H   UNL A   1      32.997  30.409  26.171  1.00  0.00     0.163 HD
ATOM     31  O   UNL A   1      33.907  31.658  28.039  1.00  0.00    -0.269 OA
BRANCH  29  32
ATOM     32  C   UNL A   1      35.732  30.187  28.048  1.00  0.00     0.039 A 
ATOM     33  C   UNL A   1      35.821  29.648  29.334  1.00  0.00     0.014 A 
ATOM     34  C   UNL A   1      36.876  30.315  27.254  1.00  0.00     0.014 A 
ATOM     35  C   UNL A   1      37.052  29.191  29.809  1.00  0.00     0.010 A 
ATOM     36  C   UNL A   1      38.091  29.810  27.708  1.00  0.00     0.010 A 
ATOM     37  C   UNL A   1      38.190  29.247  28.989  1.00  0.00    -0.014 A 
BRANCH  37  38
ATOM     38  C   UNL A   1      39.498  28.726  29.449  1.00  0.00     0.031 A 
ATOM     39  C   UNL A   1      40.357  29.553  30.363  1.00  0.00     0.074 A 
ATOM     40  C   UNL A   1      39.939  27.538  28.993  1.00  0.00     0.049 A 
ATOM     41  N   UNL A   1      41.572  29.316  30.791  1.00  0.00    -0.248 NA
ATOM     42  C   UNL A   1      39.783  30.817  30.847  1.00  0.00     0.031 C 
ATOM     43  C   UNL A   1      39.199  26.646  28.099  1.00  0.00     0.029 A 
ATOM     44  N   UNL A   1      41.122  26.881  29.216  1.00  0.00    -0.354 N 
ATOM     45  C   UNL A   1      41.909  30.406  31.585  1.00  0.00     0.074 A 
ATOM     46  C   UNL A   1      40.789  31.321  31.546  1.00  0.00     0.031 C 
ATOM     47  C   UNL A   1      39.936  25.549  27.866  1.00  0.00     0.029 A 
ATOM     48  C   UNL A   1      41.216  25.680  28.555  1.00  0.00     0.049 A 
ATOM     49  H   UNL A   1      41.837  27.236  29.793  1.00  0.00     0.167 HD
ATOM     50  C   UNL A   1      43.043  30.615  32.293  1.00  0.00     0.031 A 
ATOM     51  C   UNL A   1      42.224  24.789  28.504  1.00  0.00     0.031 A 
ATOM     52  C   UNL A   1      44.156  29.704  32.328  1.00  0.00     0.049 A 
ATOM     53  C   UNL A   1      43.488  25.065  29.266  1.00  0.00     0.074 A 
ATOM     54  C   UNL A   1      45.345  29.822  33.027  1.00  0.00     0.029 A 
ATOM     55  N   UNL A   1      44.215  28.504  31.637  1.00  0.00    -0.354 N 
ATOM     56  N   UNL A   1      43.788  26.094  30.022  1.00  0.00    -0.248 NA
ATOM     57  C   UNL A   1      44.548  24.051  29.178  1.00  0.00     0.031 C 
ATOM     58  C   UNL A   1      46.141  28.714  32.724  1.00  0.00     0.029 A 
ATOM     59  C   UNL A   1      45.425  27.877  31.884  1.00  0.00     0.049 A 
ATOM     60  H   UNL A   1      43.504  28.151  31.056  1.00  0.00     0.167 HD
ATOM     61  C   UNL A   1      45.058  25.838  30.522  1.00  0.00     0.074 A 
ATOM     62  C   UNL A   1      45.466  24.552  29.993  1.00  0.00     0.031 C 
ATOM     63  C   UNL A   1      45.816  26.599  31.349  1.00  0.00     0.031 A 
BRANCH  50  64
ATOM     64  C   UNL A   1      43.139  31.886  33.090  1.00  0.00    -0.014 A 
ATOM     65  C   UNL A   1      43.663  33.058  32.522  1.00  0.00     0.009 A 
ATOM     66  C   UNL A   1      42.652  31.929  34.406  1.00  0.00     0.009 A 
ATOM     67  C   UNL A   1      43.721  34.240  33.263  1.00  0.00     0.001 A 
ATOM     68  C   UNL A   1      42.686  33.118  35.136  1.00  0.00     0.001 A 
ATOM     69  C   UNL A   1      43.226  34.270  34.566  1.00  0.00     0.000 A 
ENDBRANCH  50  64
BRANCH  51  70
ATOM     70  C   UNL A   1      42.063  23.538  27.720  1.00  0.00    -0.014 A 
ATOM     71  C   UNL A   1      42.486  23.483  26.383  1.00  0.00     0.009 A 
ATOM     72  C   UNL A   1      41.508  22.389  28.305  1.00  0.00     0.009 A 
ATOM     73  C   UNL A   1      42.341  22.308  25.643  1.00  0.00     0.001 A 
ATOM     74  C   UNL A   1      41.390  21.208  27.570  1.00  0.00     0.001 A 
ATOM     75  C   UNL A   1      41.800  21.170  26.238  1.00  0.00     0.000 A 
ENDBRANCH  51  70
BRANCH  63  76
ATOM     76  C   UNL A   1      47.148  26.042  31.768  1.00  0.00    -0.014 A 
ATOM     77  C   UNL A   1      48.296  26.225  30.984  1.00  0.00     0.009 A 
ATOM     78  C   UNL A   1      47.259  25.363  32.992  1.00  0.00     0.009 A 
ATOM     79  C   UNL A   1      49.524  25.711  31.404  1.00  0.00     0.001 A 
ATOM     80  C   UNL A   1      48.493  24.876  33.423  1.00  0.00     0.001 A 
ATOM     81  C   UNL A   1      49.622  25.042  32.624  1.00  0.00     0.000 A 
ENDBRANCH  63  76
ENDBRANCH  37  38
ENDBRANCH  29  32
ENDBRANCH  27  28
ENDBRANCH  26  27
ENDBRANCH   1  26
TORSDOF 14
ENDMDL
MODEL 2
REMARK VINA RESULT:     -11.2      2.773      7.294
REMARK SMILES Cc1c(Cl)cc2c(c1C)O[C@@H](C(F)(F)F)C(C(=O)NCCCCCCNC(=O)c1ccc(-c3c4nc(c(-c5ccccc5)c5ccc([nH]5)c(-c5ccccc5)c5nc(c(-c6ccccc6)c6ccc3[nH]6)C=C5)C=C4)cc1)=C2
REMARK SMILES IDX 23 1 22 2 21 3 20 4 19 5 17 6 18 7 16 9 1 10 2 11 3 12 8 13
REMARK SMILES IDX 4 14 5 15 7 16 9 17 6 18 10 19 77 20 11 21 12 22 13 23 14 24
REMARK SMILES IDX 15 25 24 26 25 27 26 28 27 29 28 31 29 32 30 33 76 34 31 35
REMARK SMILES IDX 75 36 32 37 33 38 34 39 69 40 35 41 74 42 68 43 70 44 36 45
REMARK SMILES IDX 73 46 67 47 66 48 37 50 59 51 44 52 58 53 45 54 48 55 57 56
REMARK SMILES IDX 71 57 46 58 47 59 56 61 72 62 49 63 38 64 39 65 43 66 40 67
REMARK SMILES IDX 42 68 41 69 60 70 61 71 65 72 62 73 64 74 63 75 50 76 51 77
REMARK SMILES IDX 55 78 52 79 54 80 53 81
REMARK H PARENT 19 8 26 30 70 49 48 60
REMARK Flexibility Score: inf
ROOT
ATOM      1  C   UNL A   1      36.256  20.293  24.998  1.00  0.00     0.002 C 
ENDROOT
BRANCH   1   2
ATOM      2  C   UNL A   1      35.937  21.470  25.928  1.00  0.00     0.002 C 
BRANCH   2   3
ATOM      3  C   UNL A   1      34.525  21.472  26.514  1.00  0.00     0.021 C 
BRANCH   3   4
ATOM      4  C   UNL A   1      33.552  20.531  25.806  1.00  0.00     0.116 C 
BRANCH   4   5
ATOM      5  N   UNL A   1      32.169  20.919  26.021  1.00  0.00    -0.352 N 
ATOM      6  C   UNL A   1      31.363  21.960  25.707  1.00  0.00     0.251 C 
ATOM      7  O   UNL A   1      30.190  21.843  26.080  1.00  0.00    -0.270 OA
ATOM      8  H   UNL A   1      31.684  20.236  26.538  1.00  0.00     0.163 HD
BRANCH   6   9
ATOM      9  C   UNL A   1      31.779  23.191  24.968  1.00  0.00     0.067 C 
ATOM     10  C   UNL A   1      33.839  29.117  23.095  1.00  0.00     0.046 C 
ATOM     11  C   UNL A   1      33.431  27.841  23.787  1.00  0.00    -0.026 A 
ATOM     12  C   UNL A   1      33.653  27.644  25.166  1.00  0.00     0.045 A 
ATOM     13  C   UNL A   1      32.842  26.791  23.044  1.00  0.00    -0.004 A 
ATOM     14  Cl  UNL A   1      34.422  28.837  26.157  1.00  0.00    -0.084 Cl
ATOM     15  C   UNL A   1      33.260  26.462  25.804  1.00  0.00     0.032 A 
ATOM     16  C   UNL A   1      32.453  25.612  23.708  1.00  0.00     0.131 A 
ATOM     17  C   UNL A   1      32.601  26.873  21.555  1.00  0.00     0.049 C 
ATOM     18  C   UNL A   1      32.650  25.443  25.077  1.00  0.00     0.019 A 
ATOM     19  O   UNL A   1      31.827  24.662  22.950  1.00  0.00    -0.475 OA
ATOM     20  C   UNL A   1      32.193  24.221  25.730  1.00  0.00     0.025 C 
ATOM     21  C   UNL A   1      31.803  23.310  23.474  1.00  0.00     0.314 C 
BRANCH  21  22
ATOM     22  C   UNL A   1      32.921  22.484  22.815  1.00  0.00     0.429 C 
ATOM     23  F   UNL A   1      34.112  22.627  23.438  1.00  0.00    -0.167 F 
ATOM     24  F   UNL A   1      32.649  21.161  22.786  1.00  0.00    -0.167 F 
ATOM     25  F   UNL A   1      33.091  22.872  21.525  1.00  0.00    -0.167 F 
ENDBRANCH  21  22
ENDBRANCH   6   9
ENDBRANCH   4   5
ENDBRANCH   3   4
ENDBRANCH   2   3
ENDBRANCH   1   2
BRANCH   1  26
ATOM     26  C   UNL A   1      37.731  20.138  24.612  1.00  0.00     0.021 C 
BRANCH  26  27
ATOM     27  C   UNL A   1      38.722  20.466  25.726  1.00  0.00     0.116 C 
BRANCH  27  28
ATOM     28  N   UNL A   1      39.793  19.486  25.804  1.00  0.00    -0.352 N 
ATOM     29  C   UNL A   1      41.120  19.671  26.084  1.00  0.00     0.251 C 
ATOM     30  H   UNL A   1      39.525  18.555  25.629  1.00  0.00     0.163 HD
ATOM     31  O   UNL A   1      41.926  18.759  25.895  1.00  0.00    -0.269 OA
BRANCH  29  32
ATOM     32  C   UNL A   1      41.594  20.967  26.606  1.00  0.00     0.039 A 
ATOM     33  C   UNL A   1      42.063  21.929  25.708  1.00  0.00     0.014 A 
ATOM     34  C   UNL A   1      41.603  21.220  27.982  1.00  0.00     0.014 A 
ATOM     35  C   UNL A   1      42.497  23.167  26.185  1.00  0.00     0.010 A 
ATOM     36  C   UNL A   1      41.986  22.473  28.451  1.00  0.00     0.010 A 
ATOM     37  C   UNL A   1      42.438  23.455  27.558  1.00  0.00    -0.014 A 
BRANCH  37  38
ATOM     38  C   UNL A   1      42.849  24.777  28.087  1.00  0.00     0.031 A 
ATOM     39  C   UNL A   1      41.818  25.837  28.348  1.00  0.00     0.074 A 
ATOM     40  C   UNL A   1      44.157  25.042  28.271  1.00  0.00     0.049 A 
ATOM     41  N   UNL A   1      41.989  27.083  28.711  1.00  0.00    -0.248 NA
ATOM     42  C   UNL A   1      40.411  25.451  28.161  1.00  0.00     0.031 C 
ATOM     43  C   UNL A   1      45.252  24.097  28.048  1.00  0.00     0.029 A 
ATOM     44  N   UNL A   1      44.785  26.190  28.681  1.00  0.00    -0.354 N 
ATOM     45  C   UNL A   1      40.715  27.631  28.786  1.00  0.00     0.074 A 
ATOM     46  C   UNL A   1      39.784  26.596  28.392  1.00  0.00     0.031 C 
ATOM     47  C   UNL A   1      46.416  24.697  28.345  1.00  0.00     0.029 A 
ATOM     48  C   UNL A   1      46.153  26.078  28.734  1.00  0.00     0.049 A 
ATOM     49  H   UNL A   1      44.302  27.016  28.915  1.00  0.00     0.167 HD
ATOM     50  C   UNL A   1      40.353  28.879  29.165  1.00  0.00     0.031 A 
ATOM     51  C   UNL A   1      47.091  26.991  29.051  1.00  0.00     0.031 A 
ATOM     52  C   UNL A   1      41.281  29.908  29.555  1.00  0.00     0.049 A 
ATOM     53  C   UNL A   1      46.666  28.381  29.427  1.00  0.00     0.074 A 
ATOM     54  C   UNL A   1      41.011  31.201  29.967  1.00  0.00     0.029 A 
ATOM     55  N   UNL A   1      42.659  29.758  29.584  1.00  0.00    -0.354 N 
ATOM     56  N   UNL A   1      45.456  28.882  29.505  1.00  0.00    -0.248 NA
ATOM     57  C   UNL A   1      47.735  29.329  29.771  1.00  0.00     0.031 C 
ATOM     58  C   UNL A   1      42.228  31.847  30.205  1.00  0.00     0.029 A 
ATOM     59  C   UNL A   1      43.253  30.938  29.997  1.00  0.00     0.049 A 
ATOM     60  H   UNL A   1      43.143  28.934  29.346  1.00  0.00     0.167 HD
ATOM     61  C   UNL A   1      45.616  30.193  29.935  1.00  0.00     0.074 A 
ATOM     62  C   UNL A   1      47.039  30.406  30.111  1.00  0.00     0.031 C 
ATOM     63  C   UNL A   1      44.669  31.134  30.166  1.00  0.00     0.031 A 
BRANCH  50  64
ATOM     64  C   UNL A   1      38.886  29.204  29.173  1.00  0.00    -0.014 A 
ATOM     65  C   UNL A   1      38.105  28.994  30.321  1.00  0.00     0.009 A 
ATOM     66  C   UNL A   1      38.287  29.776  28.040  1.00  0.00     0.009 A 
ATOM     67  C   UNL A   1      36.749  29.327  30.325  1.00  0.00     0.001 A 
ATOM     68  C   UNL A   1      36.937  30.133  28.055  1.00  0.00     0.001 A 
ATOM     69  C   UNL A   1      36.169  29.902  29.196  1.00  0.00     0.000 A 
ENDBRANCH  50  64
BRANCH  51  70
ATOM     70  C   UNL A   1      48.525  26.605  29.049  1.00  0.00    -0.014 A 
ATOM     71  C   UNL A   1      49.301  26.771  27.891  1.00  0.00     0.009 A 
ATOM     72  C   UNL A   1      49.133  26.092  30.206  1.00  0.00     0.009 A 
ATOM     73  C   UNL A   1      50.650  26.414  27.886  1.00  0.00     0.001 A 
ATOM     74  C   UNL A   1      50.489  25.762  30.206  1.00  0.00     0.001 A 
ATOM     75  C   UNL A   1      51.245  25.917  29.045  1.00  0.00     0.000 A 
ENDBRANCH  51  70
BRANCH  63  76
ATOM     76  C   UNL A   1      45.135  32.468  30.677  1.00  0.00    -0.014 A 
ATOM     77  C   UNL A   1      45.525  33.492  29.799  1.00  0.00     0.009 A 
ATOM     78  C   UNL A   1      45.140  32.717  32.059  1.00  0.00     0.009 A 
ATOM     79  C   UNL A   1      45.939  34.728  30.299  1.00  0.00     0.001 A 
ATOM     80  C   UNL A   1      45.527  33.963  32.554  1.00  0.00     0.001 A 
ATOM     81  C   UNL A   1      45.935  34.963  31.674  1.00  0.00     0.000 A 
ENDBRANCH  63  76
ENDBRANCH  37  38
ENDBRANCH  29  32
ENDBRANCH  27  28
ENDBRANCH  26  27
ENDBRANCH   1  26
TORSDOF 14
ENDMDL
MODEL 3
REMARK VINA RESULT:     -11.1      5.907     11.027
REMARK SMILES Cc1c(Cl)cc2c(c1C)O[C@@H](C(F)(F)F)C(C(=O)NCCCCCCNC(=O)c1ccc(-c3c4nc(c(-c5ccccc5)c5ccc([nH]5)c(-c5ccccc5)c5nc(c(-c6ccccc6)c6ccc3[nH]6)C=C5)C=C4)cc1)=C2
REMARK SMILES IDX 23 1 22 2 21 3 20 4 19 5 17 6 18 7 16 9 1 10 2 11 3 12 8 13
REMARK SMILES IDX 4 14 5 15 7 16 9 17 6 18 10 19 77 20 11 21 12 22 13 23 14 24
REMARK SMILES IDX 15 25 24 26 25 27 26 28 27 29 28 31 29 32 30 33 76 34 31 35
REMARK SMILES IDX 75 36 32 37 33 38 34 39 69 40 35 41 74 42 68 43 70 44 36 45
REMARK SMILES IDX 73 46 67 47 66 48 37 50 59 51 44 52 58 53 45 54 48 55 57 56
REMARK SMILES IDX 71 57 46 58 47 59 56 61 72 62 49 63 38 64 39 65 43 66 40 67
REMARK SMILES IDX 42 68 41 69 60 70 61 71 65 72 62 73 64 74 63 75 50 76 51 77
REMARK SMILES IDX 55 78 52 79 54 80 53 81
REMARK H PARENT 19 8 26 30 70 49 48 60
REMARK Flexibility Score: inf
ROOT
ATOM      1  C   UNL A   1      45.016  23.606  33.522  1.00  0.00     0.002 C 
ENDROOT
BRANCH   1   2
ATOM      2  C   UNL A   1      45.238  24.873  32.686  1.00  0.00     0.002 C 
BRANCH   2   3
ATOM      3  C   UNL A   1      45.172  24.672  31.171  1.00  0.00     0.021 C 
BRANCH   3   4
ATOM      4  C   UNL A   1      46.252  25.421  30.393  1.00  0.00     0.116 C 
BRANCH   4   5
ATOM      5  N   UNL A   1      45.689  26.233  29.329  1.00  0.00    -0.352 N 
ATOM      6  C   UNL A   1      45.240  26.052  28.065  1.00  0.00     0.251 C 
ATOM      7  O   UNL A   1      44.791  27.066  27.519  1.00  0.00    -0.270 OA
ATOM      8  H   UNL A   1      45.614  27.176  29.602  1.00  0.00     0.163 HD
BRANCH   6   9
ATOM      9  C   UNL A   1      45.248  24.758  27.316  1.00  0.00     0.067 C 
ATOM     10  C   UNL A   1      43.954  18.909  24.672  1.00  0.00     0.046 C 
ATOM     11  C   UNL A   1      43.989  20.237  25.385  1.00  0.00    -0.026 A 
ATOM     12  C   UNL A   1      42.850  20.761  26.029  1.00  0.00     0.045 A 
ATOM     13  C   UNL A   1      45.177  21.006  25.389  1.00  0.00    -0.004 A 
ATOM     14  Cl  UNL A   1      41.329  19.934  26.033  1.00  0.00    -0.084 Cl
ATOM     15  C   UNL A   1      42.893  21.988  26.701  1.00  0.00     0.032 A 
ATOM     16  C   UNL A   1      45.198  22.237  26.073  1.00  0.00     0.131 A 
ATOM     17  C   UNL A   1      46.443  20.567  24.691  1.00  0.00     0.049 C 
ATOM     18  C   UNL A   1      44.073  22.729  26.732  1.00  0.00     0.019 A 
ATOM     19  O   UNL A   1      46.393  22.902  26.099  1.00  0.00    -0.475 OA
ATOM     20  C   UNL A   1      44.153  23.989  27.462  1.00  0.00     0.025 C 
ATOM     21  C   UNL A   1      46.353  24.318  26.403  1.00  0.00     0.314 C 
BRANCH  21  22
ATOM     22  C   UNL A   1      46.422  25.126  25.096  1.00  0.00     0.429 C 
ATOM     23  F   UNL A   1      45.204  25.508  24.654  1.00  0.00    -0.167 F 
ATOM     24  F   UNL A   1      47.168  26.248  25.210  1.00  0.00    -0.167 F 
ATOM     25  F   UNL A   1      46.993  24.381  24.115  1.00  0.00    -0.167 F 
ENDBRANCH  21  22
ENDBRANCH   6   9
ENDBRANCH   4   5
ENDBRANCH   3   4
ENDBRANCH   2   3
ENDBRANCH   1   2
BRANCH   1  26
ATOM     26  C   UNL A   1      46.084  23.322  34.584  1.00  0.00     0.021 C 
BRANCH  26  27
ATOM     27  C   UNL A   1      47.129  24.421  34.751  1.00  0.00     0.116 C 
BRANCH  27  28
ATOM     28  N   UNL A   1      47.129  24.968  36.098  1.00  0.00    -0.352 N 
ATOM     29  C   UNL A   1      46.476  26.067  36.589  1.00  0.00     0.251 C 
ATOM     30  H   UNL A   1      47.678  24.478  36.751  1.00  0.00     0.163 HD
ATOM     31  O   UNL A   1      46.760  26.509  37.703  1.00  0.00    -0.269 OA
BRANCH  29  32
ATOM     32  C   UNL A   1      45.433  26.730  35.784  1.00  0.00     0.039 A 
ATOM     33  C   UNL A   1      44.120  26.259  35.856  1.00  0.00     0.014 A 
ATOM     34  C   UNL A   1      45.757  27.795  34.936  1.00  0.00     0.014 A 
ATOM     35  C   UNL A   1      43.118  26.888  35.114  1.00  0.00     0.010 A 
ATOM     36  C   UNL A   1      44.749  28.454  34.239  1.00  0.00     0.010 A 
ATOM     37  C   UNL A   1      43.422  28.004  34.320  1.00  0.00    -0.014 A 
BRANCH  37  38
ATOM     38  C   UNL A   1      42.371  28.719  33.558  1.00  0.00     0.031 A 
ATOM     39  C   UNL A   1      41.509  29.741  34.242  1.00  0.00     0.074 A 
ATOM     40  C   UNL A   1      42.152  28.400  32.268  1.00  0.00     0.049 A 
ATOM     41  N   UNL A   1      40.475  30.395  33.775  1.00  0.00    -0.248 NA
ATOM     42  C   UNL A   1      41.842  30.059  35.639  1.00  0.00     0.031 C 
ATOM     43  C   UNL A   1      42.919  27.422  31.495  1.00  0.00     0.029 A 
ATOM     44  N   UNL A   1      41.213  28.863  31.382  1.00  0.00    -0.354 N 
ATOM     45  C   UNL A   1      40.031  31.192  34.822  1.00  0.00     0.074 A 
ATOM     46  C   UNL A   1      40.879  30.910  35.960  1.00  0.00     0.031 C 
ATOM     47  C   UNL A   1      42.433  27.374  30.245  1.00  0.00     0.029 A 
ATOM     48  C   UNL A   1      41.295  28.281  30.141  1.00  0.00     0.049 A 
ATOM     49  H   UNL A   1      40.543  29.547  31.614  1.00  0.00     0.167 HD
ATOM     50  C   UNL A   1      39.016  32.088  34.829  1.00  0.00     0.031 A 
ATOM     51  C   UNL A   1      40.532  28.452  29.044  1.00  0.00     0.031 A 
ATOM     52  C   UNL A   1      38.172  32.364  33.697  1.00  0.00     0.049 A 
ATOM     53  C   UNL A   1      39.387  29.422  29.091  1.00  0.00     0.074 A 
ATOM     54  C   UNL A   1      37.125  33.265  33.601  1.00  0.00     0.029 A 
ATOM     55  N   UNL A   1      38.281  31.745  32.461  1.00  0.00    -0.354 N 
ATOM     56  N   UNL A   1      38.985  30.178  30.085  1.00  0.00    -0.248 NA
ATOM     57  C   UNL A   1      38.597  29.572  27.861  1.00  0.00     0.031 C 
ATOM     58  C   UNL A   1      36.574  33.159  32.321  1.00  0.00     0.029 A 
ATOM     59  C   UNL A   1      37.314  32.235  31.601  1.00  0.00     0.049 A 
ATOM     60  H   UNL A   1      38.947  31.058  32.231  1.00  0.00     0.167 HD
ATOM     61  C   UNL A   1      37.915  30.913  29.592  1.00  0.00     0.074 A 
ATOM     62  C   UNL A   1      37.738  30.521  28.208  1.00  0.00     0.031 C 
ATOM     63  C   UNL A   1      37.151  31.834  30.228  1.00  0.00     0.031 A 
BRANCH  50  64
ATOM     64  C   UNL A   1      38.760  32.837  36.106  1.00  0.00    -0.014 A 
ATOM     65  C   UNL A   1      37.938  32.297  37.109  1.00  0.00     0.009 A 
ATOM     66  C   UNL A   1      39.387  34.071  36.335  1.00  0.00     0.009 A 
ATOM     67  C   UNL A   1      37.730  32.989  38.303  1.00  0.00     0.001 A 
ATOM     68  C   UNL A   1      39.199  34.749  37.542  1.00  0.00     0.001 A 
ATOM     69  C   UNL A   1      38.366  34.210  38.521  1.00  0.00     0.000 A 
ENDBRANCH  50  64
BRANCH  51  70
ATOM     70  C   UNL A   1      40.848  27.703  27.802  1.00  0.00    -0.014 A 
ATOM     71  C   UNL A   1      41.604  28.306  26.785  1.00  0.00     0.009 A 
ATOM     72  C   UNL A   1      40.418  26.377  27.634  1.00  0.00     0.009 A 
ATOM     73  C   UNL A   1      41.907  27.603  25.617  1.00  0.00     0.001 A 
ATOM     74  C   UNL A   1      40.746  25.668  26.477  1.00  0.00     0.001 A 
ATOM     75  C   UNL A   1      41.485  26.283  25.467  1.00  0.00     0.000 A 
ENDBRANCH  51  70
BRANCH  63  76
ATOM     76  C   UNL A   1      36.079  32.514  29.422  1.00  0.00    -0.014 A 
ATOM     77  C   UNL A   1      34.868  31.871  29.127  1.00  0.00     0.009 A 
ATOM     78  C   UNL A   1      36.272  33.837  28.993  1.00  0.00     0.009 A 
ATOM     79  C   UNL A   1      33.883  32.531  28.390  1.00  0.00     0.001 A 
ATOM     80  C   UNL A   1      35.274  34.503  28.281  1.00  0.00     0.001 A 
ATOM     81  C   UNL A   1      34.084  33.846  27.972  1.00  0.00     0.000 A 
ENDBRANCH  63  76
ENDBRANCH  37  38
ENDBRANCH  29  32
ENDBRANCH  27  28
ENDBRANCH  26  27
ENDBRANCH   1  26
TORSDOF 14
ENDMDL
