MODEL 1
REMARK VINA RESULT:     -10.4      0.000      0.000
REMARK SMILES COc1cc([C@@H]2CC(=O)Nc3c(C(=O)NCCCCCCNC(=O)c4ccc(-c5c6nc(c(-c7ccccc7)c7ccc([nH]7)c(-c7ccccc7)c7nc(c(-c8ccccc8)c8ccc5[nH]8)C=C7)C=C6)cc4)cn(-c4ccc(F)cc4)c32)c(OC)c2c1OCO2
REMARK SMILES IDX 18 1 17 2 16 3 15 4 13 5 14 6 12 8 6 9 7 10 82 11 8 12 11 13
REMARK SMILES IDX 74 14 9 15 10 16 73 17 5 19 3 20 4 21 87 22 86 23 88 24
REMARK SMILES IDX 83 25 90 26 89 27 2 28 1 29 84 30 85 31 75 32 76 33 81 34
REMARK SMILES IDX 77 35 80 36 78 37 79 38 19 39 20 40 21 41 22 42 23 43 24 45
REMARK SMILES IDX 25 46 26 47 72 48 27 49 71 50 28 51 29 52 30 53 65 54 31 55
REMARK SMILES IDX 70 56 64 57 66 58 32 59 69 60 63 61 62 62 33 64 55 65 40 66
REMARK SMILES IDX 54 67 41 68 44 69 53 70 67 71 42 72 43 73 52 75 68 76 45 77
REMARK SMILES IDX 34 78 35 79 39 80 36 81 38 82 37 83 56 84 57 85 61 86 58 87
REMARK SMILES IDX 60 88 59 89 46 90 47 91 51 92 48 93 50 94 49 95
REMARK H PARENT 15 7 10 18 22 44 66 63 44 74
REMARK Flexibility Score: inf
ROOT
ATOM      1  C   UNL A   1      41.098  23.689  28.244  1.00  0.00     0.002 C 
ENDROOT
BRANCH   1   2
ATOM      2  C   UNL A   1      41.269  25.197  28.450  1.00  0.00     0.021 C 
BRANCH   2   3
ATOM      3  C   UNL A   1      40.002  26.001  28.131  1.00  0.00     0.116 C 
BRANCH   3   4
ATOM      4  N   UNL A   1      40.308  27.064  27.213  1.00  0.00    -0.352 N 
ATOM      5  C   UNL A   1      39.981  28.387  27.168  1.00  0.00     0.254 C 
ATOM      6  O   UNL A   1      40.466  28.999  26.210  1.00  0.00    -0.269 OA
ATOM      7  H   UNL A   1      40.871  26.776  26.459  1.00  0.00     0.163 HD
BRANCH   5   8
ATOM      8  C   UNL A   1      39.151  29.095  28.153  1.00  0.00     0.081 A 
ATOM      9  C   UNL A   1      37.282  30.136  31.229  1.00  0.00     0.082 C 
ATOM     10  C   UNL A   1      37.695  28.973  32.142  1.00  0.00     0.115 C 
ATOM     11  C   UNL A   1      37.932  30.013  29.877  1.00  0.00     0.055 A 
ATOM     12  C   UNL A   1      39.089  28.448  31.896  1.00  0.00     0.225 C 
ATOM     13  C   UNL A   1      38.958  29.132  29.572  1.00  0.00     0.076 A 
ATOM     14  N   UNL A   1      37.445  30.514  28.688  1.00  0.00    -0.317 N 
ATOM     15  O   UNL A   1      39.748  27.898  32.781  1.00  0.00    -0.275 OA
ATOM     16  N   UNL A   1      39.537  28.432  30.604  1.00  0.00    -0.324 N 
ATOM     17  C   UNL A   1      38.147  29.931  27.667  1.00  0.00     0.107 A 
ATOM     18  H   UNL A   1      40.329  27.884  30.400  1.00  0.00     0.170 HD
BRANCH   9  19
ATOM     19  C   UNL A   1      37.388  31.455  31.994  1.00  0.00     0.012 A 
ATOM     20  C   UNL A   1      36.223  32.937  33.585  1.00  0.00     0.165 A 
ATOM     21  C   UNL A   1      36.229  31.845  32.721  1.00  0.00     0.059 A 
ATOM     22  C   UNL A   1      37.413  33.608  33.762  1.00  0.00     0.211 A 
ATOM     23  C   UNL A   1      38.557  33.253  33.066  1.00  0.00     0.211 A 
ATOM     24  O   UNL A   1      37.635  34.627  34.641  1.00  0.00    -0.449 OA
ATOM     25  C   UNL A   1      38.580  32.193  32.158  1.00  0.00     0.168 A 
ATOM     26  O   UNL A   1      39.612  34.042  33.431  1.00  0.00    -0.449 OA
ATOM     27  C   UNL A   1      39.052  34.803  34.513  1.00  0.00     0.468 C 
BRANCH  20  28
ATOM     28  O   UNL A   1      35.052  33.162  34.245  1.00  0.00    -0.493 OA
ATOM     29  C   UNL A   1      33.968  33.547  33.405  1.00  0.00     0.278 C 
ENDBRANCH  20  28
BRANCH  25  30
ATOM     30  O   UNL A   1      39.653  31.769  31.432  1.00  0.00    -0.492 OA
ATOM     31  C   UNL A   1      40.864  31.491  32.126  1.00  0.00     0.278 C 
ENDBRANCH  25  30
ENDBRANCH   9  19
BRANCH  14  32
ATOM     32  C   UNL A   1      36.318  31.341  28.500  1.00  0.00     0.046 A 
ATOM     33  C   UNL A   1      35.087  30.775  28.164  1.00  0.00     0.029 A 
ATOM     34  C   UNL A   1      36.460  32.728  28.634  1.00  0.00     0.029 A 
ATOM     35  C   UNL A   1      34.004  31.607  27.884  1.00  0.00     0.041 A 
ATOM     36  C   UNL A   1      35.375  33.554  28.341  1.00  0.00     0.041 A 
ATOM     37  C   UNL A   1      34.163  32.986  27.957  1.00  0.00     0.123 A 
ATOM     38  F   UNL A   1      33.131  33.784  27.651  1.00  0.00    -0.207 F 
ENDBRANCH  14  32
ENDBRANCH   5   8
ENDBRANCH   3   4
ENDBRANCH   2   3
ENDBRANCH   1   2
BRANCH   1  39
ATOM     39  C   UNL A   1      40.159  23.303  27.090  1.00  0.00     0.002 C 
BRANCH  39  40
ATOM     40  C   UNL A   1      40.190  21.827  26.665  1.00  0.00     0.021 C 
BRANCH  40  41
ATOM     41  C   UNL A   1      41.274  21.026  27.371  1.00  0.00     0.116 C 
BRANCH  41  42
ATOM     42  N   UNL A   1      42.165  20.371  26.418  1.00  0.00    -0.352 N 
ATOM     43  C   UNL A   1      43.161  20.927  25.641  1.00  0.00     0.251 C 
ATOM     44  H   UNL A   1      42.039  19.399  26.315  1.00  0.00     0.163 HD
ATOM     45  O   UNL A   1      43.595  20.342  24.663  1.00  0.00    -0.269 OA
BRANCH  43  46
ATOM     46  C   UNL A   1      43.680  22.253  26.011  1.00  0.00     0.039 A 
ATOM     47  C   UNL A   1      44.446  22.419  27.165  1.00  0.00     0.014 A 
ATOM     48  C   UNL A   1      43.424  23.330  25.164  1.00  0.00     0.014 A 
ATOM     49  C   UNL A   1      45.030  23.660  27.406  1.00  0.00     0.010 A 
ATOM     50  C   UNL A   1      44.118  24.506  25.327  1.00  0.00     0.010 A 
ATOM     51  C   UNL A   1      44.893  24.694  26.464  1.00  0.00    -0.014 A 
BRANCH  51  52
ATOM     52  C   UNL A   1      45.652  25.934  26.623  1.00  0.00     0.031 A 
ATOM     53  C   UNL A   1      47.038  25.895  26.086  1.00  0.00     0.074 A 
ATOM     54  C   UNL A   1      45.145  27.091  27.101  1.00  0.00     0.049 A 
ATOM     55  N   UNL A   1      48.125  25.857  26.780  1.00  0.00    -0.248 NA
ATOM     56  C   UNL A   1      47.245  25.754  24.638  1.00  0.00     0.031 C 
ATOM     57  C   UNL A   1      43.758  27.412  27.455  1.00  0.00     0.029 A 
ATOM     58  N   UNL A   1      45.785  28.278  27.300  1.00  0.00    -0.354 N 
ATOM     59  C   UNL A   1      49.172  25.867  25.867  1.00  0.00     0.074 A 
ATOM     60  C   UNL A   1      48.577  25.670  24.568  1.00  0.00     0.031 C 
ATOM     61  C   UNL A   1      43.620  28.749  27.600  1.00  0.00     0.029 A 
ATOM     62  C   UNL A   1      44.938  29.349  27.547  1.00  0.00     0.049 A 
ATOM     63  H   UNL A   1      46.766  28.368  27.270  1.00  0.00     0.167 HD
ATOM     64  C   UNL A   1      50.422  26.259  26.240  1.00  0.00     0.031 A 
ATOM     65  C   UNL A   1      45.291  30.642  27.731  1.00  0.00     0.031 A 
ATOM     66  C   UNL A   1      50.543  26.349  27.673  1.00  0.00     0.049 A 
ATOM     67  C   UNL A   1      46.694  30.650  28.189  1.00  0.00     0.074 A 
ATOM     68  C   UNL A   1      50.505  25.462  28.728  1.00  0.00     0.029 A 
ATOM     69  N   UNL A   1      50.349  27.600  28.205  1.00  0.00    -0.354 N 
ATOM     70  N   UNL A   1      47.064  30.183  29.345  1.00  0.00    -0.248 NA
ATOM     71  C   UNL A   1      47.759  30.823  27.216  1.00  0.00     0.031 C 
ATOM     72  C   UNL A   1      49.880  26.177  29.793  1.00  0.00     0.029 A 
ATOM     73  C   UNL A   1      49.616  27.478  29.355  1.00  0.00     0.049 A 
ATOM     74  H   UNL A   1      50.682  28.444  27.824  1.00  0.00     0.167 HD
ATOM     75  C   UNL A   1      48.285  29.576  29.100  1.00  0.00     0.074 A 
ATOM     76  C   UNL A   1      48.731  30.141  27.829  1.00  0.00     0.031 C 
ATOM     77  C   UNL A   1      48.670  28.475  29.810  1.00  0.00     0.031 A 
BRANCH  64  78
ATOM     78  C   UNL A   1      51.383  26.990  25.336  1.00  0.00    -0.014 A 
ATOM     79  C   UNL A   1      51.055  28.295  24.921  1.00  0.00     0.009 A 
ATOM     80  C   UNL A   1      52.419  26.344  24.639  1.00  0.00     0.009 A 
ATOM     81  C   UNL A   1      51.676  28.886  23.814  1.00  0.00     0.001 A 
ATOM     82  C   UNL A   1      53.068  26.947  23.556  1.00  0.00     0.001 A 
ATOM     83  C   UNL A   1      52.675  28.206  23.126  1.00  0.00     0.000 A 
ENDBRANCH  64  78
BRANCH  65  84
ATOM     84  C   UNL A   1      44.563  31.873  27.378  1.00  0.00    -0.014 A 
ATOM     85  C   UNL A   1      44.241  32.830  28.352  1.00  0.00     0.009 A 
ATOM     86  C   UNL A   1      44.448  32.242  26.025  1.00  0.00     0.009 A 
ATOM     87  C   UNL A   1      43.861  34.127  27.984  1.00  0.00     0.001 A 
ATOM     88  C   UNL A   1      44.072  33.538  25.659  1.00  0.00     0.001 A 
ATOM     89  C   UNL A   1      43.795  34.486  26.639  1.00  0.00     0.000 A 
ENDBRANCH  65  84
BRANCH  77  90
ATOM     90  C   UNL A   1      47.875  28.143  31.051  1.00  0.00    -0.014 A 
ATOM     91  C   UNL A   1      48.213  28.615  32.333  1.00  0.00     0.009 A 
ATOM     92  C   UNL A   1      46.683  27.421  30.902  1.00  0.00     0.009 A 
ATOM     93  C   UNL A   1      47.398  28.339  33.437  1.00  0.00     0.001 A 
ATOM     94  C   UNL A   1      45.859  27.164  32.000  1.00  0.00     0.001 A 
ATOM     95  C   UNL A   1      46.220  27.617  33.267  1.00  0.00     0.000 A 
ENDBRANCH  77  90
ENDBRANCH  51  52
ENDBRANCH  43  46
ENDBRANCH  41  42
ENDBRANCH  40  41
ENDBRANCH  39  40
ENDBRANCH   1  39
TORSDOF 17
ENDMDL
MODEL 2
REMARK VINA RESULT:     -10.2      3.894     12.396
REMARK SMILES COc1cc([C@@H]2CC(=O)Nc3c(C(=O)NCCCCCCNC(=O)c4ccc(-c5c6nc(c(-c7ccccc7)c7ccc([nH]7)c(-c7ccccc7)c7nc(c(-c8ccccc8)c8ccc5[nH]8)C=C7)C=C6)cc4)cn(-c4ccc(F)cc4)c32)c(OC)c2c1OCO2
REMARK SMILES IDX 18 1 17 2 16 3 15 4 13 5 14 6 12 8 6 9 7 10 82 11 8 12 11 13
REMARK SMILES IDX 74 14 9 15 10 16 73 17 5 19 3 20 4 21 87 22 86 23 88 24
REMARK SMILES IDX 83 25 90 26 89 27 2 28 1 29 84 30 85 31 75 32 76 33 81 34
REMARK SMILES IDX 77 35 80 36 78 37 79 38 19 39 20 40 21 41 22 42 23 43 24 45
REMARK SMILES IDX 25 46 26 47 72 48 27 49 71 50 28 51 29 52 30 53 65 54 31 55
REMARK SMILES IDX 70 56 64 57 66 58 32 59 69 60 63 61 62 62 33 64 55 65 40 66
REMARK SMILES IDX 54 67 41 68 44 69 53 70 67 71 42 72 43 73 52 75 68 76 45 77
REMARK SMILES IDX 34 78 35 79 39 80 36 81 38 82 37 83 56 84 57 85 61 86 58 87
REMARK SMILES IDX 60 88 59 89 46 90 47 91 51 92 48 93 50 94 49 95
REMARK H PARENT 15 7 10 18 22 44 66 63 44 74
REMARK Flexibility Score: inf
ROOT
ATOM      1  C   UNL A   1      35.928  30.746  28.775  1.00  0.00     0.002 C 
ENDROOT
BRANCH   1   2
ATOM      2  C   UNL A   1      36.652  30.092  27.596  1.00  0.00     0.021 C 
BRANCH   2   3
ATOM      3  C   UNL A   1      38.077  29.636  27.935  1.00  0.00     0.116 C 
BRANCH   3   4
ATOM      4  N   UNL A   1      38.077  28.867  29.148  1.00  0.00    -0.352 N 
ATOM      5  C   UNL A   1      38.744  27.747  29.550  1.00  0.00     0.254 C 
ATOM      6  O   UNL A   1      38.490  27.390  30.705  1.00  0.00    -0.269 OA
ATOM      7  H   UNL A   1      37.467  29.223  29.834  1.00  0.00     0.163 HD
BRANCH   5   8
ATOM      8  C   UNL A   1      39.714  26.996  28.740  1.00  0.00     0.081 A 
ATOM      9  C   UNL A   1      42.254  25.937  26.197  1.00  0.00     0.082 C 
ATOM     10  C   UNL A   1      42.406  27.278  25.466  1.00  0.00     0.115 C 
ATOM     11  C   UNL A   1      41.286  26.058  27.344  1.00  0.00     0.055 A 
ATOM     12  C   UNL A   1      42.259  28.493  26.349  1.00  0.00     0.225 C 
ATOM     13  C   UNL A   1      40.798  27.257  27.839  1.00  0.00     0.076 A 
ATOM     14  N   UNL A   1      40.521  25.043  27.877  1.00  0.00    -0.317 N 
ATOM     15  O   UNL A   1      42.801  29.568  26.082  1.00  0.00    -0.275 OA
ATOM     16  N   UNL A   1      41.350  28.425  27.368  1.00  0.00    -0.324 N 
ATOM     17  C   UNL A   1      39.563  25.613  28.673  1.00  0.00     0.107 A 
ATOM     18  H   UNL A   1      41.072  29.268  27.793  1.00  0.00     0.170 HD
BRANCH   9  19
ATOM     19  C   UNL A   1      43.633  25.323  26.442  1.00  0.00     0.012 A 
ATOM     20  C   UNL A   1      45.414  23.952  25.426  1.00  0.00     0.165 A 
ATOM     21  C   UNL A   1      44.119  24.463  25.419  1.00  0.00     0.059 A 
ATOM     22  C   UNL A   1      46.247  24.360  26.445  1.00  0.00     0.211 A 
ATOM     23  C   UNL A   1      45.800  25.195  27.457  1.00  0.00     0.211 A 
ATOM     24  O   UNL A   1      47.572  24.060  26.566  1.00  0.00    -0.449 OA
ATOM     25  C   UNL A   1      44.493  25.683  27.501  1.00  0.00     0.168 A 
ATOM     26  O   UNL A   1      46.812  25.482  28.332  1.00  0.00    -0.449 OA
ATOM     27  C   UNL A   1      47.942  24.876  27.685  1.00  0.00     0.468 C 
BRANCH  20  28
ATOM     28  O   UNL A   1      45.751  23.178  24.357  1.00  0.00    -0.493 OA
ATOM     29  C   UNL A   1      44.640  22.617  23.665  1.00  0.00     0.278 C 
ENDBRANCH  20  28
BRANCH  25  30
ATOM     30  O   UNL A   1      43.966  26.508  28.450  1.00  0.00    -0.492 OA
ATOM     31  C   UNL A   1      43.770  25.985  29.758  1.00  0.00     0.278 C 
ENDBRANCH  25  30
ENDBRANCH   9  19
BRANCH  14  32
ATOM     32  C   UNL A   1      40.567  23.671  27.557  1.00  0.00     0.046 A 
ATOM     33  C   UNL A   1      41.584  22.868  28.076  1.00  0.00     0.029 A 
ATOM     34  C   UNL A   1      39.595  23.136  26.700  1.00  0.00     0.029 A 
ATOM     35  C   UNL A   1      41.677  21.536  27.676  1.00  0.00     0.041 A 
ATOM     36  C   UNL A   1      39.702  21.806  26.296  1.00  0.00     0.041 A 
ATOM     37  C   UNL A   1      40.748  21.023  26.777  1.00  0.00     0.123 A 
ATOM     38  F   UNL A   1      40.863  19.754  26.366  1.00  0.00    -0.207 F 
ENDBRANCH  14  32
ENDBRANCH   5   8
ENDBRANCH   3   4
ENDBRANCH   2   3
ENDBRANCH   1   2
BRANCH   1  39
ATOM     39  C   UNL A   1      34.432  31.012  28.541  1.00  0.00     0.002 C 
BRANCH  39  40
ATOM     40  C   UNL A   1      34.098  32.179  27.598  1.00  0.00     0.021 C 
BRANCH  40  41
ATOM     41  C   UNL A   1      34.799  33.474  27.981  1.00  0.00     0.116 C 
BRANCH  41  42
ATOM     42  N   UNL A   1      34.006  34.255  28.926  1.00  0.00    -0.352 N 
ATOM     43  C   UNL A   1      34.053  34.253  30.305  1.00  0.00     0.251 C 
ATOM     44  H   UNL A   1      33.349  34.869  28.524  1.00  0.00     0.163 HD
ATOM     45  O   UNL A   1      33.128  34.693  30.965  1.00  0.00    -0.269 OA
BRANCH  43  46
ATOM     46  C   UNL A   1      35.242  33.691  30.965  1.00  0.00     0.039 A 
ATOM     47  C   UNL A   1      36.506  34.235  30.734  1.00  0.00     0.014 A 
ATOM     48  C   UNL A   1      35.074  32.631  31.854  1.00  0.00     0.014 A 
ATOM     49  C   UNL A   1      37.583  33.763  31.480  1.00  0.00     0.010 A 
ATOM     50  C   UNL A   1      36.105  32.270  32.689  1.00  0.00     0.010 A 
ATOM     51  C   UNL A   1      37.372  32.802  32.485  1.00  0.00    -0.014 A 
BRANCH  51  52
ATOM     52  C   UNL A   1      38.461  32.439  33.389  1.00  0.00     0.031 A 
ATOM     53  C   UNL A   1      38.398  33.070  34.734  1.00  0.00     0.074 A 
ATOM     54  C   UNL A   1      39.410  31.516  33.121  1.00  0.00     0.049 A 
ATOM     55  N   UNL A   1      39.162  34.013  35.173  1.00  0.00    -0.248 NA
ATOM     56  C   UNL A   1      37.298  32.717  35.643  1.00  0.00     0.031 C 
ATOM     57  C   UNL A   1      39.516  30.613  31.969  1.00  0.00     0.029 A 
ATOM     58  N   UNL A   1      40.465  31.136  33.896  1.00  0.00    -0.354 N 
ATOM     59  C   UNL A   1      38.765  34.259  36.482  1.00  0.00     0.074 A 
ATOM     60  C   UNL A   1      37.535  33.533  36.675  1.00  0.00     0.031 C 
ATOM     61  C   UNL A   1      40.427  29.648  32.227  1.00  0.00     0.029 A 
ATOM     62  C   UNL A   1      41.102  29.981  33.465  1.00  0.00     0.049 A 
ATOM     63  H   UNL A   1      40.750  31.637  34.694  1.00  0.00     0.167 HD
ATOM     64  C   UNL A   1      39.605  34.867  37.364  1.00  0.00     0.031 A 
ATOM     65  C   UNL A   1      42.140  29.351  34.062  1.00  0.00     0.031 A 
ATOM     66  C   UNL A   1      40.746  35.443  36.699  1.00  0.00     0.049 A 
ATOM     67  C   UNL A   1      42.841  30.352  34.889  1.00  0.00     0.074 A 
ATOM     68  C   UNL A   1      40.955  36.464  35.796  1.00  0.00     0.029 A 
ATOM     69  N   UNL A   1      41.873  34.659  36.672  1.00  0.00    -0.354 N 
ATOM     70  N   UNL A   1      43.492  31.358  34.382  1.00  0.00    -0.248 NA
ATOM     71  C   UNL A   1      42.507  30.472  36.298  1.00  0.00     0.031 C 
ATOM     72  C   UNL A   1      42.026  36.014  34.967  1.00  0.00     0.029 A 
ATOM     73  C   UNL A   1      42.454  34.770  35.437  1.00  0.00     0.049 A 
ATOM     74  H   UNL A   1      42.209  34.110  37.416  1.00  0.00     0.167 HD
ATOM     75  C   UNL A   1      43.244  32.407  35.252  1.00  0.00     0.074 A 
ATOM     76  C   UNL A   1      42.778  31.768  36.479  1.00  0.00     0.031 C 
ATOM     77  C   UNL A   1      43.172  33.690  34.792  1.00  0.00     0.031 A 
BRANCH  64  78
ATOM     78  C   UNL A   1      39.647  34.560  38.840  1.00  0.00    -0.014 A 
ATOM     79  C   UNL A   1      39.885  33.232  39.245  1.00  0.00     0.009 A 
ATOM     80  C   UNL A   1      39.157  35.443  39.820  1.00  0.00     0.009 A 
ATOM     81  C   UNL A   1      39.571  32.795  40.537  1.00  0.00     0.001 A 
ATOM     82  C   UNL A   1      38.878  35.018  41.123  1.00  0.00     0.001 A 
ATOM     83  C   UNL A   1      39.058  33.688  41.472  1.00  0.00     0.000 A 
ENDBRANCH  64  78
BRANCH  65  84
ATOM     84  C   UNL A   1      42.467  27.915  34.107  1.00  0.00    -0.014 A 
ATOM     85  C   UNL A   1      43.678  27.430  33.590  1.00  0.00     0.009 A 
ATOM     86  C   UNL A   1      41.710  27.060  34.929  1.00  0.00     0.009 A 
ATOM     87  C   UNL A   1      44.139  26.150  33.924  1.00  0.00     0.001 A 
ATOM     88  C   UNL A   1      42.173  25.783  35.264  1.00  0.00     0.001 A 
ATOM     89  C   UNL A   1      43.395  25.335  34.775  1.00  0.00     0.000 A 
ENDBRANCH  65  84
BRANCH  77  90
ATOM     90  C   UNL A   1      43.672  33.948  33.390  1.00  0.00    -0.014 A 
ATOM     91  C   UNL A   1      44.999  34.315  33.099  1.00  0.00     0.009 A 
ATOM     92  C   UNL A   1      42.802  33.704  32.319  1.00  0.00     0.009 A 
ATOM     93  C   UNL A   1      45.428  34.468  31.775  1.00  0.00     0.001 A 
ATOM     94  C   UNL A   1      43.235  33.835  30.998  1.00  0.00     0.001 A 
ATOM     95  C   UNL A   1      44.546  34.224  30.727  1.00  0.00     0.000 A 
ENDBRANCH  77  90
ENDBRANCH  51  52
ENDBRANCH  43  46
ENDBRANCH  41  42
ENDBRANCH  40  41
ENDBRANCH  39  40
ENDBRANCH   1  39
TORSDOF 17
ENDMDL
MODEL 3
REMARK VINA RESULT:     -10.1     10.581     15.029
REMARK SMILES COc1cc([C@@H]2CC(=O)Nc3c(C(=O)NCCCCCCNC(=O)c4ccc(-c5c6nc(c(-c7ccccc7)c7ccc([nH]7)c(-c7ccccc7)c7nc(c(-c8ccccc8)c8ccc5[nH]8)C=C7)C=C6)cc4)cn(-c4ccc(F)cc4)c32)c(OC)c2c1OCO2
REMARK SMILES IDX 18 1 17 2 16 3 15 4 13 5 14 6 12 8 6 9 7 10 82 11 8 12 11 13
REMARK SMILES IDX 74 14 9 15 10 16 73 17 5 19 3 20 4 21 87 22 86 23 88 24
REMARK SMILES IDX 83 25 90 26 89 27 2 28 1 29 84 30 85 31 75 32 76 33 81 34
REMARK SMILES IDX 77 35 80 36 78 37 79 38 19 39 20 40 21 41 22 42 23 43 24 45
REMARK SMILES IDX 25 46 26 47 72 48 27 49 71 50 28 51 29 52 30 53 65 54 31 55
REMARK SMILES IDX 70 56 64 57 66 58 32 59 69 60 63 61 62 62 33 64 55 65 40 66
REMARK SMILES IDX 54 67 41 68 44 69 53 70 67 71 42 72 43 73 52 75 68 76 45 77
REMARK SMILES IDX 34 78 35 79 39 80 36 81 38 82 37 83 56 84 57 85 61 86 58 87
REMARK SMILES IDX 60 88 59 89 46 90 47 91 51 92 48 93 50 94 49 95
REMARK H PARENT 15 7 10 18 22 44 66 63 44 74
REMARK Flexibility Score: inf
ROOT
ATOM      1  C   UNL A   1      46.929  19.904  37.722  1.00  0.00     0.002 C 
ENDROOT
BRANCH   1   2
ATOM      2  C   UNL A   1      47.699  19.310  38.905  1.00  0.00     0.021 C 
BRANCH   2   3
ATOM      3  C   UNL A   1      47.800  20.261  40.104  1.00  0.00     0.116 C 
BRANCH   3   4
ATOM      4  N   UNL A   1      48.816  19.807  41.013  1.00  0.00    -0.352 N 
ATOM      5  C   UNL A   1      48.820  18.915  42.045  1.00  0.00     0.254 C 
ATOM      6  O   UNL A   1      49.921  18.770  42.587  1.00  0.00    -0.269 OA
ATOM      7  H   UNL A   1      49.692  20.226  40.858  1.00  0.00     0.163 HD
BRANCH   5   8
ATOM      8  C   UNL A   1      47.659  18.141  42.508  1.00  0.00     0.081 A 
ATOM      9  C   UNL A   1      44.274  17.052  43.687  1.00  0.00     0.082 C 
ATOM     10  C   UNL A   1      43.576  18.419  43.647  1.00  0.00     0.115 C 
ATOM     11  C   UNL A   1      45.698  17.162  43.212  1.00  0.00     0.055 A 
ATOM     12  C   UNL A   1      44.053  19.333  42.543  1.00  0.00     0.225 C 
ATOM     13  C   UNL A   1      46.235  18.274  42.582  1.00  0.00     0.076 A 
ATOM     14  N   UNL A   1      46.745  16.341  43.572  1.00  0.00    -0.317 N 
ATOM     15  O   UNL A   1      43.332  20.208  42.060  1.00  0.00    -0.275 OA
ATOM     16  N   UNL A   1      45.379  19.286  42.216  1.00  0.00    -0.324 N 
ATOM     17  C   UNL A   1      47.910  16.950  43.187  1.00  0.00     0.107 A 
ATOM     18  H   UNL A   1      45.746  20.027  41.681  1.00  0.00     0.170 HD
BRANCH   9  19
ATOM     19  C   UNL A   1      43.361  15.989  43.076  1.00  0.00     0.012 A 
ATOM     20  C   UNL A   1      42.711  14.890  40.965  1.00  0.00     0.165 A 
ATOM     21  C   UNL A   1      43.370  15.904  41.657  1.00  0.00     0.059 A 
ATOM     22  C   UNL A   1      42.085  13.919  41.715  1.00  0.00     0.211 A 
ATOM     23  C   UNL A   1      42.056  13.978  43.100  1.00  0.00     0.211 A 
ATOM     24  O   UNL A   1      41.484  12.796  41.230  1.00  0.00    -0.449 OA
ATOM     25  C   UNL A   1      42.667  15.008  43.817  1.00  0.00     0.168 A 
ATOM     26  O   UNL A   1      41.405  12.893  43.618  1.00  0.00    -0.449 OA
ATOM     27  C   UNL A   1      41.175  12.098  42.443  1.00  0.00     0.468 C 
BRANCH  20  28
ATOM     28  O   UNL A   1      42.847  14.915  39.610  1.00  0.00    -0.493 OA
ATOM     29  C   UNL A   1      43.788  15.870  39.130  1.00  0.00     0.278 C 
ENDBRANCH  20  28
BRANCH  25  30
ATOM     30  O   UNL A   1      42.695  15.147  45.173  1.00  0.00    -0.492 OA
ATOM     31  C   UNL A   1      43.344  14.137  45.936  1.00  0.00     0.278 C 
ENDBRANCH  25  30
ENDBRANCH   9  19
BRANCH  14  32
ATOM     32  C   UNL A   1      46.689  15.165  44.349  1.00  0.00     0.046 A 
ATOM     33  C   UNL A   1      46.991  15.215  45.710  1.00  0.00     0.029 A 
ATOM     34  C   UNL A   1      46.347  13.954  43.731  1.00  0.00     0.029 A 
ATOM     35  C   UNL A   1      47.028  14.032  46.448  1.00  0.00     0.041 A 
ATOM     36  C   UNL A   1      46.398  12.775  44.473  1.00  0.00     0.041 A 
ATOM     37  C   UNL A   1      46.750  12.823  45.819  1.00  0.00     0.123 A 
ATOM     38  F   UNL A   1      46.822  11.685  46.522  1.00  0.00    -0.207 F 
ENDBRANCH  14  32
ENDBRANCH   5   8
ENDBRANCH   3   4
ENDBRANCH   2   3
ENDBRANCH   1   2
BRANCH   1  39
ATOM     39  C   UNL A   1      46.962  21.439  37.642  1.00  0.00     0.002 C 
BRANCH  39  40
ATOM     40  C   UNL A   1      45.707  22.108  37.061  1.00  0.00     0.021 C 
BRANCH  40  41
ATOM     41  C   UNL A   1      45.677  23.613  37.284  1.00  0.00     0.116 C 
BRANCH  41  42
ATOM     42  N   UNL A   1      44.310  24.124  37.315  1.00  0.00    -0.352 N 
ATOM     43  C   UNL A   1      43.637  24.854  36.357  1.00  0.00     0.251 C 
ATOM     44  H   UNL A   1      43.797  23.919  38.131  1.00  0.00     0.163 HD
ATOM     45  O   UNL A   1      42.636  25.491  36.641  1.00  0.00    -0.269 OA
BRANCH  43  46
ATOM     46  C   UNL A   1      44.162  24.860  34.982  1.00  0.00     0.039 A 
ATOM     47  C   UNL A   1      44.260  23.674  34.255  1.00  0.00     0.014 A 
ATOM     48  C   UNL A   1      44.521  26.079  34.410  1.00  0.00     0.014 A 
ATOM     49  C   UNL A   1      44.633  23.740  32.916  1.00  0.00     0.010 A 
ATOM     50  C   UNL A   1      44.746  26.157  33.056  1.00  0.00     0.010 A 
ATOM     51  C   UNL A   1      44.841  24.991  32.307  1.00  0.00    -0.014 A 
BRANCH  51  52
ATOM     52  C   UNL A   1      45.053  25.076  30.864  1.00  0.00     0.031 A 
ATOM     53  C   UNL A   1      46.193  25.934  30.445  1.00  0.00     0.074 A 
ATOM     54  C   UNL A   1      44.376  24.358  29.942  1.00  0.00     0.049 A 
ATOM     55  N   UNL A   1      46.112  27.094  29.887  1.00  0.00    -0.248 NA
ATOM     56  C   UNL A   1      47.563  25.531  30.794  1.00  0.00     0.031 C 
ATOM     57  C   UNL A   1      43.391  23.289  30.149  1.00  0.00     0.029 A 
ATOM     58  N   UNL A   1      44.496  24.393  28.584  1.00  0.00    -0.354 N 
ATOM     59  C   UNL A   1      47.418  27.503  29.644  1.00  0.00     0.074 A 
ATOM     60  C   UNL A   1      48.269  26.570  30.340  1.00  0.00     0.031 C 
ATOM     61  C   UNL A   1      43.181  22.630  28.988  1.00  0.00     0.029 A 
ATOM     62  C   UNL A   1      43.857  23.351  27.928  1.00  0.00     0.049 A 
ATOM     63  H   UNL A   1      44.996  25.097  28.110  1.00  0.00     0.167 HD
ATOM     64  C   UNL A   1      47.690  28.452  28.706  1.00  0.00     0.031 A 
ATOM     65  C   UNL A   1      43.851  23.107  26.597  1.00  0.00     0.031 A 
ATOM     66  C   UNL A   1      46.493  29.126  28.272  1.00  0.00     0.049 A 
ATOM     67  C   UNL A   1      44.128  24.388  25.918  1.00  0.00     0.074 A 
ATOM     68  C   UNL A   1      45.563  29.963  28.849  1.00  0.00     0.029 A 
ATOM     69  N   UNL A   1      45.918  28.630  27.127  1.00  0.00    -0.354 N 
ATOM     70  N   UNL A   1      43.301  25.391  25.935  1.00  0.00    -0.248 NA
ATOM     71  C   UNL A   1      45.492  24.711  25.537  1.00  0.00     0.031 C 
ATOM     72  C   UNL A   1      44.319  29.612  28.243  1.00  0.00     0.029 A 
ATOM     73  C   UNL A   1      44.559  28.618  27.290  1.00  0.00     0.049 A 
ATOM     74  H   UNL A   1      46.402  28.334  26.323  1.00  0.00     0.167 HD
ATOM     75  C   UNL A   1      44.113  26.510  26.026  1.00  0.00     0.074 A 
ATOM     76  C   UNL A   1      45.434  26.043  25.614  1.00  0.00     0.031 C 
ATOM     77  C   UNL A   1      43.691  27.623  26.694  1.00  0.00     0.031 A 
BRANCH  64  78
ATOM     78  C   UNL A   1      48.937  28.467  27.858  1.00  0.00    -0.014 A 
ATOM     79  C   UNL A   1      49.037  27.548  26.794  1.00  0.00     0.009 A 
ATOM     80  C   UNL A   1      50.121  29.117  28.248  1.00  0.00     0.009 A 
ATOM     81  C   UNL A   1      50.272  27.239  26.212  1.00  0.00     0.001 A 
ATOM     82  C   UNL A   1      51.350  28.837  27.643  1.00  0.00     0.001 A 
ATOM     83  C   UNL A   1      51.429  27.877  26.645  1.00  0.00     0.000 A 
ENDBRANCH  64  78
BRANCH  65  84
ATOM     84  C   UNL A   1      43.793  21.823  25.877  1.00  0.00    -0.014 A 
ATOM     85  C   UNL A   1      44.946  21.256  25.312  1.00  0.00     0.009 A 
ATOM     86  C   UNL A   1      42.651  21.012  26.004  1.00  0.00     0.009 A 
ATOM     87  C   UNL A   1      44.969  19.908  24.932  1.00  0.00     0.001 A 
ATOM     88  C   UNL A   1      42.676  19.665  25.626  1.00  0.00     0.001 A 
ATOM     89  C   UNL A   1      43.840  19.109  25.106  1.00  0.00     0.000 A 
ENDBRANCH  65  84
BRANCH  77  90
ATOM     90  C   UNL A   1      42.225  27.700  27.049  1.00  0.00    -0.014 A 
ATOM     91  C   UNL A   1      41.639  26.940  28.078  1.00  0.00     0.009 A 
ATOM     92  C   UNL A   1      41.433  28.654  26.395  1.00  0.00     0.009 A 
ATOM     93  C   UNL A   1      40.291  27.107  28.415  1.00  0.00     0.001 A 
ATOM     94  C   UNL A   1      40.093  28.835  26.746  1.00  0.00     0.001 A 
ATOM     95  C   UNL A   1      39.521  28.057  27.751  1.00  0.00     0.000 A 
ENDBRANCH  77  90
ENDBRANCH  51  52
ENDBRANCH  43  46
ENDBRANCH  41  42
ENDBRANCH  40  41
ENDBRANCH  39  40
ENDBRANCH   1  39
TORSDOF 17
ENDMDL
