MODEL 1
REMARK VINA RESULT:     -10.7      0.000      0.000
REMARK SMILES CC[C@H]1CCCC[C@@H]1C1(C(=O)NCCCCCCNC(=O)c2ccc(-c3c4nc(c(-c5ccccc5)c5ccc([nH]5)c(-c5ccccc5)c5nc(c(-c6ccccc6)c6ccc3[nH]6)C=C5)C=C4)cc2)CC1
REMARK SMILES IDX 15 1 14 2 13 3 12 4 10 5 11 6 9 8 70 9 71 10 8 11 3 12 4 13
REMARK SMILES IDX 5 14 7 15 6 16 2 17 1 18 16 19 17 20 18 21 19 22 20 23 21 25
REMARK SMILES IDX 22 26 23 27 69 28 24 29 68 30 25 31 26 32 27 33 62 34 28 35
REMARK SMILES IDX 67 36 61 37 63 38 29 39 66 40 60 41 59 42 30 44 52 45 37 46
REMARK SMILES IDX 51 47 38 48 41 49 50 50 64 51 39 52 40 53 49 55 65 56 42 57
REMARK SMILES IDX 31 58 32 59 36 60 33 61 35 62 34 63 53 64 54 65 58 66 55 67
REMARK SMILES IDX 57 68 56 69 43 70 44 71 48 72 45 73 47 74 46 75
REMARK H PARENT 12 7 19 24 63 43 41 54
REMARK Flexibility Score: inf
ROOT
ATOM      1  C   UNL A   1      32.519  29.215  26.773  1.00  0.00     0.002 C 
ENDROOT
BRANCH   1   2
ATOM      2  C   UNL A   1      31.728  27.970  27.207  1.00  0.00     0.021 C 
BRANCH   2   3
ATOM      3  C   UNL A   1      32.110  26.687  26.472  1.00  0.00     0.116 C 
BRANCH   3   4
ATOM      4  N   UNL A   1      31.219  25.597  26.784  1.00  0.00    -0.356 N 
ATOM      5  C   UNL A   1      31.282  24.239  26.706  1.00  0.00     0.226 C 
ATOM      6  O   UNL A   1      30.327  23.638  27.197  1.00  0.00    -0.274 OA
ATOM      7  H   UNL A   1      30.355  25.910  27.137  1.00  0.00     0.163 HD
BRANCH   5   8
ATOM      8  C   UNL A   1      32.427  23.436  26.091  1.00  0.00     0.052 C 
ATOM      9  C   UNL A   1      33.298  22.727  27.137  1.00  0.00     0.018 C 
ATOM     10  C   UNL A   1      33.900  23.768  26.252  1.00  0.00     0.018 C 
BRANCH   8  11
ATOM     11  C   UNL A   1      32.009  22.735  24.750  1.00  0.00     0.008 C 
ATOM     12  C   UNL A   1      33.089  22.007  23.900  1.00  0.00    -0.007 C 
ATOM     13  C   UNL A   1      33.846  22.946  22.940  1.00  0.00     0.004 C 
ATOM     14  C   UNL A   1      32.943  23.894  22.156  1.00  0.00     0.000 C 
ATOM     15  C   UNL A   1      31.137  23.681  23.902  1.00  0.00     0.005 C 
ATOM     16  C   UNL A   1      31.948  24.637  23.039  1.00  0.00     0.000 C 
BRANCH  12  17
ATOM     17  C   UNL A   1      32.413  20.845  23.113  1.00  0.00     0.000 C 
ATOM     18  C   UNL A   1      32.520  19.490  23.797  1.00  0.00     0.004 C 
ENDBRANCH  12  17
ENDBRANCH   8  11
ENDBRANCH   5   8
ENDBRANCH   3   4
ENDBRANCH   2   3
ENDBRANCH   1   2
BRANCH   1  19
ATOM     19  C   UNL A   1      31.760  30.219  25.898  1.00  0.00     0.002 C 
BRANCH  19  20
ATOM     20  C   UNL A   1      31.486  31.578  26.543  1.00  0.00     0.021 C 
BRANCH  20  21
ATOM     21  C   UNL A   1      32.711  32.243  27.148  1.00  0.00     0.116 C 
BRANCH  21  22
ATOM     22  N   UNL A   1      32.455  33.626  27.517  1.00  0.00    -0.352 N 
ATOM     23  C   UNL A   1      33.126  34.410  28.422  1.00  0.00     0.251 C 
ATOM     24  H   UNL A   1      31.700  34.057  27.055  1.00  0.00     0.163 HD
ATOM     25  O   UNL A   1      32.669  35.494  28.767  1.00  0.00    -0.269 OA
BRANCH  23  26
ATOM     26  C   UNL A   1      34.398  33.924  28.996  1.00  0.00     0.039 A 
ATOM     27  C   UNL A   1      34.378  33.264  30.227  1.00  0.00     0.014 A 
ATOM     28  C   UNL A   1      35.602  34.108  28.311  1.00  0.00     0.014 A 
ATOM     29  C   UNL A   1      35.564  32.744  30.748  1.00  0.00     0.010 A 
ATOM     30  C   UNL A   1      36.766  33.519  28.792  1.00  0.00     0.010 A 
ATOM     31  C   UNL A   1      36.761  32.842  30.021  1.00  0.00    -0.014 A 
BRANCH  31  32
ATOM     32  C   UNL A   1      38.027  32.267  30.537  1.00  0.00     0.031 A 
ATOM     33  C   UNL A   1      38.558  30.984  29.959  1.00  0.00     0.074 A 
ATOM     34  C   UNL A   1      38.666  32.862  31.562  1.00  0.00     0.049 A 
ATOM     35  N   UNL A   1      39.607  30.287  30.318  1.00  0.00    -0.248 NA
ATOM     36  C   UNL A   1      37.792  30.388  28.851  1.00  0.00     0.031 C 
ATOM     37  C   UNL A   1      38.236  34.090  32.233  1.00  0.00     0.029 A 
ATOM     38  N   UNL A   1      39.813  32.506  32.226  1.00  0.00    -0.354 N 
ATOM     39  C   UNL A   1      39.614  29.169  29.494  1.00  0.00     0.074 A 
ATOM     40  C   UNL A   1      38.438  29.249  28.656  1.00  0.00     0.031 C 
ATOM     41  C   UNL A   1      39.122  34.401  33.192  1.00  0.00     0.029 A 
ATOM     42  C   UNL A   1      40.158  33.373  33.233  1.00  0.00     0.049 A 
ATOM     43  H   UNL A   1      40.340  31.706  32.000  1.00  0.00     0.167 HD
ATOM     44  C   UNL A   1      40.530  28.173  29.425  1.00  0.00     0.031 A 
ATOM     45  C   UNL A   1      41.189  33.340  34.098  1.00  0.00     0.031 A 
ATOM     46  C   UNL A   1      41.705  28.099  30.250  1.00  0.00     0.049 A 
ATOM     47  C   UNL A   1      42.183  32.215  34.014  1.00  0.00     0.074 A 
ATOM     48  C   UNL A   1      42.721  27.160  30.220  1.00  0.00     0.029 A 
ATOM     49  N   UNL A   1      42.020  29.000  31.255  1.00  0.00    -0.354 N 
ATOM     50  N   UNL A   1      42.211  31.198  33.187  1.00  0.00    -0.248 NA
ATOM     51  C   UNL A   1      43.293  32.239  34.976  1.00  0.00     0.031 C 
ATOM     52  C   UNL A   1      43.625  27.464  31.244  1.00  0.00     0.029 A 
ATOM     53  C   UNL A   1      43.203  28.626  31.869  1.00  0.00     0.049 A 
ATOM     54  H   UNL A   1      41.483  29.789  31.495  1.00  0.00     0.167 HD
ATOM     55  C   UNL A   1      43.356  30.480  33.508  1.00  0.00     0.074 A 
ATOM     56  C   UNL A   1      44.002  31.186  34.595  1.00  0.00     0.031 C 
ATOM     57  C   UNL A   1      43.832  29.340  32.950  1.00  0.00     0.031 A 
BRANCH  44  58
ATOM     58  C   UNL A   1      40.283  27.076  28.426  1.00  0.00    -0.014 A 
ATOM     59  C   UNL A   1      39.498  25.957  28.750  1.00  0.00     0.009 A 
ATOM     60  C   UNL A   1      40.821  27.173  27.134  1.00  0.00     0.009 A 
ATOM     61  C   UNL A   1      39.292  24.941  27.815  1.00  0.00     0.001 A 
ATOM     62  C   UNL A   1      40.587  26.171  26.191  1.00  0.00     0.001 A 
ATOM     63  C   UNL A   1      39.833  25.051  26.536  1.00  0.00     0.000 A 
ENDBRANCH  44  58
BRANCH  45  64
ATOM     64  C   UNL A   1      41.348  34.417  35.111  1.00  0.00    -0.014 A 
ATOM     65  C   UNL A   1      40.754  34.296  36.377  1.00  0.00     0.009 A 
ATOM     66  C   UNL A   1      42.090  35.572  34.817  1.00  0.00     0.009 A 
ATOM     67  C   UNL A   1      40.875  35.322  37.316  1.00  0.00     0.001 A 
ATOM     68  C   UNL A   1      42.234  36.583  35.771  1.00  0.00     0.001 A 
ATOM     69  C   UNL A   1      41.618  36.462  37.015  1.00  0.00     0.000 A 
ENDBRANCH  45  64
BRANCH  57  70
ATOM     70  C   UNL A   1      45.134  28.806  33.479  1.00  0.00    -0.014 A 
ATOM     71  C   UNL A   1      46.363  29.207  32.936  1.00  0.00     0.009 A 
ATOM     72  C   UNL A   1      45.126  27.921  34.570  1.00  0.00     0.009 A 
ATOM     73  C   UNL A   1      47.560  28.705  33.453  1.00  0.00     0.001 A 
ATOM     74  C   UNL A   1      46.324  27.446  35.104  1.00  0.00     0.001 A 
ATOM     75  C   UNL A   1      47.539  27.831  34.541  1.00  0.00     0.000 A 
ENDBRANCH  57  70
ENDBRANCH  31  32
ENDBRANCH  23  26
ENDBRANCH  21  22
ENDBRANCH  20  21
ENDBRANCH  19  20
ENDBRANCH   1  19
TORSDOF 15
ENDMDL
MODEL 2
REMARK VINA RESULT:     -10.5      3.872      8.918
REMARK SMILES CC[C@H]1CCCC[C@@H]1C1(C(=O)NCCCCCCNC(=O)c2ccc(-c3c4nc(c(-c5ccccc5)c5ccc([nH]5)c(-c5ccccc5)c5nc(c(-c6ccccc6)c6ccc3[nH]6)C=C5)C=C4)cc2)CC1
REMARK SMILES IDX 15 1 14 2 13 3 12 4 10 5 11 6 9 8 70 9 71 10 8 11 3 12 4 13
REMARK SMILES IDX 5 14 7 15 6 16 2 17 1 18 16 19 17 20 18 21 19 22 20 23 21 25
REMARK SMILES IDX 22 26 23 27 69 28 24 29 68 30 25 31 26 32 27 33 62 34 28 35
REMARK SMILES IDX 67 36 61 37 63 38 29 39 66 40 60 41 59 42 30 44 52 45 37 46
REMARK SMILES IDX 51 47 38 48 41 49 50 50 64 51 39 52 40 53 49 55 65 56 42 57
REMARK SMILES IDX 31 58 32 59 36 60 33 61 35 62 34 63 53 64 54 65 58 66 55 67
REMARK SMILES IDX 57 68 56 69 43 70 44 71 48 72 45 73 47 74 46 75
REMARK H PARENT 12 7 19 24 63 43 41 54
REMARK Flexibility Score: inf
ROOT
ATOM      1  C   UNL A   1      36.885  21.963  24.443  1.00  0.00     0.002 C 
ENDROOT
BRANCH   1   2
ATOM      2  C   UNL A   1      36.854  23.086  25.493  1.00  0.00     0.021 C 
BRANCH   2   3
ATOM      3  C   UNL A   1      35.454  23.469  25.971  1.00  0.00     0.116 C 
BRANCH   3   4
ATOM      4  N   UNL A   1      34.459  23.279  24.945  1.00  0.00    -0.356 N 
ATOM      5  C   UNL A   1      33.218  23.781  24.692  1.00  0.00     0.226 C 
ATOM      6  O   UNL A   1      32.726  23.447  23.615  1.00  0.00    -0.274 OA
ATOM      7  H   UNL A   1      34.745  22.628  24.264  1.00  0.00     0.163 HD
BRANCH   5   8
ATOM      8  C   UNL A   1      32.431  24.714  25.610  1.00  0.00     0.052 C 
ATOM      9  C   UNL A   1      31.836  24.000  26.831  1.00  0.00     0.018 C 
ATOM     10  C   UNL A   1      30.931  24.644  25.833  1.00  0.00     0.018 C 
BRANCH   8  11
ATOM     11  C   UNL A   1      33.091  26.134  25.722  1.00  0.00     0.008 C 
ATOM     12  C   UNL A   1      32.270  27.313  26.319  1.00  0.00    -0.007 C 
ATOM     13  C   UNL A   1      31.384  28.027  25.279  1.00  0.00     0.004 C 
ATOM     14  C   UNL A   1      32.095  28.339  23.964  1.00  0.00     0.000 C 
ATOM     15  C   UNL A   1      33.776  26.511  24.394  1.00  0.00     0.005 C 
ATOM     16  C   UNL A   1      32.827  27.137  23.382  1.00  0.00     0.000 C 
BRANCH  12  17
ATOM     17  C   UNL A   1      33.248  28.320  26.991  1.00  0.00     0.000 C 
ATOM     18  C   UNL A   1      32.642  29.692  27.251  1.00  0.00     0.004 C 
ENDBRANCH  12  17
ENDBRANCH   8  11
ENDBRANCH   5   8
ENDBRANCH   3   4
ENDBRANCH   2   3
ENDBRANCH   1   2
BRANCH   1  19
ATOM     19  C   UNL A   1      36.668  20.542  24.976  1.00  0.00     0.002 C 
BRANCH  19  20
ATOM     20  C   UNL A   1      37.905  19.644  24.976  1.00  0.00     0.021 C 
BRANCH  20  21
ATOM     21  C   UNL A   1      39.076  20.188  25.777  1.00  0.00     0.116 C 
BRANCH  21  22
ATOM     22  N   UNL A   1      40.195  19.261  25.807  1.00  0.00    -0.352 N 
ATOM     23  C   UNL A   1      41.517  19.521  26.065  1.00  0.00     0.251 C 
ATOM     24  H   UNL A   1      39.974  18.321  25.618  1.00  0.00     0.163 HD
ATOM     25  O   UNL A   1      42.373  18.667  25.862  1.00  0.00    -0.269 OA
BRANCH  23  26
ATOM     26  C   UNL A   1      41.906  20.854  26.572  1.00  0.00     0.039 A 
ATOM     27  C   UNL A   1      42.310  21.835  25.663  1.00  0.00     0.014 A 
ATOM     28  C   UNL A   1      41.857  21.135  27.941  1.00  0.00     0.014 A 
ATOM     29  C   UNL A   1      42.616  23.116  26.124  1.00  0.00     0.010 A 
ATOM     30  C   UNL A   1      42.084  22.432  28.387  1.00  0.00     0.010 A 
ATOM     31  C   UNL A   1      42.478  23.432  27.485  1.00  0.00    -0.014 A 
BRANCH  31  32
ATOM     32  C   UNL A   1      42.764  24.796  27.994  1.00  0.00     0.031 A 
ATOM     33  C   UNL A   1      44.168  25.174  28.376  1.00  0.00     0.074 A 
ATOM     34  C   UNL A   1      41.755  25.671  28.171  1.00  0.00     0.049 A 
ATOM     35  N   UNL A   1      44.610  26.290  28.901  1.00  0.00    -0.248 NA
ATOM     36  C   UNL A   1      45.210  24.155  28.167  1.00  0.00     0.031 C 
ATOM     37  C   UNL A   1      40.345  25.414  27.871  1.00  0.00     0.029 A 
ATOM     38  N   UNL A   1      41.763  26.956  28.653  1.00  0.00    -0.354 N 
ATOM     39  C   UNL A   1      45.971  26.097  29.101  1.00  0.00     0.074 A 
ATOM     40  C   UNL A   1      46.274  24.743  28.693  1.00  0.00     0.031 C 
ATOM     41  C   UNL A   1      39.629  26.515  28.150  1.00  0.00     0.029 A 
ATOM     42  C   UNL A   1      40.521  27.539  28.687  1.00  0.00     0.049 A 
ATOM     43  H   UNL A   1      42.582  27.416  28.947  1.00  0.00     0.167 HD
ATOM     44  C   UNL A   1      46.892  26.976  29.562  1.00  0.00     0.031 A 
ATOM     45  C   UNL A   1      40.140  28.759  29.109  1.00  0.00     0.031 A 
ATOM     46  C   UNL A   1      46.594  28.326  29.957  1.00  0.00     0.049 A 
ATOM     47  C   UNL A   1      41.179  29.711  29.634  1.00  0.00     0.074 A 
ATOM     48  C   UNL A   1      47.465  29.311  30.386  1.00  0.00     0.029 A 
ATOM     49  N   UNL A   1      45.322  28.879  29.971  1.00  0.00    -0.354 N 
ATOM     50  N   UNL A   1      42.473  29.537  29.757  1.00  0.00    -0.248 NA
ATOM     51  C   UNL A   1      40.706  31.033  30.070  1.00  0.00     0.031 C 
ATOM     52  C   UNL A   1      46.714  30.446  30.712  1.00  0.00     0.029 A 
ATOM     53  C   UNL A   1      45.383  30.186  30.426  1.00  0.00     0.049 A 
ATOM     54  H   UNL A   1      44.500  28.413  29.697  1.00  0.00     0.167 HD
ATOM     55  C   UNL A   1      42.971  30.735  30.253  1.00  0.00     0.074 A 
ATOM     56  C   UNL A   1      41.843  31.631  30.394  1.00  0.00     0.031 C 
ATOM     57  C   UNL A   1      44.250  31.064  30.560  1.00  0.00     0.031 A 
BRANCH  44  58
ATOM     58  C   UNL A   1      48.313  26.492  29.674  1.00  0.00    -0.014 A 
ATOM     59  C   UNL A   1      49.222  26.651  28.615  1.00  0.00     0.009 A 
ATOM     60  C   UNL A   1      48.755  25.894  30.863  1.00  0.00     0.009 A 
ATOM     61  C   UNL A   1      50.532  26.182  28.731  1.00  0.00     0.001 A 
ATOM     62  C   UNL A   1      50.075  25.455  30.987  1.00  0.00     0.001 A 
ATOM     63  C   UNL A   1      50.958  25.589  29.918  1.00  0.00     0.000 A 
ENDBRANCH  44  58
BRANCH  45  64
ATOM     64  C   UNL A   1      38.711  29.162  29.038  1.00  0.00    -0.014 A 
ATOM     65  C   UNL A   1      37.880  29.040  30.163  1.00  0.00     0.009 A 
ATOM     66  C   UNL A   1      38.168  29.665  27.846  1.00  0.00     0.009 A 
ATOM     67  C   UNL A   1      36.530  29.386  30.087  1.00  0.00     0.001 A 
ATOM     68  C   UNL A   1      36.824  30.040  27.782  1.00  0.00     0.001 A 
ATOM     69  C   UNL A   1      36.004  29.890  28.898  1.00  0.00     0.000 A 
ENDBRANCH  45  64
BRANCH  57  70
ATOM     70  C   UNL A   1      44.503  32.465  31.042  1.00  0.00    -0.014 A 
ATOM     71  C   UNL A   1      44.761  33.512  30.145  1.00  0.00     0.009 A 
ATOM     72  C   UNL A   1      44.436  32.746  32.417  1.00  0.00     0.009 A 
ATOM     73  C   UNL A   1      44.982  34.807  30.618  1.00  0.00     0.001 A 
ATOM     74  C   UNL A   1      44.625  34.047  32.883  1.00  0.00     0.001 A 
ATOM     75  C   UNL A   1      44.906  35.075  31.985  1.00  0.00     0.000 A 
ENDBRANCH  57  70
ENDBRANCH  31  32
ENDBRANCH  23  26
ENDBRANCH  21  22
ENDBRANCH  20  21
ENDBRANCH  19  20
ENDBRANCH   1  19
TORSDOF 15
ENDMDL
MODEL 3
REMARK VINA RESULT:     -10.5      4.438      9.372
REMARK SMILES CC[C@H]1CCCC[C@@H]1C1(C(=O)NCCCCCCNC(=O)c2ccc(-c3c4nc(c(-c5ccccc5)c5ccc([nH]5)c(-c5ccccc5)c5nc(c(-c6ccccc6)c6ccc3[nH]6)C=C5)C=C4)cc2)CC1
REMARK SMILES IDX 15 1 14 2 13 3 12 4 10 5 11 6 9 8 70 9 71 10 8 11 3 12 4 13
REMARK SMILES IDX 5 14 7 15 6 16 2 17 1 18 16 19 17 20 18 21 19 22 20 23 21 25
REMARK SMILES IDX 22 26 23 27 69 28 24 29 68 30 25 31 26 32 27 33 62 34 28 35
REMARK SMILES IDX 67 36 61 37 63 38 29 39 66 40 60 41 59 42 30 44 52 45 37 46
REMARK SMILES IDX 51 47 38 48 41 49 50 50 64 51 39 52 40 53 49 55 65 56 42 57
REMARK SMILES IDX 31 58 32 59 36 60 33 61 35 62 34 63 53 64 54 65 58 66 55 67
REMARK SMILES IDX 57 68 56 69 43 70 44 71 48 72 45 73 47 74 46 75
REMARK H PARENT 12 7 19 24 63 43 41 54
REMARK Flexibility Score: inf
ROOT
ATOM      1  C   UNL A   1      37.202  22.251  24.335  1.00  0.00     0.002 C 
ENDROOT
BRANCH   1   2
ATOM      2  C   UNL A   1      36.253  23.407  24.693  1.00  0.00     0.021 C 
BRANCH   2   3
ATOM      3  C   UNL A   1      34.768  23.080  24.539  1.00  0.00     0.116 C 
BRANCH   3   4
ATOM      4  N   UNL A   1      34.274  23.410  23.225  1.00  0.00    -0.356 N 
ATOM      5  C   UNL A   1      33.216  24.113  22.735  1.00  0.00     0.226 C 
ATOM      6  O   UNL A   1      33.208  24.270  21.515  1.00  0.00    -0.274 OA
ATOM      7  H   UNL A   1      34.836  23.034  22.510  1.00  0.00     0.163 HD
BRANCH   5   8
ATOM      8  C   UNL A   1      32.087  24.718  23.568  1.00  0.00     0.052 C 
ATOM      9  C   UNL A   1      31.078  23.676  24.066  1.00  0.00     0.018 C 
ATOM     10  C   UNL A   1      30.629  24.763  23.145  1.00  0.00     0.018 C 
BRANCH   8  11
ATOM     11  C   UNL A   1      32.587  25.890  24.485  1.00  0.00     0.008 C 
ATOM     12  C   UNL A   1      31.567  26.645  25.385  1.00  0.00    -0.007 C 
ATOM     13  C   UNL A   1      30.841  27.793  24.655  1.00  0.00     0.004 C 
ATOM     14  C   UNL A   1      31.765  28.691  23.836  1.00  0.00     0.000 C 
ATOM     15  C   UNL A   1      33.483  26.853  23.681  1.00  0.00     0.005 C 
ATOM     16  C   UNL A   1      32.698  27.912  22.919  1.00  0.00     0.000 C 
BRANCH  12  17
ATOM     17  C   UNL A   1      32.305  27.177  26.648  1.00  0.00     0.000 C 
ATOM     18  C   UNL A   1      31.504  28.192  27.452  1.00  0.00     0.004 C 
ENDBRANCH  12  17
ENDBRANCH   8  11
ENDBRANCH   5   8
ENDBRANCH   3   4
ENDBRANCH   2   3
ENDBRANCH   1   2
BRANCH   1  19
ATOM     19  C   UNL A   1      36.784  20.863  24.833  1.00  0.00     0.002 C 
BRANCH  19  20
ATOM     20  C   UNL A   1      37.907  19.830  24.922  1.00  0.00     0.021 C 
BRANCH  20  21
ATOM     21  C   UNL A   1      39.093  20.264  25.768  1.00  0.00     0.116 C 
BRANCH  21  22
ATOM     22  N   UNL A   1      40.108  19.228  25.858  1.00  0.00    -0.352 N 
ATOM     23  C   UNL A   1      41.451  19.363  26.104  1.00  0.00     0.251 C 
ATOM     24  H   UNL A   1      39.788  18.306  25.726  1.00  0.00     0.163 HD
ATOM     25  O   UNL A   1      42.212  18.412  25.955  1.00  0.00    -0.269 OA
BRANCH  23  26
ATOM     26  C   UNL A   1      41.980  20.675  26.530  1.00  0.00     0.039 A 
ATOM     27  C   UNL A   1      42.393  21.589  25.557  1.00  0.00     0.014 A 
ATOM     28  C   UNL A   1      42.053  21.005  27.887  1.00  0.00     0.014 A 
ATOM     29  C   UNL A   1      42.832  22.855  25.945  1.00  0.00     0.010 A 
ATOM     30  C   UNL A   1      42.414  22.293  28.265  1.00  0.00     0.010 A 
ATOM     31  C   UNL A   1      42.819  23.227  27.299  1.00  0.00    -0.014 A 
BRANCH  31  32
ATOM     32  C   UNL A   1      43.248  24.579  27.733  1.00  0.00     0.031 A 
ATOM     33  C   UNL A   1      42.217  25.628  28.047  1.00  0.00     0.074 A 
ATOM     34  C   UNL A   1      44.559  24.881  27.787  1.00  0.00     0.049 A 
ATOM     35  N   UNL A   1      42.389  26.884  28.376  1.00  0.00    -0.248 NA
ATOM     36  C   UNL A   1      40.805  25.221  27.949  1.00  0.00     0.031 C 
ATOM     37  C   UNL A   1      45.656  23.964  27.474  1.00  0.00     0.029 A 
ATOM     38  N   UNL A   1      45.191  26.054  28.118  1.00  0.00    -0.354 N 
ATOM     39  C   UNL A   1      41.113  27.416  28.505  1.00  0.00     0.074 A 
ATOM     40  C   UNL A   1      40.177  26.367  28.167  1.00  0.00     0.031 C 
ATOM     41  C   UNL A   1      46.825  24.599  27.656  1.00  0.00     0.029 A 
ATOM     42  C   UNL A   1      46.561  25.978  28.055  1.00  0.00     0.049 A 
ATOM     43  H   UNL A   1      44.709  26.872  28.377  1.00  0.00     0.167 HD
ATOM     44  C   UNL A   1      40.749  28.662  28.892  1.00  0.00     0.031 A 
ATOM     45  C   UNL A   1      47.499  26.915  28.287  1.00  0.00     0.031 A 
ATOM     46  C   UNL A   1      41.679  29.702  29.240  1.00  0.00     0.049 A 
ATOM     47  C   UNL A   1      47.070  28.296  28.698  1.00  0.00     0.074 A 
ATOM     48  C   UNL A   1      41.411  30.981  29.697  1.00  0.00     0.029 A 
ATOM     49  N   UNL A   1      43.058  29.582  29.168  1.00  0.00    -0.354 N 
ATOM     50  N   UNL A   1      45.859  28.767  28.878  1.00  0.00    -0.248 NA
ATOM     51  C   UNL A   1      48.139  29.273  28.948  1.00  0.00     0.031 C 
ATOM     52  C   UNL A   1      42.628  31.653  29.850  1.00  0.00     0.029 A 
ATOM     53  C   UNL A   1      43.655  30.773  29.549  1.00  0.00     0.049 A 
ATOM     54  H   UNL A   1      43.541  28.771  28.889  1.00  0.00     0.167 HD
ATOM     55  C   UNL A   1      46.022  30.083  29.292  1.00  0.00     0.074 A 
ATOM     56  C   UNL A   1      47.448  30.330  29.350  1.00  0.00     0.031 C 
ATOM     57  C   UNL A   1      45.076  31.002  29.601  1.00  0.00     0.031 A 
BRANCH  44  58
ATOM     58  C   UNL A   1      39.277  28.966  28.947  1.00  0.00    -0.014 A 
ATOM     59  C   UNL A   1      38.536  28.774  30.125  1.00  0.00     0.009 A 
ATOM     60  C   UNL A   1      38.627  29.478  27.814  1.00  0.00     0.009 A 
ATOM     61  C   UNL A   1      37.167  29.047  30.153  1.00  0.00     0.001 A 
ATOM     62  C   UNL A   1      37.264  29.780  27.855  1.00  0.00     0.001 A 
ATOM     63  C   UNL A   1      36.534  29.554  29.020  1.00  0.00     0.000 A 
ENDBRANCH  44  58
BRANCH  45  64
ATOM     64  C   UNL A   1      48.940  26.577  28.153  1.00  0.00    -0.014 A 
ATOM     65  C   UNL A   1      49.680  26.155  29.268  1.00  0.00     0.009 A 
ATOM     66  C   UNL A   1      49.586  26.679  26.910  1.00  0.00     0.009 A 
ATOM     67  C   UNL A   1      51.041  25.871  29.149  1.00  0.00     0.001 A 
ATOM     68  C   UNL A   1      50.941  26.363  26.788  1.00  0.00     0.001 A 
ATOM     69  C   UNL A   1      51.670  25.970  27.909  1.00  0.00     0.000 A 
ENDBRANCH  45  64
BRANCH  57  70
ATOM     70  C   UNL A   1      45.551  32.349  30.067  1.00  0.00    -0.014 A 
ATOM     71  C   UNL A   1      45.822  32.602  31.420  1.00  0.00     0.009 A 
ATOM     72  C   UNL A   1      45.772  33.369  29.126  1.00  0.00     0.009 A 
ATOM     73  C   UNL A   1      46.274  33.859  31.826  1.00  0.00     0.001 A 
ATOM     74  C   UNL A   1      46.254  34.614  29.531  1.00  0.00     0.001 A 
ATOM     75  C   UNL A   1      46.496  34.861  30.880  1.00  0.00     0.000 A 
ENDBRANCH  57  70
ENDBRANCH  31  32
ENDBRANCH  23  26
ENDBRANCH  21  22
ENDBRANCH  20  21
ENDBRANCH  19  20
ENDBRANCH   1  19
TORSDOF 15
ENDMDL
