MODEL 1
REMARK VINA RESULT:      -9.3      0.000      0.000
REMARK SMILES CCC(CC)N(CCOC)C(=O)N1CC[C@H](C(=O)NCCCCCCNC(=O)c2ccc(-c3c4nc(c(-c5ccccc5)c5ccc([nH]5)c(-c5ccccc5)c5nc(c(-c6ccccc6)c6ccc3[nH]6)C=C5)C=C4)cc2)[C@@H]1C
REMARK SMILES IDX 21 1 20 2 19 3 17 4 18 5 16 7 13 8 14 9 77 10 15 11 78 12
REMARK SMILES IDX 11 13 12 14 6 15 3 16 2 17 1 18 4 19 5 20 7 21 8 22 9 23
REMARK SMILES IDX 10 24 22 25 23 26 24 27 25 28 26 29 27 30 28 32 29 33 30 34
REMARK SMILES IDX 76 35 31 36 75 37 32 38 33 39 34 40 69 41 35 42 74 43 68 44
REMARK SMILES IDX 70 45 36 46 73 47 67 48 66 49 37 51 59 52 44 53 58 54 45 55
REMARK SMILES IDX 48 56 57 57 71 58 46 59 47 60 56 62 72 63 49 64 38 65 39 66
REMARK SMILES IDX 43 67 40 68 42 69 41 70 60 71 61 72 65 73 62 74 64 75 63 76
REMARK SMILES IDX 50 77 51 78 55 79 52 80 54 81 53 82
REMARK H PARENT 19 6 26 31 70 50 48 61
REMARK Flexibility Score: inf
ROOT
ATOM      1  C   UNL A   1      35.215  20.372  25.311  1.00  0.00     0.021 C 
ENDROOT
BRANCH   1   2
ATOM      2  C   UNL A   1      33.690  20.399  25.323  1.00  0.00     0.116 C 
BRANCH   2   3
ATOM      3  N   UNL A   1      33.204  20.942  26.569  1.00  0.00    -0.356 N 
ATOM      4  C   UNL A   1      32.779  22.227  26.684  1.00  0.00     0.225 C 
ATOM      5  O   UNL A   1      33.382  22.947  27.478  1.00  0.00    -0.275 OA
ATOM      6  H   UNL A   1      33.181  20.361  27.363  1.00  0.00     0.163 HD
BRANCH   4   7
ATOM      7  C   UNL A   1      31.628  22.717  25.796  1.00  0.00     0.102 C 
ATOM      8  N   UNL A   1      31.208  24.813  24.644  1.00  0.00    -0.321 N 
ATOM      9  C   UNL A   1      30.836  24.990  26.029  1.00  0.00     0.122 C 
ATOM     10  C   UNL A   1      32.087  23.603  24.584  1.00  0.00     0.096 C 
ATOM     11  C   UNL A   1      30.560  23.581  26.490  1.00  0.00     0.037 C 
ATOM     12  C   UNL A   1      33.563  24.001  24.689  1.00  0.00     0.032 C 
BRANCH   8  13
ATOM     13  C   UNL A   1      30.806  25.818  23.783  1.00  0.00     0.320 C 
ATOM     14  O   UNL A   1      30.181  25.482  22.768  1.00  0.00    -0.248 OA
BRANCH  13  15
ATOM     15  N   UNL A   1      31.154  27.149  23.955  1.00  0.00    -0.319 N 
BRANCH  15  16
ATOM     16  C   UNL A   1      32.592  27.534  24.238  1.00  0.00     0.086 C 
BRANCH  16  17
ATOM     17  C   UNL A   1      33.417  27.957  22.991  1.00  0.00     0.022 C 
ATOM     18  C   UNL A   1      33.590  26.837  21.963  1.00  0.00     0.006 C 
ENDBRANCH  16  17
BRANCH  16  19
ATOM     19  C   UNL A   1      32.800  28.470  25.451  1.00  0.00     0.022 C 
ATOM     20  C   UNL A   1      33.821  28.023  26.485  1.00  0.00     0.006 C 
ENDBRANCH  16  19
ENDBRANCH  15  16
BRANCH  15  21
ATOM     21  C   UNL A   1      30.190  28.246  24.043  1.00  0.00     0.150 C 
BRANCH  21  22
ATOM     22  C   UNL A   1      30.033  29.084  22.759  1.00  0.00     0.181 C 
BRANCH  22  23
ATOM     23  O   UNL A   1      28.746  29.014  22.147  1.00  0.00    -0.383 OA
ATOM     24  C   UNL A   1      28.343  30.240  21.547  1.00  0.00     0.194 C 
ENDBRANCH  22  23
ENDBRANCH  21  22
ENDBRANCH  15  21
ENDBRANCH  13  15
ENDBRANCH   8  13
ENDBRANCH   4   7
ENDBRANCH   2   3
ENDBRANCH   1   2
BRANCH   1  25
ATOM     25  C   UNL A   1      35.878  21.647  24.770  1.00  0.00     0.002 C 
BRANCH  25  26
ATOM     26  C   UNL A   1      37.354  21.514  24.379  1.00  0.00     0.002 C 
BRANCH  26  27
ATOM     27  C   UNL A   1      38.040  20.230  24.845  1.00  0.00     0.021 C 
BRANCH  27  28
ATOM     28  C   UNL A   1      39.067  20.429  25.946  1.00  0.00     0.116 C 
BRANCH  28  29
ATOM     29  N   UNL A   1      40.120  19.432  25.897  1.00  0.00    -0.352 N 
ATOM     30  C   UNL A   1      41.465  19.607  26.086  1.00  0.00     0.251 C 
ATOM     31  H   UNL A   1      39.830  18.511  25.703  1.00  0.00     0.163 HD
ATOM     32  O   UNL A   1      42.260  18.708  25.822  1.00  0.00    -0.269 OA
BRANCH  30  33
ATOM     33  C   UNL A   1      41.953  20.908  26.583  1.00  0.00     0.039 A 
ATOM     34  C   UNL A   1      42.382  21.864  25.661  1.00  0.00     0.014 A 
ATOM     35  C   UNL A   1      41.939  21.194  27.952  1.00  0.00     0.014 A 
ATOM     36  C   UNL A   1      42.738  23.136  26.109  1.00  0.00     0.010 A 
ATOM     37  C   UNL A   1      42.218  22.484  28.386  1.00  0.00     0.010 A 
ATOM     38  C   UNL A   1      42.620  23.467  27.469  1.00  0.00    -0.014 A 
BRANCH  38  39
ATOM     39  C   UNL A   1      42.898  24.840  27.953  1.00  0.00     0.031 A 
ATOM     40  C   UNL A   1      44.291  25.226  28.364  1.00  0.00     0.074 A 
ATOM     41  C   UNL A   1      41.882  25.714  28.092  1.00  0.00     0.049 A 
ATOM     42  N   UNL A   1      44.714  26.348  28.888  1.00  0.00    -0.248 NA
ATOM     43  C   UNL A   1      45.340  24.209  28.188  1.00  0.00     0.031 C 
ATOM     44  C   UNL A   1      40.482  25.446  27.757  1.00  0.00     0.029 A 
ATOM     45  N   UNL A   1      41.871  27.002  28.564  1.00  0.00    -0.354 N 
ATOM     46  C   UNL A   1      46.071  26.166  29.117  1.00  0.00     0.074 A 
ATOM     47  C   UNL A   1      46.392  24.813  28.722  1.00  0.00     0.031 C 
ATOM     48  C   UNL A   1      39.751  26.542  28.015  1.00  0.00     0.029 A 
ATOM     49  C   UNL A   1      40.620  27.570  28.580  1.00  0.00     0.049 A 
ATOM     50  H   UNL A   1      42.681  27.474  28.861  1.00  0.00     0.167 HD
ATOM     51  C   UNL A   1      46.973  27.054  29.601  1.00  0.00     0.031 A 
ATOM     52  C   UNL A   1      40.213  28.775  29.021  1.00  0.00     0.031 A 
ATOM     53  C   UNL A   1      46.650  28.400  29.991  1.00  0.00     0.049 A 
ATOM     54  C   UNL A   1      41.225  29.726  29.594  1.00  0.00     0.074 A 
ATOM     55  C   UNL A   1      47.503  29.397  30.430  1.00  0.00     0.029 A 
ATOM     56  N   UNL A   1      45.370  28.933  30.002  1.00  0.00    -0.354 N 
ATOM     57  N   UNL A   1      42.521  29.570  29.728  1.00  0.00    -0.248 NA
ATOM     58  C   UNL A   1      40.721  31.019  30.077  1.00  0.00     0.031 C 
ATOM     59  C   UNL A   1      46.730  30.510  30.776  1.00  0.00     0.029 A 
ATOM     60  C   UNL A   1      45.405  30.230  30.488  1.00  0.00     0.049 A 
ATOM     61  H   UNL A   1      44.558  28.460  29.709  1.00  0.00     0.167 HD
ATOM     62  C   UNL A   1      42.987  30.748  30.296  1.00  0.00     0.074 A 
ATOM     63  C   UNL A   1      41.841  31.619  30.458  1.00  0.00     0.031 C 
ATOM     64  C   UNL A   1      44.252  31.077  30.656  1.00  0.00     0.031 A 
BRANCH  51  65
ATOM     65  C   UNL A   1      48.394  26.586  29.755  1.00  0.00    -0.014 A 
ATOM     66  C   UNL A   1      48.829  25.933  30.919  1.00  0.00     0.009 A 
ATOM     67  C   UNL A   1      49.304  26.768  28.701  1.00  0.00     0.009 A 
ATOM     68  C   UNL A   1      50.154  25.510  31.042  1.00  0.00     0.001 A 
ATOM     69  C   UNL A   1      50.619  26.315  28.813  1.00  0.00     0.001 A 
ATOM     70  C   UNL A   1      51.046  25.696  29.986  1.00  0.00     0.000 A 
ENDBRANCH  51  65
BRANCH  52  71
ATOM     71  C   UNL A   1      38.774  29.143  28.952  1.00  0.00    -0.014 A 
ATOM     72  C   UNL A   1      37.940  28.980  30.069  1.00  0.00     0.009 A 
ATOM     73  C   UNL A   1      38.226  29.661  27.768  1.00  0.00     0.009 A 
ATOM     74  C   UNL A   1      36.584  29.307  29.993  1.00  0.00     0.001 A 
ATOM     75  C   UNL A   1      36.877  30.018  27.704  1.00  0.00     0.001 A 
ATOM     76  C   UNL A   1      36.055  29.831  28.813  1.00  0.00     0.000 A 
ENDBRANCH  52  71
BRANCH  64  77
ATOM     77  C   UNL A   1      44.465  32.439  31.256  1.00  0.00    -0.014 A 
ATOM     78  C   UNL A   1      44.431  32.632  32.646  1.00  0.00     0.009 A 
ATOM     79  C   UNL A   1      44.762  33.530  30.425  1.00  0.00     0.009 A 
ATOM     80  C   UNL A   1      44.665  33.897  33.189  1.00  0.00     0.001 A 
ATOM     81  C   UNL A   1      45.027  34.786  30.972  1.00  0.00     0.001 A 
ATOM     82  C   UNL A   1      44.970  34.970  32.352  1.00  0.00     0.000 A 
ENDBRANCH  64  77
ENDBRANCH  38  39
ENDBRANCH  30  33
ENDBRANCH  28  29
ENDBRANCH  27  28
ENDBRANCH  26  27
ENDBRANCH  25  26
ENDBRANCH   1  25
TORSDOF 21
ENDMDL
MODEL 2
REMARK VINA RESULT:      -9.2      2.632      4.394
REMARK SMILES CCC(CC)N(CCOC)C(=O)N1CC[C@H](C(=O)NCCCCCCNC(=O)c2ccc(-c3c4nc(c(-c5ccccc5)c5ccc([nH]5)c(-c5ccccc5)c5nc(c(-c6ccccc6)c6ccc3[nH]6)C=C5)C=C4)cc2)[C@@H]1C
REMARK SMILES IDX 21 1 20 2 19 3 17 4 18 5 16 7 13 8 14 9 77 10 15 11 78 12
REMARK SMILES IDX 11 13 12 14 6 15 3 16 2 17 1 18 4 19 5 20 7 21 8 22 9 23
REMARK SMILES IDX 10 24 22 25 23 26 24 27 25 28 26 29 27 30 28 32 29 33 30 34
REMARK SMILES IDX 76 35 31 36 75 37 32 38 33 39 34 40 69 41 35 42 74 43 68 44
REMARK SMILES IDX 70 45 36 46 73 47 67 48 66 49 37 51 59 52 44 53 58 54 45 55
REMARK SMILES IDX 48 56 57 57 71 58 46 59 47 60 56 62 72 63 49 64 38 65 39 66
REMARK SMILES IDX 43 67 40 68 42 69 41 70 60 71 61 72 65 73 62 74 64 75 63 76
REMARK SMILES IDX 50 77 51 78 55 79 52 80 54 81 53 82
REMARK H PARENT 19 6 26 31 70 50 48 61
REMARK Flexibility Score: inf
ROOT
ATOM      1  C   UNL A   1      41.248  21.863  26.150  1.00  0.00     0.021 C 
ENDROOT
BRANCH   1   2
ATOM      2  C   UNL A   1      39.837  21.290  26.061  1.00  0.00     0.116 C 
BRANCH   2   3
ATOM      3  N   UNL A   1      38.883  22.200  26.650  1.00  0.00    -0.356 N 
ATOM      4  C   UNL A   1      38.144  23.060  25.902  1.00  0.00     0.225 C 
ATOM      5  O   UNL A   1      38.287  24.261  26.126  1.00  0.00    -0.275 OA
ATOM      6  H   UNL A   1      38.765  22.196  27.627  1.00  0.00     0.163 HD
BRANCH   4   7
ATOM      7  C   UNL A   1      37.229  22.502  24.805  1.00  0.00     0.102 C 
ATOM      8  N   UNL A   1      34.873  21.910  24.764  1.00  0.00    -0.321 N 
ATOM      9  C   UNL A   1      35.593  20.814  25.373  1.00  0.00     0.122 C 
ATOM     10  C   UNL A   1      35.777  23.102  24.817  1.00  0.00     0.096 C 
ATOM     11  C   UNL A   1      36.991  20.982  24.832  1.00  0.00     0.037 C 
ATOM     12  C   UNL A   1      35.507  23.930  26.079  1.00  0.00     0.032 C 
BRANCH   8  13
ATOM     13  C   UNL A   1      33.557  21.650  24.427  1.00  0.00     0.320 C 
ATOM     14  O   UNL A   1      33.195  20.466  24.418  1.00  0.00    -0.248 OA
BRANCH  13  15
ATOM     15  N   UNL A   1      32.673  22.632  24.011  1.00  0.00    -0.319 N 
BRANCH  15  16
ATOM     16  C   UNL A   1      31.794  23.349  25.015  1.00  0.00     0.086 C 
BRANCH  16  17
ATOM     17  C   UNL A   1      31.535  22.571  26.335  1.00  0.00     0.022 C 
ATOM     18  C   UNL A   1      30.113  22.739  26.876  1.00  0.00     0.006 C 
ENDBRANCH  16  17
BRANCH  16  19
ATOM     19  C   UNL A   1      32.132  24.841  25.245  1.00  0.00     0.022 C 
ATOM     20  C   UNL A   1      31.002  25.833  25.024  1.00  0.00     0.006 C 
ENDBRANCH  16  19
ENDBRANCH  15  16
BRANCH  15  21
ATOM     21  C   UNL A   1      32.390  22.942  22.608  1.00  0.00     0.150 C 
BRANCH  21  22
ATOM     22  C   UNL A   1      33.278  24.038  21.989  1.00  0.00     0.181 C 
BRANCH  22  23
ATOM     23  O   UNL A   1      32.591  25.231  21.614  1.00  0.00    -0.383 OA
ATOM     24  C   UNL A   1      33.274  26.418  22.001  1.00  0.00     0.194 C 
ENDBRANCH  22  23
ENDBRANCH  21  22
ENDBRANCH  15  21
ENDBRANCH  13  15
ENDBRANCH   8  13
ENDBRANCH   4   7
ENDBRANCH   2   3
ENDBRANCH   1   2
BRANCH   1  25
ATOM     25  C   UNL A   1      42.178  21.138  27.133  1.00  0.00     0.002 C 
BRANCH  25  26
ATOM     26  C   UNL A   1      41.921  19.637  27.307  1.00  0.00     0.002 C 
BRANCH  26  27
ATOM     27  C   UNL A   1      42.882  18.719  26.552  1.00  0.00     0.021 C 
BRANCH  27  28
ATOM     28  C   UNL A   1      43.018  19.032  25.071  1.00  0.00     0.116 C 
BRANCH  28  29
ATOM     29  N   UNL A   1      44.346  18.728  24.570  1.00  0.00    -0.352 N 
ATOM     30  C   UNL A   1      45.381  19.592  24.332  1.00  0.00     0.251 C 
ATOM     31  H   UNL A   1      44.524  17.780  24.375  1.00  0.00     0.163 HD
ATOM     32  O   UNL A   1      46.383  19.221  23.723  1.00  0.00    -0.269 OA
BRANCH  30  33
ATOM     33  C   UNL A   1      45.266  20.990  24.790  1.00  0.00     0.039 A 
ATOM     34  C   UNL A   1      45.576  21.292  26.116  1.00  0.00     0.014 A 
ATOM     35  C   UNL A   1      44.900  22.001  23.895  1.00  0.00     0.014 A 
ATOM     36  C   UNL A   1      45.581  22.623  26.532  1.00  0.00     0.010 A 
ATOM     37  C   UNL A   1      44.983  23.330  24.290  1.00  0.00     0.010 A 
ATOM     38  C   UNL A   1      45.324  23.654  25.612  1.00  0.00    -0.014 A 
BRANCH  38  39
ATOM     39  C   UNL A   1      45.421  25.079  26.008  1.00  0.00     0.031 A 
ATOM     40  C   UNL A   1      46.751  25.777  25.988  1.00  0.00     0.074 A 
ATOM     41  C   UNL A   1      44.324  25.720  26.457  1.00  0.00     0.049 A 
ATOM     42  N   UNL A   1      47.050  26.991  26.375  1.00  0.00    -0.248 NA
ATOM     43  C   UNL A   1      47.900  25.001  25.492  1.00  0.00     0.031 C 
ATOM     44  C   UNL A   1      42.983  25.140  26.554  1.00  0.00     0.029 A 
ATOM     45  N   UNL A   1      44.168  27.000  26.927  1.00  0.00    -0.354 N 
ATOM     46  C   UNL A   1      48.420  27.117  26.185  1.00  0.00     0.074 A 
ATOM     47  C   UNL A   1      48.901  25.845  25.694  1.00  0.00     0.031 C 
ATOM     48  C   UNL A   1      42.138  26.066  27.033  1.00  0.00     0.029 A 
ATOM     49  C   UNL A   1      42.884  27.286  27.325  1.00  0.00     0.049 A 
ATOM     50  H   UNL A   1      44.904  27.651  26.974  1.00  0.00     0.167 HD
ATOM     51  C   UNL A   1      49.204  28.203  26.388  1.00  0.00     0.031 A 
ATOM     52  C   UNL A   1      42.369  28.397  27.883  1.00  0.00     0.031 A 
ATOM     53  C   UNL A   1      48.721  29.467  26.874  1.00  0.00     0.049 A 
ATOM     54  C   UNL A   1      43.269  29.573  28.138  1.00  0.00     0.074 A 
ATOM     55  C   UNL A   1      49.424  30.647  27.051  1.00  0.00     0.029 A 
ATOM     56  N   UNL A   1      47.418  29.713  27.276  1.00  0.00    -0.354 N 
ATOM     57  N   UNL A   1      44.548  29.706  27.876  1.00  0.00    -0.248 NA
ATOM     58  C   UNL A   1      42.657  30.752  28.768  1.00  0.00     0.031 C 
ATOM     59  C   UNL A   1      48.561  31.585  27.626  1.00  0.00     0.029 A 
ATOM     60  C   UNL A   1      47.306  31.011  27.746  1.00  0.00     0.049 A 
ATOM     61  H   UNL A   1      46.681  29.061  27.233  1.00  0.00     0.167 HD
ATOM     62  C   UNL A   1      44.887  30.987  28.294  1.00  0.00     0.074 A 
ATOM     63  C   UNL A   1      43.677  31.598  28.803  1.00  0.00     0.031 C 
ATOM     64  C   UNL A   1      46.097  31.599  28.262  1.00  0.00     0.031 A 
BRANCH  51  65
ATOM     65  C   UNL A   1      50.675  28.060  26.103  1.00  0.00    -0.014 A 
ATOM     66  C   UNL A   1      51.577  27.642  27.094  1.00  0.00     0.009 A 
ATOM     67  C   UNL A   1      51.159  28.312  24.809  1.00  0.00     0.009 A 
ATOM     68  C   UNL A   1      52.938  27.520  26.808  1.00  0.00     0.001 A 
ATOM     69  C   UNL A   1      52.515  28.158  24.517  1.00  0.00     0.001 A 
ATOM     70  C   UNL A   1      53.405  27.772  25.518  1.00  0.00     0.000 A 
ENDBRANCH  51  65
BRANCH  52  71
ATOM     71  C   UNL A   1      40.930  28.443  28.253  1.00  0.00    -0.014 A 
ATOM     72  C   UNL A   1      39.981  28.980  27.370  1.00  0.00     0.009 A 
ATOM     73  C   UNL A   1      40.497  27.949  29.494  1.00  0.00     0.009 A 
ATOM     74  C   UNL A   1      38.633  29.041  27.732  1.00  0.00     0.001 A 
ATOM     75  C   UNL A   1      39.144  27.981  29.840  1.00  0.00     0.001 A 
ATOM     76  C   UNL A   1      38.214  28.537  28.963  1.00  0.00     0.000 A 
ENDBRANCH  52  71
BRANCH  64  77
ATOM     77  C   UNL A   1      46.171  33.005  28.789  1.00  0.00    -0.014 A 
ATOM     78  C   UNL A   1      46.505  33.261  30.128  1.00  0.00     0.009 A 
ATOM     79  C   UNL A   1      45.961  34.088  27.920  1.00  0.00     0.009 A 
ATOM     80  C   UNL A   1      46.603  34.574  30.591  1.00  0.00     0.001 A 
ATOM     81  C   UNL A   1      46.091  35.399  28.379  1.00  0.00     0.001 A 
ATOM     82  C   UNL A   1      46.404  35.641  29.716  1.00  0.00     0.000 A 
ENDBRANCH  64  77
ENDBRANCH  38  39
ENDBRANCH  30  33
ENDBRANCH  28  29
ENDBRANCH  27  28
ENDBRANCH  26  27
ENDBRANCH  25  26
ENDBRANCH   1  25
TORSDOF 21
ENDMDL
MODEL 3
REMARK VINA RESULT:      -9.2      2.222      3.763
REMARK SMILES CCC(CC)N(CCOC)C(=O)N1CC[C@H](C(=O)NCCCCCCNC(=O)c2ccc(-c3c4nc(c(-c5ccccc5)c5ccc([nH]5)c(-c5ccccc5)c5nc(c(-c6ccccc6)c6ccc3[nH]6)C=C5)C=C4)cc2)[C@@H]1C
REMARK SMILES IDX 21 1 20 2 19 3 17 4 18 5 16 7 13 8 14 9 77 10 15 11 78 12
REMARK SMILES IDX 11 13 12 14 6 15 3 16 2 17 1 18 4 19 5 20 7 21 8 22 9 23
REMARK SMILES IDX 10 24 22 25 23 26 24 27 25 28 26 29 27 30 28 32 29 33 30 34
REMARK SMILES IDX 76 35 31 36 75 37 32 38 33 39 34 40 69 41 35 42 74 43 68 44
REMARK SMILES IDX 70 45 36 46 73 47 67 48 66 49 37 51 59 52 44 53 58 54 45 55
REMARK SMILES IDX 48 56 57 57 71 58 46 59 47 60 56 62 72 63 49 64 38 65 39 66
REMARK SMILES IDX 43 67 40 68 42 69 41 70 60 71 61 72 65 73 62 74 64 75 63 76
REMARK SMILES IDX 50 77 51 78 55 79 52 80 54 81 53 82
REMARK H PARENT 19 6 26 31 70 50 48 61
REMARK Flexibility Score: inf
ROOT
ATOM      1  C   UNL A   1      39.594  24.115  27.863  1.00  0.00     0.021 C 
ENDROOT
BRANCH   1   2
ATOM      2  C   UNL A   1      38.440  24.198  26.869  1.00  0.00     0.116 C 
BRANCH   2   3
ATOM      3  N   UNL A   1      38.279  22.941  26.176  1.00  0.00    -0.356 N 
ATOM      4  C   UNL A   1      37.136  22.619  25.515  1.00  0.00     0.225 C 
ATOM      5  O   UNL A   1      36.532  21.619  25.899  1.00  0.00    -0.275 OA
ATOM      6  H   UNL A   1      39.022  22.297  26.184  1.00  0.00     0.163 HD
BRANCH   4   7
ATOM      7  C   UNL A   1      36.644  23.529  24.383  1.00  0.00     0.102 C 
ATOM      8  N   UNL A   1      34.427  24.142  23.604  1.00  0.00    -0.321 N 
ATOM      9  C   UNL A   1      34.744  22.843  23.054  1.00  0.00     0.122 C 
ATOM     10  C   UNL A   1      35.367  24.368  24.747  1.00  0.00     0.096 C 
ATOM     11  C   UNL A   1      36.252  22.825  23.072  1.00  0.00     0.037 C 
ATOM     12  C   UNL A   1      34.735  23.910  26.066  1.00  0.00     0.032 C 
BRANCH   8  13
ATOM     13  C   UNL A   1      33.313  24.763  23.070  1.00  0.00     0.320 C 
ATOM     14  O   UNL A   1      33.272  24.900  21.840  1.00  0.00    -0.248 OA
BRANCH  13  15
ATOM     15  N   UNL A   1      32.308  25.318  23.847  1.00  0.00    -0.319 N 
BRANCH  15  16
ATOM     16  C   UNL A   1      32.169  26.822  23.962  1.00  0.00     0.086 C 
BRANCH  16  17
ATOM     17  C   UNL A   1      33.484  27.579  24.298  1.00  0.00     0.022 C 
ATOM     18  C   UNL A   1      33.613  27.954  25.777  1.00  0.00     0.006 C 
ENDBRANCH  16  17
BRANCH  16  19
ATOM     19  C   UNL A   1      31.348  27.499  22.839  1.00  0.00     0.022 C 
ATOM     20  C   UNL A   1      30.121  28.283  23.277  1.00  0.00     0.006 C 
ENDBRANCH  16  19
ENDBRANCH  15  16
BRANCH  15  21
ATOM     21  C   UNL A   1      31.429  24.546  24.727  1.00  0.00     0.150 C 
BRANCH  21  22
ATOM     22  C   UNL A   1      31.254  25.122  26.146  1.00  0.00     0.181 C 
BRANCH  22  23
ATOM     23  O   UNL A   1      31.028  24.152  27.167  1.00  0.00    -0.383 OA
ATOM     24  C   UNL A   1      30.397  22.970  26.689  1.00  0.00     0.194 C 
ENDBRANCH  22  23
ENDBRANCH  21  22
ENDBRANCH  15  21
ENDBRANCH  13  15
ENDBRANCH   8  13
ENDBRANCH   4   7
ENDBRANCH   2   3
ENDBRANCH   1   2
BRANCH   1  25
ATOM     25  C   UNL A   1      40.902  23.553  27.288  1.00  0.00     0.002 C 
BRANCH  25  26
ATOM     26  C   UNL A   1      41.622  22.519  28.161  1.00  0.00     0.002 C 
BRANCH  26  27
ATOM     27  C   UNL A   1      42.071  21.252  27.435  1.00  0.00     0.021 C 
BRANCH  27  28
ATOM     28  C   UNL A   1      42.178  21.395  25.926  1.00  0.00     0.116 C 
BRANCH  28  29
ATOM     29  N   UNL A   1      43.439  20.888  25.417  1.00  0.00    -0.352 N 
ATOM     30  C   UNL A   1      44.603  21.575  25.197  1.00  0.00     0.251 C 
ATOM     31  H   UNL A   1      43.460  19.928  25.203  1.00  0.00     0.163 HD
ATOM     32  O   UNL A   1      45.532  21.058  24.580  1.00  0.00    -0.269 OA
BRANCH  30  33
ATOM     33  C   UNL A   1      44.717  22.963  25.684  1.00  0.00     0.039 A 
ATOM     34  C   UNL A   1      44.375  24.009  24.826  1.00  0.00     0.014 A 
ATOM     35  C   UNL A   1      45.112  23.221  27.001  1.00  0.00     0.014 A 
ATOM     36  C   UNL A   1      44.370  25.317  25.309  1.00  0.00     0.010 A 
ATOM     37  C   UNL A   1      45.030  24.515  27.501  1.00  0.00     0.010 A 
ATOM     38  C   UNL A   1      44.658  25.575  26.660  1.00  0.00    -0.014 A 
BRANCH  38  39
ATOM     39  C   UNL A   1      44.561  26.945  27.219  1.00  0.00     0.031 A 
ATOM     40  C   UNL A   1      45.804  27.765  27.421  1.00  0.00     0.074 A 
ATOM     41  C   UNL A   1      43.364  27.418  27.613  1.00  0.00     0.049 A 
ATOM     42  N   UNL A   1      45.931  28.946  27.970  1.00  0.00    -0.248 NA
ATOM     43  C   UNL A   1      47.072  27.169  26.971  1.00  0.00     0.031 C 
ATOM     44  C   UNL A   1      42.090  26.704  27.499  1.00  0.00     0.029 A 
ATOM     45  N   UNL A   1      43.024  28.611  28.201  1.00  0.00    -0.354 N 
ATOM     46  C   UNL A   1      47.291  29.226  27.945  1.00  0.00     0.074 A 
ATOM     47  C   UNL A   1      47.952  28.074  27.373  1.00  0.00     0.031 C 
ATOM     48  C   UNL A   1      41.107  27.480  27.982  1.00  0.00     0.029 A 
ATOM     49  C   UNL A   1      41.685  28.722  28.486  1.00  0.00     0.049 A 
ATOM     50  H   UNL A   1      43.678  29.319  28.400  1.00  0.00     0.167 HD
ATOM     51  C   UNL A   1      47.930  30.349  28.351  1.00  0.00     0.031 A 
ATOM     52  C   UNL A   1      41.001  29.703  29.103  1.00  0.00     0.031 A 
ATOM     53  C   UNL A   1      47.268  31.493  28.918  1.00  0.00     0.049 A 
ATOM     54  C   UNL A   1      41.739  30.920  29.583  1.00  0.00     0.074 A 
ATOM     55  C   UNL A   1      47.818  32.705  29.299  1.00  0.00     0.029 A 
ATOM     56  N   UNL A   1      45.912  31.562  29.200  1.00  0.00    -0.354 N 
ATOM     57  N   UNL A   1      43.015  31.207  29.479  1.00  0.00    -0.248 NA
ATOM     58  C   UNL A   1      40.945  31.950  30.268  1.00  0.00     0.031 C 
ATOM     59  C   UNL A   1      46.807  33.479  29.877  1.00  0.00     0.029 A 
ATOM     60  C   UNL A   1      45.616  32.777  29.794  1.00  0.00     0.049 A 
ATOM     61  H   UNL A   1      45.258  30.852  29.005  1.00  0.00     0.167 HD
ATOM     62  C   UNL A   1      43.172  32.454  30.069  1.00  0.00     0.074 A 
ATOM     63  C   UNL A   1      41.859  32.880  30.507  1.00  0.00     0.031 C 
ATOM     64  C   UNL A   1      44.306  33.179  30.238  1.00  0.00     0.031 A 
BRANCH  51  65
ATOM     65  C   UNL A   1      49.427  30.384  28.214  1.00  0.00    -0.014 A 
ATOM     66  C   UNL A   1      50.047  30.886  27.059  1.00  0.00     0.009 A 
ATOM     67  C   UNL A   1      50.233  29.940  29.275  1.00  0.00     0.009 A 
ATOM     68  C   UNL A   1      51.439  30.905  26.952  1.00  0.00     0.001 A 
ATOM     69  C   UNL A   1      51.624  29.989  29.180  1.00  0.00     0.001 A 
ATOM     70  C   UNL A   1      52.226  30.462  28.015  1.00  0.00     0.000 A 
ENDBRANCH  51  65
BRANCH  52  71
ATOM     71  C   UNL A   1      39.536  29.565  29.318  1.00  0.00    -0.014 A 
ATOM     72  C   UNL A   1      39.035  29.028  30.513  1.00  0.00     0.009 A 
ATOM     73  C   UNL A   1      38.629  29.972  28.326  1.00  0.00     0.009 A 
ATOM     74  C   UNL A   1      37.659  28.880  30.701  1.00  0.00     0.001 A 
ATOM     75  C   UNL A   1      37.252  29.854  28.530  1.00  0.00     0.001 A 
ATOM     76  C   UNL A   1      36.768  29.298  29.712  1.00  0.00     0.000 A 
ENDBRANCH  52  71
BRANCH  64  77
ATOM     77  C   UNL A   1      44.176  34.512  30.921  1.00  0.00    -0.014 A 
ATOM     78  C   UNL A   1      44.324  34.631  32.311  1.00  0.00     0.009 A 
ATOM     79  C   UNL A   1      43.960  35.670  30.157  1.00  0.00     0.009 A 
ATOM     80  C   UNL A   1      44.234  35.882  32.925  1.00  0.00     0.001 A 
ATOM     81  C   UNL A   1      43.902  36.922  30.770  1.00  0.00     0.001 A 
ATOM     82  C   UNL A   1      44.032  37.026  32.154  1.00  0.00     0.000 A 
ENDBRANCH  64  77
ENDBRANCH  38  39
ENDBRANCH  30  33
ENDBRANCH  28  29
ENDBRANCH  27  28
ENDBRANCH  26  27
ENDBRANCH  25  26
ENDBRANCH   1  25
TORSDOF 21
ENDMDL
