MODEL 1
REMARK VINA RESULT:     -10.9      0.000      0.000
REMARK SMILES CSCC[C@@H](NC1=[NH+]S(=O)(=O)c2ccccc21)C(=O)NCCCCCCNC(=O)c1ccc(-c2c3nc(c(-c4ccccc4)c4ccc([nH]4)c(-c4ccccc4)c4nc(c(-c5ccccc5)c5ccc2[nH]5)C=C4)C=C3)cc1
REMARK SMILES IDX 23 1 22 2 21 3 20 4 18 5 19 6 5 8 4 9 3 10 2 11 1 12 6 13
REMARK SMILES IDX 7 14 8 16 17 17 9 18 12 20 16 21 10 22 11 23 13 24 15 25
REMARK SMILES IDX 14 26 24 27 25 28 26 29 27 30 28 31 29 33 30 34 31 35 77 36
REMARK SMILES IDX 32 37 76 38 33 39 34 40 35 41 70 42 36 43 75 44 69 45 71 46
REMARK SMILES IDX 37 47 74 48 68 49 67 50 38 52 60 53 45 54 59 55 46 56 49 57
REMARK SMILES IDX 58 58 72 59 47 60 48 61 57 63 73 64 50 65 39 66 40 67 44 68
REMARK SMILES IDX 41 69 43 70 42 71 61 72 62 73 66 74 63 75 65 76 64 77 51 78
REMARK SMILES IDX 52 79 56 80 53 81 55 82 54 83
REMARK H PARENT 20 7 6 15 8 19 27 32 71 51 49 62
REMARK Flexibility Score: inf
ROOT
ATOM      1  C   UNL A   1      33.847  25.943  25.569  1.00  0.00     0.002 C 
ENDROOT
BRANCH   1   2
ATOM      2  C   UNL A   1      32.735  25.161  26.275  1.00  0.00     0.021 C 
BRANCH   2   3
ATOM      3  C   UNL A   1      32.975  23.658  26.352  1.00  0.00     0.116 C 
BRANCH   3   4
ATOM      4  N   UNL A   1      34.145  23.253  25.599  1.00  0.00    -0.352 N 
ATOM      5  C   UNL A   1      34.246  22.550  24.430  1.00  0.00     0.264 C 
ATOM      6  O   UNL A   1      35.379  22.344  23.985  1.00  0.00    -0.270 OA
ATOM      7  H   UNL A   1      35.005  23.529  25.992  1.00  0.00     0.163 HD
BRANCH   5   8
ATOM      8  C   UNL A   1      33.002  21.930  23.742  1.00  0.00     0.262 C 
BRANCH   8   9
ATOM      9  C   UNL A   1      32.578  20.702  24.570  1.00  0.00     0.071 C 
BRANCH   9  10
ATOM     10  C   UNL A   1      33.454  19.456  24.449  1.00  0.00     0.074 C 
BRANCH  10  11
ATOM     11  S   UNL A   1      32.562  17.876  24.555  1.00  0.00    -0.165 SA
ATOM     12  C   UNL A   1      33.804  16.746  23.886  1.00  0.00     0.085 C 
ENDBRANCH  10  11
ENDBRANCH   9  10
ENDBRANCH   8   9
BRANCH   8  13
ATOM     13  N   UNL A   1      31.892  22.883  23.573  1.00  0.00    -0.261 N 
ATOM     14  C   UNL A   1      31.939  23.988  22.759  1.00  0.00     0.292 C 
ATOM     15  H   UNL A   1      31.062  22.717  24.075  1.00  0.00     0.306 HD
ATOM     16  N   UNL A   1      32.799  24.164  21.801  1.00  0.00    -0.162 N 
ATOM     17  C   UNL A   1      31.046  25.140  23.026  1.00  0.00     0.087 A 
ATOM     18  S   UNL A   1      32.697  25.678  21.178  1.00  0.00     0.329 S 
ATOM     19  H   UNL A   1      33.430  23.476  21.488  1.00  0.00     0.327 HD
ATOM     20  C   UNL A   1      31.409  26.202  22.224  1.00  0.00     0.124 A 
ATOM     21  C   UNL A   1      30.074  25.295  24.000  1.00  0.00     0.018 A 
ATOM     22  O   UNL A   1      32.166  25.650  19.836  1.00  0.00    -0.179 OA
ATOM     23  O   UNL A   1      33.865  26.451  21.551  1.00  0.00    -0.179 OA
ATOM     24  C   UNL A   1      30.874  27.468  22.356  1.00  0.00     0.025 A 
ATOM     25  C   UNL A   1      29.493  26.559  24.146  1.00  0.00     0.001 A 
ATOM     26  C   UNL A   1      29.896  27.640  23.338  1.00  0.00     0.002 A 
ENDBRANCH   8  13
ENDBRANCH   5   8
ENDBRANCH   3   4
ENDBRANCH   2   3
ENDBRANCH   1   2
BRANCH   1  27
ATOM     27  C   UNL A   1      33.464  27.346  25.084  1.00  0.00     0.002 C 
BRANCH  27  28
ATOM     28  C   UNL A   1      32.807  28.251  26.128  1.00  0.00     0.021 C 
BRANCH  28  29
ATOM     29  C   UNL A   1      33.679  28.588  27.332  1.00  0.00     0.116 C 
BRANCH  29  30
ATOM     30  N   UNL A   1      33.647  30.000  27.673  1.00  0.00    -0.352 N 
ATOM     31  C   UNL A   1      34.639  30.767  28.235  1.00  0.00     0.251 C 
ATOM     32  H   UNL A   1      32.805  30.469  27.475  1.00  0.00     0.163 HD
ATOM     33  O   UNL A   1      34.421  31.923  28.579  1.00  0.00    -0.269 OA
BRANCH  31  34
ATOM     34  C   UNL A   1      35.974  30.173  28.448  1.00  0.00     0.039 A 
ATOM     35  C   UNL A   1      36.906  30.213  27.408  1.00  0.00     0.014 A 
ATOM     36  C   UNL A   1      36.304  29.592  29.675  1.00  0.00     0.014 A 
ATOM     37  C   UNL A   1      38.197  29.721  27.618  1.00  0.00     0.010 A 
ATOM     38  C   UNL A   1      37.604  29.151  29.899  1.00  0.00     0.010 A 
ATOM     39  C   UNL A   1      38.561  29.211  28.873  1.00  0.00    -0.014 A 
BRANCH  39  40
ATOM     40  C   UNL A   1      39.931  28.710  29.142  1.00  0.00     0.031 A 
ATOM     41  C   UNL A   1      40.953  29.633  29.744  1.00  0.00     0.074 A 
ATOM     42  C   UNL A   1      40.278  27.466  28.767  1.00  0.00     0.049 A 
ATOM     43  N   UNL A   1      42.235  29.444  29.916  1.00  0.00    -0.248 NA
ATOM     44  C   UNL A   1      40.471  30.953  30.182  1.00  0.00     0.031 C 
ATOM     45  C   UNL A   1      39.385  26.479  28.157  1.00  0.00     0.029 A 
ATOM     46  N   UNL A   1      41.490  26.825  28.827  1.00  0.00    -0.354 N 
ATOM     47  C   UNL A   1      42.720  30.630  30.451  1.00  0.00     0.074 A 
ATOM     48  C   UNL A   1      41.601  31.541  30.547  1.00  0.00     0.031 C 
ATOM     49  C   UNL A   1      40.077  25.354  27.909  1.00  0.00     0.029 A 
ATOM     50  C   UNL A   1      41.468  25.555  28.304  1.00  0.00     0.049 A 
ATOM     51  H   UNL A   1      42.299  27.235  29.209  1.00  0.00     0.167 HD
ATOM     52  C   UNL A   1      43.982  30.931  30.838  1.00  0.00     0.031 A 
ATOM     53  C   UNL A   1      42.461  24.659  28.144  1.00  0.00     0.031 A 
ATOM     54  C   UNL A   1      45.089  30.017  30.768  1.00  0.00     0.049 A 
ATOM     55  C   UNL A   1      43.853  25.016  28.581  1.00  0.00     0.074 A 
ATOM     56  C   UNL A   1      46.395  30.211  31.182  1.00  0.00     0.029 A 
ATOM     57  N   UNL A   1      45.016  28.731  30.257  1.00  0.00    -0.354 N 
ATOM     58  N   UNL A   1      44.290  26.131  29.114  1.00  0.00    -0.248 NA
ATOM     59  C   UNL A   1      44.889  23.989  28.398  1.00  0.00     0.031 C 
ATOM     60  C   UNL A   1      47.121  29.051  30.892  1.00  0.00     0.029 A 
ATOM     61  C   UNL A   1      46.257  28.123  30.335  1.00  0.00     0.049 A 
ATOM     62  H   UNL A   1      44.203  28.312  29.894  1.00  0.00     0.167 HD
ATOM     63  C   UNL A   1      45.642  25.929  29.359  1.00  0.00     0.074 A 
ATOM     64  C   UNL A   1      45.954  24.585  28.919  1.00  0.00     0.031 C 
ATOM     65  C   UNL A   1      46.543  26.780  29.903  1.00  0.00     0.031 A 
BRANCH  52  66
ATOM     66  C   UNL A   1      44.231  32.316  31.360  1.00  0.00    -0.014 A 
ATOM     67  C   UNL A   1      44.639  33.353  30.505  1.00  0.00     0.009 A 
ATOM     68  C   UNL A   1      44.034  32.593  32.721  1.00  0.00     0.009 A 
ATOM     69  C   UNL A   1      44.878  34.632  31.011  1.00  0.00     0.001 A 
ATOM     70  C   UNL A   1      44.249  33.880  33.220  1.00  0.00     0.001 A 
ATOM     71  C   UNL A   1      44.680  34.895  32.366  1.00  0.00     0.000 A 
ENDBRANCH  52  66
BRANCH  53  72
ATOM     72  C   UNL A   1      42.173  23.330  27.549  1.00  0.00    -0.014 A 
ATOM     73  C   UNL A   1      41.594  22.316  28.327  1.00  0.00     0.009 A 
ATOM     74  C   UNL A   1      42.472  23.068  26.202  1.00  0.00     0.009 A 
ATOM     75  C   UNL A   1      41.342  21.059  27.775  1.00  0.00     0.001 A 
ATOM     76  C   UNL A   1      42.197  21.816  25.648  1.00  0.00     0.001 A 
ATOM     77  C   UNL A   1      41.639  20.811  26.436  1.00  0.00     0.000 A 
ENDBRANCH  53  72
BRANCH  65  78
ATOM     78  C   UNL A   1      47.942  26.273  30.096  1.00  0.00    -0.014 A 
ATOM     79  C   UNL A   1      48.889  26.346  29.064  1.00  0.00     0.009 A 
ATOM     80  C   UNL A   1      48.330  25.776  31.349  1.00  0.00     0.009 A 
ATOM     81  C   UNL A   1      50.198  25.911  29.281  1.00  0.00     0.001 A 
ATOM     82  C   UNL A   1      49.644  25.362  31.569  1.00  0.00     0.001 A 
ATOM     83  C   UNL A   1      50.575  25.425  30.534  1.00  0.00     0.000 A 
ENDBRANCH  65  78
ENDBRANCH  39  40
ENDBRANCH  31  34
ENDBRANCH  29  30
ENDBRANCH  28  29
ENDBRANCH  27  28
ENDBRANCH   1  27
TORSDOF 17
ENDMDL
MODEL 2
REMARK VINA RESULT:     -10.4      2.742      5.036
REMARK SMILES CSCC[C@@H](NC1=[NH+]S(=O)(=O)c2ccccc21)C(=O)NCCCCCCNC(=O)c1ccc(-c2c3nc(c(-c4ccccc4)c4ccc([nH]4)c(-c4ccccc4)c4nc(c(-c5ccccc5)c5ccc2[nH]5)C=C4)C=C3)cc1
REMARK SMILES IDX 23 1 22 2 21 3 20 4 18 5 19 6 5 8 4 9 3 10 2 11 1 12 6 13
REMARK SMILES IDX 7 14 8 16 17 17 9 18 12 20 16 21 10 22 11 23 13 24 15 25
REMARK SMILES IDX 14 26 24 27 25 28 26 29 27 30 28 31 29 33 30 34 31 35 77 36
REMARK SMILES IDX 32 37 76 38 33 39 34 40 35 41 70 42 36 43 75 44 69 45 71 46
REMARK SMILES IDX 37 47 74 48 68 49 67 50 38 52 60 53 45 54 59 55 46 56 49 57
REMARK SMILES IDX 58 58 72 59 47 60 48 61 57 63 73 64 50 65 39 66 40 67 44 68
REMARK SMILES IDX 41 69 43 70 42 71 61 72 62 73 66 74 63 75 65 76 64 77 51 78
REMARK SMILES IDX 52 79 56 80 53 81 55 82 54 83
REMARK H PARENT 20 7 6 15 8 19 27 32 71 51 49 62
REMARK Flexibility Score: inf
ROOT
ATOM      1  C   UNL A   1      31.717  29.449  27.133  1.00  0.00     0.002 C 
ENDROOT
BRANCH   1   2
ATOM      2  C   UNL A   1      33.063  28.718  27.125  1.00  0.00     0.021 C 
BRANCH   2   3
ATOM      3  C   UNL A   1      32.990  27.271  26.656  1.00  0.00     0.116 C 
BRANCH   3   4
ATOM      4  N   UNL A   1      31.682  26.690  26.880  1.00  0.00    -0.352 N 
ATOM      5  C   UNL A   1      30.830  26.064  26.011  1.00  0.00     0.264 C 
ATOM      6  O   UNL A   1      29.762  25.641  26.465  1.00  0.00    -0.270 OA
ATOM      7  H   UNL A   1      31.353  26.757  27.806  1.00  0.00     0.163 HD
BRANCH   5   8
ATOM      8  C   UNL A   1      31.130  25.983  24.492  1.00  0.00     0.262 C 
BRANCH   8   9
ATOM      9  C   UNL A   1      31.040  27.412  23.925  1.00  0.00     0.071 C 
BRANCH   9  10
ATOM     10  C   UNL A   1      30.048  27.638  22.786  1.00  0.00     0.074 C 
BRANCH  10  11
ATOM     11  S   UNL A   1      29.646  29.379  22.449  1.00  0.00    -0.165 SA
ATOM     12  C   UNL A   1      27.855  29.361  22.691  1.00  0.00     0.085 C 
ENDBRANCH  10  11
ENDBRANCH   9  10
ENDBRANCH   8   9
BRANCH   8  13
ATOM     13  N   UNL A   1      32.426  25.355  24.185  1.00  0.00    -0.261 N 
ATOM     14  C   UNL A   1      32.625  24.000  24.088  1.00  0.00     0.292 C 
ATOM     15  H   UNL A   1      33.200  25.945  24.039  1.00  0.00     0.306 HD
ATOM     16  N   UNL A   1      31.680  23.124  23.921  1.00  0.00    -0.162 N 
ATOM     17  C   UNL A   1      33.979  23.436  24.300  1.00  0.00     0.087 A 
ATOM     18  S   UNL A   1      32.253  21.593  24.059  1.00  0.00     0.329 S 
ATOM     19  H   UNL A   1      30.741  23.351  23.734  1.00  0.00     0.327 HD
ATOM     20  C   UNL A   1      33.902  22.059  24.361  1.00  0.00     0.124 A 
ATOM     21  C   UNL A   1      35.174  24.085  24.560  1.00  0.00     0.018 A 
ATOM     22  O   UNL A   1      32.232  20.917  22.783  1.00  0.00    -0.179 OA
ATOM     23  O   UNL A   1      31.769  20.988  25.284  1.00  0.00    -0.179 OA
ATOM     24  C   UNL A   1      34.969  21.256  24.714  1.00  0.00     0.025 A 
ATOM     25  C   UNL A   1      36.282  23.300  24.898  1.00  0.00     0.001 A 
ATOM     26  C   UNL A   1      36.178  21.898  24.984  1.00  0.00     0.002 A 
ENDBRANCH   8  13
ENDBRANCH   5   8
ENDBRANCH   3   4
ENDBRANCH   2   3
ENDBRANCH   1   2
BRANCH   1  27
ATOM     27  C   UNL A   1      31.548  30.536  26.065  1.00  0.00     0.002 C 
BRANCH  27  28
ATOM     28  C   UNL A   1      31.395  31.965  26.593  1.00  0.00     0.021 C 
BRANCH  28  29
ATOM     29  C   UNL A   1      32.672  32.589  27.145  1.00  0.00     0.116 C 
BRANCH  29  30
ATOM     30  N   UNL A   1      32.458  33.920  27.687  1.00  0.00    -0.352 N 
ATOM     31  C   UNL A   1      33.200  34.589  28.629  1.00  0.00     0.251 C 
ATOM     32  H   UNL A   1      31.680  34.407  27.332  1.00  0.00     0.163 HD
ATOM     33  O   UNL A   1      32.823  35.665  29.079  1.00  0.00    -0.269 OA
BRANCH  31  34
ATOM     34  C   UNL A   1      34.454  33.982  29.122  1.00  0.00     0.039 A 
ATOM     35  C   UNL A   1      34.426  33.242  30.308  1.00  0.00     0.014 A 
ATOM     36  C   UNL A   1      35.645  34.136  28.408  1.00  0.00     0.014 A 
ATOM     37  C   UNL A   1      35.587  32.603  30.749  1.00  0.00     0.010 A 
ATOM     38  C   UNL A   1      36.786  33.456  28.821  1.00  0.00     0.010 A 
ATOM     39  C   UNL A   1      36.767  32.684  29.994  1.00  0.00    -0.014 A 
BRANCH  39  40
ATOM     40  C   UNL A   1      38.009  31.992  30.415  1.00  0.00     0.031 A 
ATOM     41  C   UNL A   1      38.942  32.664  31.383  1.00  0.00     0.074 A 
ATOM     42  C   UNL A   1      38.341  30.810  29.863  1.00  0.00     0.049 A 
ATOM     43  N   UNL A   1      40.142  32.304  31.757  1.00  0.00    -0.248 NA
ATOM     44  C   UNL A   1      38.471  33.922  31.984  1.00  0.00     0.031 C 
ATOM     45  C   UNL A   1      37.532  30.063  28.899  1.00  0.00     0.029 A 
ATOM     46  N   UNL A   1      39.465  30.039  30.023  1.00  0.00    -0.354 N 
ATOM     47  C   UNL A   1      40.583  33.306  32.612  1.00  0.00     0.074 A 
ATOM     48  C   UNL A   1      39.536  34.301  32.677  1.00  0.00     0.031 C 
ATOM     49  C   UNL A   1      38.180  28.936  28.561  1.00  0.00     0.029 A 
ATOM     50  C   UNL A   1      39.466  28.902  29.252  1.00  0.00     0.049 A 
ATOM     51  H   UNL A   1      40.201  30.277  30.632  1.00  0.00     0.167 HD
ATOM     52  C   UNL A   1      41.752  33.385  33.291  1.00  0.00     0.031 A 
ATOM     53  C   UNL A   1      40.405  27.948  29.105  1.00  0.00     0.031 A 
ATOM     54  C   UNL A   1      42.782  32.384  33.249  1.00  0.00     0.049 A 
ATOM     55  C   UNL A   1      41.694  28.058  29.869  1.00  0.00     0.074 A 
ATOM     56  C   UNL A   1      43.980  32.349  33.940  1.00  0.00     0.029 A 
ATOM     57  N   UNL A   1      42.730  31.234  32.477  1.00  0.00    -0.354 N 
ATOM     58  N   UNL A   1      42.084  28.996  30.698  1.00  0.00    -0.248 NA
ATOM     59  C   UNL A   1      42.670  26.975  29.681  1.00  0.00     0.031 C 
ATOM     60  C   UNL A   1      44.668  31.191  33.561  1.00  0.00     0.029 A 
ATOM     61  C   UNL A   1      43.880  30.489  32.666  1.00  0.00     0.049 A 
ATOM     62  H   UNL A   1      41.985  30.985  31.883  1.00  0.00     0.167 HD
ATOM     63  C   UNL A   1      43.335  28.602  31.153  1.00  0.00     0.074 A 
ATOM     64  C   UNL A   1      43.639  27.340  30.511  1.00  0.00     0.031 C 
ATOM     65  C   UNL A   1      44.157  29.229  32.027  1.00  0.00     0.031 A 
BRANCH  52  66
ATOM     66  C   UNL A   1      41.980  34.610  34.129  1.00  0.00    -0.014 A 
ATOM     67  C   UNL A   1      42.437  35.807  33.556  1.00  0.00     0.009 A 
ATOM     68  C   UNL A   1      41.713  34.571  35.506  1.00  0.00     0.009 A 
ATOM     69  C   UNL A   1      42.655  36.933  34.354  1.00  0.00     0.001 A 
ATOM     70  C   UNL A   1      41.908  35.705  36.297  1.00  0.00     0.001 A 
ATOM     71  C   UNL A   1      42.388  36.882  35.721  1.00  0.00     0.000 A 
ENDBRANCH  52  66
BRANCH  53  72
ATOM     72  C   UNL A   1      40.158  26.797  28.201  1.00  0.00    -0.014 A 
ATOM     73  C   UNL A   1      39.444  25.678  28.657  1.00  0.00     0.009 A 
ATOM     74  C   UNL A   1      40.632  26.808  26.879  1.00  0.00     0.009 A 
ATOM     75  C   UNL A   1      39.229  24.585  27.816  1.00  0.00     0.001 A 
ATOM     76  C   UNL A   1      40.396  25.723  26.034  1.00  0.00     0.001 A 
ATOM     77  C   UNL A   1      39.700  24.610  26.504  1.00  0.00     0.000 A 
ENDBRANCH  53  72
BRANCH  65  78
ATOM     78  C   UNL A   1      45.444  28.542  32.379  1.00  0.00    -0.014 A 
ATOM     79  C   UNL A   1      46.621  28.794  31.659  1.00  0.00     0.009 A 
ATOM     80  C   UNL A   1      45.488  27.681  33.485  1.00  0.00     0.009 A 
ATOM     81  C   UNL A   1      47.817  28.179  32.033  1.00  0.00     0.001 A 
ATOM     82  C   UNL A   1      46.689  27.084  33.869  1.00  0.00     0.001 A 
ATOM     83  C   UNL A   1      47.851  27.330  33.140  1.00  0.00     0.000 A 
ENDBRANCH  65  78
ENDBRANCH  39  40
ENDBRANCH  31  34
ENDBRANCH  29  30
ENDBRANCH  28  29
ENDBRANCH  27  28
ENDBRANCH   1  27
TORSDOF 17
ENDMDL
MODEL 3
REMARK VINA RESULT:     -10.3      2.217      7.120
REMARK SMILES CSCC[C@@H](NC1=[NH+]S(=O)(=O)c2ccccc21)C(=O)NCCCCCCNC(=O)c1ccc(-c2c3nc(c(-c4ccccc4)c4ccc([nH]4)c(-c4ccccc4)c4nc(c(-c5ccccc5)c5ccc2[nH]5)C=C4)C=C3)cc1
REMARK SMILES IDX 23 1 22 2 21 3 20 4 18 5 19 6 5 8 4 9 3 10 2 11 1 12 6 13
REMARK SMILES IDX 7 14 8 16 17 17 9 18 12 20 16 21 10 22 11 23 13 24 15 25
REMARK SMILES IDX 14 26 24 27 25 28 26 29 27 30 28 31 29 33 30 34 31 35 77 36
REMARK SMILES IDX 32 37 76 38 33 39 34 40 35 41 70 42 36 43 75 44 69 45 71 46
REMARK SMILES IDX 37 47 74 48 68 49 67 50 38 52 60 53 45 54 59 55 46 56 49 57
REMARK SMILES IDX 58 58 72 59 47 60 48 61 57 63 73 64 50 65 39 66 40 67 44 68
REMARK SMILES IDX 41 69 43 70 42 71 61 72 62 73 66 74 63 75 65 76 64 77 51 78
REMARK SMILES IDX 52 79 56 80 53 81 55 82 54 83
REMARK H PARENT 20 7 6 15 8 19 27 32 71 51 49 62
REMARK Flexibility Score: inf
ROOT
ATOM      1  C   UNL A   1      38.170  23.469  26.169  1.00  0.00     0.002 C 
ENDROOT
BRANCH   1   2
ATOM      2  C   UNL A   1      36.941  22.617  25.839  1.00  0.00     0.021 C 
BRANCH   2   3
ATOM      3  C   UNL A   1      35.618  23.369  25.903  1.00  0.00     0.116 C 
BRANCH   3   4
ATOM      4  N   UNL A   1      34.795  22.931  27.012  1.00  0.00    -0.352 N 
ATOM      5  C   UNL A   1      33.435  22.939  27.162  1.00  0.00     0.264 C 
ATOM      6  O   UNL A   1      32.976  22.490  28.217  1.00  0.00    -0.270 OA
ATOM      7  H   UNL A   1      35.294  22.570  27.780  1.00  0.00     0.163 HD
BRANCH   5   8
ATOM      8  C   UNL A   1      32.502  23.588  26.108  1.00  0.00     0.262 C 
BRANCH   8   9
ATOM      9  C   UNL A   1      31.347  22.605  25.842  1.00  0.00     0.071 C 
BRANCH   9  10
ATOM     10  C   UNL A   1      31.727  21.234  25.285  1.00  0.00     0.074 C 
BRANCH  10  11
ATOM     11  S   UNL A   1      33.037  21.250  24.025  1.00  0.00    -0.165 SA
ATOM     12  C   UNL A   1      34.216  20.089  24.754  1.00  0.00     0.085 C 
ENDBRANCH  10  11
ENDBRANCH   9  10
ENDBRANCH   8   9
BRANCH   8  13
ATOM     13  N   UNL A   1      32.007  24.916  26.505  1.00  0.00    -0.261 N 
ATOM     14  C   UNL A   1      31.600  25.887  25.622  1.00  0.00     0.292 C 
ATOM     15  H   UNL A   1      31.963  25.122  27.467  1.00  0.00     0.306 HD
ATOM     16  N   UNL A   1      31.282  25.670  24.382  1.00  0.00    -0.162 N 
ATOM     17  C   UNL A   1      31.621  27.311  26.030  1.00  0.00     0.087 A 
ATOM     18  S   UNL A   1      31.049  27.076  23.570  1.00  0.00     0.329 S 
ATOM     19  H   UNL A   1      31.192  24.776  23.980  1.00  0.00     0.327 HD
ATOM     20  C   UNL A   1      31.376  28.110  24.931  1.00  0.00     0.124 A 
ATOM     21  C   UNL A   1      31.968  27.875  27.246  1.00  0.00     0.018 A 
ATOM     22  O   UNL A   1      29.657  27.253  23.232  1.00  0.00    -0.179 OA
ATOM     23  O   UNL A   1      32.127  27.293  22.626  1.00  0.00    -0.179 OA
ATOM     24  C   UNL A   1      31.494  29.485  24.955  1.00  0.00     0.025 A 
ATOM     25  C   UNL A   1      32.074  29.269  27.311  1.00  0.00     0.001 A 
ATOM     26  C   UNL A   1      31.848  30.067  26.173  1.00  0.00     0.002 A 
ENDBRANCH   8  13
ENDBRANCH   5   8
ENDBRANCH   3   4
ENDBRANCH   2   3
ENDBRANCH   1   2
BRANCH   1  27
ATOM     27  C   UNL A   1      39.419  22.692  26.600  1.00  0.00     0.002 C 
BRANCH  27  28
ATOM     28  C   UNL A   1      39.601  21.318  25.951  1.00  0.00     0.021 C 
BRANCH  28  29
ATOM     29  C   UNL A   1      40.405  20.316  26.772  1.00  0.00     0.116 C 
BRANCH  29  30
ATOM     30  N   UNL A   1      41.580  19.828  26.072  1.00  0.00    -0.352 N 
ATOM     31  C   UNL A   1      42.727  20.511  25.748  1.00  0.00     0.251 C 
ATOM     32  H   UNL A   1      41.551  18.885  25.794  1.00  0.00     0.163 HD
ATOM     33  O   UNL A   1      43.587  19.995  25.044  1.00  0.00    -0.269 OA
BRANCH  31  34
ATOM     34  C   UNL A   1      42.905  21.893  26.237  1.00  0.00     0.039 A 
ATOM     35  C   UNL A   1      42.989  22.933  25.307  1.00  0.00     0.014 A 
ATOM     36  C   UNL A   1      42.977  22.158  27.607  1.00  0.00     0.014 A 
ATOM     37  C   UNL A   1      43.086  24.253  25.755  1.00  0.00     0.010 A 
ATOM     38  C   UNL A   1      43.020  23.475  28.051  1.00  0.00     0.010 A 
ATOM     39  C   UNL A   1      43.075  24.533  27.129  1.00  0.00    -0.014 A 
BRANCH  39  40
ATOM     40  C   UNL A   1      43.143  25.924  27.641  1.00  0.00     0.031 A 
ATOM     41  C   UNL A   1      44.470  26.503  28.042  1.00  0.00     0.074 A 
ATOM     42  C   UNL A   1      42.012  26.628  27.829  1.00  0.00     0.049 A 
ATOM     43  N   UNL A   1      44.728  27.631  28.650  1.00  0.00    -0.248 NA
ATOM     44  C   UNL A   1      45.660  25.689  27.743  1.00  0.00     0.031 C 
ATOM     45  C   UNL A   1      40.660  26.173  27.497  1.00  0.00     0.029 A 
ATOM     46  N   UNL A   1      41.820  27.876  28.367  1.00  0.00    -0.354 N 
ATOM     47  C   UNL A   1      46.105  27.649  28.837  1.00  0.00     0.074 A 
ATOM     48  C   UNL A   1      46.622  26.408  28.305  1.00  0.00     0.031 C 
ATOM     49  C   UNL A   1      39.780  27.133  27.829  1.00  0.00     0.029 A 
ATOM     50  C   UNL A   1      40.500  28.250  28.433  1.00  0.00     0.049 A 
ATOM     51  H   UNL A   1      42.558  28.450  28.675  1.00  0.00     0.167 HD
ATOM     52  C   UNL A   1      46.871  28.617  29.393  1.00  0.00     0.031 A 
ATOM     53  C   UNL A   1      39.932  29.361  28.940  1.00  0.00     0.031 A 
ATOM     54  C   UNL A   1      46.361  29.863  29.897  1.00  0.00     0.049 A 
ATOM     55  C   UNL A   1      40.803  30.422  29.551  1.00  0.00     0.074 A 
ATOM     56  C   UNL A   1      47.063  30.928  30.433  1.00  0.00     0.029 A 
ATOM     57  N   UNL A   1      45.021  30.213  29.919  1.00  0.00    -0.354 N 
ATOM     58  N   UNL A   1      42.106  30.438  29.692  1.00  0.00    -0.248 NA
ATOM     59  C   UNL A   1      40.125  31.619  30.068  1.00  0.00     0.031 C 
ATOM     60  C   UNL A   1      46.142  31.912  30.808  1.00  0.00     0.029 A 
ATOM     61  C   UNL A   1      44.873  31.473  30.469  1.00  0.00     0.049 A 
ATOM     62  H   UNL A   1      44.283  29.648  29.591  1.00  0.00     0.167 HD
ATOM     63  C   UNL A   1      42.407  31.657  30.286  1.00  0.00     0.074 A 
ATOM     64  C   UNL A   1      41.152  32.354  30.475  1.00  0.00     0.031 C 
ATOM     65  C   UNL A   1      43.616  32.155  30.638  1.00  0.00     0.031 A 
BRANCH  52  66
ATOM     66  C   UNL A   1      48.345  28.356  29.494  1.00  0.00    -0.014 A 
ATOM     67  C   UNL A   1      49.211  28.653  28.429  1.00  0.00     0.009 A 
ATOM     68  C   UNL A   1      48.880  27.827  30.679  1.00  0.00     0.009 A 
ATOM     69  C   UNL A   1      50.578  28.391  28.536  1.00  0.00     0.001 A 
ATOM     70  C   UNL A   1      50.251  27.590  30.793  1.00  0.00     0.001 A 
ATOM     71  C   UNL A   1      51.097  27.864  29.719  1.00  0.00     0.000 A 
ENDBRANCH  52  66
BRANCH  53  72
ATOM     72  C   UNL A   1      38.459  29.533  28.883  1.00  0.00    -0.014 A 
ATOM     73  C   UNL A   1      37.838  29.939  27.692  1.00  0.00     0.009 A 
ATOM     74  C   UNL A   1      37.665  29.293  30.016  1.00  0.00     0.009 A 
ATOM     75  C   UNL A   1      36.455  30.122  27.642  1.00  0.00     0.001 A 
ATOM     76  C   UNL A   1      36.280  29.456  29.956  1.00  0.00     0.001 A 
ATOM     77  C   UNL A   1      35.677  29.876  28.771  1.00  0.00     0.000 A 
ENDBRANCH  53  72
BRANCH  65  78
ATOM     78  C   UNL A   1      43.649  33.536  31.223  1.00  0.00    -0.014 A 
ATOM     79  C   UNL A   1      43.593  33.738  32.610  1.00  0.00     0.009 A 
ATOM     80  C   UNL A   1      43.804  34.643  30.375  1.00  0.00     0.009 A 
ATOM     81  C   UNL A   1      43.673  35.029  33.134  1.00  0.00     0.001 A 
ATOM     82  C   UNL A   1      43.904  35.930  30.904  1.00  0.00     0.001 A 
ATOM     83  C   UNL A   1      43.833  36.122  32.282  1.00  0.00     0.000 A 
ENDBRANCH  65  78
ENDBRANCH  39  40
ENDBRANCH  31  34
ENDBRANCH  29  30
ENDBRANCH  28  29
ENDBRANCH  27  28
ENDBRANCH   1  27
TORSDOF 17
ENDMDL
