MODEL 1
REMARK VINA RESULT:     -10.5      0.000      0.000
REMARK SMILES CC(C)Cc1ccc([C@@H](C)C(=O)NCCCCCCNC(=O)c2ccc(-c3c4nc(c(-c5ccccc5)c5ccc([nH]5)c(-c5ccccc5)c5nc(c(-c6ccccc6)c6ccc3[nH]6)C=C5)C=C4)cc2)cc1
REMARK SMILES IDX 16 1 15 2 14 3 13 4 11 5 12 6 9 8 10 9 8 10 5 11 6 12 72 13
REMARK SMILES IDX 7 14 71 15 4 16 2 17 1 18 3 19 17 20 18 21 19 22 20 23 21 24
REMARK SMILES IDX 22 26 23 27 24 28 70 29 25 30 69 31 26 32 27 33 28 34 63 35
REMARK SMILES IDX 29 36 68 37 62 38 64 39 30 40 67 41 61 42 60 43 31 45 53 46
REMARK SMILES IDX 38 47 52 48 39 49 42 50 51 51 65 52 40 53 41 54 50 56 66 57
REMARK SMILES IDX 43 58 32 59 33 60 37 61 34 62 36 63 35 64 54 65 55 66 59 67
REMARK SMILES IDX 56 68 58 69 57 70 44 71 45 72 49 73 46 74 48 75 47 76
REMARK H PARENT 13 7 20 25 64 44 42 55
REMARK Flexibility Score: inf
ROOT
ATOM      1  C   UNL A   1      36.799  21.746  25.200  1.00  0.00     0.002 C 
ENDROOT
BRANCH   1   2
ATOM      2  C   UNL A   1      36.634  22.737  24.044  1.00  0.00     0.021 C 
BRANCH   2   3
ATOM      3  C   UNL A   1      35.328  23.533  24.090  1.00  0.00     0.116 C 
BRANCH   3   4
ATOM      4  N   UNL A   1      34.725  23.654  22.779  1.00  0.00    -0.356 N 
ATOM      5  C   UNL A   1      33.468  23.383  22.332  1.00  0.00     0.227 C 
ATOM      6  O   UNL A   1      33.278  23.518  21.117  1.00  0.00    -0.274 OA
ATOM      7  H   UNL A   1      35.335  23.993  22.086  1.00  0.00     0.163 HD
BRANCH   5   8
ATOM      8  C   UNL A   1      32.310  22.957  23.244  1.00  0.00     0.105 C 
ATOM      9  C   UNL A   1      31.794  24.066  24.164  1.00  0.00     0.023 C 
BRANCH   8  10
ATOM     10  C   UNL A   1      32.509  21.602  23.903  1.00  0.00    -0.036 A 
ATOM     11  C   UNL A   1      32.835  19.044  25.076  1.00  0.00    -0.048 A 
ATOM     12  C   UNL A   1      33.031  20.207  25.825  1.00  0.00     0.004 A 
ATOM     13  C   UNL A   1      32.519  19.167  23.719  1.00  0.00     0.004 A 
ATOM     14  C   UNL A   1      32.824  21.462  25.258  1.00  0.00     0.005 A 
ATOM     15  C   UNL A   1      32.373  20.432  23.138  1.00  0.00     0.005 A 
BRANCH  11  16
ATOM     16  C   UNL A   1      32.925  17.689  25.737  1.00  0.00     0.038 C 
BRANCH  16  17
ATOM     17  C   UNL A   1      33.018  16.526  24.721  1.00  0.00    -0.013 C 
ATOM     18  C   UNL A   1      34.419  16.410  24.114  1.00  0.00     0.008 C 
ATOM     19  C   UNL A   1      32.616  15.208  25.378  1.00  0.00     0.008 C 
ENDBRANCH  16  17
ENDBRANCH  11  16
ENDBRANCH   8  10
ENDBRANCH   5   8
ENDBRANCH   3   4
ENDBRANCH   2   3
ENDBRANCH   1   2
BRANCH   1  20
ATOM     20  C   UNL A   1      36.522  20.279  24.846  1.00  0.00     0.002 C 
BRANCH  20  21
ATOM     21  C   UNL A   1      37.712  19.324  24.997  1.00  0.00     0.021 C 
BRANCH  21  22
ATOM     22  C   UNL A   1      38.974  19.955  25.581  1.00  0.00     0.116 C 
BRANCH  22  23
ATOM     23  N   UNL A   1      40.039  18.978  25.753  1.00  0.00    -0.352 N 
ATOM     24  C   UNL A   1      41.376  19.166  25.994  1.00  0.00     0.251 C 
ATOM     25  H   UNL A   1      39.755  18.038  25.686  1.00  0.00     0.163 HD
ATOM     26  O   UNL A   1      42.156  18.226  25.885  1.00  0.00    -0.269 OA
BRANCH  24  27
ATOM     27  C   UNL A   1      41.888  20.500  26.379  1.00  0.00     0.039 A 
ATOM     28  C   UNL A   1      42.302  21.379  25.375  1.00  0.00     0.014 A 
ATOM     29  C   UNL A   1      42.006  20.866  27.723  1.00  0.00     0.014 A 
ATOM     30  C   UNL A   1      42.787  22.645  25.715  1.00  0.00     0.010 A 
ATOM     31  C   UNL A   1      42.434  22.149  28.058  1.00  0.00     0.010 A 
ATOM     32  C   UNL A   1      42.833  23.049  27.058  1.00  0.00    -0.014 A 
BRANCH  32  33
ATOM     33  C   UNL A   1      43.295  24.409  27.437  1.00  0.00     0.031 A 
ATOM     34  C   UNL A   1      42.304  25.456  27.864  1.00  0.00     0.074 A 
ATOM     35  C   UNL A   1      44.601  24.721  27.330  1.00  0.00     0.049 A 
ATOM     36  N   UNL A   1      42.509  26.715  28.158  1.00  0.00    -0.248 NA
ATOM     37  C   UNL A   1      40.893  25.041  27.951  1.00  0.00     0.031 C 
ATOM     38  C   UNL A   1      45.660  23.810  26.888  1.00  0.00     0.029 A 
ATOM     39  N   UNL A   1      45.260  25.901  27.572  1.00  0.00    -0.354 N 
ATOM     40  C   UNL A   1      41.257  27.247  28.439  1.00  0.00     0.074 A 
ATOM     41  C   UNL A   1      40.292  26.185  28.250  1.00  0.00     0.031 C 
ATOM     42  C   UNL A   1      46.834  24.461  26.903  1.00  0.00     0.029 A 
ATOM     43  C   UNL A   1      46.609  25.841  27.319  1.00  0.00     0.049 A 
ATOM     44  H   UNL A   1      44.808  26.714  27.894  1.00  0.00     0.167 HD
ATOM     45  C   UNL A   1      40.938  28.504  28.831  1.00  0.00     0.031 A 
ATOM     46  C   UNL A   1      47.557  26.793  27.404  1.00  0.00     0.031 A 
ATOM     47  C   UNL A   1      41.897  29.553  29.049  1.00  0.00     0.049 A 
ATOM     48  C   UNL A   1      47.176  28.175  27.854  1.00  0.00     0.074 A 
ATOM     49  C   UNL A   1      41.676  30.837  29.518  1.00  0.00     0.029 A 
ATOM     50  N   UNL A   1      43.257  29.441  28.813  1.00  0.00    -0.354 N 
ATOM     51  N   UNL A   1      45.997  28.639  28.188  1.00  0.00    -0.248 NA
ATOM     52  C   UNL A   1      48.262  29.163  27.950  1.00  0.00     0.031 C 
ATOM     53  C   UNL A   1      42.898  31.516  29.526  1.00  0.00     0.029 A 
ATOM     54  C   UNL A   1      43.885  30.640  29.106  1.00  0.00     0.049 A 
ATOM     55  H   UNL A   1      43.710  28.630  28.486  1.00  0.00     0.167 HD
ATOM     56  C   UNL A   1      46.203  29.961  28.561  1.00  0.00     0.074 A 
ATOM     57  C   UNL A   1      47.621  30.221  28.427  1.00  0.00     0.031 C 
ATOM     58  C   UNL A   1      45.298  30.879  28.976  1.00  0.00     0.031 A 
BRANCH  45  59
ATOM     59  C   UNL A   1      39.487  28.821  29.053  1.00  0.00    -0.014 A 
ATOM     60  C   UNL A   1      38.891  28.655  30.312  1.00  0.00     0.009 A 
ATOM     61  C   UNL A   1      38.723  29.357  28.003  1.00  0.00     0.009 A 
ATOM     62  C   UNL A   1      37.552  28.999  30.511  1.00  0.00     0.001 A 
ATOM     63  C   UNL A   1      37.392  29.721  28.211  1.00  0.00     0.001 A 
ATOM     64  C   UNL A   1      36.806  29.537  29.462  1.00  0.00     0.000 A 
ENDBRANCH  45  59
BRANCH  46  65
ATOM     65  C   UNL A   1      48.968  26.479  27.056  1.00  0.00    -0.014 A 
ATOM     66  C   UNL A   1      49.421  26.602  25.733  1.00  0.00     0.009 A 
ATOM     67  C   UNL A   1      49.861  26.027  28.039  1.00  0.00     0.009 A 
ATOM     68  C   UNL A   1      50.728  26.244  25.396  1.00  0.00     0.001 A 
ATOM     69  C   UNL A   1      51.176  25.698  27.706  1.00  0.00     0.001 A 
ATOM     70  C   UNL A   1      51.605  25.795  26.383  1.00  0.00     0.000 A 
ENDBRANCH  46  65
BRANCH  58  71
ATOM     71  C   UNL A   1      45.818  32.236  29.352  1.00  0.00    -0.014 A 
ATOM     72  C   UNL A   1      46.264  32.508  30.655  1.00  0.00     0.009 A 
ATOM     73  C   UNL A   1      45.901  33.242  28.377  1.00  0.00     0.009 A 
ATOM     74  C   UNL A   1      46.753  33.775  30.980  1.00  0.00     0.001 A 
ATOM     75  C   UNL A   1      46.416  34.498  28.699  1.00  0.00     0.001 A 
ATOM     76  C   UNL A   1      46.833  34.766  30.002  1.00  0.00     0.000 A 
ENDBRANCH  58  71
ENDBRANCH  32  33
ENDBRANCH  24  27
ENDBRANCH  22  23
ENDBRANCH  21  22
ENDBRANCH  20  21
ENDBRANCH   1  20
TORSDOF 16
ENDMDL
MODEL 2
REMARK VINA RESULT:     -10.4      5.203     10.318
REMARK SMILES CC(C)Cc1ccc([C@@H](C)C(=O)NCCCCCCNC(=O)c2ccc(-c3c4nc(c(-c5ccccc5)c5ccc([nH]5)c(-c5ccccc5)c5nc(c(-c6ccccc6)c6ccc3[nH]6)C=C5)C=C4)cc2)cc1
REMARK SMILES IDX 16 1 15 2 14 3 13 4 11 5 12 6 9 8 10 9 8 10 5 11 6 12 72 13
REMARK SMILES IDX 7 14 71 15 4 16 2 17 1 18 3 19 17 20 18 21 19 22 20 23 21 24
REMARK SMILES IDX 22 26 23 27 24 28 70 29 25 30 69 31 26 32 27 33 28 34 63 35
REMARK SMILES IDX 29 36 68 37 62 38 64 39 30 40 67 41 61 42 60 43 31 45 53 46
REMARK SMILES IDX 38 47 52 48 39 49 42 50 51 51 65 52 40 53 41 54 50 56 66 57
REMARK SMILES IDX 43 58 32 59 33 60 37 61 34 62 36 63 35 64 54 65 55 66 59 67
REMARK SMILES IDX 56 68 58 69 57 70 44 71 45 72 49 73 46 74 48 75 47 76
REMARK H PARENT 13 7 20 25 64 44 42 55
REMARK Flexibility Score: inf
ROOT
ATOM      1  C   UNL A   1      31.781  29.665  25.578  1.00  0.00     0.002 C 
ENDROOT
BRANCH   1   2
ATOM      2  C   UNL A   1      33.215  29.267  25.222  1.00  0.00     0.021 C 
BRANCH   2   3
ATOM      3  C   UNL A   1      33.490  27.766  25.335  1.00  0.00     0.116 C 
BRANCH   3   4
ATOM      4  N   UNL A   1      33.778  27.172  24.047  1.00  0.00    -0.356 N 
ATOM      5  C   UNL A   1      33.032  26.383  23.227  1.00  0.00     0.227 C 
ATOM      6  O   UNL A   1      33.596  25.961  22.209  1.00  0.00    -0.274 OA
ATOM      7  H   UNL A   1      34.677  27.375  23.702  1.00  0.00     0.163 HD
BRANCH   5   8
ATOM      8  C   UNL A   1      31.562  26.025  23.488  1.00  0.00     0.105 C 
ATOM      9  C   UNL A   1      31.158  24.633  22.997  1.00  0.00     0.023 C 
BRANCH   8  10
ATOM     10  C   UNL A   1      30.587  27.143  23.158  1.00  0.00    -0.036 A 
ATOM     11  C   UNL A   1      28.709  29.176  22.555  1.00  0.00    -0.048 A 
ATOM     12  C   UNL A   1      30.030  29.263  22.106  1.00  0.00     0.004 A 
ATOM     13  C   UNL A   1      28.342  28.085  23.349  1.00  0.00     0.004 A 
ATOM     14  C   UNL A   1      30.938  28.239  22.365  1.00  0.00     0.005 A 
ATOM     15  C   UNL A   1      29.276  27.089  23.658  1.00  0.00     0.005 A 
BRANCH  11  16
ATOM     16  C   UNL A   1      27.698  30.223  22.150  1.00  0.00     0.038 C 
BRANCH  16  17
ATOM     17  C   UNL A   1      27.922  31.583  22.853  1.00  0.00    -0.013 C 
ATOM     18  C   UNL A   1      28.943  31.474  23.989  1.00  0.00     0.008 C 
ATOM     19  C   UNL A   1      28.366  32.640  21.844  1.00  0.00     0.008 C 
ENDBRANCH  16  17
ENDBRANCH  11  16
ENDBRANCH   8  10
ENDBRANCH   5   8
ENDBRANCH   3   4
ENDBRANCH   2   3
ENDBRANCH   1   2
BRANCH   1  20
ATOM     20  C   UNL A   1      31.625  30.426  26.901  1.00  0.00     0.002 C 
BRANCH  20  21
ATOM     21  C   UNL A   1      31.404  31.938  26.776  1.00  0.00     0.021 C 
BRANCH  21  22
ATOM     22  C   UNL A   1      32.673  32.783  26.865  1.00  0.00     0.116 C 
BRANCH  22  23
ATOM     23  N   UNL A   1      32.459  34.004  27.626  1.00  0.00    -0.352 N 
ATOM     24  C   UNL A   1      33.130  34.491  28.719  1.00  0.00     0.251 C 
ATOM     25  H   UNL A   1      31.718  34.568  27.307  1.00  0.00     0.163 HD
ATOM     26  O   UNL A   1      32.662  35.425  29.361  1.00  0.00    -0.269 OA
BRANCH  24  27
ATOM     27  C   UNL A   1      34.416  33.891  29.136  1.00  0.00     0.039 A 
ATOM     28  C   UNL A   1      35.586  34.277  28.476  1.00  0.00     0.014 A 
ATOM     29  C   UNL A   1      34.467  32.917  30.138  1.00  0.00     0.014 A 
ATOM     30  C   UNL A   1      36.813  33.725  28.854  1.00  0.00     0.010 A 
ATOM     31  C   UNL A   1      35.697  32.411  30.553  1.00  0.00     0.010 A 
ATOM     32  C   UNL A   1      36.881  32.807  29.913  1.00  0.00    -0.014 A 
BRANCH  32  33
ATOM     33  C   UNL A   1      38.181  32.249  30.365  1.00  0.00     0.031 A 
ATOM     34  C   UNL A   1      38.697  30.960  29.785  1.00  0.00     0.074 A 
ATOM     35  C   UNL A   1      38.865  32.866  31.347  1.00  0.00     0.049 A 
ATOM     36  N   UNL A   1      39.769  30.281  30.108  1.00  0.00    -0.248 NA
ATOM     37  C   UNL A   1      37.891  30.339  28.720  1.00  0.00     0.031 C 
ATOM     38  C   UNL A   1      38.454  34.100  32.022  1.00  0.00     0.029 A 
ATOM     39  N   UNL A   1      40.047  32.531  31.961  1.00  0.00    -0.354 N 
ATOM     40  C   UNL A   1      39.753  29.146  29.306  1.00  0.00     0.074 A 
ATOM     41  C   UNL A   1      38.550  29.209  28.505  1.00  0.00     0.031 C 
ATOM     42  C   UNL A   1      39.375  34.423  32.946  1.00  0.00     0.029 A 
ATOM     43  C   UNL A   1      40.419  33.404  32.954  1.00  0.00     0.049 A 
ATOM     44  H   UNL A   1      40.577  31.739  31.713  1.00  0.00     0.167 HD
ATOM     45  C   UNL A   1      40.665  28.147  29.234  1.00  0.00     0.031 A 
ATOM     46  C   UNL A   1      41.479  33.382  33.785  1.00  0.00     0.031 A 
ATOM     47  C   UNL A   1      41.876  28.097  30.008  1.00  0.00     0.049 A 
ATOM     48  C   UNL A   1      42.480  32.267  33.673  1.00  0.00     0.074 A 
ATOM     49  C   UNL A   1      42.896  27.162  29.949  1.00  0.00     0.029 A 
ATOM     50  N   UNL A   1      42.231  29.017  30.978  1.00  0.00    -0.354 N 
ATOM     51  N   UNL A   1      42.487  31.242  32.856  1.00  0.00    -0.248 NA
ATOM     52  C   UNL A   1      43.627  32.313  34.592  1.00  0.00     0.031 C 
ATOM     53  C   UNL A   1      43.850  27.494  30.916  1.00  0.00     0.029 A 
ATOM     54  C   UNL A   1      43.445  28.662  31.542  1.00  0.00     0.049 A 
ATOM     55  H   UNL A   1      41.701  29.808  31.231  1.00  0.00     0.167 HD
ATOM     56  C   UNL A   1      43.651  30.539  33.143  1.00  0.00     0.074 A 
ATOM     57  C   UNL A   1      44.331  31.262  34.197  1.00  0.00     0.031 C 
ATOM     58  C   UNL A   1      44.113  29.396  32.583  1.00  0.00     0.031 A 
BRANCH  45  59
ATOM     59  C   UNL A   1      40.391  27.017  28.283  1.00  0.00    -0.014 A 
ATOM     60  C   UNL A   1      40.908  27.023  26.980  1.00  0.00     0.009 A 
ATOM     61  C   UNL A   1      39.661  25.900  28.721  1.00  0.00     0.009 A 
ATOM     62  C   UNL A   1      40.681  25.942  26.124  1.00  0.00     0.001 A 
ATOM     63  C   UNL A   1      39.456  24.812  27.872  1.00  0.00     0.001 A 
ATOM     64  C   UNL A   1      39.961  24.835  26.574  1.00  0.00     0.000 A 
ENDBRANCH  45  59
BRANCH  46  65
ATOM     65  C   UNL A   1      41.655  34.451  34.802  1.00  0.00    -0.014 A 
ATOM     66  C   UNL A   1      42.368  35.619  34.493  1.00  0.00     0.009 A 
ATOM     67  C   UNL A   1      41.135  34.296  36.097  1.00  0.00     0.009 A 
ATOM     68  C   UNL A   1      42.589  36.594  35.469  1.00  0.00     0.001 A 
ATOM     69  C   UNL A   1      41.331  35.285  37.063  1.00  0.00     0.001 A 
ATOM     70  C   UNL A   1      42.068  36.427  36.752  1.00  0.00     0.000 A 
ENDBRANCH  46  65
BRANCH  58  71
ATOM     71  C   UNL A   1      45.435  28.878  33.072  1.00  0.00    -0.014 A 
ATOM     72  C   UNL A   1      46.640  29.295  32.488  1.00  0.00     0.009 A 
ATOM     73  C   UNL A   1      45.473  27.992  34.160  1.00  0.00     0.009 A 
ATOM     74  C   UNL A   1      47.859  28.807  32.965  1.00  0.00     0.001 A 
ATOM     75  C   UNL A   1      46.693  27.528  34.651  1.00  0.00     0.001 A 
ATOM     76  C   UNL A   1      47.885  27.929  34.048  1.00  0.00     0.000 A 
ENDBRANCH  58  71
ENDBRANCH  32  33
ENDBRANCH  24  27
ENDBRANCH  22  23
ENDBRANCH  21  22
ENDBRANCH  20  21
ENDBRANCH   1  20
TORSDOF 16
ENDMDL
MODEL 3
REMARK VINA RESULT:     -10.4      3.320      7.566
REMARK SMILES CC(C)Cc1ccc([C@@H](C)C(=O)NCCCCCCNC(=O)c2ccc(-c3c4nc(c(-c5ccccc5)c5ccc([nH]5)c(-c5ccccc5)c5nc(c(-c6ccccc6)c6ccc3[nH]6)C=C5)C=C4)cc2)cc1
REMARK SMILES IDX 16 1 15 2 14 3 13 4 11 5 12 6 9 8 10 9 8 10 5 11 6 12 72 13
REMARK SMILES IDX 7 14 71 15 4 16 2 17 1 18 3 19 17 20 18 21 19 22 20 23 21 24
REMARK SMILES IDX 22 26 23 27 24 28 70 29 25 30 69 31 26 32 27 33 28 34 63 35
REMARK SMILES IDX 29 36 68 37 62 38 64 39 30 40 67 41 61 42 60 43 31 45 53 46
REMARK SMILES IDX 38 47 52 48 39 49 42 50 51 51 65 52 40 53 41 54 50 56 66 57
REMARK SMILES IDX 43 58 32 59 33 60 37 61 34 62 36 63 35 64 54 65 55 66 59 67
REMARK SMILES IDX 56 68 58 69 57 70 44 71 45 72 49 73 46 74 48 75 47 76
REMARK H PARENT 13 7 20 25 64 44 42 55
REMARK Flexibility Score: inf
ROOT
ATOM      1  C   UNL A   1      31.293  26.028  26.139  1.00  0.00     0.002 C 
ENDROOT
BRANCH   1   2
ATOM      2  C   UNL A   1      29.972  25.906  25.375  1.00  0.00     0.021 C 
BRANCH   2   3
ATOM      3  C   UNL A   1      30.120  26.019  23.856  1.00  0.00     0.116 C 
BRANCH   3   4
ATOM      4  N   UNL A   1      30.711  27.281  23.465  1.00  0.00    -0.356 N 
ATOM      5  C   UNL A   1      31.822  27.573  22.735  1.00  0.00     0.227 C 
ATOM      6  O   UNL A   1      32.114  28.771  22.638  1.00  0.00    -0.274 OA
ATOM      7  H   UNL A   1      30.220  28.072  23.785  1.00  0.00     0.163 HD
BRANCH   5   8
ATOM      8  C   UNL A   1      32.684  26.517  22.030  1.00  0.00     0.105 C 
ATOM      9  C   UNL A   1      32.018  25.874  20.811  1.00  0.00     0.023 C 
BRANCH   8  10
ATOM     10  C   UNL A   1      33.377  25.553  22.979  1.00  0.00    -0.036 A 
ATOM     11  C   UNL A   1      34.717  23.813  24.769  1.00  0.00    -0.048 A 
ATOM     12  C   UNL A   1      33.978  23.308  23.697  1.00  0.00     0.004 A 
ATOM     13  C   UNL A   1      34.746  25.197  24.969  1.00  0.00     0.004 A 
ATOM     14  C   UNL A   1      33.358  24.167  22.792  1.00  0.00     0.005 A 
ATOM     15  C   UNL A   1      34.071  26.053  24.093  1.00  0.00     0.005 A 
BRANCH  11  16
ATOM     16  C   UNL A   1      35.499  22.878  25.662  1.00  0.00     0.038 C 
BRANCH  16  17
ATOM     17  C   UNL A   1      36.958  22.673  25.190  1.00  0.00    -0.013 C 
ATOM     18  C   UNL A   1      37.952  23.448  26.061  1.00  0.00     0.008 C 
ATOM     19  C   UNL A   1      37.313  21.188  25.178  1.00  0.00     0.008 C 
ENDBRANCH  16  17
ENDBRANCH  11  16
ENDBRANCH   8  10
ENDBRANCH   5   8
ENDBRANCH   3   4
ENDBRANCH   2   3
ENDBRANCH   1   2
BRANCH   1  20
ATOM     20  C   UNL A   1      31.488  27.349  26.897  1.00  0.00     0.002 C 
BRANCH  20  21
ATOM     21  C   UNL A   1      32.566  28.283  26.335  1.00  0.00     0.021 C 
BRANCH  21  22
ATOM     22  C   UNL A   1      33.690  28.628  27.310  1.00  0.00     0.116 C 
BRANCH  22  23
ATOM     23  N   UNL A   1      33.676  30.037  27.676  1.00  0.00    -0.352 N 
ATOM     24  C   UNL A   1      34.618  30.785  28.336  1.00  0.00     0.251 C 
ATOM     25  H   UNL A   1      32.866  30.528  27.408  1.00  0.00     0.163 HD
ATOM     26  O   UNL A   1      34.332  31.903  28.751  1.00  0.00    -0.269 OA
BRANCH  24  27
ATOM     27  C   UNL A   1      35.979  30.250  28.557  1.00  0.00     0.039 A 
ATOM     28  C   UNL A   1      36.891  30.268  27.497  1.00  0.00     0.014 A 
ATOM     29  C   UNL A   1      36.343  29.687  29.784  1.00  0.00     0.014 A 
ATOM     30  C   UNL A   1      38.184  29.770  27.683  1.00  0.00     0.010 A 
ATOM     31  C   UNL A   1      37.648  29.244  29.985  1.00  0.00     0.010 A 
ATOM     32  C   UNL A   1      38.580  29.278  28.936  1.00  0.00    -0.014 A 
BRANCH  32  33
ATOM     33  C   UNL A   1      39.964  28.793  29.169  1.00  0.00     0.031 A 
ATOM     34  C   UNL A   1      41.004  29.713  29.748  1.00  0.00     0.074 A 
ATOM     35  C   UNL A   1      40.304  27.544  28.794  1.00  0.00     0.049 A 
ATOM     36  N   UNL A   1      42.278  29.493  29.952  1.00  0.00    -0.248 NA
ATOM     37  C   UNL A   1      40.559  31.065  30.127  1.00  0.00     0.031 C 
ATOM     38  C   UNL A   1      39.401  26.565  28.183  1.00  0.00     0.029 A 
ATOM     39  N   UNL A   1      41.508  26.888  28.860  1.00  0.00    -0.354 N 
ATOM     40  C   UNL A   1      42.791  30.682  30.457  1.00  0.00     0.074 A 
ATOM     41  C   UNL A   1      41.700  31.631  30.499  1.00  0.00     0.031 C 
ATOM     42  C   UNL A   1      40.080  25.432  27.942  1.00  0.00     0.029 A 
ATOM     43  C   UNL A   1      41.470  25.614  28.347  1.00  0.00     0.049 A 
ATOM     44  H   UNL A   1      42.322  27.292  29.238  1.00  0.00     0.167 HD
ATOM     45  C   UNL A   1      44.054  30.955  30.861  1.00  0.00     0.031 A 
ATOM     46  C   UNL A   1      42.447  24.698  28.210  1.00  0.00     0.031 A 
ATOM     47  C   UNL A   1      45.134  30.006  30.848  1.00  0.00     0.049 A 
ATOM     48  C   UNL A   1      43.837  25.025  28.679  1.00  0.00     0.074 A 
ATOM     49  C   UNL A   1      46.431  30.170  31.307  1.00  0.00     0.029 A 
ATOM     50  N   UNL A   1      45.045  28.717  30.351  1.00  0.00    -0.354 N 
ATOM     51  N   UNL A   1      44.285  26.130  29.224  1.00  0.00    -0.248 NA
ATOM     52  C   UNL A   1      44.853  23.974  28.524  1.00  0.00     0.031 C 
ATOM     53  C   UNL A   1      47.138  28.993  31.050  1.00  0.00     0.029 A 
ATOM     54  C   UNL A   1      46.269  28.081  30.473  1.00  0.00     0.049 A 
ATOM     55  H   UNL A   1      44.233  28.311  29.969  1.00  0.00     0.167 HD
ATOM     56  C   UNL A   1      45.626  25.896  29.503  1.00  0.00     0.074 A 
ATOM     57  C   UNL A   1      45.913  24.541  29.081  1.00  0.00     0.031 C 
ATOM     58  C   UNL A   1      46.537  26.730  30.057  1.00  0.00     0.031 A 
BRANCH  45  59
ATOM     59  C   UNL A   1      44.346  32.344  31.355  1.00  0.00    -0.014 A 
ATOM     60  C   UNL A   1      44.229  32.671  32.714  1.00  0.00     0.009 A 
ATOM     61  C   UNL A   1      44.807  33.320  30.457  1.00  0.00     0.009 A 
ATOM     62  C   UNL A   1      44.548  33.955  33.162  1.00  0.00     0.001 A 
ATOM     63  C   UNL A   1      45.148  34.595  30.911  1.00  0.00     0.001 A 
ATOM     64  C   UNL A   1      45.013  34.913  32.261  1.00  0.00     0.000 A 
ENDBRANCH  45  59
BRANCH  46  65
ATOM     65  C   UNL A   1      42.153  23.374  27.600  1.00  0.00    -0.014 A 
ATOM     66  C   UNL A   1      42.557  23.088  26.287  1.00  0.00     0.009 A 
ATOM     67  C   UNL A   1      41.442  22.401  28.319  1.00  0.00     0.009 A 
ATOM     68  C   UNL A   1      42.223  21.869  25.694  1.00  0.00     0.001 A 
ATOM     69  C   UNL A   1      41.134  21.171  27.733  1.00  0.00     0.001 A 
ATOM     70  C   UNL A   1      41.514  20.910  26.418  1.00  0.00     0.000 A 
ENDBRANCH  46  65
BRANCH  58  71
ATOM     71  C   UNL A   1      47.920  26.188  30.276  1.00  0.00    -0.014 A 
ATOM     72  C   UNL A   1      48.870  26.182  29.243  1.00  0.00     0.009 A 
ATOM     73  C   UNL A   1      48.288  25.716  31.545  1.00  0.00     0.009 A 
ATOM     74  C   UNL A   1      50.154  25.682  29.471  1.00  0.00     0.001 A 
ATOM     75  C   UNL A   1      49.580  25.242  31.777  1.00  0.00     0.001 A 
ATOM     76  C   UNL A   1      50.509  25.217  30.737  1.00  0.00     0.000 A 
ENDBRANCH  58  71
ENDBRANCH  32  33
ENDBRANCH  24  27
ENDBRANCH  22  23
ENDBRANCH  21  22
ENDBRANCH  20  21
ENDBRANCH   1  20
TORSDOF 16
ENDMDL
