MODEL 1
REMARK VINA RESULT:     -12.2      0.000      0.000
REMARK SMILES O=C(NCCCCCCNC(=O)c1ccc(-c2c3nc(c(-c4ccccc4)c4ccc([nH]4)c(-c4ccccc4)c4nc(c(-c5ccccc5)c5ccc2[nH]5)C=C4)C=C3)cc1)C1=Cc2cc(S(F)(F)(F)(F)F)ccc2O[C@H]1C(F)(F)F
REMARK SMILES IDX 7 1 6 2 5 3 4 4 3 5 1 6 2 7 61 9 62 10 76 11 63 12 75 13
REMARK SMILES IDX 64 14 74 15 65 16 73 17 72 18 77 19 78 20 79 21 80 22 66 23
REMARK SMILES IDX 67 24 68 25 69 26 70 27 71 28 8 29 9 30 10 31 11 32 12 34
REMARK SMILES IDX 13 35 14 36 60 37 15 38 59 39 16 40 17 41 18 42 53 43 19 44
REMARK SMILES IDX 58 45 52 46 54 47 20 48 57 49 51 50 50 51 21 53 43 54 28 55
REMARK SMILES IDX 42 56 29 57 32 58 41 59 55 60 30 61 31 62 40 64 56 65 33 66
REMARK SMILES IDX 22 67 23 68 27 69 24 70 26 71 25 72 44 73 45 74 49 75 46 76
REMARK SMILES IDX 48 77 47 78 34 79 35 80 39 81 36 82 38 83 37 84
REMARK H PARENT 3 8 10 33 54 52 32 63
REMARK Flexibility Score: inf
ROOT
ATOM      1  C   UNL A   1      36.799  20.723  25.132  1.00  0.00     0.002 C 
ENDROOT
BRANCH   1   2
ATOM      2  C   UNL A   1      37.198  22.009  24.428  1.00  0.00     0.002 C 
BRANCH   2   3
ATOM      3  C   UNL A   1      36.924  23.193  25.342  1.00  0.00     0.021 C 
BRANCH   3   4
ATOM      4  C   UNL A   1      35.508  23.695  25.110  1.00  0.00     0.116 C 
BRANCH   4   5
ATOM      5  N   UNL A   1      35.189  23.618  23.678  1.00  0.00    -0.352 N 
ATOM      6  O   UNL A   1      33.514  23.417  22.004  1.00  0.00    -0.270 OA
ATOM      7  C   UNL A   1      33.791  23.483  23.243  1.00  0.00     0.251 C 
ATOM      8  H   UNL A   1      35.910  23.657  23.010  1.00  0.00     0.163 HD
BRANCH   7   9
ATOM      9  C   UNL A   1      32.676  23.424  24.274  1.00  0.00     0.067 C 
ATOM     10  C   UNL A   1      32.275  24.558  24.908  1.00  0.00     0.025 C 
ATOM     11  C   UNL A   1      32.010  22.096  24.598  1.00  0.00     0.314 C 
ATOM     12  C   UNL A   1      32.941  25.885  24.585  1.00  0.00     0.019 A 
ATOM     13  O   UNL A   1      32.927  25.277  22.288  1.00  0.00    -0.475 OA
ATOM     14  C   UNL A   1      33.306  26.723  25.627  1.00  0.00     0.036 A 
ATOM     15  C   UNL A   1      33.165  26.223  23.320  1.00  0.00     0.128 A 
ATOM     16  C   UNL A   1      33.642  28.035  25.217  1.00  0.00     0.107 A 
ATOM     17  C   UNL A   1      33.624  27.478  23.001  1.00  0.00     0.048 A 
ATOM     18  C   UNL A   1      33.948  28.377  23.978  1.00  0.00     0.028 A 
BRANCH  11  19
ATOM     19  C   UNL A   1      32.639  20.996  23.759  1.00  0.00     0.429 C 
ATOM     20  F   UNL A   1      32.296  21.143  22.483  1.00  0.00    -0.167 F 
ATOM     21  F   UNL A   1      33.964  20.994  23.865  1.00  0.00    -0.167 F 
ATOM     22  F   UNL A   1      32.155  19.846  24.218  1.00  0.00    -0.167 F 
ENDBRANCH  11  19
BRANCH  16  23
ATOM     23  S   UNL A   1      33.656  29.333  26.478  1.00  0.00     0.310 S 
ATOM     24  F   UNL A   1      33.180  28.326  27.606  1.00  0.00    -0.094 F 
ATOM     25  F   UNL A   1      32.134  29.605  26.175  1.00  0.00    -0.094 F 
ATOM     26  F   UNL A   1      33.668  30.448  27.563  1.00  0.00    -0.094 F 
ATOM     27  F   UNL A   1      35.140  28.952  26.864  1.00  0.00    -0.094 F 
ATOM     28  F   UNL A   1      33.627  28.125  25.459  1.00  0.00    -0.094 F 
ENDBRANCH  16  23
ENDBRANCH   7   9
ENDBRANCH   4   5
ENDBRANCH   3   4
ENDBRANCH   2   3
ENDBRANCH   1   2
BRANCH   1  29
ATOM     29  C   UNL A   1      37.886  19.679  24.935  1.00  0.00     0.021 C 
BRANCH  29  30
ATOM     30  C   UNL A   1      39.085  20.026  25.802  1.00  0.00     0.116 C 
BRANCH  30  31
ATOM     31  N   UNL A   1      40.060  18.927  25.753  1.00  0.00    -0.352 N 
ATOM     32  C   UNL A   1      41.471  19.182  26.081  1.00  0.00     0.251 C 
ATOM     33  H   UNL A   1      39.769  18.021  25.500  1.00  0.00     0.163 HD
ATOM     34  O   UNL A   1      42.313  18.231  26.039  1.00  0.00    -0.269 OA
BRANCH  32  35
ATOM     35  C   UNL A   1      41.920  20.580  26.470  1.00  0.00     0.039 A 
ATOM     36  C   UNL A   1      42.040  20.906  27.811  1.00  0.00     0.014 A 
ATOM     37  C   UNL A   1      42.188  21.468  25.519  1.00  0.00     0.014 A 
ATOM     38  C   UNL A   1      42.176  22.293  28.054  1.00  0.00     0.010 A 
ATOM     39  C   UNL A   1      42.446  22.779  25.839  1.00  0.00     0.010 A 
ATOM     40  C   UNL A   1      42.522  23.184  27.142  1.00  0.00    -0.014 A 
BRANCH  40  41
ATOM     41  C   UNL A   1      42.979  24.583  27.521  1.00  0.00     0.031 A 
ATOM     42  C   UNL A   1      44.344  24.867  27.452  1.00  0.00     0.074 A 
ATOM     43  C   UNL A   1      42.017  25.497  27.913  1.00  0.00     0.049 A 
ATOM     44  N   UNL A   1      44.947  26.029  27.706  1.00  0.00    -0.248 NA
ATOM     45  C   UNL A   1      45.371  23.887  27.068  1.00  0.00     0.031 C 
ATOM     46  C   UNL A   1      40.637  25.220  27.978  1.00  0.00     0.029 A 
ATOM     47  N   UNL A   1      42.203  26.804  28.304  1.00  0.00    -0.354 N 
ATOM     48  C   UNL A   1      46.263  25.919  27.512  1.00  0.00     0.074 A 
ATOM     49  C   UNL A   1      46.556  24.537  27.105  1.00  0.00     0.031 C 
ATOM     50  C   UNL A   1      40.003  26.340  28.412  1.00  0.00     0.029 A 
ATOM     51  C   UNL A   1      40.974  27.337  28.626  1.00  0.00     0.049 A 
ATOM     52  H   UNL A   1      43.066  27.277  28.347  1.00  0.00     0.167 HD
ATOM     53  C   UNL A   1      47.229  26.915  27.657  1.00  0.00     0.031 A 
ATOM     54  C   UNL A   1      40.696  28.615  29.083  1.00  0.00     0.031 A 
ATOM     55  C   UNL A   1      46.945  28.207  28.072  1.00  0.00     0.049 A 
ATOM     56  C   UNL A   1      41.670  29.595  29.284  1.00  0.00     0.074 A 
ATOM     57  C   UNL A   1      47.907  29.225  28.216  1.00  0.00     0.029 A 
ATOM     58  N   UNL A   1      45.719  28.732  28.417  1.00  0.00    -0.354 N 
ATOM     59  N   UNL A   1      42.981  29.496  29.053  1.00  0.00    -0.248 NA
ATOM     60  C   UNL A   1      41.392  30.942  29.799  1.00  0.00     0.031 C 
ATOM     61  C   UNL A   1      47.272  30.346  28.651  1.00  0.00     0.029 A 
ATOM     62  C   UNL A   1      45.903  30.045  28.787  1.00  0.00     0.049 A 
ATOM     63  H   UNL A   1      44.861  28.250  28.403  1.00  0.00     0.167 HD
ATOM     64  C   UNL A   1      43.588  30.647  29.347  1.00  0.00     0.074 A 
ATOM     65  C   UNL A   1      42.576  31.592  29.837  1.00  0.00     0.031 C 
ATOM     66  C   UNL A   1      44.945  30.949  29.221  1.00  0.00     0.031 A 
BRANCH  53  67
ATOM     67  C   UNL A   1      48.674  26.564  27.341  1.00  0.00    -0.014 A 
ATOM     68  C   UNL A   1      49.166  26.677  26.051  1.00  0.00     0.009 A 
ATOM     69  C   UNL A   1      49.429  26.096  28.327  1.00  0.00     0.009 A 
ATOM     70  C   UNL A   1      50.386  25.992  25.841  1.00  0.00     0.001 A 
ATOM     71  C   UNL A   1      50.669  25.564  28.068  1.00  0.00     0.001 A 
ATOM     72  C   UNL A   1      51.194  25.588  26.805  1.00  0.00     0.000 A 
ENDBRANCH  53  67
BRANCH  54  73
ATOM     73  C   UNL A   1      39.249  28.970  29.382  1.00  0.00    -0.014 A 
ATOM     74  C   UNL A   1      38.518  29.583  28.379  1.00  0.00     0.009 A 
ATOM     75  C   UNL A   1      38.693  28.659  30.547  1.00  0.00     0.009 A 
ATOM     76  C   UNL A   1      37.269  30.092  28.808  1.00  0.00     0.001 A 
ATOM     77  C   UNL A   1      37.418  29.074  30.848  1.00  0.00     0.001 A 
ATOM     78  C   UNL A   1      36.658  29.736  29.923  1.00  0.00     0.000 A 
ENDBRANCH  54  73
BRANCH  66  79
ATOM     79  C   UNL A   1      45.400  32.353  29.584  1.00  0.00    -0.014 A 
ATOM     80  C   UNL A   1      45.397  33.340  28.613  1.00  0.00     0.009 A 
ATOM     81  C   UNL A   1      45.792  32.609  30.826  1.00  0.00     0.009 A 
ATOM     82  C   UNL A   1      46.105  34.509  28.981  1.00  0.00     0.001 A 
ATOM     83  C   UNL A   1      46.351  33.824  31.146  1.00  0.00     0.001 A 
ATOM     84  C   UNL A   1      46.435  34.825  30.219  1.00  0.00     0.000 A 
ENDBRANCH  66  79
ENDBRANCH  40  41
ENDBRANCH  32  35
ENDBRANCH  30  31
ENDBRANCH  29  30
ENDBRANCH   1  29
TORSDOF 15
ENDMDL
MODEL 2
REMARK VINA RESULT:     -12.2      4.397      8.972
REMARK SMILES O=C(NCCCCCCNC(=O)c1ccc(-c2c3nc(c(-c4ccccc4)c4ccc([nH]4)c(-c4ccccc4)c4nc(c(-c5ccccc5)c5ccc2[nH]5)C=C4)C=C3)cc1)C1=Cc2cc(S(F)(F)(F)(F)F)ccc2O[C@H]1C(F)(F)F
REMARK SMILES IDX 7 1 6 2 5 3 4 4 3 5 1 6 2 7 61 9 62 10 76 11 63 12 75 13
REMARK SMILES IDX 64 14 74 15 65 16 73 17 72 18 77 19 78 20 79 21 80 22 66 23
REMARK SMILES IDX 67 24 68 25 69 26 70 27 71 28 8 29 9 30 10 31 11 32 12 34
REMARK SMILES IDX 13 35 14 36 60 37 15 38 59 39 16 40 17 41 18 42 53 43 19 44
REMARK SMILES IDX 58 45 52 46 54 47 20 48 57 49 51 50 50 51 21 53 43 54 28 55
REMARK SMILES IDX 42 56 29 57 32 58 41 59 55 60 30 61 31 62 40 64 56 65 33 66
REMARK SMILES IDX 22 67 23 68 27 69 24 70 26 71 25 72 44 73 45 74 49 75 46 76
REMARK SMILES IDX 48 77 47 78 34 79 35 80 39 81 36 82 38 83 37 84
REMARK H PARENT 3 8 10 33 54 52 32 63
REMARK Flexibility Score: inf
ROOT
ATOM      1  C   UNL A   1      31.788  30.399  25.774  1.00  0.00     0.002 C 
ENDROOT
BRANCH   1   2
ATOM      2  C   UNL A   1      32.656  29.424  26.553  1.00  0.00     0.002 C 
BRANCH   2   3
ATOM      3  C   UNL A   1      31.775  28.565  27.446  1.00  0.00     0.021 C 
BRANCH   3   4
ATOM      4  C   UNL A   1      31.479  27.247  26.749  1.00  0.00     0.116 C 
BRANCH   4   5
ATOM      5  N   UNL A   1      32.644  26.843  25.949  1.00  0.00    -0.352 N 
ATOM      6  O   UNL A   1      33.509  25.462  24.219  1.00  0.00    -0.270 OA
ATOM      7  C   UNL A   1      32.501  25.812  24.911  1.00  0.00     0.251 C 
ATOM      8  H   UNL A   1      33.520  27.263  26.108  1.00  0.00     0.163 HD
BRANCH   7   9
ATOM      9  C   UNL A   1      31.149  25.164  24.664  1.00  0.00     0.067 C 
ATOM     10  C   UNL A   1      30.185  25.840  23.984  1.00  0.00     0.025 C 
ATOM     11  C   UNL A   1      30.874  23.760  25.179  1.00  0.00     0.314 C 
ATOM     12  C   UNL A   1      30.460  27.243  23.470  1.00  0.00     0.019 A 
ATOM     13  O   UNL A   1      32.633  26.529  22.826  1.00  0.00    -0.475 OA
ATOM     14  C   UNL A   1      29.498  28.224  23.654  1.00  0.00     0.036 A 
ATOM     15  C   UNL A   1      31.607  27.510  22.857  1.00  0.00     0.128 A 
ATOM     16  C   UNL A   1      29.723  29.396  22.894  1.00  0.00     0.107 A 
ATOM     17  C   UNL A   1      31.811  28.727  22.252  1.00  0.00     0.048 A 
ATOM     18  C   UNL A   1      30.878  29.722  22.343  1.00  0.00     0.028 A 
BRANCH  11  19
ATOM     19  C   UNL A   1      32.104  23.234  25.899  1.00  0.00     0.429 C 
ATOM     20  F   UNL A   1      33.077  22.992  25.024  1.00  0.00    -0.167 F 
ATOM     21  F   UNL A   1      32.539  24.090  26.819  1.00  0.00    -0.167 F 
ATOM     22  F   UNL A   1      31.744  22.097  26.486  1.00  0.00    -0.167 F 
ENDBRANCH  11  19
BRANCH  16  23
ATOM     23  S   UNL A   1      28.330  30.527  22.661  1.00  0.00     0.310 S 
ATOM     24  F   UNL A   1      27.354  29.594  23.493  1.00  0.00    -0.094 F 
ATOM     25  F   UNL A   1      27.912  29.707  21.382  1.00  0.00    -0.094 F 
ATOM     26  F   UNL A   1      27.131  31.499  22.463  1.00  0.00    -0.094 F 
ATOM     27  F   UNL A   1      28.680  31.250  24.021  1.00  0.00    -0.094 F 
ATOM     28  F   UNL A   1      29.482  29.482  22.937  1.00  0.00    -0.094 F 
ENDBRANCH  16  23
ENDBRANCH   7   9
ENDBRANCH   4   5
ENDBRANCH   3   4
ENDBRANCH   2   3
ENDBRANCH   1   2
BRANCH   1  29
ATOM     29  C   UNL A   1      31.400  31.562  26.672  1.00  0.00     0.021 C 
BRANCH  29  30
ATOM     30  C   UNL A   1      32.616  32.440  26.917  1.00  0.00     0.116 C 
BRANCH  30  31
ATOM     31  N   UNL A   1      32.179  33.757  27.405  1.00  0.00    -0.352 N 
ATOM     32  C   UNL A   1      33.000  34.487  28.382  1.00  0.00     0.251 C 
ATOM     33  H   UNL A   1      31.338  34.149  27.077  1.00  0.00     0.163 HD
ATOM     34  O   UNL A   1      32.623  35.625  28.804  1.00  0.00    -0.269 OA
BRANCH  32  35
ATOM     35  C   UNL A   1      34.298  33.880  28.888  1.00  0.00     0.039 A 
ATOM     36  C   UNL A   1      35.482  34.164  28.228  1.00  0.00     0.014 A 
ATOM     37  C   UNL A   1      34.276  33.087  29.953  1.00  0.00     0.014 A 
ATOM     38  C   UNL A   1      36.561  33.327  28.599  1.00  0.00     0.010 A 
ATOM     39  C   UNL A   1      35.405  32.404  30.340  1.00  0.00     0.010 A 
ATOM     40  C   UNL A   1      36.596  32.592  29.695  1.00  0.00    -0.014 A 
BRANCH  40  41
ATOM     41  C   UNL A   1      37.890  31.986  30.214  1.00  0.00     0.031 A 
ATOM     42  C   UNL A   1      38.582  32.675  31.211  1.00  0.00     0.074 A 
ATOM     43  C   UNL A   1      38.310  30.786  29.669  1.00  0.00     0.049 A 
ATOM     44  N   UNL A   1      39.709  32.307  31.822  1.00  0.00    -0.248 NA
ATOM     45  C   UNL A   1      38.156  33.968  31.767  1.00  0.00     0.031 C 
ATOM     46  C   UNL A   1      37.613  30.080  28.668  1.00  0.00     0.029 A 
ATOM     47  N   UNL A   1      39.444  30.068  29.977  1.00  0.00    -0.354 N 
ATOM     48  C   UNL A   1      40.058  33.216  32.735  1.00  0.00     0.074 A 
ATOM     49  C   UNL A   1      39.067  34.302  32.708  1.00  0.00     0.031 C 
ATOM     50  C   UNL A   1      38.321  28.960  28.370  1.00  0.00     0.029 A 
ATOM     51  C   UNL A   1      39.474  28.945  29.179  1.00  0.00     0.049 A 
ATOM     52  H   UNL A   1      40.118  30.315  30.651  1.00  0.00     0.167 HD
ATOM     53  C   UNL A   1      41.161  33.182  33.588  1.00  0.00     0.031 A 
ATOM     54  C   UNL A   1      40.443  27.955  29.143  1.00  0.00     0.031 A 
ATOM     55  C   UNL A   1      42.107  32.169  33.582  1.00  0.00     0.049 A 
ATOM     56  C   UNL A   1      41.577  27.951  29.957  1.00  0.00     0.074 A 
ATOM     57  C   UNL A   1      43.221  32.117  34.442  1.00  0.00     0.029 A 
ATOM     58  N   UNL A   1      42.149  31.060  32.768  1.00  0.00    -0.354 N 
ATOM     59  N   UNL A   1      41.905  28.840  30.896  1.00  0.00    -0.248 NA
ATOM     60  C   UNL A   1      42.627  26.924  29.905  1.00  0.00     0.031 C 
ATOM     61  C   UNL A   1      43.931  30.996  34.144  1.00  0.00     0.029 A 
ATOM     62  C   UNL A   1      43.272  30.331  33.092  1.00  0.00     0.049 A 
ATOM     63  H   UNL A   1      41.491  30.828  32.074  1.00  0.00     0.167 HD
ATOM     64  C   UNL A   1      43.054  28.491  31.478  1.00  0.00     0.074 A 
ATOM     65  C   UNL A   1      43.538  27.258  30.845  1.00  0.00     0.031 C 
ATOM     66  C   UNL A   1      43.715  29.150  32.517  1.00  0.00     0.031 A 
BRANCH  53  67
ATOM     67  C   UNL A   1      41.335  34.321  34.581  1.00  0.00    -0.014 A 
ATOM     68  C   UNL A   1      40.746  34.267  35.833  1.00  0.00     0.009 A 
ATOM     69  C   UNL A   1      42.022  35.387  34.188  1.00  0.00     0.009 A 
ATOM     70  C   UNL A   1      40.692  35.516  36.496  1.00  0.00     0.001 A 
ATOM     71  C   UNL A   1      42.037  36.530  34.952  1.00  0.00     0.001 A 
ATOM     72  C   UNL A   1      41.424  36.567  36.174  1.00  0.00     0.000 A 
ENDBRANCH  53  67
BRANCH  54  73
ATOM     73  C   UNL A   1      40.259  26.808  28.162  1.00  0.00    -0.014 A 
ATOM     74  C   UNL A   1      39.554  25.699  28.597  1.00  0.00     0.009 A 
ATOM     75  C   UNL A   1      40.717  26.890  26.919  1.00  0.00     0.009 A 
ATOM     76  C   UNL A   1      39.630  24.590  27.720  1.00  0.00     0.001 A 
ATOM     77  C   UNL A   1      40.637  25.811  26.072  1.00  0.00     0.001 A 
ATOM     78  C   UNL A   1      40.005  24.661  26.455  1.00  0.00     0.000 A 
ENDBRANCH  54  73
BRANCH  66  79
ATOM     79  C   UNL A   1      45.001  28.536  33.046  1.00  0.00    -0.014 A 
ATOM     80  C   UNL A   1      46.212  28.907  32.487  1.00  0.00     0.009 A 
ATOM     81  C   UNL A   1      44.941  27.654  34.037  1.00  0.00     0.009 A 
ATOM     82  C   UNL A   1      47.293  28.069  32.849  1.00  0.00     0.001 A 
ATOM     83  C   UNL A   1      46.066  26.970  34.432  1.00  0.00     0.001 A 
ATOM     84  C   UNL A   1      47.287  27.244  33.879  1.00  0.00     0.000 A 
ENDBRANCH  66  79
ENDBRANCH  40  41
ENDBRANCH  32  35
ENDBRANCH  30  31
ENDBRANCH  29  30
ENDBRANCH   1  29
TORSDOF 15
ENDMDL
MODEL 3
REMARK VINA RESULT:     -12.1      0.784      5.657
REMARK SMILES O=C(NCCCCCCNC(=O)c1ccc(-c2c3nc(c(-c4ccccc4)c4ccc([nH]4)c(-c4ccccc4)c4nc(c(-c5ccccc5)c5ccc2[nH]5)C=C4)C=C3)cc1)C1=Cc2cc(S(F)(F)(F)(F)F)ccc2O[C@H]1C(F)(F)F
REMARK SMILES IDX 7 1 6 2 5 3 4 4 3 5 1 6 2 7 61 9 62 10 76 11 63 12 75 13
REMARK SMILES IDX 64 14 74 15 65 16 73 17 72 18 77 19 78 20 79 21 80 22 66 23
REMARK SMILES IDX 67 24 68 25 69 26 70 27 71 28 8 29 9 30 10 31 11 32 12 34
REMARK SMILES IDX 13 35 14 36 60 37 15 38 59 39 16 40 17 41 18 42 53 43 19 44
REMARK SMILES IDX 58 45 52 46 54 47 20 48 57 49 51 50 50 51 21 53 43 54 28 55
REMARK SMILES IDX 42 56 29 57 32 58 41 59 55 60 30 61 31 62 40 64 56 65 33 66
REMARK SMILES IDX 22 67 23 68 27 69 24 70 26 71 25 72 44 73 45 74 49 75 46 76
REMARK SMILES IDX 48 77 47 78 34 79 35 80 39 81 36 82 38 83 37 84
REMARK H PARENT 3 8 10 33 54 52 32 63
REMARK Flexibility Score: inf
ROOT
ATOM      1  C   UNL A   1      36.764  20.735  25.034  1.00  0.00     0.002 C 
ENDROOT
BRANCH   1   2
ATOM      2  C   UNL A   1      37.278  22.005  24.375  1.00  0.00     0.002 C 
BRANCH   2   3
ATOM      3  C   UNL A   1      36.860  23.210  25.202  1.00  0.00     0.021 C 
BRANCH   3   4
ATOM      4  C   UNL A   1      35.363  23.428  25.058  1.00  0.00     0.116 C 
BRANCH   4   5
ATOM      5  N   UNL A   1      34.989  23.341  23.639  1.00  0.00    -0.352 N 
ATOM      6  O   UNL A   1      33.252  23.124  22.032  1.00  0.00    -0.270 OA
ATOM      7  C   UNL A   1      33.575  23.199  23.259  1.00  0.00     0.251 C 
ATOM      8  H   UNL A   1      35.684  23.379  22.944  1.00  0.00     0.163 HD
BRANCH   7   9
ATOM      9  C   UNL A   1      32.502  23.142  24.333  1.00  0.00     0.067 C 
ATOM     10  C   UNL A   1      32.119  24.279  24.973  1.00  0.00     0.025 C 
ATOM     11  C   UNL A   1      31.856  21.814  24.692  1.00  0.00     0.314 C 
ATOM     12  C   UNL A   1      32.766  25.607  24.614  1.00  0.00     0.019 A 
ATOM     13  O   UNL A   1      32.666  24.981  22.324  1.00  0.00    -0.475 OA
ATOM     14  C   UNL A   1      33.165  26.455  25.635  1.00  0.00     0.036 A 
ATOM     15  C   UNL A   1      32.938  25.936  23.339  1.00  0.00     0.128 A 
ATOM     16  C   UNL A   1      33.479  27.765  25.202  1.00  0.00     0.107 A 
ATOM     17  C   UNL A   1      33.378  27.191  22.993  1.00  0.00     0.048 A 
ATOM     18  C   UNL A   1      33.735  28.099  23.950  1.00  0.00     0.028 A 
BRANCH  11  19
ATOM     19  C   UNL A   1      32.457  20.710  23.838  1.00  0.00     0.429 C 
ATOM     20  F   UNL A   1      32.069  20.847  22.573  1.00  0.00    -0.167 F 
ATOM     21  F   UNL A   1      33.786  20.713  23.896  1.00  0.00    -0.167 F 
ATOM     22  F   UNL A   1      31.994  19.561  24.321  1.00  0.00    -0.167 F 
ENDBRANCH  11  19
BRANCH  16  23
ATOM     23  S   UNL A   1      33.534  29.073  26.452  1.00  0.00     0.310 S 
ATOM     24  F   UNL A   1      32.954  28.111  27.571  1.00  0.00    -0.094 F 
ATOM     25  F   UNL A   1      32.045  29.441  26.093  1.00  0.00    -0.094 F 
ATOM     26  F   UNL A   1      33.582  30.196  27.527  1.00  0.00    -0.094 F 
ATOM     27  F   UNL A   1      34.975  28.600  26.894  1.00  0.00    -0.094 F 
ATOM     28  F   UNL A   1      33.461  27.859  25.443  1.00  0.00    -0.094 F 
ENDBRANCH  16  23
ENDBRANCH   7   9
ENDBRANCH   4   5
ENDBRANCH   3   4
ENDBRANCH   2   3
ENDBRANCH   1   2
BRANCH   1  29
ATOM     29  C   UNL A   1      37.827  19.652  24.945  1.00  0.00     0.021 C 
BRANCH  29  30
ATOM     30  C   UNL A   1      39.047  20.073  25.748  1.00  0.00     0.116 C 
BRANCH  30  31
ATOM     31  N   UNL A   1      40.073  19.023  25.668  1.00  0.00    -0.352 N 
ATOM     32  C   UNL A   1      41.454  19.312  26.080  1.00  0.00     0.251 C 
ATOM     33  H   UNL A   1      39.834  18.126  25.338  1.00  0.00     0.163 HD
ATOM     34  O   UNL A   1      42.341  18.404  26.011  1.00  0.00    -0.269 OA
BRANCH  32  35
ATOM     35  C   UNL A   1      41.821  20.697  26.587  1.00  0.00     0.039 A 
ATOM     36  C   UNL A   1      41.768  20.958  27.946  1.00  0.00     0.014 A 
ATOM     37  C   UNL A   1      42.186  21.634  25.720  1.00  0.00     0.014 A 
ATOM     38  C   UNL A   1      41.842  22.333  28.270  1.00  0.00     0.010 A 
ATOM     39  C   UNL A   1      42.374  22.932  26.131  1.00  0.00     0.010 A 
ATOM     40  C   UNL A   1      42.279  23.273  27.452  1.00  0.00    -0.014 A 
BRANCH  40  41
ATOM     41  C   UNL A   1      42.655  24.658  27.950  1.00  0.00     0.031 A 
ATOM     42  C   UNL A   1      41.629  25.582  28.154  1.00  0.00     0.074 A 
ATOM     43  C   UNL A   1      43.994  24.926  28.175  1.00  0.00     0.049 A 
ATOM     44  N   UNL A   1      41.737  26.829  28.615  1.00  0.00    -0.248 NA
ATOM     45  C   UNL A   1      40.210  25.311  27.884  1.00  0.00     0.031 C 
ATOM     46  C   UNL A   1      45.035  23.996  27.979  1.00  0.00     0.029 A 
ATOM     47  N   UNL A   1      44.559  26.103  28.614  1.00  0.00    -0.354 N 
ATOM     48  C   UNL A   1      40.533  27.399  28.692  1.00  0.00     0.074 A 
ATOM     49  C   UNL A   1      39.533  26.432  28.216  1.00  0.00     0.031 C 
ATOM     50  C   UNL A   1      46.209  24.607  28.285  1.00  0.00     0.029 A 
ATOM     51  C   UNL A   1      45.924  25.929  28.678  1.00  0.00     0.049 A 
ATOM     52  H   UNL A   1      44.071  26.927  28.843  1.00  0.00     0.167 HD
ATOM     53  C   UNL A   1      40.229  28.685  29.140  1.00  0.00     0.031 A 
ATOM     54  C   UNL A   1      46.882  26.858  29.052  1.00  0.00     0.031 A 
ATOM     55  C   UNL A   1      41.184  29.600  29.556  1.00  0.00     0.049 A 
ATOM     56  C   UNL A   1      46.582  28.164  29.445  1.00  0.00     0.074 A 
ATOM     57  C   UNL A   1      40.893  30.898  30.018  1.00  0.00     0.029 A 
ATOM     58  N   UNL A   1      42.550  29.433  29.596  1.00  0.00    -0.354 N 
ATOM     59  N   UNL A   1      45.375  28.721  29.558  1.00  0.00    -0.248 NA
ATOM     60  C   UNL A   1      47.591  29.167  29.812  1.00  0.00     0.031 C 
ATOM     61  C   UNL A   1      42.068  31.509  30.324  1.00  0.00     0.029 A 
ATOM     62  C   UNL A   1      43.112  30.603  30.056  1.00  0.00     0.049 A 
ATOM     63  H   UNL A   1      43.040  28.619  29.339  1.00  0.00     0.167 HD
ATOM     64  C   UNL A   1      45.488  29.981  29.980  1.00  0.00     0.074 A 
ATOM     65  C   UNL A   1      46.915  30.289  30.143  1.00  0.00     0.031 C 
ATOM     66  C   UNL A   1      44.457  30.886  30.241  1.00  0.00     0.031 A 
BRANCH  53  67
ATOM     67  C   UNL A   1      38.769  29.106  29.174  1.00  0.00    -0.014 A 
ATOM     68  C   UNL A   1      38.210  29.815  28.124  1.00  0.00     0.009 A 
ATOM     69  C   UNL A   1      38.066  28.822  30.264  1.00  0.00     0.009 A 
ATOM     70  C   UNL A   1      36.979  30.436  28.442  1.00  0.00     0.001 A 
ATOM     71  C   UNL A   1      36.813  29.355  30.448  1.00  0.00     0.001 A 
ATOM     72  C   UNL A   1      36.223  30.115  29.475  1.00  0.00     0.000 A 
ENDBRANCH  53  67
BRANCH  54  73
ATOM     73  C   UNL A   1      48.340  26.430  29.033  1.00  0.00    -0.014 A 
ATOM     74  C   UNL A   1      49.054  26.633  27.864  1.00  0.00     0.009 A 
ATOM     75  C   UNL A   1      48.920  25.925  30.115  1.00  0.00     0.009 A 
ATOM     76  C   UNL A   1      50.319  25.999  27.846  1.00  0.00     0.001 A 
ATOM     77  C   UNL A   1      50.207  25.446  30.060  1.00  0.00     0.001 A 
ATOM     78  C   UNL A   1      50.952  25.561  28.920  1.00  0.00     0.000 A 
ENDBRANCH  54  73
BRANCH  66  79
ATOM     79  C   UNL A   1      44.833  32.266  30.755  1.00  0.00    -0.014 A 
ATOM     80  C   UNL A   1      45.057  33.291  29.851  1.00  0.00     0.009 A 
ATOM     81  C   UNL A   1      44.939  32.467  32.064  1.00  0.00     0.009 A 
ATOM     82  C   UNL A   1      45.676  34.430  30.416  1.00  0.00     0.001 A 
ATOM     83  C   UNL A   1      45.424  33.657  32.551  1.00  0.00     0.001 A 
ATOM     84  C   UNL A   1      45.724  34.692  31.709  1.00  0.00     0.000 A 
ENDBRANCH  66  79
ENDBRANCH  40  41
ENDBRANCH  32  35
ENDBRANCH  30  31
ENDBRANCH  29  30
ENDBRANCH   1  29
TORSDOF 15
ENDMDL
