MODEL 1
REMARK VINA RESULT:     -10.7      0.000      0.000
REMARK SMILES Cc1cc([C@H](C)NC(=O)N2CC[C@H](C(=O)NCCCCCCNC(=O)c3ccc(-c4c5nc(c(-c6ccccc6)c6ccc([nH]6)c(-c6ccccc6)c6nc(c(-c7ccccc7)c7ccc4[nH]7)C=C6)C=C5)cc3)[C@@H]2C)c(C)s1
REMARK SMILES IDX 19 1 18 2 17 3 16 4 14 5 15 6 13 8 10 9 11 10 74 11 12 12
REMARK SMILES IDX 75 13 8 14 7 15 9 17 5 18 6 19 4 20 1 21 2 22 3 23 78 24
REMARK SMILES IDX 76 25 77 26 20 27 21 28 22 29 23 30 24 31 25 33 26 34 27 35
REMARK SMILES IDX 73 36 28 37 72 38 29 39 30 40 31 41 66 42 32 43 71 44 65 45
REMARK SMILES IDX 67 46 33 47 70 48 64 49 63 50 34 52 56 53 41 54 55 55 42 56
REMARK SMILES IDX 45 57 54 58 68 59 43 60 44 61 53 63 69 64 46 65 35 66 36 67
REMARK SMILES IDX 40 68 37 69 39 70 38 71 57 72 58 73 62 74 59 75 61 76 60 77
REMARK SMILES IDX 47 78 48 79 52 80 49 81 51 82 50 83
REMARK H PARENT 16 7 7 16 23 32 67 51 45 62
REMARK Flexibility Score: inf
ROOT
ATOM      1  C   UNL A   1      35.467  33.401  28.495  1.00  0.00     0.002 C 
ENDROOT
BRANCH   1   2
ATOM      2  C   UNL A   1      34.622  32.219  28.982  1.00  0.00     0.021 C 
BRANCH   2   3
ATOM      3  C   UNL A   1      34.582  31.001  28.057  1.00  0.00     0.116 C 
BRANCH   3   4
ATOM      4  N   UNL A   1      33.519  31.056  27.069  1.00  0.00    -0.356 N 
ATOM      5  C   UNL A   1      32.589  30.126  26.716  1.00  0.00     0.225 C 
ATOM      6  O   UNL A   1      31.575  30.520  26.137  1.00  0.00    -0.275 OA
ATOM      7  H   UNL A   1      33.463  31.904  26.572  1.00  0.00     0.163 HD
BRANCH   5   8
ATOM      8  C   UNL A   1      32.840  28.651  26.972  1.00  0.00     0.102 C 
ATOM      9  N   UNL A   1      32.392  26.777  25.551  1.00  0.00    -0.321 N 
ATOM     10  C   UNL A   1      31.135  27.131  26.178  1.00  0.00     0.122 C 
ATOM     11  C   UNL A   1      33.341  27.875  25.731  1.00  0.00     0.096 C 
ATOM     12  C   UNL A   1      31.558  27.920  27.402  1.00  0.00     0.037 C 
ATOM     13  C   UNL A   1      33.479  28.687  24.439  1.00  0.00     0.032 C 
BRANCH   9  14
ATOM     14  C   UNL A   1      32.443  25.776  24.621  1.00  0.00     0.318 C 
ATOM     15  N   UNL A   1      33.335  24.760  24.769  1.00  0.00    -0.331 N 
ATOM     16  H   UNL A   1      33.863  24.518  23.974  1.00  0.00     0.165 HD
ATOM     17  O   UNL A   1      31.708  25.758  23.634  1.00  0.00    -0.249 OA
BRANCH  15  18
ATOM     18  C   UNL A   1      33.589  23.994  25.982  1.00  0.00     0.112 C 
ATOM     19  C   UNL A   1      32.263  23.688  26.692  1.00  0.00     0.036 C 
BRANCH  18  20
ATOM     20  C   UNL A   1      34.398  22.753  25.616  1.00  0.00    -0.012 A 
ATOM     21  C   UNL A   1      34.569  19.060  24.681  1.00  0.00     0.056 C 
ATOM     22  C   UNL A   1      34.769  20.496  25.017  1.00  0.00     0.002 A 
ATOM     23  C   UNL A   1      33.829  21.483  25.223  1.00  0.00     0.021 A 
ATOM     24  S   UNL A   1      36.348  21.092  25.199  1.00  0.00    -0.146 S 
ATOM     25  C   UNL A   1      35.788  22.649  25.642  1.00  0.00     0.007 A 
ATOM     26  C   UNL A   1      36.833  23.653  25.984  1.00  0.00     0.057 C 
ENDBRANCH  18  20
ENDBRANCH  15  18
ENDBRANCH   9  14
ENDBRANCH   5   8
ENDBRANCH   3   4
ENDBRANCH   2   3
ENDBRANCH   1   2
BRANCH   1  27
ATOM     27  C   UNL A   1      34.715  34.713  28.249  1.00  0.00     0.002 C 
BRANCH  27  28
ATOM     28  C   UNL A   1      33.407  34.884  29.021  1.00  0.00     0.021 C 
BRANCH  28  29
ATOM     29  C   UNL A   1      33.210  36.248  29.675  1.00  0.00     0.116 C 
BRANCH  29  30
ATOM     30  N   UNL A   1      32.357  36.192  30.851  1.00  0.00    -0.352 N 
ATOM     31  C   UNL A   1      32.524  35.496  32.020  1.00  0.00     0.251 C 
ATOM     32  H   UNL A   1      31.536  36.734  30.799  1.00  0.00     0.163 HD
ATOM     33  O   UNL A   1      31.610  35.459  32.844  1.00  0.00    -0.269 OA
BRANCH  31  34
ATOM     34  C   UNL A   1      33.786  34.775  32.299  1.00  0.00     0.039 A 
ATOM     35  C   UNL A   1      33.734  33.402  32.559  1.00  0.00     0.014 A 
ATOM     36  C   UNL A   1      35.012  35.444  32.349  1.00  0.00     0.014 A 
ATOM     37  C   UNL A   1      34.909  32.698  32.833  1.00  0.00     0.010 A 
ATOM     38  C   UNL A   1      36.192  34.728  32.540  1.00  0.00     0.010 A 
ATOM     39  C   UNL A   1      36.152  33.352  32.810  1.00  0.00    -0.014 A 
BRANCH  39  40
ATOM     40  C   UNL A   1      37.409  32.623  33.119  1.00  0.00     0.031 A 
ATOM     41  C   UNL A   1      38.148  32.908  34.403  1.00  0.00     0.074 A 
ATOM     42  C   UNL A   1      37.908  31.732  32.241  1.00  0.00     0.049 A 
ATOM     43  N   UNL A   1      39.272  32.398  34.841  1.00  0.00    -0.248 NA
ATOM     44  C   UNL A   1      37.560  33.917  35.299  1.00  0.00     0.031 C 
ATOM     45  C   UNL A   1      37.313  31.387  30.949  1.00  0.00     0.029 A 
ATOM     46  N   UNL A   1      39.037  30.952  32.305  1.00  0.00    -0.354 N 
ATOM     47  C   UNL A   1      39.531  33.036  36.049  1.00  0.00     0.074 A 
ATOM     48  C   UNL A   1      38.481  34.010  36.246  1.00  0.00     0.031 C 
ATOM     49  C   UNL A   1      38.061  30.443  30.358  1.00  0.00     0.029 A 
ATOM     50  C   UNL A   1      39.209  30.142  31.209  1.00  0.00     0.049 A 
ATOM     51  H   UNL A   1      39.662  30.971  33.064  1.00  0.00     0.167 HD
ATOM     52  C   UNL A   1      40.535  32.816  36.929  1.00  0.00     0.031 A 
ATOM     53  C   UNL A   1      40.181  29.256  30.921  1.00  0.00     0.031 A 
ATOM     54  C   UNL A   1      41.573  31.837  36.743  1.00  0.00     0.049 A 
ATOM     55  C   UNL A   1      41.291  29.034  31.913  1.00  0.00     0.074 A 
ATOM     56  C   UNL A   1      42.609  31.504  37.599  1.00  0.00     0.029 A 
ATOM     57  N   UNL A   1      41.703  31.030  35.624  1.00  0.00    -0.354 N 
ATOM     58  N   UNL A   1      41.486  29.602  33.078  1.00  0.00    -0.248 NA
ATOM     59  C   UNL A   1      42.305  28.031  31.555  1.00  0.00     0.031 C 
ATOM     60  C   UNL A   1      43.397  30.534  36.974  1.00  0.00     0.029 A 
ATOM     61  C   UNL A   1      42.813  30.213  35.759  1.00  0.00     0.049 A 
ATOM     62  H   UNL A   1      41.098  31.037  34.847  1.00  0.00     0.167 HD
ATOM     63  C   UNL A   1      42.616  28.995  33.611  1.00  0.00     0.074 A 
ATOM     64  C   UNL A   1      43.055  28.008  32.646  1.00  0.00     0.031 C 
ATOM     65  C   UNL A   1      43.233  29.228  34.796  1.00  0.00     0.031 A 
BRANCH  52  66
ATOM     66  C   UNL A   1      40.563  33.658  38.176  1.00  0.00    -0.014 A 
ATOM     67  C   UNL A   1      41.258  34.876  38.220  1.00  0.00     0.009 A 
ATOM     68  C   UNL A   1      39.853  33.243  39.314  1.00  0.00     0.009 A 
ATOM     69  C   UNL A   1      41.277  35.640  39.389  1.00  0.00     0.001 A 
ATOM     70  C   UNL A   1      39.846  34.024  40.470  1.00  0.00     0.001 A 
ATOM     71  C   UNL A   1      40.566  35.218  40.511  1.00  0.00     0.000 A 
ENDBRANCH  52  66
BRANCH  53  72
ATOM     72  C   UNL A   1      40.143  28.487  29.649  1.00  0.00    -0.014 A 
ATOM     73  C   UNL A   1      39.506  27.238  29.586  1.00  0.00     0.009 A 
ATOM     74  C   UNL A   1      40.765  28.986  28.493  1.00  0.00     0.009 A 
ATOM     75  C   UNL A   1      39.526  26.489  28.408  1.00  0.00     0.001 A 
ATOM     76  C   UNL A   1      40.756  28.250  27.306  1.00  0.00     0.001 A 
ATOM     77  C   UNL A   1      40.147  26.997  27.268  1.00  0.00     0.000 A 
ENDBRANCH  53  72
BRANCH  65  78
ATOM     78  C   UNL A   1      44.410  28.359  35.144  1.00  0.00    -0.014 A 
ATOM     79  C   UNL A   1      45.725  28.733  34.829  1.00  0.00     0.009 A 
ATOM     80  C   UNL A   1      44.194  27.152  35.829  1.00  0.00     0.009 A 
ATOM     81  C   UNL A   1      46.794  27.894  35.151  1.00  0.00     0.001 A 
ATOM     82  C   UNL A   1      45.266  26.332  36.182  1.00  0.00     0.001 A 
ATOM     83  C   UNL A   1      46.565  26.697  35.830  1.00  0.00     0.000 A 
ENDBRANCH  65  78
ENDBRANCH  39  40
ENDBRANCH  31  34
ENDBRANCH  29  30
ENDBRANCH  28  29
ENDBRANCH  27  28
ENDBRANCH   1  27
TORSDOF 16
ENDMDL
MODEL 2
REMARK VINA RESULT:     -10.5      1.792      2.842
REMARK SMILES Cc1cc([C@H](C)NC(=O)N2CC[C@H](C(=O)NCCCCCCNC(=O)c3ccc(-c4c5nc(c(-c6ccccc6)c6ccc([nH]6)c(-c6ccccc6)c6nc(c(-c7ccccc7)c7ccc4[nH]7)C=C6)C=C5)cc3)[C@@H]2C)c(C)s1
REMARK SMILES IDX 19 1 18 2 17 3 16 4 14 5 15 6 13 8 10 9 11 10 74 11 12 12
REMARK SMILES IDX 75 13 8 14 7 15 9 17 5 18 6 19 4 20 1 21 2 22 3 23 78 24
REMARK SMILES IDX 76 25 77 26 20 27 21 28 22 29 23 30 24 31 25 33 26 34 27 35
REMARK SMILES IDX 73 36 28 37 72 38 29 39 30 40 31 41 66 42 32 43 71 44 65 45
REMARK SMILES IDX 67 46 33 47 70 48 64 49 63 50 34 52 56 53 41 54 55 55 42 56
REMARK SMILES IDX 45 57 54 58 68 59 43 60 44 61 53 63 69 64 46 65 35 66 36 67
REMARK SMILES IDX 40 68 37 69 39 70 38 71 57 72 58 73 62 74 59 75 61 76 60 77
REMARK SMILES IDX 47 78 48 79 52 80 49 81 51 82 50 83
REMARK H PARENT 16 7 7 16 23 32 67 51 45 62
REMARK Flexibility Score: inf
ROOT
ATOM      1  C   UNL A   1      34.449  30.061  26.929  1.00  0.00     0.002 C 
ENDROOT
BRANCH   1   2
ATOM      2  C   UNL A   1      33.603  28.935  27.534  1.00  0.00     0.021 C 
BRANCH   2   3
ATOM      3  C   UNL A   1      32.099  29.014  27.267  1.00  0.00     0.116 C 
BRANCH   3   4
ATOM      4  N   UNL A   1      31.767  29.583  25.973  1.00  0.00    -0.356 N 
ATOM      5  C   UNL A   1      31.186  29.016  24.878  1.00  0.00     0.225 C 
ATOM      6  O   UNL A   1      30.669  29.768  24.051  1.00  0.00    -0.275 OA
ATOM      7  H   UNL A   1      32.001  30.534  25.868  1.00  0.00     0.163 HD
BRANCH   5   8
ATOM      8  C   UNL A   1      31.244  27.515  24.668  1.00  0.00     0.102 C 
ATOM      9  N   UNL A   1      32.223  26.283  22.863  1.00  0.00    -0.321 N 
ATOM     10  C   UNL A   1      30.934  26.749  22.395  1.00  0.00     0.122 C 
ATOM     11  C   UNL A   1      32.584  27.015  24.076  1.00  0.00     0.096 C 
ATOM     12  C   UNL A   1      30.174  27.036  23.676  1.00  0.00     0.037 C 
ATOM     13  C   UNL A   1      33.627  28.094  23.766  1.00  0.00     0.032 C 
BRANCH   9  14
ATOM     14  C   UNL A   1      33.057  25.600  22.023  1.00  0.00     0.318 C 
ATOM     15  N   UNL A   1      33.690  24.478  22.461  1.00  0.00    -0.331 N 
ATOM     16  H   UNL A   1      34.654  24.414  22.272  1.00  0.00     0.165 HD
ATOM     17  O   UNL A   1      33.271  25.967  20.868  1.00  0.00    -0.249 OA
BRANCH  15  18
ATOM     18  C   UNL A   1      33.089  23.365  23.183  1.00  0.00     0.112 C 
ATOM     19  C   UNL A   1      32.605  22.300  22.187  1.00  0.00     0.036 C 
BRANCH  18  20
ATOM     20  C   UNL A   1      34.093  22.846  24.207  1.00  0.00    -0.012 A 
ATOM     21  C   UNL A   1      37.644  22.688  25.589  1.00  0.00     0.056 C 
ATOM     22  C   UNL A   1      36.196  22.590  25.257  1.00  0.00     0.002 A 
ATOM     23  C   UNL A   1      35.475  23.263  24.294  1.00  0.00     0.021 A 
ATOM     24  S   UNL A   1      35.215  21.518  26.134  1.00  0.00    -0.146 S 
ATOM     25  C   UNL A   1      33.841  21.877  25.177  1.00  0.00     0.007 A 
ATOM     26  C   UNL A   1      32.596  21.127  25.502  1.00  0.00     0.057 C 
ENDBRANCH  18  20
ENDBRANCH  15  18
ENDBRANCH   9  14
ENDBRANCH   5   8
ENDBRANCH   3   4
ENDBRANCH   2   3
ENDBRANCH   1   2
BRANCH   1  27
ATOM     27  C   UNL A   1      34.617  31.317  27.790  1.00  0.00     0.002 C 
BRANCH  27  28
ATOM     28  C   UNL A   1      33.372  32.191  27.941  1.00  0.00     0.021 C 
BRANCH  28  29
ATOM     29  C   UNL A   1      33.601  33.688  27.767  1.00  0.00     0.116 C 
BRANCH  29  30
ATOM     30  N   UNL A   1      33.181  34.461  28.924  1.00  0.00    -0.352 N 
ATOM     31  C   UNL A   1      33.675  34.460  30.203  1.00  0.00     0.251 C 
ATOM     32  H   UNL A   1      32.429  35.077  28.766  1.00  0.00     0.163 HD
ATOM     33  O   UNL A   1      33.083  35.081  31.087  1.00  0.00    -0.269 OA
BRANCH  31  34
ATOM     34  C   UNL A   1      34.904  33.709  30.540  1.00  0.00     0.039 A 
ATOM     35  C   UNL A   1      36.122  34.126  29.995  1.00  0.00     0.014 A 
ATOM     36  C   UNL A   1      34.863  32.572  31.353  1.00  0.00     0.014 A 
ATOM     37  C   UNL A   1      37.295  33.430  30.290  1.00  0.00     0.010 A 
ATOM     38  C   UNL A   1      36.044  31.928  31.715  1.00  0.00     0.010 A 
ATOM     39  C   UNL A   1      37.270  32.333  31.167  1.00  0.00    -0.014 A 
BRANCH  39  40
ATOM     40  C   UNL A   1      38.506  31.567  31.477  1.00  0.00     0.031 A 
ATOM     41  C   UNL A   1      39.316  31.909  32.701  1.00  0.00     0.074 A 
ATOM     42  C   UNL A   1      38.921  30.590  30.649  1.00  0.00     0.049 A 
ATOM     43  N   UNL A   1      40.434  31.377  33.128  1.00  0.00    -0.248 NA
ATOM     44  C   UNL A   1      38.819  33.010  33.543  1.00  0.00     0.031 C 
ATOM     45  C   UNL A   1      38.250  30.180  29.413  1.00  0.00     0.029 A 
ATOM     46  N   UNL A   1      40.014  29.761  30.723  1.00  0.00    -0.354 N 
ATOM     47  C   UNL A   1      40.779  32.090  34.272  1.00  0.00     0.074 A 
ATOM     48  C   UNL A   1      39.786  33.127  34.439  1.00  0.00     0.031 C 
ATOM     49  C   UNL A   1      38.925  29.158  28.864  1.00  0.00     0.029 A 
ATOM     50  C   UNL A   1      40.096  28.864  29.686  1.00  0.00     0.049 A 
ATOM     51  H   UNL A   1      40.673  29.805  31.451  1.00  0.00     0.167 HD
ATOM     52  C   UNL A   1      41.812  31.886  35.122  1.00  0.00     0.031 A 
ATOM     53  C   UNL A   1      41.011  27.912  29.424  1.00  0.00     0.031 A 
ATOM     54  C   UNL A   1      42.793  30.845  34.967  1.00  0.00     0.049 A 
ATOM     55  C   UNL A   1      42.155  27.709  30.382  1.00  0.00     0.074 A 
ATOM     56  C   UNL A   1      43.851  30.525  35.801  1.00  0.00     0.029 A 
ATOM     57  N   UNL A   1      42.833  29.951  33.908  1.00  0.00    -0.354 N 
ATOM     58  N   UNL A   1      42.430  28.351  31.491  1.00  0.00    -0.248 NA
ATOM     59  C   UNL A   1      43.103  26.633  30.058  1.00  0.00     0.031 C 
ATOM     60  C   UNL A   1      44.563  29.472  35.218  1.00  0.00     0.029 A 
ATOM     61  C   UNL A   1      43.909  29.092  34.058  1.00  0.00     0.049 A 
ATOM     62  H   UNL A   1      42.193  29.931  33.160  1.00  0.00     0.167 HD
ATOM     63  C   UNL A   1      43.555  27.729  32.020  1.00  0.00     0.074 A 
ATOM     64  C   UNL A   1      43.902  26.653  31.114  1.00  0.00     0.031 C 
ATOM     65  C   UNL A   1      44.237  28.019  33.155  1.00  0.00     0.031 A 
BRANCH  52  66
ATOM     66  C   UNL A   1      41.937  32.815  36.299  1.00  0.00    -0.014 A 
ATOM     67  C   UNL A   1      41.319  32.526  37.526  1.00  0.00     0.009 A 
ATOM     68  C   UNL A   1      42.712  33.980  36.190  1.00  0.00     0.009 A 
ATOM     69  C   UNL A   1      41.442  33.403  38.606  1.00  0.00     0.001 A 
ATOM     70  C   UNL A   1      42.860  34.839  37.280  1.00  0.00     0.001 A 
ATOM     71  C   UNL A   1      42.216  34.555  38.485  1.00  0.00     0.000 A 
ENDBRANCH  52  66
BRANCH  53  72
ATOM     72  C   UNL A   1      40.878  27.053  28.217  1.00  0.00    -0.014 A 
ATOM     73  C   UNL A   1      41.487  27.421  27.008  1.00  0.00     0.009 A 
ATOM     74  C   UNL A   1      40.119  25.873  28.261  1.00  0.00     0.009 A 
ATOM     75  C   UNL A   1      41.308  26.646  25.859  1.00  0.00     0.001 A 
ATOM     76  C   UNL A   1      39.969  25.082  27.119  1.00  0.00     0.001 A 
ATOM     77  C   UNL A   1      40.554  25.476  25.916  1.00  0.00     0.000 A 
ENDBRANCH  53  72
BRANCH  65  78
ATOM     78  C   UNL A   1      45.386  27.120  33.518  1.00  0.00    -0.014 A 
ATOM     79  C   UNL A   1      45.205  25.960  34.288  1.00  0.00     0.009 A 
ATOM     80  C   UNL A   1      46.675  27.430  33.053  1.00  0.00     0.009 A 
ATOM     81  C   UNL A   1      46.297  25.156  34.622  1.00  0.00     0.001 A 
ATOM     82  C   UNL A   1      47.758  26.606  33.358  1.00  0.00     0.001 A 
ATOM     83  C   UNL A   1      47.571  25.477  34.154  1.00  0.00     0.000 A 
ENDBRANCH  65  78
ENDBRANCH  39  40
ENDBRANCH  31  34
ENDBRANCH  29  30
ENDBRANCH  28  29
ENDBRANCH  27  28
ENDBRANCH   1  27
TORSDOF 16
ENDMDL
MODEL 3
REMARK VINA RESULT:     -10.4      7.797     12.327
REMARK SMILES Cc1cc([C@H](C)NC(=O)N2CC[C@H](C(=O)NCCCCCCNC(=O)c3ccc(-c4c5nc(c(-c6ccccc6)c6ccc([nH]6)c(-c6ccccc6)c6nc(c(-c7ccccc7)c7ccc4[nH]7)C=C6)C=C5)cc3)[C@@H]2C)c(C)s1
REMARK SMILES IDX 19 1 18 2 17 3 16 4 14 5 15 6 13 8 10 9 11 10 74 11 12 12
REMARK SMILES IDX 75 13 8 14 7 15 9 17 5 18 6 19 4 20 1 21 2 22 3 23 78 24
REMARK SMILES IDX 76 25 77 26 20 27 21 28 22 29 23 30 24 31 25 33 26 34 27 35
REMARK SMILES IDX 73 36 28 37 72 38 29 39 30 40 31 41 66 42 32 43 71 44 65 45
REMARK SMILES IDX 67 46 33 47 70 48 64 49 63 50 34 52 56 53 41 54 55 55 42 56
REMARK SMILES IDX 45 57 54 58 68 59 43 60 44 61 53 63 69 64 46 65 35 66 36 67
REMARK SMILES IDX 40 68 37 69 39 70 38 71 57 72 58 73 62 74 59 75 61 76 60 77
REMARK SMILES IDX 47 78 48 79 52 80 49 81 51 82 50 83
REMARK H PARENT 16 7 7 16 23 32 67 51 45 62
REMARK Flexibility Score: inf
ROOT
ATOM      1  C   UNL A   1      37.647  23.446  26.122  1.00  0.00     0.002 C 
ENDROOT
BRANCH   1   2
ATOM      2  C   UNL A   1      38.047  22.001  25.802  1.00  0.00     0.021 C 
BRANCH   2   3
ATOM      3  C   UNL A   1      37.284  21.337  24.655  1.00  0.00     0.116 C 
BRANCH   3   4
ATOM      4  N   UNL A   1      36.238  20.433  25.100  1.00  0.00    -0.356 N 
ATOM      5  C   UNL A   1      34.886  20.494  24.939  1.00  0.00     0.225 C 
ATOM      6  O   UNL A   1      34.246  19.449  25.067  1.00  0.00    -0.275 OA
ATOM      7  H   UNL A   1      36.557  19.648  25.602  1.00  0.00     0.163 HD
BRANCH   5   8
ATOM      8  C   UNL A   1      34.202  21.824  24.680  1.00  0.00     0.102 C 
ATOM      9  N   UNL A   1      32.389  22.842  25.866  1.00  0.00    -0.321 N 
ATOM     10  C   UNL A   1      31.803  21.858  24.979  1.00  0.00     0.122 C 
ATOM     11  C   UNL A   1      33.827  22.598  25.966  1.00  0.00     0.096 C 
ATOM     12  C   UNL A   1      32.875  21.645  23.928  1.00  0.00     0.037 C 
ATOM     13  C   UNL A   1      34.168  21.907  27.291  1.00  0.00     0.032 C 
BRANCH   9  14
ATOM     14  C   UNL A   1      31.601  23.547  26.734  1.00  0.00     0.318 C 
ATOM     15  N   UNL A   1      31.500  24.897  26.610  1.00  0.00    -0.331 N 
ATOM     16  H   UNL A   1      31.601  25.424  27.436  1.00  0.00     0.165 HD
ATOM     17  O   UNL A   1      30.976  23.002  27.643  1.00  0.00    -0.249 OA
BRANCH  15  18
ATOM     18  C   UNL A   1      31.257  25.644  25.383  1.00  0.00     0.112 C 
ATOM     19  C   UNL A   1      29.768  25.999  25.276  1.00  0.00     0.036 C 
BRANCH  18  20
ATOM     20  C   UNL A   1      32.187  26.853  25.354  1.00  0.00    -0.012 A 
ATOM     21  C   UNL A   1      34.566  29.255  27.121  1.00  0.00     0.056 C 
ATOM     22  C   UNL A   1      33.696  28.460  26.211  1.00  0.00     0.002 A 
ATOM     23  C   UNL A   1      32.999  27.298  26.465  1.00  0.00     0.021 A 
ATOM     24  S   UNL A   1      33.464  28.987  24.614  1.00  0.00    -0.146 S 
ATOM     25  C   UNL A   1      32.363  27.720  24.277  1.00  0.00     0.007 A 
ATOM     26  C   UNL A   1      31.760  27.715  22.915  1.00  0.00     0.057 C 
ENDBRANCH  18  20
ENDBRANCH  15  18
ENDBRANCH   9  14
ENDBRANCH   5   8
ENDBRANCH   3   4
ENDBRANCH   2   3
ENDBRANCH   1   2
BRANCH   1  27
ATOM     27  C   UNL A   1      38.798  24.440  26.308  1.00  0.00     0.002 C 
BRANCH  27  28
ATOM     28  C   UNL A   1      39.416  24.489  27.705  1.00  0.00     0.021 C 
BRANCH  28  29
ATOM     29  C   UNL A   1      40.921  24.727  27.744  1.00  0.00     0.116 C 
BRANCH  29  30
ATOM     30  N   UNL A   1      41.689  23.537  27.416  1.00  0.00    -0.352 N 
ATOM     31  C   UNL A   1      42.964  23.427  26.925  1.00  0.00     0.251 C 
ATOM     32  H   UNL A   1      41.224  22.683  27.569  1.00  0.00     0.163 HD
ATOM     33  O   UNL A   1      43.388  22.328  26.567  1.00  0.00    -0.269 OA
BRANCH  31  34
ATOM     34  C   UNL A   1      43.835  24.617  26.804  1.00  0.00     0.039 A 
ATOM     35  C   UNL A   1      44.476  25.104  27.947  1.00  0.00     0.014 A 
ATOM     36  C   UNL A   1      43.992  25.283  25.585  1.00  0.00     0.014 A 
ATOM     37  C   UNL A   1      45.297  26.230  27.862  1.00  0.00     0.010 A 
ATOM     38  C   UNL A   1      44.876  26.356  25.483  1.00  0.00     0.010 A 
ATOM     39  C   UNL A   1      45.518  26.858  26.626  1.00  0.00    -0.014 A 
BRANCH  39  40
ATOM     40  C   UNL A   1      46.372  28.069  26.520  1.00  0.00     0.031 A 
ATOM     41  C   UNL A   1      47.860  27.927  26.325  1.00  0.00     0.074 A 
ATOM     42  C   UNL A   1      45.824  29.295  26.630  1.00  0.00     0.049 A 
ATOM     43  N   UNL A   1      48.776  28.859  26.235  1.00  0.00    -0.248 NA
ATOM     44  C   UNL A   1      48.393  26.557  26.245  1.00  0.00     0.031 C 
ATOM     45  C   UNL A   1      44.404  29.574  26.854  1.00  0.00     0.029 A 
ATOM     46  N   UNL A   1      46.401  30.539  26.569  1.00  0.00    -0.354 N 
ATOM     47  C   UNL A   1      49.987  28.188  26.109  1.00  0.00     0.074 A 
ATOM     48  C   UNL A   1      49.698  26.774  26.191  1.00  0.00     0.031 C 
ATOM     49  C   UNL A   1      44.215  30.902  26.877  1.00  0.00     0.029 A 
ATOM     50  C   UNL A   1      45.503  31.570  26.709  1.00  0.00     0.049 A 
ATOM     51  H   UNL A   1      47.365  30.679  26.435  1.00  0.00     0.167 HD
ATOM     52  C   UNL A   1      51.226  28.698  25.915  1.00  0.00     0.031 A 
ATOM     53  C   UNL A   1      45.695  32.903  26.703  1.00  0.00     0.031 A 
ATOM     54  C   UNL A   1      51.515  30.104  25.817  1.00  0.00     0.049 A 
ATOM     55  C   UNL A   1      47.083  33.445  26.493  1.00  0.00     0.074 A 
ATOM     56  C   UNL A   1      52.731  30.720  25.573  1.00  0.00     0.029 A 
ATOM     57  N   UNL A   1      50.575  31.113  25.954  1.00  0.00    -0.354 N 
ATOM     58  N   UNL A   1      48.207  32.795  26.313  1.00  0.00    -0.248 NA
ATOM     59  C   UNL A   1      47.222  34.908  26.465  1.00  0.00     0.031 C 
ATOM     60  C   UNL A   1      52.535  32.103  25.617  1.00  0.00     0.029 A 
ATOM     61  C   UNL A   1      51.187  32.348  25.818  1.00  0.00     0.049 A 
ATOM     62  H   UNL A   1      49.616  30.973  26.124  1.00  0.00     0.167 HD
ATOM     63  C   UNL A   1      49.178  33.768  26.106  1.00  0.00     0.074 A 
ATOM     64  C   UNL A   1      48.506  35.050  26.172  1.00  0.00     0.031 C 
ATOM     65  C   UNL A   1      50.505  33.615  25.876  1.00  0.00     0.031 A 
BRANCH  52  66
ATOM     66  C   UNL A   1      52.368  27.724  25.801  1.00  0.00    -0.014 A 
ATOM     67  C   UNL A   1      52.758  27.199  24.559  1.00  0.00     0.009 A 
ATOM     68  C   UNL A   1      53.087  27.353  26.948  1.00  0.00     0.009 A 
ATOM     69  C   UNL A   1      53.816  26.292  24.473  1.00  0.00     0.001 A 
ATOM     70  C   UNL A   1      54.166  26.473  26.855  1.00  0.00     0.001 A 
ATOM     71  C   UNL A   1      54.523  25.934  25.620  1.00  0.00     0.000 A 
ENDBRANCH  52  66
BRANCH  53  72
ATOM     72  C   UNL A   1      44.543  33.827  26.877  1.00  0.00    -0.014 A 
ATOM     73  C   UNL A   1      43.868  34.346  25.761  1.00  0.00     0.009 A 
ATOM     74  C   UNL A   1      44.127  34.217  28.160  1.00  0.00     0.009 A 
ATOM     75  C   UNL A   1      42.827  35.263  25.924  1.00  0.00     0.001 A 
ATOM     76  C   UNL A   1      43.065  35.109  28.322  1.00  0.00     0.001 A 
ATOM     77  C   UNL A   1      42.424  35.641  27.204  1.00  0.00     0.000 A 
ENDBRANCH  53  72
BRANCH  65  78
ATOM     78  C   UNL A   1      51.308  34.859  25.614  1.00  0.00    -0.014 A 
ATOM     79  C   UNL A   1      51.890  35.598  26.656  1.00  0.00     0.009 A 
ATOM     80  C   UNL A   1      51.508  35.283  24.290  1.00  0.00     0.009 A 
ATOM     81  C   UNL A   1      52.615  36.759  26.380  1.00  0.00     0.001 A 
ATOM     82  C   UNL A   1      52.262  36.423  24.014  1.00  0.00     0.001 A 
ATOM     83  C   UNL A   1      52.804  37.168  25.060  1.00  0.00     0.000 A 
ENDBRANCH  65  78
ENDBRANCH  39  40
ENDBRANCH  31  34
ENDBRANCH  29  30
ENDBRANCH  28  29
ENDBRANCH  27  28
ENDBRANCH   1  27
TORSDOF 16
ENDMDL
