MODEL 1
REMARK VINA RESULT:     -11.3      0.000      0.000
REMARK SMILES NS(=O)(=O)c1ccc(/N=N/c2ccc(O)c(C(=O)NCCCCCCNC(=O)c3ccc(-c4c5nc(c(-c6ccccc6)c6ccc([nH]6)c(-c6ccccc6)c6nc(c(-c7ccccc7)c7ccc4[nH]7)C=C6)C=C5)cc3)c2)cc1
REMARK SMILES IDX 21 1 20 2 19 3 17 4 18 5 16 7 11 8 12 9 77 10 13 11 14 12
REMARK SMILES IDX 10 13 9 14 8 15 5 16 6 17 79 18 7 19 78 20 2 21 3 22 4 23
REMARK SMILES IDX 1 24 15 27 22 29 23 30 24 31 25 32 26 33 27 34 28 36 29 37
REMARK SMILES IDX 30 38 76 39 31 40 75 41 32 42 33 43 34 44 69 45 35 46 74 47
REMARK SMILES IDX 68 48 70 49 36 50 73 51 67 52 66 53 37 55 59 56 44 57 58 58
REMARK SMILES IDX 45 59 48 60 57 61 71 62 46 63 47 64 56 66 72 67 49 68 38 69
REMARK SMILES IDX 39 70 43 71 40 72 42 73 41 74 60 75 61 76 65 77 62 78 64 79
REMARK SMILES IDX 63 80 50 81 51 82 55 83 52 84 54 85 53 86
REMARK H PARENT 19 6 1 25 1 26 15 28 26 35 70 54 48 65
REMARK Flexibility Score: inf
ROOT
ATOM      1  C   UNL A   1      35.150  31.290  27.692  1.00  0.00     0.021 C 
ENDROOT
BRANCH   1   2
ATOM      2  C   UNL A   1      34.753  29.847  27.394  1.00  0.00     0.116 C 
BRANCH   2   3
ATOM      3  N   UNL A   1      33.392  29.509  27.775  1.00  0.00    -0.352 N 
ATOM      4  C   UNL A   1      32.508  28.606  27.228  1.00  0.00     0.255 C 
ATOM      5  O   UNL A   1      31.359  28.549  27.665  1.00  0.00    -0.269 OA
ATOM      6  H   UNL A   1      33.045  30.007  28.550  1.00  0.00     0.163 HD
BRANCH   4   7
ATOM      7  C   UNL A   1      32.859  27.749  26.066  1.00  0.00     0.083 A 
ATOM      8  C   UNL A   1      33.429  25.562  25.148  1.00  0.00     0.087 A 
ATOM      9  C   UNL A   1      33.841  26.180  23.964  1.00  0.00     0.034 A 
ATOM     10  C   UNL A   1      32.845  26.356  26.148  1.00  0.00     0.048 A 
ATOM     11  C   UNL A   1      33.722  27.565  23.806  1.00  0.00     0.049 A 
ATOM     12  C   UNL A   1      33.248  28.344  24.859  1.00  0.00     0.128 A 
BRANCH   8  13
ATOM     13  N   UNL A   1      33.678  24.179  25.336  1.00  0.00    -0.151 NA
ATOM     14  N   UNL A   1      33.442  23.559  24.274  1.00  0.00    -0.151 NA
BRANCH  14  15
ATOM     15  C   UNL A   1      33.456  22.165  24.428  1.00  0.00     0.086 A 
ATOM     16  C   UNL A   1      33.632  19.367  24.431  1.00  0.00     0.082 A 
ATOM     17  C   UNL A   1      34.760  20.130  24.739  1.00  0.00     0.024 A 
ATOM     18  C   UNL A   1      32.417  19.988  24.124  1.00  0.00     0.024 A 
ATOM     19  C   UNL A   1      34.666  21.526  24.731  1.00  0.00     0.031 A 
ATOM     20  C   UNL A   1      32.334  21.384  24.124  1.00  0.00     0.031 A 
BRANCH  16  21
ATOM     21  S   UNL A   1      33.718  17.600  24.352  1.00  0.00     0.238 S 
ATOM     22  O   UNL A   1      33.777  17.210  22.964  1.00  0.00    -0.207 OA
ATOM     23  O   UNL A   1      32.754  17.063  25.281  1.00  0.00    -0.207 OA
BRANCH  21  24
ATOM     24  N   UNL A   1      35.233  17.228  24.979  1.00  0.00    -0.225 NA
ATOM     25  H   UNL A   1      35.232  16.267  25.321  1.00  0.00     0.137 HD
ATOM     26  H   UNL A   1      35.447  17.862  25.749  1.00  0.00     0.137 HD
ENDBRANCH  21  24
ENDBRANCH  16  21
ENDBRANCH  14  15
ENDBRANCH   8  13
BRANCH  12  27
ATOM     27  O   UNL A   1      33.201  29.696  24.645  1.00  0.00    -0.507 OA
ATOM     28  H   UNL A   1      33.793  30.263  25.098  1.00  0.00     0.293 HD
ENDBRANCH  12  27
ENDBRANCH   4   7
ENDBRANCH   2   3
ENDBRANCH   1   2
BRANCH   1  29
ATOM     29  C   UNL A   1      34.365  32.007  28.789  1.00  0.00     0.002 C 
BRANCH  29  30
ATOM     30  C   UNL A   1      34.572  33.518  28.907  1.00  0.00     0.002 C 
BRANCH  30  31
ATOM     31  C   UNL A   1      33.314  34.385  28.863  1.00  0.00     0.021 C 
BRANCH  31  32
ATOM     32  C   UNL A   1      33.484  35.831  29.315  1.00  0.00     0.116 C 
BRANCH  32  33
ATOM     33  N   UNL A   1      32.608  36.190  30.417  1.00  0.00    -0.352 N 
ATOM     34  C   UNL A   1      32.690  35.841  31.743  1.00  0.00     0.251 C 
ATOM     35  H   UNL A   1      31.846  36.766  30.179  1.00  0.00     0.163 HD
ATOM     36  O   UNL A   1      31.784  36.127  32.519  1.00  0.00    -0.269 OA
BRANCH  34  37
ATOM     37  C   UNL A   1      33.864  35.086  32.236  1.00  0.00     0.039 A 
ATOM     38  C   UNL A   1      33.689  33.767  32.663  1.00  0.00     0.014 A 
ATOM     39  C   UNL A   1      35.132  35.673  32.270  1.00  0.00     0.014 A 
ATOM     40  C   UNL A   1      34.798  33.012  33.056  1.00  0.00     0.010 A 
ATOM     41  C   UNL A   1      36.243  34.900  32.596  1.00  0.00     0.010 A 
ATOM     42  C   UNL A   1      36.088  33.562  32.990  1.00  0.00    -0.014 A 
BRANCH  42  43
ATOM     43  C   UNL A   1      37.293  32.760  33.323  1.00  0.00     0.031 A 
ATOM     44  C   UNL A   1      38.021  32.998  34.617  1.00  0.00     0.074 A 
ATOM     45  C   UNL A   1      37.781  31.877  32.428  1.00  0.00     0.049 A 
ATOM     46  N   UNL A   1      39.151  32.484  35.035  1.00  0.00    -0.248 NA
ATOM     47  C   UNL A   1      37.416  33.960  35.551  1.00  0.00     0.031 C 
ATOM     48  C   UNL A   1      37.185  31.572  31.125  1.00  0.00     0.029 A 
ATOM     49  N   UNL A   1      38.901  31.083  32.475  1.00  0.00    -0.354 N 
ATOM     50  C   UNL A   1      39.400  33.076  36.268  1.00  0.00     0.074 A 
ATOM     51  C   UNL A   1      38.329  34.019  36.508  1.00  0.00     0.031 C 
ATOM     52  C   UNL A   1      37.933  30.643  30.507  1.00  0.00     0.029 A 
ATOM     53  C   UNL A   1      39.083  30.322  31.346  1.00  0.00     0.049 A 
ATOM     54  H   UNL A   1      39.514  31.062  33.244  1.00  0.00     0.167 HD
ATOM     55  C   UNL A   1      40.419  32.845  37.128  1.00  0.00     0.031 A 
ATOM     56  C   UNL A   1      40.072  29.469  31.016  1.00  0.00     0.031 A 
ATOM     57  C   UNL A   1      41.473  31.894  36.899  1.00  0.00     0.049 A 
ATOM     58  C   UNL A   1      41.202  29.243  31.982  1.00  0.00     0.074 A 
ATOM     59  C   UNL A   1      42.521  31.551  37.736  1.00  0.00     0.029 A 
ATOM     60  N   UNL A   1      41.612  31.132  35.750  1.00  0.00    -0.354 N 
ATOM     61  N   UNL A   1      41.397  29.777  33.164  1.00  0.00    -0.248 NA
ATOM     62  C   UNL A   1      42.247  28.293  31.571  1.00  0.00     0.031 C 
ATOM     63  C   UNL A   1      43.324  30.620  37.071  1.00  0.00     0.029 A 
ATOM     64  C   UNL A   1      42.744  30.341  35.844  1.00  0.00     0.049 A 
ATOM     65  H   UNL A   1      40.997  31.152  34.981  1.00  0.00     0.167 HD
ATOM     66  C   UNL A   1      42.564  29.202  33.650  1.00  0.00     0.074 A 
ATOM     67  C   UNL A   1      43.030  28.275  32.641  1.00  0.00     0.031 C 
ATOM     68  C   UNL A   1      43.192  29.421  34.831  1.00  0.00     0.031 A 
BRANCH  55  69
ATOM     69  C   UNL A   1      40.448  33.645  38.401  1.00  0.00    -0.014 A 
ATOM     70  C   UNL A   1      41.119  34.876  38.472  1.00  0.00     0.009 A 
ATOM     71  C   UNL A   1      39.757  33.182  39.531  1.00  0.00     0.009 A 
ATOM     72  C   UNL A   1      41.127  35.610  39.661  1.00  0.00     0.001 A 
ATOM     73  C   UNL A   1      39.742  33.932  40.709  1.00  0.00     0.001 A 
ATOM     74  C   UNL A   1      40.434  35.139  40.776  1.00  0.00     0.000 A 
ENDBRANCH  55  69
BRANCH  56  75
ATOM     75  C   UNL A   1      40.043  28.759  29.710  1.00  0.00    -0.014 A 
ATOM     76  C   UNL A   1      40.573  29.363  28.560  1.00  0.00     0.009 A 
ATOM     77  C   UNL A   1      39.473  27.480  29.603  1.00  0.00     0.009 A 
ATOM     78  C   UNL A   1      40.503  28.715  27.324  1.00  0.00     0.001 A 
ATOM     79  C   UNL A   1      39.431  26.823  28.372  1.00  0.00     0.001 A 
ATOM     80  C   UNL A   1      39.936  27.445  27.231  1.00  0.00     0.000 A 
ENDBRANCH  56  75
BRANCH  68  81
ATOM     81  C   UNL A   1      44.430  28.619  35.115  1.00  0.00    -0.014 A 
ATOM     82  C   UNL A   1      45.704  29.100  34.780  1.00  0.00     0.009 A 
ATOM     83  C   UNL A   1      44.319  27.387  35.779  1.00  0.00     0.009 A 
ATOM     84  C   UNL A   1      46.843  28.348  35.081  1.00  0.00     0.001 A 
ATOM     85  C   UNL A   1      45.460  26.652  36.105  1.00  0.00     0.001 A 
ATOM     86  C   UNL A   1      46.720  27.130  35.748  1.00  0.00     0.000 A 
ENDBRANCH  68  81
ENDBRANCH  42  43
ENDBRANCH  34  37
ENDBRANCH  32  33
ENDBRANCH  31  32
ENDBRANCH  30  31
ENDBRANCH  29  30
ENDBRANCH   1  29
TORSDOF 18
ENDMDL
MODEL 2
REMARK VINA RESULT:     -11.2      5.638     11.196
REMARK SMILES NS(=O)(=O)c1ccc(/N=N/c2ccc(O)c(C(=O)NCCCCCCNC(=O)c3ccc(-c4c5nc(c(-c6ccccc6)c6ccc([nH]6)c(-c6ccccc6)c6nc(c(-c7ccccc7)c7ccc4[nH]7)C=C6)C=C5)cc3)c2)cc1
REMARK SMILES IDX 21 1 20 2 19 3 17 4 18 5 16 7 11 8 12 9 77 10 13 11 14 12
REMARK SMILES IDX 10 13 9 14 8 15 5 16 6 17 79 18 7 19 78 20 2 21 3 22 4 23
REMARK SMILES IDX 1 24 15 27 22 29 23 30 24 31 25 32 26 33 27 34 28 36 29 37
REMARK SMILES IDX 30 38 76 39 31 40 75 41 32 42 33 43 34 44 69 45 35 46 74 47
REMARK SMILES IDX 68 48 70 49 36 50 73 51 67 52 66 53 37 55 59 56 44 57 58 58
REMARK SMILES IDX 45 59 48 60 57 61 71 62 46 63 47 64 56 66 72 67 49 68 38 69
REMARK SMILES IDX 39 70 43 71 40 72 42 73 41 74 60 75 61 76 65 77 62 78 64 79
REMARK SMILES IDX 63 80 50 81 51 82 55 83 52 84 54 85 53 86
REMARK H PARENT 19 6 1 25 1 26 15 28 26 35 70 54 48 65
REMARK Flexibility Score: inf
ROOT
ATOM      1  C   UNL A   1      34.030  21.064  25.933  1.00  0.00     0.021 C 
ENDROOT
BRANCH   1   2
ATOM      2  C   UNL A   1      32.895  21.843  25.276  1.00  0.00     0.116 C 
BRANCH   2   3
ATOM      3  N   UNL A   1      31.839  22.249  26.188  1.00  0.00    -0.352 N 
ATOM      4  C   UNL A   1      31.199  23.459  26.334  1.00  0.00     0.255 C 
ATOM      5  O   UNL A   1      30.384  23.603  27.246  1.00  0.00    -0.269 OA
ATOM      6  H   UNL A   1      31.531  21.543  26.803  1.00  0.00     0.163 HD
BRANCH   4   7
ATOM      7  C   UNL A   1      31.513  24.636  25.483  1.00  0.00     0.083 A 
ATOM      8  C   UNL A   1      32.373  26.907  25.251  1.00  0.00     0.087 A 
ATOM      9  C   UNL A   1      31.807  26.978  23.975  1.00  0.00     0.034 A 
ATOM     10  C   UNL A   1      32.302  25.690  25.947  1.00  0.00     0.048 A 
ATOM     11  C   UNL A   1      31.139  25.876  23.431  1.00  0.00     0.049 A 
ATOM     12  C   UNL A   1      30.981  24.718  24.190  1.00  0.00     0.128 A 
BRANCH   8  13
ATOM     13  N   UNL A   1      32.930  28.073  25.833  1.00  0.00    -0.151 NA
ATOM     14  N   UNL A   1      32.012  28.825  26.236  1.00  0.00    -0.151 NA
BRANCH  14  15
ATOM     15  C   UNL A   1      32.463  30.092  26.631  1.00  0.00     0.086 A 
ATOM     16  C   UNL A   1      33.280  32.535  27.737  1.00  0.00     0.082 A 
ATOM     17  C   UNL A   1      34.114  31.420  27.834  1.00  0.00     0.024 A 
ATOM     18  C   UNL A   1      32.043  32.443  27.092  1.00  0.00     0.024 A 
ATOM     19  C   UNL A   1      33.698  30.202  27.283  1.00  0.00     0.031 A 
ATOM     20  C   UNL A   1      31.639  31.223  26.541  1.00  0.00     0.031 A 
BRANCH  16  21
ATOM     21  S   UNL A   1      33.728  34.078  28.484  1.00  0.00     0.238 S 
ATOM     22  O   UNL A   1      34.607  33.806  29.596  1.00  0.00    -0.207 OA
ATOM     23  O   UNL A   1      32.534  34.881  28.601  1.00  0.00    -0.207 OA
BRANCH  21  24
ATOM     24  N   UNL A   1      34.691  34.835  27.334  1.00  0.00    -0.225 NA
ATOM     25  H   UNL A   1      35.652  34.507  27.427  1.00  0.00     0.137 HD
ATOM     26  H   UNL A   1      34.662  35.844  27.476  1.00  0.00     0.137 HD
ENDBRANCH  21  24
ENDBRANCH  16  21
ENDBRANCH  14  15
ENDBRANCH   8  13
BRANCH  12  27
ATOM     27  O   UNL A   1      30.279  23.697  23.606  1.00  0.00    -0.507 OA
ATOM     28  H   UNL A   1      30.618  23.270  22.845  1.00  0.00     0.293 HD
ENDBRANCH  12  27
ENDBRANCH   4   7
ENDBRANCH   2   3
ENDBRANCH   1   2
BRANCH   1  29
ATOM     29  C   UNL A   1      35.082  20.464  25.003  1.00  0.00     0.002 C 
BRANCH  29  30
ATOM     30  C   UNL A   1      36.496  21.041  25.099  1.00  0.00     0.002 C 
BRANCH  30  31
ATOM     31  C   UNL A   1      37.649  20.042  25.002  1.00  0.00     0.021 C 
BRANCH  31  32
ATOM     32  C   UNL A   1      38.908  20.400  25.784  1.00  0.00     0.116 C 
BRANCH  32  33
ATOM     33  N   UNL A   1      39.877  19.318  25.828  1.00  0.00    -0.352 N 
ATOM     34  C   UNL A   1      41.227  19.368  26.077  1.00  0.00     0.251 C 
ATOM     35  H   UNL A   1      39.513  18.419  25.654  1.00  0.00     0.163 HD
ATOM     36  O   UNL A   1      41.921  18.365  25.944  1.00  0.00    -0.269 OA
BRANCH  34  37
ATOM     37  C   UNL A   1      41.855  20.646  26.478  1.00  0.00     0.039 A 
ATOM     38  C   UNL A   1      42.261  21.541  25.485  1.00  0.00     0.014 A 
ATOM     39  C   UNL A   1      42.038  20.964  27.827  1.00  0.00     0.014 A 
ATOM     40  C   UNL A   1      42.783  22.786  25.844  1.00  0.00     0.010 A 
ATOM     41  C   UNL A   1      42.494  22.230  28.183  1.00  0.00     0.010 A 
ATOM     42  C   UNL A   1      42.870  23.155  27.196  1.00  0.00    -0.014 A 
BRANCH  42  43
ATOM     43  C   UNL A   1      43.343  24.501  27.607  1.00  0.00     0.031 A 
ATOM     44  C   UNL A   1      42.353  25.547  28.039  1.00  0.00     0.074 A 
ATOM     45  C   UNL A   1      44.652  24.811  27.511  1.00  0.00     0.049 A 
ATOM     46  N   UNL A   1      42.557  26.809  28.322  1.00  0.00    -0.248 NA
ATOM     47  C   UNL A   1      40.947  25.128  28.139  1.00  0.00     0.031 C 
ATOM     48  C   UNL A   1      45.712  23.896  27.080  1.00  0.00     0.029 A 
ATOM     49  N   UNL A   1      45.312  25.990  27.759  1.00  0.00    -0.354 N 
ATOM     50  C   UNL A   1      41.304  27.337  28.613  1.00  0.00     0.074 A 
ATOM     51  C   UNL A   1      40.344  26.271  28.427  1.00  0.00     0.031 C 
ATOM     52  C   UNL A   1      46.889  24.541  27.114  1.00  0.00     0.029 A 
ATOM     53  C   UNL A   1      46.664  25.924  27.523  1.00  0.00     0.049 A 
ATOM     54  H   UNL A   1      44.859  26.804  28.076  1.00  0.00     0.167 HD
ATOM     55  C   UNL A   1      40.984  28.590  29.012  1.00  0.00     0.031 A 
ATOM     56  C   UNL A   1      47.615  26.873  27.614  1.00  0.00     0.031 A 
ATOM     57  C   UNL A   1      41.940  29.645  29.216  1.00  0.00     0.049 A 
ATOM     58  C   UNL A   1      47.231  28.262  28.043  1.00  0.00     0.074 A 
ATOM     59  C   UNL A   1      41.718  30.933  29.670  1.00  0.00     0.029 A 
ATOM     60  N   UNL A   1      43.301  29.532  28.980  1.00  0.00    -0.354 N 
ATOM     61  N   UNL A   1      46.047  28.730  28.357  1.00  0.00    -0.248 NA
ATOM     62  C   UNL A   1      48.314  29.252  28.133  1.00  0.00     0.031 C 
ATOM     63  C   UNL A   1      42.938  31.616  29.659  1.00  0.00     0.029 A 
ATOM     64  C   UNL A   1      43.927  30.736  29.252  1.00  0.00     0.049 A 
ATOM     65  H   UNL A   1      43.754  28.716  28.665  1.00  0.00     0.167 HD
ATOM     66  C   UNL A   1      46.249  30.057  28.716  1.00  0.00     0.074 A 
ATOM     67  C   UNL A   1      47.667  30.318  28.587  1.00  0.00     0.031 C 
ATOM     68  C   UNL A   1      45.340  30.977  29.121  1.00  0.00     0.031 A 
BRANCH  55  69
ATOM     69  C   UNL A   1      39.530  28.893  29.247  1.00  0.00    -0.014 A 
ATOM     70  C   UNL A   1      38.719  29.411  28.225  1.00  0.00     0.009 A 
ATOM     71  C   UNL A   1      38.954  28.615  30.496  1.00  0.00     0.009 A 
ATOM     72  C   UNL A   1      37.368  29.678  28.460  1.00  0.00     0.001 A 
ATOM     73  C   UNL A   1      37.596  28.855  30.719  1.00  0.00     0.001 A 
ATOM     74  C   UNL A   1      36.808  29.394  29.705  1.00  0.00     0.000 A 
ENDBRANCH  55  69
BRANCH  56  75
ATOM     75  C   UNL A   1      49.030  26.548  27.293  1.00  0.00    -0.014 A 
ATOM     76  C   UNL A   1      49.554  26.826  26.022  1.00  0.00     0.009 A 
ATOM     77  C   UNL A   1      49.860  25.943  28.251  1.00  0.00     0.009 A 
ATOM     78  C   UNL A   1      50.869  26.477  25.706  1.00  0.00     0.001 A 
ATOM     79  C   UNL A   1      51.183  25.622  27.942  1.00  0.00     0.001 A 
ATOM     80  C   UNL A   1      51.684  25.879  26.667  1.00  0.00     0.000 A 
ENDBRANCH  56  75
BRANCH  68  81
ATOM     81  C   UNL A   1      45.853  32.340  29.490  1.00  0.00    -0.014 A 
ATOM     82  C   UNL A   1      46.295  32.626  30.791  1.00  0.00     0.009 A 
ATOM     83  C   UNL A   1      45.945  33.335  28.504  1.00  0.00     0.009 A 
ATOM     84  C   UNL A   1      46.796  33.893  31.102  1.00  0.00     0.001 A 
ATOM     85  C   UNL A   1      46.473  34.590  28.811  1.00  0.00     0.001 A 
ATOM     86  C   UNL A   1      46.890  34.870  30.112  1.00  0.00     0.000 A 
ENDBRANCH  68  81
ENDBRANCH  42  43
ENDBRANCH  34  37
ENDBRANCH  32  33
ENDBRANCH  31  32
ENDBRANCH  30  31
ENDBRANCH  29  30
ENDBRANCH   1  29
TORSDOF 18
ENDMDL
MODEL 3
REMARK VINA RESULT:     -11.0      0.310      5.755
REMARK SMILES NS(=O)(=O)c1ccc(/N=N/c2ccc(O)c(C(=O)NCCCCCCNC(=O)c3ccc(-c4c5nc(c(-c6ccccc6)c6ccc([nH]6)c(-c6ccccc6)c6nc(c(-c7ccccc7)c7ccc4[nH]7)C=C6)C=C5)cc3)c2)cc1
REMARK SMILES IDX 21 1 20 2 19 3 17 4 18 5 16 7 11 8 12 9 77 10 13 11 14 12
REMARK SMILES IDX 10 13 9 14 8 15 5 16 6 17 79 18 7 19 78 20 2 21 3 22 4 23
REMARK SMILES IDX 1 24 15 27 22 29 23 30 24 31 25 32 26 33 27 34 28 36 29 37
REMARK SMILES IDX 30 38 76 39 31 40 75 41 32 42 33 43 34 44 69 45 35 46 74 47
REMARK SMILES IDX 68 48 70 49 36 50 73 51 67 52 66 53 37 55 59 56 44 57 58 58
REMARK SMILES IDX 45 59 48 60 57 61 71 62 46 63 47 64 56 66 72 67 49 68 38 69
REMARK SMILES IDX 39 70 43 71 40 72 42 73 41 74 60 75 61 76 65 77 62 78 64 79
REMARK SMILES IDX 63 80 50 81 51 82 55 83 52 84 54 85 53 86
REMARK H PARENT 19 6 1 25 1 26 15 28 26 35 70 54 48 65
REMARK Flexibility Score: inf
ROOT
ATOM      1  C   UNL A   1      35.297  31.182  27.717  1.00  0.00     0.021 C 
ENDROOT
BRANCH   1   2
ATOM      2  C   UNL A   1      34.835  29.766  27.384  1.00  0.00     0.116 C 
BRANCH   2   3
ATOM      3  N   UNL A   1      33.463  29.478  27.768  1.00  0.00    -0.352 N 
ATOM      4  C   UNL A   1      32.539  28.622  27.210  1.00  0.00     0.255 C 
ATOM      5  O   UNL A   1      31.391  28.605  27.654  1.00  0.00    -0.269 OA
ATOM      6  H   UNL A   1      33.141  29.975  28.555  1.00  0.00     0.163 HD
BRANCH   4   7
ATOM      7  C   UNL A   1      32.847  27.774  26.029  1.00  0.00     0.083 A 
ATOM      8  C   UNL A   1      33.332  25.585  25.069  1.00  0.00     0.087 A 
ATOM      9  C   UNL A   1      33.751  26.209  23.890  1.00  0.00     0.034 A 
ATOM     10  C   UNL A   1      32.787  26.381  26.089  1.00  0.00     0.048 A 
ATOM     11  C   UNL A   1      33.676  27.600  23.756  1.00  0.00     0.049 A 
ATOM     12  C   UNL A   1      33.241  28.376  24.828  1.00  0.00     0.128 A 
BRANCH   8  13
ATOM     13  N   UNL A   1      33.536  24.192  25.231  1.00  0.00    -0.151 NA
ATOM     14  N   UNL A   1      33.332  23.606  24.143  1.00  0.00    -0.151 NA
BRANCH  14  15
ATOM     15  C   UNL A   1      33.304  22.208  24.261  1.00  0.00     0.086 A 
ATOM     16  C   UNL A   1      33.476  19.410  24.245  1.00  0.00     0.082 A 
ATOM     17  C   UNL A   1      34.465  20.159  24.886  1.00  0.00     0.024 A 
ATOM     18  C   UNL A   1      32.401  20.044  23.614  1.00  0.00     0.024 A 
ATOM     19  C   UNL A   1      34.375  21.556  24.886  1.00  0.00     0.031 A 
ATOM     20  C   UNL A   1      32.319  21.440  23.625  1.00  0.00     0.031 A 
BRANCH  16  21
ATOM     21  S   UNL A   1      33.585  17.645  24.151  1.00  0.00     0.238 S 
ATOM     22  O   UNL A   1      33.681  17.269  22.762  1.00  0.00    -0.207 OA
ATOM     23  O   UNL A   1      32.605  17.087  25.053  1.00  0.00    -0.207 OA
BRANCH  21  24
ATOM     24  N   UNL A   1      35.089  17.284  24.812  1.00  0.00    -0.225 NA
ATOM     25  H   UNL A   1      35.591  16.653  24.188  1.00  0.00     0.137 HD
ATOM     26  H   UNL A   1      34.963  16.836  25.719  1.00  0.00     0.137 HD
ENDBRANCH  21  24
ENDBRANCH  16  21
ENDBRANCH  14  15
ENDBRANCH   8  13
BRANCH  12  27
ATOM     27  O   UNL A   1      33.237  29.733  24.637  1.00  0.00    -0.507 OA
ATOM     28  H   UNL A   1      33.916  30.260  25.007  1.00  0.00     0.293 HD
ENDBRANCH  12  27
ENDBRANCH   4   7
ENDBRANCH   2   3
ENDBRANCH   1   2
BRANCH   1  29
ATOM     29  C   UNL A   1      34.447  31.966  28.716  1.00  0.00     0.002 C 
BRANCH  29  30
ATOM     30  C   UNL A   1      34.667  33.479  28.767  1.00  0.00     0.002 C 
BRANCH  30  31
ATOM     31  C   UNL A   1      33.413  34.353  28.734  1.00  0.00     0.021 C 
BRANCH  31  32
ATOM     32  C   UNL A   1      33.525  35.705  29.429  1.00  0.00     0.116 C 
BRANCH  32  33
ATOM     33  N   UNL A   1      32.581  35.863  30.522  1.00  0.00    -0.352 N 
ATOM     34  C   UNL A   1      32.677  35.436  31.824  1.00  0.00     0.251 C 
ATOM     35  H   UNL A   1      31.752  36.347  30.296  1.00  0.00     0.163 HD
ATOM     36  O   UNL A   1      31.720  35.541  32.585  1.00  0.00    -0.269 OA
BRANCH  34  37
ATOM     37  C   UNL A   1      33.930  34.814  32.304  1.00  0.00     0.039 A 
ATOM     38  C   UNL A   1      33.918  33.467  32.675  1.00  0.00     0.014 A 
ATOM     39  C   UNL A   1      35.114  35.553  32.384  1.00  0.00     0.014 A 
ATOM     40  C   UNL A   1      35.108  32.841  33.056  1.00  0.00     0.010 A 
ATOM     41  C   UNL A   1      36.309  34.913  32.698  1.00  0.00     0.010 A 
ATOM     42  C   UNL A   1      36.320  33.550  33.034  1.00  0.00    -0.014 A 
BRANCH  42  43
ATOM     43  C   UNL A   1      37.612  32.892  33.355  1.00  0.00     0.031 A 
ATOM     44  C   UNL A   1      38.192  31.875  32.411  1.00  0.00     0.074 A 
ATOM     45  C   UNL A   1      38.222  33.144  34.530  1.00  0.00     0.049 A 
ATOM     46  N   UNL A   1      39.244  31.111  32.566  1.00  0.00    -0.248 NA
ATOM     47  C   UNL A   1      37.480  31.669  31.139  1.00  0.00     0.031 C 
ATOM     48  C   UNL A   1      37.750  34.088  35.546  1.00  0.00     0.029 A 
ATOM     49  N   UNL A   1      39.366  32.616  35.075  1.00  0.00    -0.354 N 
ATOM     50  C   UNL A   1      39.307  30.322  31.423  1.00  0.00     0.074 A 
ATOM     51  C   UNL A   1      38.164  30.668  30.607  1.00  0.00     0.031 C 
ATOM     52  C   UNL A   1      38.607  34.088  36.579  1.00  0.00     0.029 A 
ATOM     53  C   UNL A   1      39.662  33.112  36.321  1.00  0.00     0.049 A 
ATOM     54  H   UNL A   1      39.922  31.947  34.615  1.00  0.00     0.167 HD
ATOM     55  C   UNL A   1      40.240  29.404  31.077  1.00  0.00     0.031 A 
ATOM     56  C   UNL A   1      40.664  32.808  37.169  1.00  0.00     0.031 A 
ATOM     57  C   UNL A   1      41.387  29.073  31.879  1.00  0.00     0.049 A 
ATOM     58  C   UNL A   1      41.678  31.772  36.769  1.00  0.00     0.074 A 
ATOM     59  C   UNL A   1      42.416  28.195  31.589  1.00  0.00     0.029 A 
ATOM     60  N   UNL A   1      41.658  29.610  33.128  1.00  0.00    -0.354 N 
ATOM     61  N   UNL A   1      41.747  31.069  35.664  1.00  0.00    -0.248 NA
ATOM     62  C   UNL A   1      42.753  31.490  37.731  1.00  0.00     0.031 C 
ATOM     63  C   UNL A   1      43.283  28.160  32.687  1.00  0.00     0.029 A 
ATOM     64  C   UNL A   1      42.823  29.059  33.634  1.00  0.00     0.049 A 
ATOM     65  H   UNL A   1      41.103  30.282  33.587  1.00  0.00     0.167 HD
ATOM     66  C   UNL A   1      42.891  30.290  35.784  1.00  0.00     0.074 A 
ATOM     67  C   UNL A   1      43.487  30.610  37.064  1.00  0.00     0.031 C 
ATOM     68  C   UNL A   1      43.404  29.392  34.908  1.00  0.00     0.031 A 
BRANCH  55  69
ATOM     69  C   UNL A   1      40.052  28.680  29.772  1.00  0.00    -0.014 A 
ATOM     70  C   UNL A   1      40.463  29.250  28.557  1.00  0.00     0.009 A 
ATOM     71  C   UNL A   1      39.498  27.392  29.765  1.00  0.00     0.009 A 
ATOM     72  C   UNL A   1      40.288  28.558  27.356  1.00  0.00     0.001 A 
ATOM     73  C   UNL A   1      39.351  26.690  28.567  1.00  0.00     0.001 A 
ATOM     74  C   UNL A   1      39.738  27.277  27.364  1.00  0.00     0.000 A 
ENDBRANCH  55  69
BRANCH  56  75
ATOM     75  C   UNL A   1      40.764  33.492  38.485  1.00  0.00    -0.014 A 
ATOM     76  C   UNL A   1      41.459  34.706  38.606  1.00  0.00     0.009 A 
ATOM     77  C   UNL A   1      40.180  32.928  39.631  1.00  0.00     0.009 A 
ATOM     78  C   UNL A   1      41.593  35.323  39.852  1.00  0.00     0.001 A 
ATOM     79  C   UNL A   1      40.291  33.563  40.869  1.00  0.00     0.001 A 
ATOM     80  C   UNL A   1      41.006  34.754  40.981  1.00  0.00     0.000 A 
ENDBRANCH  56  75
BRANCH  68  81
ATOM     81  C   UNL A   1      44.692  28.717  35.285  1.00  0.00    -0.014 A 
ATOM     82  C   UNL A   1      44.704  27.549  36.062  1.00  0.00     0.009 A 
ATOM     83  C   UNL A   1      45.908  29.230  34.806  1.00  0.00     0.009 A 
ATOM     84  C   UNL A   1      45.913  26.923  36.374  1.00  0.00     0.001 A 
ATOM     85  C   UNL A   1      47.112  28.585  35.095  1.00  0.00     0.001 A 
ATOM     86  C   UNL A   1      47.114  27.437  35.886  1.00  0.00     0.000 A 
ENDBRANCH  68  81
ENDBRANCH  42  43
ENDBRANCH  34  37
ENDBRANCH  32  33
ENDBRANCH  31  32
ENDBRANCH  30  31
ENDBRANCH  29  30
ENDBRANCH   1  29
TORSDOF 18
ENDMDL
