MODEL 1
REMARK VINA RESULT:      -8.9      0.000      0.000
REMARK SMILES O=C(NCCCCCCNC(=O)[C@@H]1[C@H](C(=O)NCc2ccccc2Cl)[C@@H]2C=C[C@H]1C2)c1ccc(-c2c3nc(c(-c4ccccc4)c4ccc([nH]4)c(-c4ccccc4)c4nc(c(-c5ccccc5)c5ccc2[nH]5)C=C4)C=C3)cc1
REMARK SMILES IDX 7 1 6 2 5 3 4 4 3 5 1 6 2 7 31 9 32 10 78 11 33 12 77 13
REMARK SMILES IDX 34 14 35 15 36 16 71 17 37 18 76 19 70 20 72 21 38 22 75 23
REMARK SMILES IDX 69 24 68 25 39 27 61 28 46 29 60 30 47 31 50 32 59 33 73 34
REMARK SMILES IDX 48 35 49 36 58 38 74 39 51 40 40 41 41 42 45 43 42 44 44 45
REMARK SMILES IDX 43 46 62 47 63 48 67 49 64 50 66 51 65 52 52 53 53 54 57 55
REMARK SMILES IDX 54 56 56 57 55 58 8 59 9 60 10 61 11 62 12 64 13 65 14 66
REMARK SMILES IDX 29 67 26 68 28 69 30 70 27 71 15 72 16 73 17 74 18 76 19 77
REMARK SMILES IDX 20 78 24 79 21 80 23 81 25 82 22 83
REMARK H PARENT 3 8 72 26 50 37 10 63 17 75
REMARK Flexibility Score: inf
ROOT
ATOM      1  C   UNL A   1      45.679  21.804  24.598  1.00  0.00     0.002 C 
ENDROOT
BRANCH   1   2
ATOM      2  C   UNL A   1      45.736  20.327  24.999  1.00  0.00     0.002 C 
BRANCH   2   3
ATOM      3  C   UNL A   1      44.515  19.494  24.616  1.00  0.00     0.021 C 
BRANCH   3   4
ATOM      4  C   UNL A   1      43.755  18.878  25.784  1.00  0.00     0.116 C 
BRANCH   4   5
ATOM      5  N   UNL A   1      42.315  18.857  25.594  1.00  0.00    -0.352 N 
ATOM      6  O   UNL A   1      40.188  19.591  25.846  1.00  0.00    -0.269 OA
ATOM      7  C   UNL A   1      41.384  19.798  25.985  1.00  0.00     0.251 C 
ATOM      8  H   UNL A   1      41.956  18.068  25.125  1.00  0.00     0.163 HD
BRANCH   7   9
ATOM      9  C   UNL A   1      41.855  21.050  26.621  1.00  0.00     0.039 A 
ATOM     10  C   UNL A   1      42.015  21.125  28.005  1.00  0.00     0.014 A 
ATOM     11  C   UNL A   1      42.086  22.173  25.823  1.00  0.00     0.014 A 
ATOM     12  C   UNL A   1      42.237  22.360  28.605  1.00  0.00     0.010 A 
ATOM     13  C   UNL A   1      42.395  23.398  26.424  1.00  0.00     0.010 A 
ATOM     14  C   UNL A   1      42.424  23.512  27.823  1.00  0.00    -0.014 A 
BRANCH  14  15
ATOM     15  C   UNL A   1      42.662  24.815  28.497  1.00  0.00     0.031 A 
ATOM     16  C   UNL A   1      44.034  25.207  28.977  1.00  0.00     0.074 A 
ATOM     17  C   UNL A   1      41.634  25.676  28.628  1.00  0.00     0.049 A 
ATOM     18  N   UNL A   1      44.423  26.334  29.521  1.00  0.00    -0.248 NA
ATOM     19  C   UNL A   1      45.106  24.210  28.836  1.00  0.00     0.031 C 
ATOM     20  C   UNL A   1      40.255  25.414  28.207  1.00  0.00     0.029 A 
ATOM     21  N   UNL A   1      41.595  26.955  29.120  1.00  0.00    -0.354 N 
ATOM     22  C   UNL A   1      45.772  26.171  29.814  1.00  0.00     0.074 A 
ATOM     23  C   UNL A   1      46.133  24.831  29.402  1.00  0.00     0.031 C 
ATOM     24  C   UNL A   1      39.521  26.520  28.400  1.00  0.00     0.029 A 
ATOM     25  C   UNL A   1      40.359  27.545  29.008  1.00  0.00     0.049 A 
ATOM     26  H   UNL A   1      42.375  27.407  29.515  1.00  0.00     0.167 HD
ATOM     27  C   UNL A   1      46.634  27.057  30.370  1.00  0.00     0.031 A 
ATOM     28  C   UNL A   1      39.942  28.776  29.357  1.00  0.00     0.031 A 
ATOM     29  C   UNL A   1      46.284  28.396  30.767  1.00  0.00     0.049 A 
ATOM     30  C   UNL A   1      40.917  29.733  29.975  1.00  0.00     0.074 A 
ATOM     31  C   UNL A   1      47.098  29.377  31.306  1.00  0.00     0.029 A 
ATOM     32  N   UNL A   1      45.013  28.941  30.670  1.00  0.00    -0.354 N 
ATOM     33  N   UNL A   1      42.195  29.573  30.211  1.00  0.00    -0.248 NA
ATOM     34  C   UNL A   1      40.388  31.046  30.370  1.00  0.00     0.031 C 
ATOM     35  C   UNL A   1      46.312  30.502  31.573  1.00  0.00     0.029 A 
ATOM     36  C   UNL A   1      45.017  30.239  31.156  1.00  0.00     0.049 A 
ATOM     37  H   UNL A   1      44.224  28.476  30.309  1.00  0.00     0.167 HD
ATOM     38  C   UNL A   1      42.629  30.768  30.765  1.00  0.00     0.074 A 
ATOM     39  C   UNL A   1      41.481  31.651  30.811  1.00  0.00     0.031 C 
ATOM     40  C   UNL A   1      43.868  31.104  31.199  1.00  0.00     0.031 A 
BRANCH  27  41
ATOM     41  C   UNL A   1      48.044  26.596  30.612  1.00  0.00    -0.014 A 
ATOM     42  C   UNL A   1      49.051  26.779  29.650  1.00  0.00     0.009 A 
ATOM     43  C   UNL A   1      48.381  26.009  31.843  1.00  0.00     0.009 A 
ATOM     44  C   UNL A   1      50.358  26.357  29.905  1.00  0.00     0.001 A 
ATOM     45  C   UNL A   1      49.694  25.610  32.104  1.00  0.00     0.001 A 
ATOM     46  C   UNL A   1      50.679  25.777  31.133  1.00  0.00     0.000 A 
ENDBRANCH  27  41
BRANCH  28  47
ATOM     47  C   UNL A   1      38.530  29.170  29.120  1.00  0.00    -0.014 A 
ATOM     48  C   UNL A   1      38.118  29.613  27.855  1.00  0.00     0.009 A 
ATOM     49  C   UNL A   1      37.586  29.091  30.155  1.00  0.00     0.009 A 
ATOM     50  C   UNL A   1      36.791  29.987  27.636  1.00  0.00     0.001 A 
ATOM     51  C   UNL A   1      36.254  29.438  29.926  1.00  0.00     0.001 A 
ATOM     52  C   UNL A   1      35.859  29.893  28.669  1.00  0.00     0.000 A 
ENDBRANCH  28  47
BRANCH  40  53
ATOM     53  C   UNL A   1      44.047  32.498  31.729  1.00  0.00    -0.014 A 
ATOM     54  C   UNL A   1      43.927  32.776  33.099  1.00  0.00     0.009 A 
ATOM     55  C   UNL A   1      44.353  33.543  30.844  1.00  0.00     0.009 A 
ATOM     56  C   UNL A   1      44.073  34.083  33.566  1.00  0.00     0.001 A 
ATOM     57  C   UNL A   1      44.524  34.843  31.317  1.00  0.00     0.001 A 
ATOM     58  C   UNL A   1      44.373  35.114  32.677  1.00  0.00     0.000 A 
ENDBRANCH  40  53
ENDBRANCH  14  15
ENDBRANCH   7   9
ENDBRANCH   4   5
ENDBRANCH   3   4
ENDBRANCH   2   3
ENDBRANCH   1   2
BRANCH   1  59
ATOM     59  C   UNL A   1      45.786  22.824  25.745  1.00  0.00     0.021 C 
BRANCH  59  60
ATOM     60  C   UNL A   1      46.255  24.233  25.352  1.00  0.00     0.116 C 
BRANCH  60  61
ATOM     61  N   UNL A   1      47.359  24.176  24.419  1.00  0.00    -0.356 N 
ATOM     62  C   UNL A   1      48.168  25.232  24.141  1.00  0.00     0.224 C 
ATOM     63  H   UNL A   1      47.536  23.324  23.960  1.00  0.00     0.163 HD
ATOM     64  O   UNL A   1      48.147  25.680  22.995  1.00  0.00    -0.275 OA
BRANCH  62  65
ATOM     65  C   UNL A   1      48.974  25.889  25.234  1.00  0.00     0.098 C 
ATOM     66  C   UNL A   1      48.553  27.368  25.546  1.00  0.00     0.098 C 
ATOM     67  C   UNL A   1      50.521  26.002  25.153  1.00  0.00     0.025 C 
ATOM     68  C   UNL A   1      49.915  28.100  25.693  1.00  0.00     0.025 C 
ATOM     69  C   UNL A   1      50.994  26.916  24.049  1.00  0.00    -0.027 C 
ATOM     70  C   UNL A   1      50.766  26.980  26.321  1.00  0.00     0.017 C 
ATOM     71  C   UNL A   1      50.657  28.170  24.387  1.00  0.00    -0.027 C 
BRANCH  66  72
ATOM     72  C   UNL A   1      47.414  28.072  24.780  1.00  0.00     0.224 C 
ATOM     73  O   UNL A   1      47.633  28.417  23.609  1.00  0.00    -0.275 OA
ATOM     74  N   UNL A   1      46.171  28.357  25.251  1.00  0.00    -0.352 N 
ATOM     75  H   UNL A   1      45.683  29.035  24.729  1.00  0.00     0.163 HD
BRANCH  74  76
ATOM     76  C   UNL A   1      45.444  27.839  26.383  1.00  0.00     0.153 C 
BRANCH  76  77
ATOM     77  C   UNL A   1      43.940  28.001  26.376  1.00  0.00    -0.010 A 
ATOM     78  C   UNL A   1      43.144  27.027  25.747  1.00  0.00     0.007 A 
ATOM     79  C   UNL A   1      43.322  29.209  26.740  1.00  0.00     0.046 A 
ATOM     80  C   UNL A   1      41.817  27.285  25.396  1.00  0.00     0.000 A 
ATOM     81  C   UNL A   1      41.980  29.455  26.418  1.00  0.00     0.021 A 
ATOM     82  Cl  UNL A   1      44.171  30.470  27.563  1.00  0.00    -0.084 Cl
ATOM     83  C   UNL A   1      41.239  28.507  25.717  1.00  0.00     0.002 A 
ENDBRANCH  76  77
ENDBRANCH  74  76
ENDBRANCH  66  72
ENDBRANCH  62  65
ENDBRANCH  60  61
ENDBRANCH  59  60
ENDBRANCH   1  59
TORSDOF 16
ENDMDL
MODEL 2
REMARK VINA RESULT:      -8.9      5.386     11.402
REMARK SMILES O=C(NCCCCCCNC(=O)[C@@H]1[C@H](C(=O)NCc2ccccc2Cl)[C@@H]2C=C[C@H]1C2)c1ccc(-c2c3nc(c(-c4ccccc4)c4ccc([nH]4)c(-c4ccccc4)c4nc(c(-c5ccccc5)c5ccc2[nH]5)C=C4)C=C3)cc1
REMARK SMILES IDX 7 1 6 2 5 3 4 4 3 5 1 6 2 7 31 9 32 10 78 11 33 12 77 13
REMARK SMILES IDX 34 14 35 15 36 16 71 17 37 18 76 19 70 20 72 21 38 22 75 23
REMARK SMILES IDX 69 24 68 25 39 27 61 28 46 29 60 30 47 31 50 32 59 33 73 34
REMARK SMILES IDX 48 35 49 36 58 38 74 39 51 40 40 41 41 42 45 43 42 44 44 45
REMARK SMILES IDX 43 46 62 47 63 48 67 49 64 50 66 51 65 52 52 53 53 54 57 55
REMARK SMILES IDX 54 56 56 57 55 58 8 59 9 60 10 61 11 62 12 64 13 65 14 66
REMARK SMILES IDX 29 67 26 68 28 69 30 70 27 71 15 72 16 73 17 74 18 76 19 77
REMARK SMILES IDX 20 78 24 79 21 80 23 81 25 82 22 83
REMARK H PARENT 3 8 72 26 50 37 10 63 17 75
REMARK Flexibility Score: inf
ROOT
ATOM      1  C   UNL A   1      31.798  28.774  27.394  1.00  0.00     0.002 C 
ENDROOT
BRANCH   1   2
ATOM      2  C   UNL A   1      32.141  29.875  26.386  1.00  0.00     0.002 C 
BRANCH   2   3
ATOM      3  C   UNL A   1      31.757  31.293  26.804  1.00  0.00     0.021 C 
BRANCH   3   4
ATOM      4  C   UNL A   1      32.925  32.214  27.129  1.00  0.00     0.116 C 
BRANCH   4   5
ATOM      5  N   UNL A   1      32.517  33.525  27.603  1.00  0.00    -0.352 N 
ATOM      6  O   UNL A   1      32.637  35.383  28.891  1.00  0.00    -0.269 OA
ATOM      7  C   UNL A   1      33.157  34.346  28.510  1.00  0.00     0.251 C 
ATOM      8  H   UNL A   1      31.675  33.874  27.230  1.00  0.00     0.163 HD
BRANCH   7   9
ATOM      9  C   UNL A   1      34.471  33.928  29.051  1.00  0.00     0.039 A 
ATOM     10  C   UNL A   1      35.653  34.296  28.407  1.00  0.00     0.014 A 
ATOM     11  C   UNL A   1      34.511  33.116  30.187  1.00  0.00     0.014 A 
ATOM     12  C   UNL A   1      36.855  33.714  28.793  1.00  0.00     0.010 A 
ATOM     13  C   UNL A   1      35.735  32.600  30.627  1.00  0.00     0.010 A 
ATOM     14  C   UNL A   1      36.911  32.855  29.904  1.00  0.00    -0.014 A 
BRANCH  14  15
ATOM     15  C   UNL A   1      38.213  32.253  30.289  1.00  0.00     0.031 A 
ATOM     16  C   UNL A   1      39.079  32.877  31.351  1.00  0.00     0.074 A 
ATOM     17  C   UNL A   1      38.592  31.096  29.710  1.00  0.00     0.049 A 
ATOM     18  N   UNL A   1      40.208  32.441  31.853  1.00  0.00    -0.248 NA
ATOM     19  C   UNL A   1      38.627  34.156  31.921  1.00  0.00     0.031 C 
ATOM     20  C   UNL A   1      37.844  30.392  28.666  1.00  0.00     0.029 A 
ATOM     21  N   UNL A   1      39.680  30.294  29.940  1.00  0.00    -0.354 N 
ATOM     22  C   UNL A   1      40.615  33.402  32.771  1.00  0.00     0.074 A 
ATOM     23  C   UNL A   1      39.621  34.453  32.747  1.00  0.00     0.031 C 
ATOM     24  C   UNL A   1      38.461  29.233  28.391  1.00  0.00     0.029 A 
ATOM     25  C   UNL A   1      39.674  29.140  29.195  1.00  0.00     0.049 A 
ATOM     26  H   UNL A   1      40.396  30.523  30.576  1.00  0.00     0.167 HD
ATOM     27  C   UNL A   1      41.714  33.407  33.565  1.00  0.00     0.031 A 
ATOM     28  C   UNL A   1      40.547  28.117  29.159  1.00  0.00     0.031 A 
ATOM     29  C   UNL A   1      42.697  32.356  33.603  1.00  0.00     0.049 A 
ATOM     30  C   UNL A   1      41.755  28.152  30.046  1.00  0.00     0.074 A 
ATOM     31  C   UNL A   1      43.824  32.257  34.402  1.00  0.00     0.029 A 
ATOM     32  N   UNL A   1      42.672  31.222  32.807  1.00  0.00    -0.354 N 
ATOM     33  N   UNL A   1      42.104  29.052  30.931  1.00  0.00    -0.248 NA
ATOM     34  C   UNL A   1      42.689  27.023  29.929  1.00  0.00     0.031 C 
ATOM     35  C   UNL A   1      44.503  31.083  34.059  1.00  0.00     0.029 A 
ATOM     36  C   UNL A   1      43.773  30.427  33.081  1.00  0.00     0.049 A 
ATOM     37  H   UNL A   1      41.975  31.012  32.144  1.00  0.00     0.167 HD
ATOM     38  C   UNL A   1      43.287  28.591  31.490  1.00  0.00     0.074 A 
ATOM     39  C   UNL A   1      43.586  27.322  30.858  1.00  0.00     0.031 C 
ATOM     40  C   UNL A   1      44.059  29.169  32.442  1.00  0.00     0.031 A 
BRANCH  27  41
ATOM     41  C   UNL A   1      41.930  34.607  34.445  1.00  0.00    -0.014 A 
ATOM     42  C   UNL A   1      41.498  34.624  35.781  1.00  0.00     0.009 A 
ATOM     43  C   UNL A   1      42.618  35.723  33.940  1.00  0.00     0.009 A 
ATOM     44  C   UNL A   1      41.725  35.745  36.583  1.00  0.00     0.001 A 
ATOM     45  C   UNL A   1      42.864  36.832  34.752  1.00  0.00     0.001 A 
ATOM     46  C   UNL A   1      42.411  36.846  36.070  1.00  0.00     0.000 A 
ENDBRANCH  27  41
BRANCH  28  47
ATOM     47  C   UNL A   1      40.299  26.968  28.251  1.00  0.00    -0.014 A 
ATOM     48  C   UNL A   1      39.518  25.882  28.675  1.00  0.00     0.009 A 
ATOM     49  C   UNL A   1      40.830  26.960  26.952  1.00  0.00     0.009 A 
ATOM     50  C   UNL A   1      39.289  24.802  27.820  1.00  0.00     0.001 A 
ATOM     51  C   UNL A   1      40.576  25.892  26.092  1.00  0.00     0.001 A 
ATOM     52  C   UNL A   1      39.813  24.810  26.528  1.00  0.00     0.000 A 
ENDBRANCH  28  47
BRANCH  40  53
ATOM     53  C   UNL A   1      45.281  28.413  32.877  1.00  0.00    -0.014 A 
ATOM     54  C   UNL A   1      46.512  28.583  32.225  1.00  0.00     0.009 A 
ATOM     55  C   UNL A   1      45.200  27.529  33.964  1.00  0.00     0.009 A 
ATOM     56  C   UNL A   1      47.629  27.851  32.630  1.00  0.00     0.001 A 
ATOM     57  C   UNL A   1      46.325  26.819  34.382  1.00  0.00     0.001 A 
ATOM     58  C   UNL A   1      47.536  26.972  33.709  1.00  0.00     0.000 A 
ENDBRANCH  40  53
ENDBRANCH  14  15
ENDBRANCH   7   9
ENDBRANCH   4   5
ENDBRANCH   3   4
ENDBRANCH   2   3
ENDBRANCH   1   2
BRANCH   1  59
ATOM     59  C   UNL A   1      31.501  27.383  26.807  1.00  0.00     0.021 C 
BRANCH  59  60
ATOM     60  C   UNL A   1      32.689  26.659  26.155  1.00  0.00     0.116 C 
BRANCH  60  61
ATOM     61  N   UNL A   1      32.671  25.245  26.461  1.00  0.00    -0.356 N 
ATOM     62  C   UNL A   1      33.133  24.284  25.618  1.00  0.00     0.224 C 
ATOM     63  H   UNL A   1      32.304  24.962  27.329  1.00  0.00     0.163 HD
ATOM     64  O   UNL A   1      32.318  23.476  25.172  1.00  0.00    -0.275 OA
BRANCH  62  65
ATOM     65  C   UNL A   1      34.574  24.287  25.168  1.00  0.00     0.098 C 
ATOM     66  C   UNL A   1      34.788  23.815  23.688  1.00  0.00     0.098 C 
ATOM     67  C   UNL A   1      35.668  23.487  25.925  1.00  0.00     0.025 C 
ATOM     68  C   UNL A   1      36.029  22.887  23.788  1.00  0.00     0.025 C 
ATOM     69  C   UNL A   1      35.484  21.992  25.830  1.00  0.00    -0.027 C 
ATOM     70  C   UNL A   1      36.818  23.598  24.904  1.00  0.00     0.017 C 
ATOM     71  C   UNL A   1      35.729  21.633  24.561  1.00  0.00    -0.027 C 
BRANCH  66  72
ATOM     72  C   UNL A   1      33.611  23.381  22.790  1.00  0.00     0.224 C 
ATOM     73  O   UNL A   1      33.194  22.219  22.906  1.00  0.00    -0.275 OA
ATOM     74  N   UNL A   1      32.962  24.146  21.872  1.00  0.00    -0.352 N 
ATOM     75  H   UNL A   1      32.432  23.636  21.217  1.00  0.00     0.163 HD
BRANCH  74  76
ATOM     76  C   UNL A   1      32.915  25.576  21.692  1.00  0.00     0.153 C 
BRANCH  76  77
ATOM     77  C   UNL A   1      31.978  26.359  22.585  1.00  0.00    -0.010 A 
ATOM     78  C   UNL A   1      30.788  25.757  23.032  1.00  0.00     0.007 A 
ATOM     79  C   UNL A   1      32.116  27.744  22.774  1.00  0.00     0.046 A 
ATOM     80  C   UNL A   1      29.734  26.517  23.545  1.00  0.00     0.000 A 
ATOM     81  C   UNL A   1      31.072  28.502  23.321  1.00  0.00     0.021 A 
ATOM     82  Cl  UNL A   1      33.547  28.600  22.317  1.00  0.00    -0.084 Cl
ATOM     83  C   UNL A   1      29.871  27.894  23.674  1.00  0.00     0.002 A 
ENDBRANCH  76  77
ENDBRANCH  74  76
ENDBRANCH  66  72
ENDBRANCH  62  65
ENDBRANCH  60  61
ENDBRANCH  59  60
ENDBRANCH   1  59
TORSDOF 16
ENDMDL
MODEL 3
REMARK VINA RESULT:      -8.8      4.608      8.414
REMARK SMILES O=C(NCCCCCCNC(=O)[C@@H]1[C@H](C(=O)NCc2ccccc2Cl)[C@@H]2C=C[C@H]1C2)c1ccc(-c2c3nc(c(-c4ccccc4)c4ccc([nH]4)c(-c4ccccc4)c4nc(c(-c5ccccc5)c5ccc2[nH]5)C=C4)C=C3)cc1
REMARK SMILES IDX 7 1 6 2 5 3 4 4 3 5 1 6 2 7 31 9 32 10 78 11 33 12 77 13
REMARK SMILES IDX 34 14 35 15 36 16 71 17 37 18 76 19 70 20 72 21 38 22 75 23
REMARK SMILES IDX 69 24 68 25 39 27 61 28 46 29 60 30 47 31 50 32 59 33 73 34
REMARK SMILES IDX 48 35 49 36 58 38 74 39 51 40 40 41 41 42 45 43 42 44 44 45
REMARK SMILES IDX 43 46 62 47 63 48 67 49 64 50 66 51 65 52 52 53 53 54 57 55
REMARK SMILES IDX 54 56 56 57 55 58 8 59 9 60 10 61 11 62 12 64 13 65 14 66
REMARK SMILES IDX 29 67 26 68 28 69 30 70 27 71 15 72 16 73 17 74 18 76 19 77
REMARK SMILES IDX 20 78 24 79 21 80 23 81 25 82 22 83
REMARK H PARENT 3 8 72 26 50 37 10 63 17 75
REMARK Flexibility Score: inf
ROOT
ATOM      1  C   UNL A   1      36.180  21.995  25.812  1.00  0.00     0.002 C 
ENDROOT
BRANCH   1   2
ATOM      2  C   UNL A   1      36.472  20.673  25.096  1.00  0.00     0.002 C 
BRANCH   2   3
ATOM      3  C   UNL A   1      37.922  20.466  24.663  1.00  0.00     0.021 C 
BRANCH   3   4
ATOM      4  C   UNL A   1      38.954  20.566  25.778  1.00  0.00     0.116 C 
BRANCH   4   5
ATOM      5  N   UNL A   1      39.953  19.511  25.742  1.00  0.00    -0.352 N 
ATOM      6  O   UNL A   1      42.034  18.633  25.901  1.00  0.00    -0.269 OA
ATOM      7  C   UNL A   1      41.289  19.584  26.082  1.00  0.00     0.251 C 
ATOM      8  H   UNL A   1      39.636  18.631  25.435  1.00  0.00     0.163 HD
BRANCH   7   9
ATOM      9  C   UNL A   1      41.820  20.852  26.632  1.00  0.00     0.039 A 
ATOM     10  C   UNL A   1      41.855  21.069  28.010  1.00  0.00     0.014 A 
ATOM     11  C   UNL A   1      42.238  21.853  25.751  1.00  0.00     0.014 A 
ATOM     12  C   UNL A   1      42.142  22.339  28.499  1.00  0.00     0.010 A 
ATOM     13  C   UNL A   1      42.610  23.105  26.251  1.00  0.00     0.010 A 
ATOM     14  C   UNL A   1      42.517  23.374  27.626  1.00  0.00    -0.014 A 
BRANCH  14  15
ATOM     15  C   UNL A   1      42.819  24.718  28.184  1.00  0.00     0.031 A 
ATOM     16  C   UNL A   1      44.234  25.142  28.476  1.00  0.00     0.074 A 
ATOM     17  C   UNL A   1      41.805  25.585  28.377  1.00  0.00     0.049 A 
ATOM     18  N   UNL A   1      44.673  26.303  28.898  1.00  0.00    -0.248 NA
ATOM     19  C   UNL A   1      45.292  24.140  28.276  1.00  0.00     0.031 C 
ATOM     20  C   UNL A   1      40.390  25.294  28.135  1.00  0.00     0.029 A 
ATOM     21  N   UNL A   1      41.812  26.893  28.787  1.00  0.00    -0.354 N 
ATOM     22  C   UNL A   1      46.048  26.162  29.042  1.00  0.00     0.074 A 
ATOM     23  C   UNL A   1      46.371  24.798  28.679  1.00  0.00     0.031 C 
ATOM     24  C   UNL A   1      39.673  26.408  28.340  1.00  0.00     0.029 A 
ATOM     25  C   UNL A   1      40.566  27.472  28.781  1.00  0.00     0.049 A 
ATOM     26  H   UNL A   1      42.628  27.370  29.059  1.00  0.00     0.167 HD
ATOM     27  C   UNL A   1      46.960  27.083  29.438  1.00  0.00     0.031 A 
ATOM     28  C   UNL A   1      40.181  28.722  29.096  1.00  0.00     0.031 A 
ATOM     29  C   UNL A   1      46.646  28.444  29.785  1.00  0.00     0.049 A 
ATOM     30  C   UNL A   1      41.212  29.719  29.534  1.00  0.00     0.074 A 
ATOM     31  C   UNL A   1      47.508  29.460  30.162  1.00  0.00     0.029 A 
ATOM     32  N   UNL A   1      45.368  28.980  29.801  1.00  0.00    -0.354 N 
ATOM     33  N   UNL A   1      42.510  29.576  29.630  1.00  0.00    -0.248 NA
ATOM     34  C   UNL A   1      40.720  31.054  29.902  1.00  0.00     0.031 C 
ATOM     35  C   UNL A   1      46.747  30.599  30.446  1.00  0.00     0.029 A 
ATOM     36  C   UNL A   1      45.416  30.306  30.199  1.00  0.00     0.049 A 
ATOM     37  H   UNL A   1      44.547  28.491  29.564  1.00  0.00     0.167 HD
ATOM     38  C   UNL A   1      42.994  30.806  30.053  1.00  0.00     0.074 A 
ATOM     39  C   UNL A   1      41.851  31.688  30.175  1.00  0.00     0.031 C 
ATOM     40  C   UNL A   1      44.272  31.171  30.318  1.00  0.00     0.031 A 
BRANCH  27  41
ATOM     41  C   UNL A   1      48.393  26.641  29.544  1.00  0.00    -0.014 A 
ATOM     42  C   UNL A   1      48.884  26.017  30.702  1.00  0.00     0.009 A 
ATOM     43  C   UNL A   1      49.255  26.811  28.448  1.00  0.00     0.009 A 
ATOM     44  C   UNL A   1      50.215  25.599  30.771  1.00  0.00     0.001 A 
ATOM     45  C   UNL A   1      50.579  26.371  28.512  1.00  0.00     0.001 A 
ATOM     46  C   UNL A   1      51.060  25.773  29.675  1.00  0.00     0.000 A 
ENDBRANCH  27  41
BRANCH  28  47
ATOM     47  C   UNL A   1      38.748  29.098  28.999  1.00  0.00    -0.014 A 
ATOM     48  C   UNL A   1      38.207  29.531  27.779  1.00  0.00     0.009 A 
ATOM     49  C   UNL A   1      37.912  29.011  30.122  1.00  0.00     0.009 A 
ATOM     50  C   UNL A   1      36.860  29.888  27.691  1.00  0.00     0.001 A 
ATOM     51  C   UNL A   1      36.560  29.341  30.024  1.00  0.00     0.001 A 
ATOM     52  C   UNL A   1      36.036  29.787  28.812  1.00  0.00     0.000 A 
ENDBRANCH  28  47
BRANCH  40  53
ATOM     53  C   UNL A   1      44.498  32.596  30.734  1.00  0.00    -0.014 A 
ATOM     54  C   UNL A   1      44.492  32.970  32.086  1.00  0.00     0.009 A 
ATOM     55  C   UNL A   1      44.734  33.575  29.756  1.00  0.00     0.009 A 
ATOM     56  C   UNL A   1      44.679  34.305  32.448  1.00  0.00     0.001 A 
ATOM     57  C   UNL A   1      44.948  34.903  30.122  1.00  0.00     0.001 A 
ATOM     58  C   UNL A   1      44.909  35.269  31.467  1.00  0.00     0.000 A 
ENDBRANCH  40  53
ENDBRANCH  14  15
ENDBRANCH   7   9
ENDBRANCH   4   5
ENDBRANCH   3   4
ENDBRANCH   2   3
ENDBRANCH   1   2
BRANCH   1  59
ATOM     59  C   UNL A   1      35.827  23.192  24.913  1.00  0.00     0.021 C 
BRANCH  59  60
ATOM     60  C   UNL A   1      35.042  24.331  25.582  1.00  0.00     0.116 C 
BRANCH  60  61
ATOM     61  N   UNL A   1      34.760  25.395  24.644  1.00  0.00    -0.356 N 
ATOM     62  C   UNL A   1      33.654  26.182  24.705  1.00  0.00     0.224 C 
ATOM     63  H   UNL A   1      35.407  25.560  23.921  1.00  0.00     0.163 HD
ATOM     64  O   UNL A   1      32.851  26.109  23.775  1.00  0.00    -0.275 OA
BRANCH  62  65
ATOM     65  C   UNL A   1      33.380  27.028  25.924  1.00  0.00     0.098 C 
ATOM     66  C   UNL A   1      31.877  27.047  26.371  1.00  0.00     0.098 C 
ATOM     67  C   UNL A   1      33.754  28.534  25.974  1.00  0.00     0.025 C 
ATOM     68  C   UNL A   1      31.626  28.543  26.704  1.00  0.00     0.025 C 
ATOM     69  C   UNL A   1      32.945  29.379  25.022  1.00  0.00    -0.027 C 
ATOM     70  C   UNL A   1      33.007  28.939  27.262  1.00  0.00     0.017 C 
ATOM     71  C   UNL A   1      31.683  29.407  25.475  1.00  0.00    -0.027 C 
BRANCH  66  72
ATOM     72  C   UNL A   1      30.787  26.268  25.607  1.00  0.00     0.224 C 
ATOM     73  O   UNL A   1      30.098  26.892  24.785  1.00  0.00    -0.275 OA
ATOM     74  N   UNL A   1      30.495  24.946  25.728  1.00  0.00    -0.352 N 
ATOM     75  H   UNL A   1      29.612  24.689  25.374  1.00  0.00     0.163 HD
BRANCH  74  76
ATOM     76  C   UNL A   1      31.253  23.854  26.288  1.00  0.00     0.153 C 
BRANCH  76  77
ATOM     77  C   UNL A   1      31.883  22.877  25.319  1.00  0.00    -0.010 A 
ATOM     78  C   UNL A   1      31.584  22.975  23.948  1.00  0.00     0.007 A 
ATOM     79  C   UNL A   1      32.544  21.718  25.759  1.00  0.00     0.046 A 
ATOM     80  C   UNL A   1      31.833  21.918  23.070  1.00  0.00     0.000 A 
ATOM     81  C   UNL A   1      32.826  20.672  24.871  1.00  0.00     0.021 A 
ATOM     82  Cl  UNL A   1      33.015  21.492  27.407  1.00  0.00    -0.084 Cl
ATOM     83  C   UNL A   1      32.440  20.758  23.535  1.00  0.00     0.002 A 
ENDBRANCH  76  77
ENDBRANCH  74  76
ENDBRANCH  66  72
ENDBRANCH  62  65
ENDBRANCH  60  61
ENDBRANCH  59  60
ENDBRANCH   1  59
TORSDOF 16
ENDMDL
