MODEL 1
REMARK VINA RESULT:     -11.9      0.000      0.000
REMARK SMILES Cc1c2c([nH]c(=O)c1C(=O)NCCCCCCNC(=O)c1ccc(-c3c4nc(c(-c5ccccc5)c5ccc([nH]5)c(-c5ccccc5)c5nc(c(-c6ccccc6)c6ccc3[nH]6)C=C5)C=C4)cc1)CC(C)(C)CC2=O
REMARK SMILES IDX 15 1 14 2 13 3 12 4 11 5 9 6 10 7 8 9 1 10 2 11 3 12 4 13
REMARK SMILES IDX 74 14 6 15 5 16 69 17 73 18 75 19 7 20 70 22 71 23 72 24
REMARK SMILES IDX 16 25 17 26 18 27 19 28 20 30 21 31 22 32 68 33 23 34 67 35
REMARK SMILES IDX 24 36 25 37 26 38 61 39 27 40 66 41 60 42 62 43 28 44 65 45
REMARK SMILES IDX 59 46 58 47 29 49 51 50 36 51 50 52 37 53 40 54 49 55 63 56
REMARK SMILES IDX 38 57 39 58 48 60 64 61 41 62 30 63 31 64 35 65 32 66 34 67
REMARK SMILES IDX 33 68 52 69 53 70 57 71 54 72 56 73 55 74 42 75 43 76 47 77
REMARK SMILES IDX 44 78 46 79 45 80
REMARK H PARENT 11 8 5 21 18 29 62 48 40 59
REMARK Flexibility Score: inf
ROOT
ATOM      1  C   UNL A   1      37.338  20.886  24.622  1.00  0.00     0.002 C 
ENDROOT
BRANCH   1   2
ATOM      2  C   UNL A   1      35.902  20.937  25.155  1.00  0.00     0.002 C 
BRANCH   2   3
ATOM      3  C   UNL A   1      35.531  22.077  26.109  1.00  0.00     0.021 C 
BRANCH   3   4
ATOM      4  C   UNL A   1      34.244  21.910  26.903  1.00  0.00     0.116 C 
BRANCH   4   5
ATOM      5  N   UNL A   1      33.331  20.894  26.424  1.00  0.00    -0.352 N 
ATOM      6  C   UNL A   1      32.328  21.004  25.492  1.00  0.00     0.257 C 
ATOM      7  O   UNL A   1      31.816  19.972  25.061  1.00  0.00    -0.269 OA
ATOM      8  H   UNL A   1      33.445  20.000  26.822  1.00  0.00     0.163 HD
BRANCH   6   9
ATOM      9  C   UNL A   1      31.846  22.349  25.046  1.00  0.00     0.108 A 
ATOM     10  C   UNL A   1      32.593  22.088  22.640  1.00  0.00     0.046 C 
ATOM     11  C   UNL A   1      32.065  22.872  23.814  1.00  0.00    -0.020 A 
ATOM     12  C   UNL A   1      31.661  24.251  23.518  1.00  0.00     0.041 A 
ATOM     13  C   UNL A   1      30.741  24.865  24.283  1.00  0.00     0.030 A 
ATOM     14  C   UNL A   1      32.274  25.041  22.400  1.00  0.00     0.165 C 
ATOM     15  C   UNL A   1      30.904  23.096  25.952  1.00  0.00     0.261 A 
ATOM     16  N   UNL A   1      30.346  24.253  25.448  1.00  0.00    -0.325 N 
ATOM     17  C   UNL A   1      30.148  26.227  24.000  1.00  0.00     0.061 C 
ATOM     18  C   UNL A   1      31.516  26.239  21.890  1.00  0.00     0.088 C 
ATOM     19  O   UNL A   1      33.362  24.731  21.918  1.00  0.00    -0.294 OA
ATOM     20  O   UNL A   1      30.611  22.725  27.083  1.00  0.00    -0.269 OA
ATOM     21  H   UNL A   1      29.614  24.669  25.960  1.00  0.00     0.169 HD
ATOM     22  C   UNL A   1      30.998  27.101  23.050  1.00  0.00    -0.023 C 
ATOM     23  C   UNL A   1      32.171  27.738  23.824  1.00  0.00     0.012 C 
ATOM     24  C   UNL A   1      30.135  28.234  22.468  1.00  0.00     0.012 C 
ENDBRANCH   6   9
ENDBRANCH   4   5
ENDBRANCH   3   4
ENDBRANCH   2   3
ENDBRANCH   1   2
BRANCH   1  25
ATOM     25  C   UNL A   1      38.178  19.656  24.972  1.00  0.00     0.021 C 
BRANCH  25  26
ATOM     26  C   UNL A   1      39.195  19.831  26.092  1.00  0.00     0.116 C 
BRANCH  26  27
ATOM     27  N   UNL A   1      40.431  19.105  25.855  1.00  0.00    -0.352 N 
ATOM     28  C   UNL A   1      41.734  19.521  25.963  1.00  0.00     0.251 C 
ATOM     29  H   UNL A   1      40.316  18.169  25.575  1.00  0.00     0.163 HD
ATOM     30  O   UNL A   1      42.645  18.791  25.593  1.00  0.00    -0.269 OA
BRANCH  28  31
ATOM     31  C   UNL A   1      42.048  20.863  26.503  1.00  0.00     0.039 A 
ATOM     32  C   UNL A   1      42.296  21.902  25.604  1.00  0.00     0.014 A 
ATOM     33  C   UNL A   1      42.127  21.093  27.880  1.00  0.00     0.014 A 
ATOM     34  C   UNL A   1      42.579  23.182  26.085  1.00  0.00     0.010 A 
ATOM     35  C   UNL A   1      42.329  22.386  28.358  1.00  0.00     0.010 A 
ATOM     36  C   UNL A   1      42.576  23.439  27.465  1.00  0.00    -0.014 A 
BRANCH  36  37
ATOM     37  C   UNL A   1      42.885  24.795  27.982  1.00  0.00     0.031 A 
ATOM     38  C   UNL A   1      44.314  25.204  28.211  1.00  0.00     0.074 A 
ATOM     39  C   UNL A   1      41.884  25.658  28.246  1.00  0.00     0.049 A 
ATOM     40  N   UNL A   1      44.787  26.352  28.626  1.00  0.00    -0.248 NA
ATOM     41  C   UNL A   1      45.349  24.187  27.956  1.00  0.00     0.031 C 
ATOM     42  C   UNL A   1      40.457  25.372  28.087  1.00  0.00     0.029 A 
ATOM     43  N   UNL A   1      41.917  26.957  28.688  1.00  0.00    -0.354 N 
ATOM     44  C   UNL A   1      46.166  26.193  28.680  1.00  0.00     0.074 A 
ATOM     45  C   UNL A   1      46.451  24.823  28.322  1.00  0.00     0.031 C 
ATOM     46  C   UNL A   1      39.755  26.478  28.382  1.00  0.00     0.029 A 
ATOM     47  C   UNL A   1      40.676  27.538  28.783  1.00  0.00     0.049 A 
ATOM     48  H   UNL A   1      42.751  27.428  28.916  1.00  0.00     0.167 HD
ATOM     49  C   UNL A   1      47.114  27.115  28.967  1.00  0.00     0.031 A 
ATOM     50  C   UNL A   1      40.320  28.785  29.143  1.00  0.00     0.031 A 
ATOM     51  C   UNL A   1      46.832  28.481  29.310  1.00  0.00     0.049 A 
ATOM     52  C   UNL A   1      41.390  29.778  29.509  1.00  0.00     0.074 A 
ATOM     53  C   UNL A   1      47.726  29.503  29.574  1.00  0.00     0.029 A 
ATOM     54  N   UNL A   1      45.559  29.014  29.440  1.00  0.00    -0.354 N 
ATOM     55  N   UNL A   1      42.692  29.631  29.487  1.00  0.00    -0.248 NA
ATOM     56  C   UNL A   1      40.941  31.108  29.946  1.00  0.00     0.031 C 
ATOM     57  C   UNL A   1      46.994  30.642  29.919  1.00  0.00     0.029 A 
ATOM     58  C   UNL A   1      45.645  30.343  29.816  1.00  0.00     0.049 A 
ATOM     59  H   UNL A   1      44.722  28.521  29.288  1.00  0.00     0.167 HD
ATOM     60  C   UNL A   1      43.219  30.850  29.893  1.00  0.00     0.074 A 
ATOM     61  C   UNL A   1      42.096  31.733  30.132  1.00  0.00     0.031 C 
ATOM     62  C   UNL A   1      44.516  31.204  30.059  1.00  0.00     0.031 A 
BRANCH  49  63
ATOM     63  C   UNL A   1      48.550  26.676  28.907  1.00  0.00    -0.014 A 
ATOM     64  C   UNL A   1      49.294  26.797  27.721  1.00  0.00     0.009 A 
ATOM     65  C   UNL A   1      49.183  26.185  30.059  1.00  0.00     0.009 A 
ATOM     66  C   UNL A   1      50.633  26.406  27.683  1.00  0.00     0.001 A 
ATOM     67  C   UNL A   1      50.531  25.821  30.025  1.00  0.00     0.001 A 
ATOM     68  C   UNL A   1      51.252  25.924  28.837  1.00  0.00     0.000 A 
ENDBRANCH  49  63
BRANCH  50  69
ATOM     69  C   UNL A   1      38.885  29.176  29.151  1.00  0.00    -0.014 A 
ATOM     70  C   UNL A   1      38.284  29.694  27.994  1.00  0.00     0.009 A 
ATOM     71  C   UNL A   1      38.106  29.025  30.308  1.00  0.00     0.009 A 
ATOM     72  C   UNL A   1      36.938  30.067  28.000  1.00  0.00     0.001 A 
ATOM     73  C   UNL A   1      36.753  29.373  30.303  1.00  0.00     0.001 A 
ATOM     74  C   UNL A   1      36.172  29.900  29.152  1.00  0.00     0.000 A 
ENDBRANCH  50  69
BRANCH  62  75
ATOM     75  C   UNL A   1      44.804  32.602  30.530  1.00  0.00    -0.014 A 
ATOM     76  C   UNL A   1      44.934  33.655  29.612  1.00  0.00     0.009 A 
ATOM     77  C   UNL A   1      44.845  32.884  31.905  1.00  0.00     0.009 A 
ATOM     78  C   UNL A   1      45.114  34.964  30.064  1.00  0.00     0.001 A 
ATOM     79  C   UNL A   1      44.996  34.197  32.353  1.00  0.00     0.001 A 
ATOM     80  C   UNL A   1      45.134  35.234  31.431  1.00  0.00     0.000 A 
ENDBRANCH  62  75
ENDBRANCH  36  37
ENDBRANCH  28  31
ENDBRANCH  26  27
ENDBRANCH  25  26
ENDBRANCH   1  25
TORSDOF 13
ENDMDL
MODEL 2
REMARK VINA RESULT:     -11.8      2.433      3.971
REMARK SMILES Cc1c2c([nH]c(=O)c1C(=O)NCCCCCCNC(=O)c1ccc(-c3c4nc(c(-c5ccccc5)c5ccc([nH]5)c(-c5ccccc5)c5nc(c(-c6ccccc6)c6ccc3[nH]6)C=C5)C=C4)cc1)CC(C)(C)CC2=O
REMARK SMILES IDX 15 1 14 2 13 3 12 4 11 5 9 6 10 7 8 9 1 10 2 11 3 12 4 13
REMARK SMILES IDX 74 14 6 15 5 16 69 17 73 18 75 19 7 20 70 22 71 23 72 24
REMARK SMILES IDX 16 25 17 26 18 27 19 28 20 30 21 31 22 32 68 33 23 34 67 35
REMARK SMILES IDX 24 36 25 37 26 38 61 39 27 40 66 41 60 42 62 43 28 44 65 45
REMARK SMILES IDX 59 46 58 47 29 49 51 50 36 51 50 52 37 53 40 54 49 55 63 56
REMARK SMILES IDX 38 57 39 58 48 60 64 61 41 62 30 63 31 64 35 65 32 66 34 67
REMARK SMILES IDX 33 68 52 69 53 70 57 71 54 72 56 73 55 74 42 75 43 76 47 77
REMARK SMILES IDX 44 78 46 79 45 80
REMARK H PARENT 11 8 5 21 18 29 62 48 40 59
REMARK Flexibility Score: inf
ROOT
ATOM      1  C   UNL A   1      34.896  23.329  26.443  1.00  0.00     0.002 C 
ENDROOT
BRANCH   1   2
ATOM      2  C   UNL A   1      34.944  21.801  26.334  1.00  0.00     0.002 C 
BRANCH   2   3
ATOM      3  C   UNL A   1      34.231  21.145  25.147  1.00  0.00     0.021 C 
BRANCH   3   4
ATOM      4  C   UNL A   1      33.930  22.040  23.954  1.00  0.00     0.116 C 
BRANCH   4   5
ATOM      5  N   UNL A   1      32.530  22.215  23.630  1.00  0.00    -0.352 N 
ATOM      6  C   UNL A   1      31.798  23.376  23.562  1.00  0.00     0.257 C 
ATOM      7  O   UNL A   1      30.681  23.332  23.050  1.00  0.00    -0.269 OA
ATOM      8  H   UNL A   1      32.034  21.388  23.432  1.00  0.00     0.163 HD
BRANCH   6   9
ATOM      9  C   UNL A   1      32.336  24.651  24.135  1.00  0.00     0.108 A 
ATOM     10  C   UNL A   1      31.277  24.355  26.417  1.00  0.00     0.046 C 
ATOM     11  C   UNL A   1      32.012  25.137  25.359  1.00  0.00    -0.020 A 
ATOM     12  C   UNL A   1      32.496  26.457  25.777  1.00  0.00     0.041 A 
ATOM     13  C   UNL A   1      33.554  27.016  25.162  1.00  0.00     0.030 A 
ATOM     14  C   UNL A   1      31.820  27.251  26.855  1.00  0.00     0.165 C 
ATOM     15  C   UNL A   1      33.444  25.345  23.390  1.00  0.00     0.261 A 
ATOM     16  N   UNL A   1      34.034  26.421  24.020  1.00  0.00    -0.325 N 
ATOM     17  C   UNL A   1      34.223  28.302  25.588  1.00  0.00     0.061 C 
ATOM     18  C   UNL A   1      32.611  28.350  27.517  1.00  0.00     0.088 C 
ATOM     19  O   UNL A   1      30.658  27.024  27.186  1.00  0.00    -0.294 OA
ATOM     20  O   UNL A   1      33.842  24.998  22.284  1.00  0.00    -0.269 OA
ATOM     21  H   UNL A   1      34.858  26.789  23.624  1.00  0.00     0.169 HD
ATOM     22  C   UNL A   1      33.342  29.210  26.477  1.00  0.00    -0.023 C 
ATOM     23  C   UNL A   1      32.334  29.987  25.604  1.00  0.00     0.012 C 
ATOM     24  C   UNL A   1      34.221  30.231  27.219  1.00  0.00     0.012 C 
ENDBRANCH   6   9
ENDBRANCH   4   5
ENDBRANCH   3   4
ENDBRANCH   2   3
ENDBRANCH   1   2
BRANCH   1  25
ATOM     25  C   UNL A   1      36.193  24.097  26.180  1.00  0.00     0.021 C 
BRANCH  25  26
ATOM     26  C   UNL A   1      37.042  23.607  25.014  1.00  0.00     0.116 C 
BRANCH  26  27
ATOM     27  N   UNL A   1      37.997  22.583  25.399  1.00  0.00    -0.352 N 
ATOM     28  C   UNL A   1      39.154  22.682  26.129  1.00  0.00     0.251 C 
ATOM     29  H   UNL A   1      37.779  21.674  25.088  1.00  0.00     0.163 HD
ATOM     30  O   UNL A   1      39.897  21.715  26.238  1.00  0.00    -0.269 OA
BRANCH  28  31
ATOM     31  C   UNL A   1      39.527  23.965  26.767  1.00  0.00     0.039 A 
ATOM     32  C   UNL A   1      40.204  24.918  26.002  1.00  0.00     0.014 A 
ATOM     33  C   UNL A   1      39.240  24.220  28.111  1.00  0.00     0.014 A 
ATOM     34  C   UNL A   1      40.553  26.143  26.574  1.00  0.00     0.010 A 
ATOM     35  C   UNL A   1      39.517  25.471  28.656  1.00  0.00     0.010 A 
ATOM     36  C   UNL A   1      40.194  26.438  27.899  1.00  0.00    -0.014 A 
BRANCH  36  37
ATOM     37  C   UNL A   1      40.571  27.734  28.513  1.00  0.00     0.031 A 
ATOM     38  C   UNL A   1      41.995  27.984  28.925  1.00  0.00     0.074 A 
ATOM     39  C   UNL A   1      39.636  28.686  28.701  1.00  0.00     0.049 A 
ATOM     40  N   UNL A   1      42.526  29.061  29.448  1.00  0.00    -0.248 NA
ATOM     41  C   UNL A   1      42.948  26.875  28.743  1.00  0.00     0.031 C 
ATOM     42  C   UNL A   1      38.217  28.557  28.366  1.00  0.00     0.029 A 
ATOM     43  N   UNL A   1      39.744  29.958  29.208  1.00  0.00    -0.354 N 
ATOM     44  C   UNL A   1      43.866  28.757  29.653  1.00  0.00     0.074 A 
ATOM     45  C   UNL A   1      44.056  27.379  29.264  1.00  0.00     0.031 C 
ATOM     46  C   UNL A   1      37.597  29.718  28.631  1.00  0.00     0.029 A 
ATOM     47  C   UNL A   1      38.563  30.661  29.187  1.00  0.00     0.049 A 
ATOM     48  H   UNL A   1      40.587  30.331  29.553  1.00  0.00     0.167 HD
ATOM     49  C   UNL A   1      44.859  29.565  30.092  1.00  0.00     0.031 A 
ATOM     50  C   UNL A   1      38.292  31.924  29.564  1.00  0.00     0.031 A 
ATOM     51  C   UNL A   1      44.675  30.939  30.467  1.00  0.00     0.049 A 
ATOM     52  C   UNL A   1      39.403  32.786  30.099  1.00  0.00     0.074 A 
ATOM     53  C   UNL A   1      45.627  31.852  30.882  1.00  0.00     0.029 A 
ATOM     54  N   UNL A   1      43.455  31.596  30.475  1.00  0.00    -0.354 N 
ATOM     55  N   UNL A   1      40.678  32.506  30.220  1.00  0.00    -0.248 NA
ATOM     56  C   UNL A   1      39.038  34.138  30.546  1.00  0.00     0.031 C 
ATOM     57  C   UNL A   1      44.975  33.047  31.196  1.00  0.00     0.029 A 
ATOM     58  C   UNL A   1      43.625  32.894  30.923  1.00  0.00     0.049 A 
ATOM     59  H   UNL A   1      42.596  31.198  30.204  1.00  0.00     0.167 HD
ATOM     60  C   UNL A   1      41.270  33.647  30.744  1.00  0.00     0.074 A 
ATOM     61  C   UNL A   1      40.219  34.633  30.894  1.00  0.00     0.031 C 
ATOM     62  C   UNL A   1      42.566  33.858  31.076  1.00  0.00     0.031 A 
BRANCH  49  63
ATOM     63  C   UNL A   1      46.242  28.981  30.178  1.00  0.00    -0.014 A 
ATOM     64  C   UNL A   1      47.124  29.051  29.087  1.00  0.00     0.009 A 
ATOM     65  C   UNL A   1      46.688  28.402  31.376  1.00  0.00     0.009 A 
ATOM     66  C   UNL A   1      48.413  28.525  29.184  1.00  0.00     0.001 A 
ATOM     67  C   UNL A   1      47.987  27.902  31.479  1.00  0.00     0.001 A 
ATOM     68  C   UNL A   1      48.845  27.957  30.383  1.00  0.00     0.000 A 
ENDBRANCH  49  63
BRANCH  50  69
ATOM     69  C   UNL A   1      36.913  32.461  29.425  1.00  0.00    -0.014 A 
ATOM     70  C   UNL A   1      35.976  32.292  30.456  1.00  0.00     0.009 A 
ATOM     71  C   UNL A   1      36.526  33.156  28.267  1.00  0.00     0.009 A 
ATOM     72  C   UNL A   1      34.679  32.791  30.325  1.00  0.00     0.001 A 
ATOM     73  C   UNL A   1      35.235  33.678  28.151  1.00  0.00     0.001 A 
ATOM     74  C   UNL A   1      34.311  33.490  29.177  1.00  0.00     0.000 A 
ENDBRANCH  50  69
BRANCH  62  75
ATOM     75  C   UNL A   1      42.932  35.200  31.645  1.00  0.00    -0.014 A 
ATOM     76  C   UNL A   1      42.829  35.447  33.022  1.00  0.00     0.009 A 
ATOM     77  C   UNL A   1      43.477  36.190  30.811  1.00  0.00     0.009 A 
ATOM     78  C   UNL A   1      43.255  36.666  33.552  1.00  0.00     0.001 A 
ATOM     79  C   UNL A   1      43.927  37.397  31.349  1.00  0.00     0.001 A 
ATOM     80  C   UNL A   1      43.811  37.635  32.717  1.00  0.00     0.000 A 
ENDBRANCH  62  75
ENDBRANCH  36  37
ENDBRANCH  28  31
ENDBRANCH  26  27
ENDBRANCH  25  26
ENDBRANCH   1  25
TORSDOF 13
ENDMDL
MODEL 3
REMARK VINA RESULT:     -11.8      3.753      9.122
REMARK SMILES Cc1c2c([nH]c(=O)c1C(=O)NCCCCCCNC(=O)c1ccc(-c3c4nc(c(-c5ccccc5)c5ccc([nH]5)c(-c5ccccc5)c5nc(c(-c6ccccc6)c6ccc3[nH]6)C=C5)C=C4)cc1)CC(C)(C)CC2=O
REMARK SMILES IDX 15 1 14 2 13 3 12 4 11 5 9 6 10 7 8 9 1 10 2 11 3 12 4 13
REMARK SMILES IDX 74 14 6 15 5 16 69 17 73 18 75 19 7 20 70 22 71 23 72 24
REMARK SMILES IDX 16 25 17 26 18 27 19 28 20 30 21 31 22 32 68 33 23 34 67 35
REMARK SMILES IDX 24 36 25 37 26 38 61 39 27 40 66 41 60 42 62 43 28 44 65 45
REMARK SMILES IDX 59 46 58 47 29 49 51 50 36 51 50 52 37 53 40 54 49 55 63 56
REMARK SMILES IDX 38 57 39 58 48 60 64 61 41 62 30 63 31 64 35 65 32 66 34 67
REMARK SMILES IDX 33 68 52 69 53 70 57 71 54 72 56 73 55 74 42 75 43 76 47 77
REMARK SMILES IDX 44 78 46 79 45 80
REMARK H PARENT 11 8 5 21 18 29 62 48 40 59
REMARK Flexibility Score: inf
ROOT
ATOM      1  C   UNL A   1      31.795  30.505  26.859  1.00  0.00     0.002 C 
ENDROOT
BRANCH   1   2
ATOM      2  C   UNL A   1      31.838  29.820  25.488  1.00  0.00     0.002 C 
BRANCH   2   3
ATOM      3  C   UNL A   1      33.135  29.115  25.079  1.00  0.00     0.021 C 
BRANCH   3   4
ATOM      4  C   UNL A   1      33.360  28.913  23.588  1.00  0.00     0.116 C 
BRANCH   4   5
ATOM      5  N   UNL A   1      32.181  28.990  22.753  1.00  0.00    -0.352 N 
ATOM      6  C   UNL A   1      31.241  28.021  22.492  1.00  0.00     0.257 C 
ATOM      7  O   UNL A   1      30.197  28.355  21.938  1.00  0.00    -0.269 OA
ATOM      8  H   UNL A   1      32.030  29.857  22.310  1.00  0.00     0.163 HD
BRANCH   6   9
ATOM      9  C   UNL A   1      31.509  26.589  22.839  1.00  0.00     0.108 A 
ATOM     10  C   UNL A   1      29.659  26.409  24.559  1.00  0.00     0.046 C 
ATOM     11  C   UNL A   1      30.882  25.912  23.833  1.00  0.00    -0.020 A 
ATOM     12  C   UNL A   1      31.306  24.550  24.175  1.00  0.00     0.041 A 
ATOM     13  C   UNL A   1      32.009  23.818  23.292  1.00  0.00     0.030 A 
ATOM     14  C   UNL A   1      31.021  23.937  25.513  1.00  0.00     0.165 C 
ATOM     15  C   UNL A   1      32.391  25.793  21.915  1.00  0.00     0.261 A 
ATOM     16  N   UNL A   1      32.487  24.440  22.163  1.00  0.00    -0.325 N 
ATOM     17  C   UNL A   1      32.385  22.365  23.474  1.00  0.00     0.061 C 
ATOM     18  C   UNL A   1      31.083  22.435  25.625  1.00  0.00     0.088 C 
ATOM     19  O   UNL A   1      30.754  24.630  26.493  1.00  0.00    -0.294 OA
ATOM     20  O   UNL A   1      33.002  26.281  20.970  1.00  0.00    -0.269 OA
ATOM     21  H   UNL A   1      32.930  23.880  21.484  1.00  0.00     0.169 HD
ATOM     22  C   UNL A   1      32.341  21.881  24.942  1.00  0.00    -0.023 C 
ATOM     23  C   UNL A   1      33.613  22.336  25.686  1.00  0.00     0.012 C 
ATOM     24  C   UNL A   1      32.282  20.344  24.985  1.00  0.00     0.012 C 
ENDBRANCH   6   9
ENDBRANCH   4   5
ENDBRANCH   3   4
ENDBRANCH   2   3
ENDBRANCH   1   2
BRANCH   1  25
ATOM     25  C   UNL A   1      31.472  32.000  26.891  1.00  0.00     0.021 C 
BRANCH  25  26
ATOM     26  C   UNL A   1      32.664  32.948  26.890  1.00  0.00     0.116 C 
BRANCH  26  27
ATOM     27  N   UNL A   1      32.450  34.131  27.704  1.00  0.00    -0.352 N 
ATOM     28  C   UNL A   1      33.160  34.605  28.779  1.00  0.00     0.251 C 
ATOM     29  H   UNL A   1      31.675  34.680  27.443  1.00  0.00     0.163 HD
ATOM     30  O   UNL A   1      32.741  35.561  29.418  1.00  0.00    -0.269 OA
BRANCH  28  31
ATOM     31  C   UNL A   1      34.421  33.948  29.189  1.00  0.00     0.039 A 
ATOM     32  C   UNL A   1      35.597  34.286  28.517  1.00  0.00     0.014 A 
ATOM     33  C   UNL A   1      34.445  32.987  30.205  1.00  0.00     0.014 A 
ATOM     34  C   UNL A   1      36.804  33.694  28.893  1.00  0.00     0.010 A 
ATOM     35  C   UNL A   1      35.659  32.458  30.633  1.00  0.00     0.010 A 
ATOM     36  C   UNL A   1      36.849  32.791  29.968  1.00  0.00    -0.014 A 
BRANCH  36  37
ATOM     37  C   UNL A   1      38.128  32.153  30.367  1.00  0.00     0.031 A 
ATOM     38  C   UNL A   1      38.978  32.780  31.436  1.00  0.00     0.074 A 
ATOM     39  C   UNL A   1      38.524  31.012  29.769  1.00  0.00     0.049 A 
ATOM     40  N   UNL A   1      40.110  32.357  31.943  1.00  0.00    -0.248 NA
ATOM     41  C   UNL A   1      38.509  34.056  32.001  1.00  0.00     0.031 C 
ATOM     42  C   UNL A   1      37.799  30.319  28.703  1.00  0.00     0.029 A 
ATOM     43  N   UNL A   1      39.629  30.226  29.986  1.00  0.00    -0.354 N 
ATOM     44  C   UNL A   1      40.481  33.313  32.880  1.00  0.00     0.074 A 
ATOM     45  C   UNL A   1      39.496  34.368  32.827  1.00  0.00     0.031 C 
ATOM     46  C   UNL A   1      38.453  29.188  28.392  1.00  0.00     0.029 A 
ATOM     47  C   UNL A   1      39.659  29.093  29.209  1.00  0.00     0.049 A 
ATOM     48  H   UNL A   1      40.332  30.453  30.636  1.00  0.00     0.167 HD
ATOM     49  C   UNL A   1      41.529  33.297  33.736  1.00  0.00     0.031 A 
ATOM     50  C   UNL A   1      40.552  28.087  29.167  1.00  0.00     0.031 A 
ATOM     51  C   UNL A   1      42.502  32.242  33.800  1.00  0.00     0.049 A 
ATOM     52  C   UNL A   1      41.738  28.118  30.092  1.00  0.00     0.074 A 
ATOM     53  C   UNL A   1      43.575  32.113  34.663  1.00  0.00     0.029 A 
ATOM     54  N   UNL A   1      42.521  31.137  32.963  1.00  0.00    -0.354 N 
ATOM     55  N   UNL A   1      42.036  28.993  31.021  1.00  0.00    -0.248 NA
ATOM     56  C   UNL A   1      42.709  27.020  29.965  1.00  0.00     0.031 C 
ATOM     57  C   UNL A   1      44.277  30.957  34.312  1.00  0.00     0.029 A 
ATOM     58  C   UNL A   1      43.609  30.338  33.267  1.00  0.00     0.049 A 
ATOM     59  H   UNL A   1      41.860  30.949  32.259  1.00  0.00     0.167 HD
ATOM     60  C   UNL A   1      43.218  28.548  31.597  1.00  0.00     0.074 A 
ATOM     61  C   UNL A   1      43.571  27.311  30.930  1.00  0.00     0.031 C 
ATOM     62  C   UNL A   1      43.950  29.116  32.586  1.00  0.00     0.031 A 
BRANCH  49  63
ATOM     63  C   UNL A   1      41.669  34.454  34.686  1.00  0.00    -0.014 A 
ATOM     64  C   UNL A   1      42.428  35.584  34.339  1.00  0.00     0.009 A 
ATOM     65  C   UNL A   1      40.994  34.440  35.916  1.00  0.00     0.009 A 
ATOM     66  C   UNL A   1      42.533  36.662  35.219  1.00  0.00     0.001 A 
ATOM     67  C   UNL A   1      41.078  35.532  36.781  1.00  0.00     0.001 A 
ATOM     68  C   UNL A   1      41.853  36.638  36.436  1.00  0.00     0.000 A 
ENDBRANCH  49  63
BRANCH  50  69
ATOM     69  C   UNL A   1      40.346  26.949  28.233  1.00  0.00    -0.014 A 
ATOM     70  C   UNL A   1      39.612  25.822  28.635  1.00  0.00     0.009 A 
ATOM     71  C   UNL A   1      40.871  26.984  26.931  1.00  0.00     0.009 A 
ATOM     72  C   UNL A   1      39.422  24.750  27.761  1.00  0.00     0.001 A 
ATOM     73  C   UNL A   1      40.655  25.922  26.049  1.00  0.00     0.001 A 
ATOM     74  C   UNL A   1      39.937  24.803  26.467  1.00  0.00     0.000 A 
ENDBRANCH  50  69
BRANCH  62  75
ATOM     75  C   UNL A   1      45.212  28.419  33.010  1.00  0.00    -0.014 A 
ATOM     76  C   UNL A   1      45.182  27.411  33.985  1.00  0.00     0.009 A 
ATOM     77  C   UNL A   1      46.423  28.704  32.357  1.00  0.00     0.009 A 
ATOM     78  C   UNL A   1      46.345  26.710  34.308  1.00  0.00     0.001 A 
ATOM     79  C   UNL A   1      47.577  27.980  32.662  1.00  0.00     0.001 A 
ATOM     80  C   UNL A   1      47.537  26.988  33.640  1.00  0.00     0.000 A 
ENDBRANCH  62  75
ENDBRANCH  36  37
ENDBRANCH  28  31
ENDBRANCH  26  27
ENDBRANCH  25  26
ENDBRANCH   1  25
TORSDOF 13
ENDMDL
