MODEL 1
REMARK VINA RESULT:     -12.1      0.000      0.000
REMARK SMILES CC(=O)Nc1cc(NC(C)=O)cc(C(=O)Nc2ccc(Br)cc2C(=O)NCCCCCCNC(=O)c2ccc(-c3c4nc(c(-c5ccccc5)c5ccc([nH]5)c(-c5ccccc5)c5nc(c(-c6ccccc6)c6ccc3[nH]6)C=C5)C=C4)cc2)c1
REMARK SMILES IDX 29 1 28 2 27 3 26 4 24 5 25 6 23 8 17 9 18 10 19 11 22 12
REMARK SMILES IDX 20 13 21 14 16 15 14 16 15 17 13 19 5 20 6 21 84 22 7 23
REMARK SMILES IDX 12 24 4 25 1 26 2 27 3 28 8 30 9 31 10 33 11 34 30 35 31 36
REMARK SMILES IDX 32 37 33 38 34 39 35 41 36 42 37 43 83 44 38 45 82 46 39 47
REMARK SMILES IDX 40 48 41 49 76 50 42 51 81 52 75 53 77 54 43 55 80 56 74 57
REMARK SMILES IDX 73 58 44 60 66 61 51 62 65 63 52 64 55 65 64 66 78 67 53 68
REMARK SMILES IDX 54 69 63 71 79 72 56 73 45 74 46 75 50 76 47 77 49 78 48 79
REMARK SMILES IDX 67 80 68 81 72 82 69 83 71 84 70 85 57 86 58 87 62 88 59 89
REMARK SMILES IDX 61 90 60 91
REMARK H PARENT 26 7 16 18 4 29 8 32 33 40 77 59 55 70
REMARK Flexibility Score: inf
ROOT
ATOM      1  C   UNL A   1      35.302  18.479  24.604  1.00  0.00     0.002 C 
ENDROOT
BRANCH   1   2
ATOM      2  C   UNL A   1      33.797  18.720  24.434  1.00  0.00     0.021 C 
BRANCH   2   3
ATOM      3  C   UNL A   1      33.251  20.019  25.012  1.00  0.00     0.116 C 
BRANCH   3   4
ATOM      4  N   UNL A   1      32.417  20.765  24.099  1.00  0.00    -0.352 N 
ATOM      5  C   UNL A   1      32.350  22.116  23.877  1.00  0.00     0.253 C 
ATOM      6  O   UNL A   1      31.522  22.529  23.066  1.00  0.00    -0.269 OA
ATOM      7  H   UNL A   1      31.804  20.221  23.552  1.00  0.00     0.163 HD
BRANCH   5   8
ATOM      8  C   UNL A   1      33.171  23.101  24.638  1.00  0.00     0.064 A 
ATOM      9  C   UNL A   1      32.711  24.179  25.423  1.00  0.00     0.054 A 
ATOM     10  C   UNL A   1      33.649  25.120  25.892  1.00  0.00     0.028 A 
ATOM     11  C   UNL A   1      35.022  24.908  25.745  1.00  0.00     0.018 A 
ATOM     12  C   UNL A   1      34.561  22.882  24.526  1.00  0.00     0.031 A 
ATOM     13  C   UNL A   1      35.472  23.765  25.099  1.00  0.00     0.018 A 
ATOM     14  Br  UNL A   1      37.324  23.406  25.009  1.00  0.00    -0.051 Br
BRANCH   9  15
ATOM     15  N   UNL A   1      31.398  24.405  25.900  1.00  0.00    -0.321 N 
ATOM     16  C   UNL A   1      30.503  25.438  25.686  1.00  0.00     0.255 C 
ATOM     17  O   UNL A   1      29.497  25.518  26.390  1.00  0.00    -0.269 OA
ATOM     18  H   UNL A   1      31.059  23.697  26.495  1.00  0.00     0.170 HD
BRANCH  16  19
ATOM     19  C   UNL A   1      30.691  26.411  24.588  1.00  0.00     0.044 A 
ATOM     20  C   UNL A   1      30.489  28.669  23.766  1.00  0.00     0.044 A 
ATOM     21  C   UNL A   1      30.735  28.187  22.471  1.00  0.00     0.052 A 
ATOM     22  C   UNL A   1      30.547  27.780  24.827  1.00  0.00     0.040 A 
ATOM     23  C   UNL A   1      31.042  26.840  22.236  1.00  0.00     0.044 A 
ATOM     24  C   UNL A   1      30.998  25.947  23.307  1.00  0.00     0.040 A 
BRANCH  20  25
ATOM     25  N   UNL A   1      30.075  30.009  23.890  1.00  0.00    -0.326 N 
ATOM     26  C   UNL A   1      27.724  29.968  23.039  1.00  0.00     0.114 C 
ATOM     27  C   UNL A   1      28.972  30.689  23.467  1.00  0.00     0.221 C 
ATOM     28  O   UNL A   1      28.994  31.923  23.478  1.00  0.00    -0.275 OA
ATOM     29  H   UNL A   1      30.715  30.571  24.383  1.00  0.00     0.169 HD
ENDBRANCH  20  25
BRANCH  23  30
ATOM     30  N   UNL A   1      31.380  26.317  20.968  1.00  0.00    -0.326 N 
ATOM     31  C   UNL A   1      32.593  25.774  20.586  1.00  0.00     0.221 C 
ATOM     32  H   UNL A   1      30.675  26.341  20.282  1.00  0.00     0.169 HD
ATOM     33  C   UNL A   1      32.601  25.276  19.162  1.00  0.00     0.114 C 
ATOM     34  O   UNL A   1      33.593  25.651  21.286  1.00  0.00    -0.275 OA
ENDBRANCH  23  30
ENDBRANCH  16  19
ENDBRANCH   9  15
ENDBRANCH   5   8
ENDBRANCH   3   4
ENDBRANCH   2   3
ENDBRANCH   1   2
BRANCH   1  35
ATOM     35  C   UNL A   1      36.178  19.679  24.977  1.00  0.00     0.002 C 
BRANCH  35  36
ATOM     36  C   UNL A   1      37.662  19.607  24.619  1.00  0.00     0.021 C 
BRANCH  36  37
ATOM     37  C   UNL A   1      38.643  19.989  25.719  1.00  0.00     0.116 C 
BRANCH  37  38
ATOM     38  N   UNL A   1      39.831  19.156  25.748  1.00  0.00    -0.352 N 
ATOM     39  C   UNL A   1      41.124  19.485  26.085  1.00  0.00     0.251 C 
ATOM     40  H   UNL A   1      39.692  18.217  25.489  1.00  0.00     0.163 HD
ATOM     41  O   UNL A   1      42.017  18.662  25.961  1.00  0.00    -0.269 OA
BRANCH  39  42
ATOM     42  C   UNL A   1      41.441  20.852  26.565  1.00  0.00     0.039 A 
ATOM     43  C   UNL A   1      41.388  21.105  27.940  1.00  0.00     0.014 A 
ATOM     44  C   UNL A   1      41.782  21.878  25.680  1.00  0.00     0.014 A 
ATOM     45  C   UNL A   1      41.740  22.364  28.430  1.00  0.00     0.010 A 
ATOM     46  C   UNL A   1      42.202  23.111  26.174  1.00  0.00     0.010 A 
ATOM     47  C   UNL A   1      42.184  23.367  27.554  1.00  0.00    -0.014 A 
BRANCH  47  48
ATOM     48  C   UNL A   1      42.635  24.689  28.057  1.00  0.00     0.031 A 
ATOM     49  C   UNL A   1      41.633  25.779  28.321  1.00  0.00     0.074 A 
ATOM     50  C   UNL A   1      43.951  24.934  28.208  1.00  0.00     0.049 A 
ATOM     51  N   UNL A   1      41.837  27.022  28.676  1.00  0.00    -0.248 NA
ATOM     52  C   UNL A   1      40.213  25.432  28.135  1.00  0.00     0.031 C 
ATOM     53  C   UNL A   1      45.028  23.975  27.957  1.00  0.00     0.029 A 
ATOM     54  N   UNL A   1      44.608  26.074  28.601  1.00  0.00    -0.354 N 
ATOM     55  C   UNL A   1      40.579  27.608  28.737  1.00  0.00     0.074 A 
ATOM     56  C   UNL A   1      39.622  26.600  28.337  1.00  0.00     0.031 C 
ATOM     57  C   UNL A   1      46.208  24.559  28.223  1.00  0.00     0.029 A 
ATOM     58  C   UNL A   1      45.976  25.943  28.620  1.00  0.00     0.049 A 
ATOM     59  H   UNL A   1      44.143  26.907  28.847  1.00  0.00     0.167 HD
ATOM     60  C   UNL A   1      40.249  28.869  29.106  1.00  0.00     0.031 A 
ATOM     61  C   UNL A   1      46.937  26.840  28.913  1.00  0.00     0.031 A 
ATOM     62  C   UNL A   1      41.198  29.868  29.517  1.00  0.00     0.049 A 
ATOM     63  C   UNL A   1      46.544  28.238  29.302  1.00  0.00     0.074 A 
ATOM     64  C   UNL A   1      40.956  31.154  29.964  1.00  0.00     0.029 A 
ATOM     65  N   UNL A   1      42.572  29.691  29.529  1.00  0.00    -0.354 N 
ATOM     66  N   UNL A   1      45.347  28.759  29.412  1.00  0.00    -0.248 NA
ATOM     67  C   UNL A   1      47.638  29.169  29.616  1.00  0.00     0.031 C 
ATOM     68  C   UNL A   1      42.187  31.774  30.200  1.00  0.00     0.029 A 
ATOM     69  C   UNL A   1      43.193  30.853  29.952  1.00  0.00     0.049 A 
ATOM     70  H   UNL A   1      43.038  28.861  29.274  1.00  0.00     0.167 HD
ATOM     71  C   UNL A   1      45.540  30.068  29.834  1.00  0.00     0.074 A 
ATOM     72  C   UNL A   1      46.969  30.257  29.973  1.00  0.00     0.031 C 
ATOM     73  C   UNL A   1      44.616  31.026  30.088  1.00  0.00     0.031 A 
BRANCH  60  74
ATOM     74  C   UNL A   1      38.791  29.240  29.073  1.00  0.00    -0.014 A 
ATOM     75  C   UNL A   1      38.191  29.735  27.905  1.00  0.00     0.009 A 
ATOM     76  C   UNL A   1      38.000  29.060  30.219  1.00  0.00     0.009 A 
ATOM     77  C   UNL A   1      36.838  30.080  27.895  1.00  0.00     0.001 A 
ATOM     78  C   UNL A   1      36.641  29.377  30.198  1.00  0.00     0.001 A 
ATOM     79  C   UNL A   1      36.063  29.896  29.040  1.00  0.00     0.000 A 
ENDBRANCH  60  74
BRANCH  61  80
ATOM     80  C   UNL A   1      48.367  26.442  28.858  1.00  0.00    -0.014 A 
ATOM     81  C   UNL A   1      49.106  26.607  27.677  1.00  0.00     0.009 A 
ATOM     82  C   UNL A   1      49.001  25.892  29.984  1.00  0.00     0.009 A 
ATOM     83  C   UNL A   1      50.443  26.207  27.616  1.00  0.00     0.001 A 
ATOM     84  C   UNL A   1      50.345  25.519  29.929  1.00  0.00     0.001 A 
ATOM     85  C   UNL A   1      51.063  25.667  28.743  1.00  0.00     0.000 A 
ENDBRANCH  61  80
BRANCH  73  86
ATOM     86  C   UNL A   1      45.116  32.355  30.577  1.00  0.00    -0.014 A 
ATOM     87  C   UNL A   1      45.380  32.580  31.937  1.00  0.00     0.009 A 
ATOM     88  C   UNL A   1      45.378  33.379  29.652  1.00  0.00     0.009 A 
ATOM     89  C   UNL A   1      45.871  33.815  32.364  1.00  0.00     0.001 A 
ATOM     90  C   UNL A   1      45.895  34.602  30.080  1.00  0.00     0.001 A 
ATOM     91  C   UNL A   1      46.135  34.822  31.435  1.00  0.00     0.000 A 
ENDBRANCH  73  86
ENDBRANCH  47  48
ENDBRANCH  39  42
ENDBRANCH  37  38
ENDBRANCH  36  37
ENDBRANCH  35  36
ENDBRANCH   1  35
TORSDOF 17
ENDMDL
MODEL 2
REMARK VINA RESULT:     -12.0      0.431      2.276
REMARK SMILES CC(=O)Nc1cc(NC(C)=O)cc(C(=O)Nc2ccc(Br)cc2C(=O)NCCCCCCNC(=O)c2ccc(-c3c4nc(c(-c5ccccc5)c5ccc([nH]5)c(-c5ccccc5)c5nc(c(-c6ccccc6)c6ccc3[nH]6)C=C5)C=C4)cc2)c1
REMARK SMILES IDX 29 1 28 2 27 3 26 4 24 5 25 6 23 8 17 9 18 10 19 11 22 12
REMARK SMILES IDX 20 13 21 14 16 15 14 16 15 17 13 19 5 20 6 21 84 22 7 23
REMARK SMILES IDX 12 24 4 25 1 26 2 27 3 28 8 30 9 31 10 33 11 34 30 35 31 36
REMARK SMILES IDX 32 37 33 38 34 39 35 41 36 42 37 43 83 44 38 45 82 46 39 47
REMARK SMILES IDX 40 48 41 49 76 50 42 51 81 52 75 53 77 54 43 55 80 56 74 57
REMARK SMILES IDX 73 58 44 60 66 61 51 62 65 63 52 64 55 65 64 66 78 67 53 68
REMARK SMILES IDX 54 69 63 71 79 72 56 73 45 74 46 75 50 76 47 77 49 78 48 79
REMARK SMILES IDX 67 80 68 81 72 82 69 83 71 84 70 85 57 86 58 87 62 88 59 89
REMARK SMILES IDX 61 90 60 91
REMARK H PARENT 26 7 16 18 4 29 8 32 33 40 77 59 55 70
REMARK Flexibility Score: inf
ROOT
ATOM      1  C   UNL A   1      35.349  18.482  24.571  1.00  0.00     0.002 C 
ENDROOT
BRANCH   1   2
ATOM      2  C   UNL A   1      33.822  18.613  24.624  1.00  0.00     0.021 C 
BRANCH   2   3
ATOM      3  C   UNL A   1      33.275  19.926  25.169  1.00  0.00     0.116 C 
BRANCH   3   4
ATOM      4  N   UNL A   1      32.371  20.605  24.270  1.00  0.00    -0.352 N 
ATOM      5  C   UNL A   1      32.236  21.945  24.009  1.00  0.00     0.253 C 
ATOM      6  O   UNL A   1      31.357  22.295  23.222  1.00  0.00    -0.269 OA
ATOM      7  H   UNL A   1      31.761  20.018  23.767  1.00  0.00     0.163 HD
BRANCH   5   8
ATOM      8  C   UNL A   1      33.045  22.988  24.702  1.00  0.00     0.064 A 
ATOM      9  C   UNL A   1      32.570  24.080  25.459  1.00  0.00     0.054 A 
ATOM     10  C   UNL A   1      33.489  25.071  25.859  1.00  0.00     0.028 A 
ATOM     11  C   UNL A   1      34.862  24.902  25.674  1.00  0.00     0.018 A 
ATOM     12  C   UNL A   1      34.437  22.814  24.552  1.00  0.00     0.031 A 
ATOM     13  C   UNL A   1      35.333  23.751  25.058  1.00  0.00     0.018 A 
ATOM     14  Br  UNL A   1      37.193  23.454  24.921  1.00  0.00    -0.051 Br
BRANCH   9  15
ATOM     15  N   UNL A   1      31.266  24.279  25.971  1.00  0.00    -0.321 N 
ATOM     16  C   UNL A   1      30.316  25.254  25.725  1.00  0.00     0.255 C 
ATOM     17  O   UNL A   1      29.333  25.336  26.460  1.00  0.00    -0.269 OA
ATOM     18  H   UNL A   1      30.983  23.597  26.623  1.00  0.00     0.170 HD
BRANCH  16  19
ATOM     19  C   UNL A   1      30.420  26.160  24.560  1.00  0.00     0.044 A 
ATOM     20  C   UNL A   1      31.008  26.499  22.246  1.00  0.00     0.044 A 
ATOM     21  C   UNL A   1      30.920  27.884  22.458  1.00  0.00     0.052 A 
ATOM     22  C   UNL A   1      30.679  25.646  23.287  1.00  0.00     0.040 A 
ATOM     23  C   UNL A   1      30.503  28.412  23.687  1.00  0.00     0.044 A 
ATOM     24  C   UNL A   1      30.272  27.536  24.749  1.00  0.00     0.040 A 
BRANCH  20  25
ATOM     25  N   UNL A   1      31.547  26.066  21.020  1.00  0.00    -0.326 N 
ATOM     26  C   UNL A   1      33.596  24.806  21.703  1.00  0.00     0.114 C 
ATOM     27  C   UNL A   1      32.724  25.471  20.675  1.00  0.00     0.221 C 
ATOM     28  O   UNL A   1      33.051  25.448  19.485  1.00  0.00    -0.275 OA
ATOM     29  H   UNL A   1      30.951  26.226  20.254  1.00  0.00     0.169 HD
ENDBRANCH  20  25
BRANCH  23  30
ATOM     30  N   UNL A   1      30.316  29.791  23.932  1.00  0.00    -0.326 N 
ATOM     31  C   UNL A   1      29.225  30.561  23.574  1.00  0.00     0.221 C 
ATOM     32  H   UNL A   1      31.042  30.254  24.409  1.00  0.00     0.169 HD
ATOM     33  C   UNL A   1      29.336  31.997  24.022  1.00  0.00     0.114 C 
ATOM     34  O   UNL A   1      28.222  30.178  22.979  1.00  0.00    -0.275 OA
ENDBRANCH  23  30
ENDBRANCH  16  19
ENDBRANCH   9  15
ENDBRANCH   5   8
ENDBRANCH   3   4
ENDBRANCH   2   3
ENDBRANCH   1   2
BRANCH   1  35
ATOM     35  C   UNL A   1      36.183  19.711  24.948  1.00  0.00     0.002 C 
BRANCH  35  36
ATOM     36  C   UNL A   1      37.668  19.693  24.588  1.00  0.00     0.021 C 
BRANCH  36  37
ATOM     37  C   UNL A   1      38.639  20.059  25.702  1.00  0.00     0.116 C 
BRANCH  37  38
ATOM     38  N   UNL A   1      39.828  19.226  25.729  1.00  0.00    -0.352 N 
ATOM     39  C   UNL A   1      41.117  19.551  26.083  1.00  0.00     0.251 C 
ATOM     40  H   UNL A   1      39.691  18.290  25.456  1.00  0.00     0.163 HD
ATOM     41  O   UNL A   1      42.012  18.730  25.955  1.00  0.00    -0.269 OA
BRANCH  39  42
ATOM     42  C   UNL A   1      41.430  20.911  26.584  1.00  0.00     0.039 A 
ATOM     43  C   UNL A   1      41.429  21.128  27.966  1.00  0.00     0.014 A 
ATOM     44  C   UNL A   1      41.715  21.965  25.713  1.00  0.00     0.014 A 
ATOM     45  C   UNL A   1      41.779  22.381  28.474  1.00  0.00     0.010 A 
ATOM     46  C   UNL A   1      42.133  23.193  26.221  1.00  0.00     0.010 A 
ATOM     47  C   UNL A   1      42.168  23.414  27.607  1.00  0.00    -0.014 A 
BRANCH  47  48
ATOM     48  C   UNL A   1      42.616  24.731  28.125  1.00  0.00     0.031 A 
ATOM     49  C   UNL A   1      41.614  25.824  28.378  1.00  0.00     0.074 A 
ATOM     50  C   UNL A   1      43.930  24.970  28.300  1.00  0.00     0.049 A 
ATOM     51  N   UNL A   1      41.817  27.064  28.744  1.00  0.00    -0.248 NA
ATOM     52  C   UNL A   1      40.196  25.484  28.166  1.00  0.00     0.031 C 
ATOM     53  C   UNL A   1      45.007  24.008  28.061  1.00  0.00     0.029 A 
ATOM     54  N   UNL A   1      44.585  26.105  28.710  1.00  0.00    -0.354 N 
ATOM     55  C   UNL A   1      40.561  27.655  28.786  1.00  0.00     0.074 A 
ATOM     56  C   UNL A   1      39.606  26.654  28.365  1.00  0.00     0.031 C 
ATOM     57  C   UNL A   1      46.185  24.585  28.351  1.00  0.00     0.029 A 
ATOM     58  C   UNL A   1      45.951  25.968  28.752  1.00  0.00     0.049 A 
ATOM     59  H   UNL A   1      44.119  26.938  28.953  1.00  0.00     0.167 HD
ATOM     60  C   UNL A   1      40.229  28.915  29.157  1.00  0.00     0.031 A 
ATOM     61  C   UNL A   1      46.911  26.859  29.066  1.00  0.00     0.031 A 
ATOM     62  C   UNL A   1      41.175  29.908  29.589  1.00  0.00     0.049 A 
ATOM     63  C   UNL A   1      46.518  28.257  29.456  1.00  0.00     0.074 A 
ATOM     64  C   UNL A   1      40.931  31.193  30.039  1.00  0.00     0.029 A 
ATOM     65  N   UNL A   1      42.549  29.725  29.624  1.00  0.00    -0.354 N 
ATOM     66  N   UNL A   1      45.321  28.782  29.549  1.00  0.00    -0.248 NA
ATOM     67  C   UNL A   1      47.610  29.181  29.794  1.00  0.00     0.031 C 
ATOM     68  C   UNL A   1      42.160  31.806  30.300  1.00  0.00     0.029 A 
ATOM     69  C   UNL A   1      43.167  30.882  30.064  1.00  0.00     0.049 A 
ATOM     70  H   UNL A   1      43.016  28.895  29.373  1.00  0.00     0.167 HD
ATOM     71  C   UNL A   1      45.513  30.088  29.982  1.00  0.00     0.074 A 
ATOM     72  C   UNL A   1      46.940  30.270  30.146  1.00  0.00     0.031 C 
ATOM     73  C   UNL A   1      44.588  31.048  30.225  1.00  0.00     0.031 A 
BRANCH  60  74
ATOM     74  C   UNL A   1      38.774  29.292  29.101  1.00  0.00    -0.014 A 
ATOM     75  C   UNL A   1      38.214  29.870  27.951  1.00  0.00     0.009 A 
ATOM     76  C   UNL A   1      37.944  29.036  30.205  1.00  0.00     0.009 A 
ATOM     77  C   UNL A   1      36.862  30.218  27.920  1.00  0.00     0.001 A 
ATOM     78  C   UNL A   1      36.587  29.359  30.161  1.00  0.00     0.001 A 
ATOM     79  C   UNL A   1      36.050  29.959  29.023  1.00  0.00     0.000 A 
ENDBRANCH  60  74
BRANCH  61  80
ATOM     80  C   UNL A   1      48.341  26.455  29.033  1.00  0.00    -0.014 A 
ATOM     81  C   UNL A   1      49.082  26.558  27.846  1.00  0.00     0.009 A 
ATOM     82  C   UNL A   1      48.971  25.961  30.186  1.00  0.00     0.009 A 
ATOM     83  C   UNL A   1      50.418  26.153  27.808  1.00  0.00     0.001 A 
ATOM     84  C   UNL A   1      50.315  25.583  30.152  1.00  0.00     0.001 A 
ATOM     85  C   UNL A   1      51.035  25.669  28.961  1.00  0.00     0.000 A 
ENDBRANCH  61  80
BRANCH  73  86
ATOM     86  C   UNL A   1      45.085  32.373  30.730  1.00  0.00    -0.014 A 
ATOM     87  C   UNL A   1      45.278  32.605  32.100  1.00  0.00     0.009 A 
ATOM     88  C   UNL A   1      45.417  33.382  29.813  1.00  0.00     0.009 A 
ATOM     89  C   UNL A   1      45.768  33.835  32.544  1.00  0.00     0.001 A 
ATOM     90  C   UNL A   1      45.932  34.600  30.258  1.00  0.00     0.001 A 
ATOM     91  C   UNL A   1      46.101  34.828  31.623  1.00  0.00     0.000 A 
ENDBRANCH  73  86
ENDBRANCH  47  48
ENDBRANCH  39  42
ENDBRANCH  37  38
ENDBRANCH  36  37
ENDBRANCH  35  36
ENDBRANCH   1  35
TORSDOF 17
ENDMDL
MODEL 3
REMARK VINA RESULT:     -12.0      0.559      5.590
REMARK SMILES CC(=O)Nc1cc(NC(C)=O)cc(C(=O)Nc2ccc(Br)cc2C(=O)NCCCCCCNC(=O)c2ccc(-c3c4nc(c(-c5ccccc5)c5ccc([nH]5)c(-c5ccccc5)c5nc(c(-c6ccccc6)c6ccc3[nH]6)C=C5)C=C4)cc2)c1
REMARK SMILES IDX 29 1 28 2 27 3 26 4 24 5 25 6 23 8 17 9 18 10 19 11 22 12
REMARK SMILES IDX 20 13 21 14 16 15 14 16 15 17 13 19 5 20 6 21 84 22 7 23
REMARK SMILES IDX 12 24 4 25 1 26 2 27 3 28 8 30 9 31 10 33 11 34 30 35 31 36
REMARK SMILES IDX 32 37 33 38 34 39 35 41 36 42 37 43 83 44 38 45 82 46 39 47
REMARK SMILES IDX 40 48 41 49 76 50 42 51 81 52 75 53 77 54 43 55 80 56 74 57
REMARK SMILES IDX 73 58 44 60 66 61 51 62 65 63 52 64 55 65 64 66 78 67 53 68
REMARK SMILES IDX 54 69 63 71 79 72 56 73 45 74 46 75 50 76 47 77 49 78 48 79
REMARK SMILES IDX 67 80 68 81 72 82 69 83 71 84 70 85 57 86 58 87 62 88 59 89
REMARK SMILES IDX 61 90 60 91
REMARK H PARENT 26 7 16 18 4 29 8 32 33 40 77 59 55 70
REMARK Flexibility Score: inf
ROOT
ATOM      1  C   UNL A   1      35.312  18.482  24.743  1.00  0.00     0.002 C 
ENDROOT
BRANCH   1   2
ATOM      2  C   UNL A   1      33.899  18.829  24.257  1.00  0.00     0.021 C 
BRANCH   2   3
ATOM      3  C   UNL A   1      33.220  20.009  24.940  1.00  0.00     0.116 C 
BRANCH   3   4
ATOM      4  N   UNL A   1      32.363  20.780  24.070  1.00  0.00    -0.352 N 
ATOM      5  C   UNL A   1      32.293  22.136  23.886  1.00  0.00     0.253 C 
ATOM      6  O   UNL A   1      31.444  22.572  23.109  1.00  0.00    -0.269 OA
ATOM      7  H   UNL A   1      31.734  20.251  23.527  1.00  0.00     0.163 HD
BRANCH   5   8
ATOM      8  C   UNL A   1      33.138  23.099  24.649  1.00  0.00     0.064 A 
ATOM      9  C   UNL A   1      32.703  24.181  25.443  1.00  0.00     0.054 A 
ATOM     10  C   UNL A   1      33.662  25.100  25.914  1.00  0.00     0.028 A 
ATOM     11  C   UNL A   1      35.029  24.862  25.758  1.00  0.00     0.018 A 
ATOM     12  C   UNL A   1      34.522  22.854  24.528  1.00  0.00     0.031 A 
ATOM     13  C   UNL A   1      35.454  23.715  25.102  1.00  0.00     0.018 A 
ATOM     14  Br  UNL A   1      37.297  23.320  25.000  1.00  0.00    -0.051 Br
BRANCH   9  15
ATOM     15  N   UNL A   1      31.396  24.429  25.929  1.00  0.00    -0.321 N 
ATOM     16  C   UNL A   1      30.521  25.480  25.726  1.00  0.00     0.255 C 
ATOM     17  O   UNL A   1      29.520  25.576  26.436  1.00  0.00    -0.269 OA
ATOM     18  H   UNL A   1      31.048  23.724  26.522  1.00  0.00     0.170 HD
BRANCH  16  19
ATOM     19  C   UNL A   1      30.722  26.457  24.633  1.00  0.00     0.044 A 
ATOM     20  C   UNL A   1      30.556  28.723  23.824  1.00  0.00     0.044 A 
ATOM     21  C   UNL A   1      30.789  28.244  22.526  1.00  0.00     0.052 A 
ATOM     22  C   UNL A   1      30.603  27.826  24.880  1.00  0.00     0.040 A 
ATOM     23  C   UNL A   1      31.072  26.893  22.283  1.00  0.00     0.044 A 
ATOM     24  C   UNL A   1      31.016  25.994  23.349  1.00  0.00     0.040 A 
BRANCH  20  25
ATOM     25  N   UNL A   1      30.166  30.068  23.958  1.00  0.00    -0.326 N 
ATOM     26  C   UNL A   1      27.799  30.066  23.151  1.00  0.00     0.114 C 
ATOM     27  C   UNL A   1      29.066  30.767  23.556  1.00  0.00     0.221 C 
ATOM     28  O   UNL A   1      29.108  32.000  23.568  1.00  0.00    -0.275 OA
ATOM     29  H   UNL A   1      30.824  30.619  24.439  1.00  0.00     0.169 HD
ENDBRANCH  20  25
BRANCH  23  30
ATOM     30  N   UNL A   1      31.396  26.371  21.010  1.00  0.00    -0.326 N 
ATOM     31  C   UNL A   1      32.597  25.804  20.622  1.00  0.00     0.221 C 
ATOM     32  H   UNL A   1      30.691  26.417  20.325  1.00  0.00     0.169 HD
ATOM     33  C   UNL A   1      32.591  25.316  19.195  1.00  0.00     0.114 C 
ATOM     34  O   UNL A   1      33.594  25.654  21.320  1.00  0.00    -0.275 OA
ENDBRANCH  23  30
ENDBRANCH  16  19
ENDBRANCH   9  15
ENDBRANCH   5   8
ENDBRANCH   3   4
ENDBRANCH   2   3
ENDBRANCH   1   2
BRANCH   1  35
ATOM     35  C   UNL A   1      36.309  19.632  24.914  1.00  0.00     0.002 C 
BRANCH  35  36
ATOM     36  C   UNL A   1      37.786  19.326  24.671  1.00  0.00     0.021 C 
BRANCH  36  37
ATOM     37  C   UNL A   1      38.767  19.851  25.711  1.00  0.00     0.116 C 
BRANCH  37  38
ATOM     38  N   UNL A   1      40.011  19.106  25.759  1.00  0.00    -0.352 N 
ATOM     39  C   UNL A   1      41.274  19.532  26.103  1.00  0.00     0.251 C 
ATOM     40  H   UNL A   1      39.942  18.156  25.511  1.00  0.00     0.163 HD
ATOM     41  O   UNL A   1      42.225  18.774  25.996  1.00  0.00    -0.269 OA
BRANCH  39  42
ATOM     42  C   UNL A   1      41.488  20.923  26.568  1.00  0.00     0.039 A 
ATOM     43  C   UNL A   1      41.285  21.212  27.921  1.00  0.00     0.014 A 
ATOM     44  C   UNL A   1      41.877  21.937  25.690  1.00  0.00     0.014 A 
ATOM     45  C   UNL A   1      41.537  22.499  28.404  1.00  0.00     0.010 A 
ATOM     46  C   UNL A   1      42.197  23.200  26.184  1.00  0.00     0.010 A 
ATOM     47  C   UNL A   1      42.029  23.494  27.546  1.00  0.00    -0.014 A 
BRANCH  47  48
ATOM     48  C   UNL A   1      42.375  24.846  28.049  1.00  0.00     0.031 A 
ATOM     49  C   UNL A   1      43.786  25.160  28.465  1.00  0.00     0.074 A 
ATOM     50  C   UNL A   1      41.408  25.772  28.201  1.00  0.00     0.049 A 
ATOM     51  N   UNL A   1      44.265  26.249  29.010  1.00  0.00    -0.248 NA
ATOM     52  C   UNL A   1      44.787  24.097  28.265  1.00  0.00     0.031 C 
ATOM     53  C   UNL A   1      39.995  25.586  27.866  1.00  0.00     0.029 A 
ATOM     54  N   UNL A   1      41.467  27.054  28.689  1.00  0.00    -0.354 N 
ATOM     55  C   UNL A   1      45.612  25.996  29.236  1.00  0.00     0.074 A 
ATOM     56  C   UNL A   1      45.866  24.637  28.813  1.00  0.00     0.031 C 
ATOM     57  C   UNL A   1      39.326  26.719  28.137  1.00  0.00     0.029 A 
ATOM     58  C   UNL A   1      40.251  27.694  28.704  1.00  0.00     0.049 A 
ATOM     59  H   UNL A   1      42.302  27.476  28.998  1.00  0.00     0.167 HD
ATOM     60  C   UNL A   1      46.558  26.827  29.737  1.00  0.00     0.031 A 
ATOM     61  C   UNL A   1      39.915  28.924  29.138  1.00  0.00     0.031 A 
ATOM     62  C   UNL A   1      46.311  28.183  30.145  1.00  0.00     0.049 A 
ATOM     63  C   UNL A   1      40.980  29.820  29.707  1.00  0.00     0.074 A 
ATOM     64  C   UNL A   1      47.215  29.121  30.611  1.00  0.00     0.029 A 
ATOM     65  N   UNL A   1      45.067  28.794  30.137  1.00  0.00    -0.354 N 
ATOM     66  N   UNL A   1      42.261  29.587  29.858  1.00  0.00    -0.248 NA
ATOM     67  C   UNL A   1      40.553  31.152  30.157  1.00  0.00     0.031 C 
ATOM     68  C   UNL A   1      46.510  30.285  30.932  1.00  0.00     0.029 A 
ATOM     69  C   UNL A   1      45.175  30.090  30.613  1.00  0.00     0.049 A 
ATOM     70  H   UNL A   1      44.230  28.371  29.837  1.00  0.00     0.167 HD
ATOM     71  C   UNL A   1      42.797  30.751  30.394  1.00  0.00     0.074 A 
ATOM     72  C   UNL A   1      41.706  31.692  30.528  1.00  0.00     0.031 C 
ATOM     73  C   UNL A   1      44.081  31.016  30.739  1.00  0.00     0.031 A 
BRANCH  60  74
ATOM     74  C   UNL A   1      47.953  26.282  29.879  1.00  0.00    -0.014 A 
ATOM     75  C   UNL A   1      48.866  26.329  28.813  1.00  0.00     0.009 A 
ATOM     76  C   UNL A   1      48.370  25.743  31.107  1.00  0.00     0.009 A 
ATOM     77  C   UNL A   1      50.155  25.812  28.963  1.00  0.00     0.001 A 
ATOM     78  C   UNL A   1      49.668  25.254  31.261  1.00  0.00     0.001 A 
ATOM     79  C   UNL A   1      50.556  25.280  30.187  1.00  0.00     0.000 A 
ENDBRANCH  60  74
BRANCH  61  80
ATOM     80  C   UNL A   1      38.507  29.387  29.043  1.00  0.00    -0.014 A 
ATOM     81  C   UNL A   1      37.659  29.319  30.159  1.00  0.00     0.009 A 
ATOM     82  C   UNL A   1      38.000  29.896  27.837  1.00  0.00     0.009 A 
ATOM     83  C   UNL A   1      36.327  29.728  30.063  1.00  0.00     0.001 A 
ATOM     84  C   UNL A   1      36.676  30.331  27.751  1.00  0.00     0.001 A 
ATOM     85  C   UNL A   1      35.837  30.237  28.861  1.00  0.00     0.000 A 
ENDBRANCH  61  80
BRANCH  73  86
ATOM     86  C   UNL A   1      44.384  32.391  31.262  1.00  0.00    -0.014 A 
ATOM     87  C   UNL A   1      44.334  32.676  32.635  1.00  0.00     0.009 A 
ATOM     88  C   UNL A   1      44.778  33.400  30.370  1.00  0.00     0.009 A 
ATOM     89  C   UNL A   1      44.648  33.954  33.101  1.00  0.00     0.001 A 
ATOM     90  C   UNL A   1      45.117  34.669  30.842  1.00  0.00     0.001 A 
ATOM     91  C   UNL A   1      45.045  34.947  32.206  1.00  0.00     0.000 A 
ENDBRANCH  73  86
ENDBRANCH  47  48
ENDBRANCH  39  42
ENDBRANCH  37  38
ENDBRANCH  36  37
ENDBRANCH  35  36
ENDBRANCH   1  35
TORSDOF 17
ENDMDL
