MODEL 1
REMARK VINA RESULT:      -8.9      0.000      0.000
REMARK SMILES O=C(NCCCCCCNC(=O)[C@H]1CCC(=O)N1Cc1ccco1)c1ccc(-c2c3nc(c(-c4ccccc4)c4ccc([nH]4)c(-c4ccccc4)c4nc(c(-c5ccccc5)c5ccc2[nH]5)C=C4)C=C3)cc1
REMARK SMILES IDX 6 1 5 2 4 3 3 4 1 5 2 6 25 8 26 9 72 10 27 11 71 12 28 13
REMARK SMILES IDX 29 14 30 15 65 16 31 17 70 18 64 19 66 20 32 21 69 22 63 23
REMARK SMILES IDX 62 24 33 26 55 27 40 28 54 29 41 30 44 31 53 32 67 33 42 34
REMARK SMILES IDX 43 35 52 37 68 38 45 39 34 40 35 41 39 42 36 43 38 44 37 45
REMARK SMILES IDX 56 46 57 47 61 48 58 49 60 50 59 51 46 52 47 53 51 54 48 55
REMARK SMILES IDX 50 56 49 57 7 58 8 59 9 60 10 61 11 62 12 64 13 65 14 66
REMARK SMILES IDX 18 67 15 68 16 69 17 70 19 71 20 72 21 73 24 74 22 75 23 76
REMARK H PARENT 3 7 66 25 44 36 10 63
REMARK Flexibility Score: inf
ROOT
ATOM      1  C   UNL A   1      42.829  23.081  27.132  1.00  0.00     0.002 C 
ENDROOT
BRANCH   1   2
ATOM      2  C   UNL A   1      42.051  21.810  26.784  1.00  0.00     0.021 C 
BRANCH   2   3
ATOM      3  C   UNL A   1      40.665  21.704  27.406  1.00  0.00     0.116 C 
BRANCH   3   4
ATOM      4  N   UNL A   1      39.610  21.973  26.447  1.00  0.00    -0.352 N 
ATOM      5  O   UNL A   1      37.906  23.105  25.506  1.00  0.00    -0.269 OA
ATOM      6  C   UNL A   1      38.888  23.119  26.241  1.00  0.00     0.251 C 
ATOM      7  H   UNL A   1      39.378  21.221  25.856  1.00  0.00     0.163 HD
BRANCH   6   8
ATOM      8  C   UNL A   1      39.283  24.373  26.917  1.00  0.00     0.039 A 
ATOM      9  C   UNL A   1      40.056  25.334  26.260  1.00  0.00     0.014 A 
ATOM     10  C   UNL A   1      38.834  24.600  28.220  1.00  0.00     0.014 A 
ATOM     11  C   UNL A   1      40.472  26.474  26.942  1.00  0.00     0.010 A 
ATOM     12  C   UNL A   1      39.189  25.777  28.877  1.00  0.00     0.010 A 
ATOM     13  C   UNL A   1      40.027  26.714  28.250  1.00  0.00    -0.014 A 
BRANCH  13  14
ATOM     14  C   UNL A   1      40.386  27.973  28.945  1.00  0.00     0.031 A 
ATOM     15  C   UNL A   1      41.694  28.101  29.667  1.00  0.00     0.074 A 
ATOM     16  C   UNL A   1      39.499  28.986  28.960  1.00  0.00     0.049 A 
ATOM     17  N   UNL A   1      42.131  29.084  30.412  1.00  0.00    -0.248 NA
ATOM     18  C   UNL A   1      42.629  26.973  29.545  1.00  0.00     0.031 C 
ATOM     19  C   UNL A   1      38.198  28.978  28.288  1.00  0.00     0.029 A 
ATOM     20  N   UNL A   1      39.552  30.210  29.572  1.00  0.00    -0.354 N 
ATOM     21  C   UNL A   1      43.379  28.683  30.872  1.00  0.00     0.074 A 
ATOM     22  C   UNL A   1      43.617  27.358  30.341  1.00  0.00     0.031 C 
ATOM     23  C   UNL A   1      37.580  30.147  28.515  1.00  0.00     0.029 A 
ATOM     24  C   UNL A   1      38.411  30.954  29.401  1.00  0.00     0.049 A 
ATOM     25  H   UNL A   1      40.331  30.526  30.085  1.00  0.00     0.167 HD
ATOM     26  C   UNL A   1      44.244  29.360  31.665  1.00  0.00     0.031 A 
ATOM     27  C   UNL A   1      38.050  32.139  29.928  1.00  0.00     0.031 A 
ATOM     28  C   UNL A   1      43.988  30.672  32.202  1.00  0.00     0.049 A 
ATOM     29  C   UNL A   1      38.999  32.845  30.851  1.00  0.00     0.074 A 
ATOM     30  C   UNL A   1      44.811  31.457  32.991  1.00  0.00     0.029 A 
ATOM     31  N   UNL A   1      42.813  31.387  32.015  1.00  0.00    -0.354 N 
ATOM     32  N   UNL A   1      40.189  32.471  31.253  1.00  0.00    -0.248 NA
ATOM     33  C   UNL A   1      38.559  34.138  31.390  1.00  0.00     0.031 C 
ATOM     34  C   UNL A   1      44.109  32.616  33.335  1.00  0.00     0.029 A 
ATOM     35  C   UNL A   1      42.878  32.589  32.697  1.00  0.00     0.049 A 
ATOM     36  H   UNL A   1      42.048  31.084  31.475  1.00  0.00     0.167 HD
ATOM     37  C   UNL A   1      40.655  33.495  32.064  1.00  0.00     0.074 A 
ATOM     38  C   UNL A   1      39.620  34.509  32.095  1.00  0.00     0.031 C 
ATOM     39  C   UNL A   1      41.839  33.591  32.717  1.00  0.00     0.031 A 
BRANCH  26  40
ATOM     40  C   UNL A   1      45.526  28.665  32.040  1.00  0.00    -0.014 A 
ATOM     41  C   UNL A   1      46.691  28.798  31.267  1.00  0.00     0.009 A 
ATOM     42  C   UNL A   1      45.571  27.869  33.196  1.00  0.00     0.009 A 
ATOM     43  C   UNL A   1      47.855  28.108  31.614  1.00  0.00     0.001 A 
ATOM     44  C   UNL A   1      46.745  27.208  33.560  1.00  0.00     0.001 A 
ATOM     45  C   UNL A   1      47.882  27.315  32.761  1.00  0.00     0.000 A 
ENDBRANCH  26  40
BRANCH  27  46
ATOM     46  C   UNL A   1      36.719  32.708  29.597  1.00  0.00    -0.014 A 
ATOM     47  C   UNL A   1      35.641  32.563  30.483  1.00  0.00     0.009 A 
ATOM     48  C   UNL A   1      36.534  33.442  28.414  1.00  0.00     0.009 A 
ATOM     49  C   UNL A   1      34.401  33.133  30.184  1.00  0.00     0.001 A 
ATOM     50  C   UNL A   1      35.302  34.036  28.133  1.00  0.00     0.001 A 
ATOM     51  C   UNL A   1      34.236  33.876  29.015  1.00  0.00     0.000 A 
ENDBRANCH  27  46
BRANCH  39  52
ATOM     52  C   UNL A   1      42.111  34.858  33.478  1.00  0.00    -0.014 A 
ATOM     53  C   UNL A   1      41.685  35.027  34.804  1.00  0.00     0.009 A 
ATOM     54  C   UNL A   1      42.869  35.873  32.872  1.00  0.00     0.009 A 
ATOM     55  C   UNL A   1      41.995  36.197  35.500  1.00  0.00     0.001 A 
ATOM     56  C   UNL A   1      43.203  37.028  33.579  1.00  0.00     0.001 A 
ATOM     57  C   UNL A   1      42.760  37.192  34.890  1.00  0.00     0.000 A 
ENDBRANCH  39  52
ENDBRANCH  13  14
ENDBRANCH   6   8
ENDBRANCH   3   4
ENDBRANCH   2   3
ENDBRANCH   1   2
BRANCH   1  58
ATOM     58  C   UNL A   1      42.581  23.664  28.529  1.00  0.00     0.002 C 
BRANCH  58  59
ATOM     59  C   UNL A   1      43.738  23.545  29.522  1.00  0.00     0.021 C 
BRANCH  59  60
ATOM     60  C   UNL A   1      45.115  23.395  28.894  1.00  0.00     0.116 C 
BRANCH  60  61
ATOM     61  N   UNL A   1      45.887  24.619  28.876  1.00  0.00    -0.354 N 
ATOM     62  C   UNL A   1      45.858  25.655  27.991  1.00  0.00     0.242 C 
ATOM     63  H   UNL A   1      46.529  24.719  29.615  1.00  0.00     0.163 HD
ATOM     64  O   UNL A   1      46.439  26.692  28.336  1.00  0.00    -0.273 OA
BRANCH  62  65
ATOM     65  C   UNL A   1      45.317  25.542  26.542  1.00  0.00     0.175 C 
ATOM     66  C   UNL A   1      44.269  26.637  26.334  1.00  0.00     0.045 C 
ATOM     67  N   UNL A   1      46.193  25.726  25.402  1.00  0.00    -0.323 N 
ATOM     68  C   UNL A   1      45.057  27.759  25.673  1.00  0.00     0.103 C 
ATOM     69  C   UNL A   1      46.053  26.991  24.837  1.00  0.00     0.223 C 
ATOM     70  O   UNL A   1      46.653  27.433  23.878  1.00  0.00    -0.275 OA
BRANCH  67  71
ATOM     71  C   UNL A   1      46.953  24.654  24.769  1.00  0.00     0.195 C 
BRANCH  71  72
ATOM     72  C   UNL A   1      46.197  23.374  24.694  1.00  0.00     0.123 A 
ATOM     73  C   UNL A   1      45.205  22.885  23.864  1.00  0.00     0.047 A 
ATOM     74  O   UNL A   1      46.519  22.423  25.624  1.00  0.00    -0.467 OA
ATOM     75  C   UNL A   1      44.874  21.595  24.342  1.00  0.00     0.042 A 
ATOM     76  C   UNL A   1      45.717  21.351  25.399  1.00  0.00     0.195 A 
ENDBRANCH  71  72
ENDBRANCH  67  71
ENDBRANCH  62  65
ENDBRANCH  60  61
ENDBRANCH  59  60
ENDBRANCH  58  59
ENDBRANCH   1  58
TORSDOF 15
ENDMDL
MODEL 2
REMARK VINA RESULT:      -8.9      3.873      7.336
REMARK SMILES O=C(NCCCCCCNC(=O)[C@H]1CCC(=O)N1Cc1ccco1)c1ccc(-c2c3nc(c(-c4ccccc4)c4ccc([nH]4)c(-c4ccccc4)c4nc(c(-c5ccccc5)c5ccc2[nH]5)C=C4)C=C3)cc1
REMARK SMILES IDX 6 1 5 2 4 3 3 4 1 5 2 6 25 8 26 9 72 10 27 11 71 12 28 13
REMARK SMILES IDX 29 14 30 15 65 16 31 17 70 18 64 19 66 20 32 21 69 22 63 23
REMARK SMILES IDX 62 24 33 26 55 27 40 28 54 29 41 30 44 31 53 32 67 33 42 34
REMARK SMILES IDX 43 35 52 37 68 38 45 39 34 40 35 41 39 42 36 43 38 44 37 45
REMARK SMILES IDX 56 46 57 47 61 48 58 49 60 50 59 51 46 52 47 53 51 54 48 55
REMARK SMILES IDX 50 56 49 57 7 58 8 59 9 60 10 61 11 62 12 64 13 65 14 66
REMARK SMILES IDX 18 67 15 68 16 69 17 70 19 71 20 72 21 73 24 74 22 75 23 76
REMARK H PARENT 3 7 66 25 44 36 10 63
REMARK Flexibility Score: inf
ROOT
ATOM      1  C   UNL A   1      34.662  23.448  25.928  1.00  0.00     0.002 C 
ENDROOT
BRANCH   1   2
ATOM      2  C   UNL A   1      35.782  23.091  24.949  1.00  0.00     0.021 C 
BRANCH   2   3
ATOM      3  C   UNL A   1      37.128  23.746  25.232  1.00  0.00     0.116 C 
BRANCH   3   4
ATOM      4  N   UNL A   1      38.160  22.772  25.534  1.00  0.00    -0.352 N 
ATOM      5  O   UNL A   1      40.189  22.037  26.177  1.00  0.00    -0.269 OA
ATOM      6  C   UNL A   1      39.359  22.941  26.175  1.00  0.00     0.251 C 
ATOM      7  H   UNL A   1      37.972  21.854  25.235  1.00  0.00     0.163 HD
BRANCH   6   8
ATOM      8  C   UNL A   1      39.662  24.220  26.852  1.00  0.00     0.039 A 
ATOM      9  C   UNL A   1      39.272  24.445  28.175  1.00  0.00     0.014 A 
ATOM     10  C   UNL A   1      40.385  25.191  26.155  1.00  0.00     0.014 A 
ATOM     11  C   UNL A   1      39.509  25.683  28.766  1.00  0.00     0.010 A 
ATOM     12  C   UNL A   1      40.687  26.403  26.774  1.00  0.00     0.010 A 
ATOM     13  C   UNL A   1      40.235  26.666  28.077  1.00  0.00    -0.014 A 
BRANCH  13  14
ATOM     14  C   UNL A   1      40.575  27.948  28.738  1.00  0.00     0.031 A 
ATOM     15  C   UNL A   1      41.906  28.137  29.402  1.00  0.00     0.074 A 
ATOM     16  C   UNL A   1      39.651  28.927  28.777  1.00  0.00     0.049 A 
ATOM     17  N   UNL A   1      42.336  29.147  30.113  1.00  0.00    -0.248 NA
ATOM     18  C   UNL A   1      42.878  27.043  29.256  1.00  0.00     0.031 C 
ATOM     19  C   UNL A   1      38.324  28.860  28.160  1.00  0.00     0.029 A 
ATOM     20  N   UNL A   1      39.683  30.162  29.368  1.00  0.00    -0.354 N 
ATOM     21  C   UNL A   1      43.617  28.801  30.525  1.00  0.00     0.074 A 
ATOM     22  C   UNL A   1      43.883  27.477  30.003  1.00  0.00     0.031 C 
ATOM     23  C   UNL A   1      37.673  30.008  28.397  1.00  0.00     0.029 A 
ATOM     24  C   UNL A   1      38.508  30.860  29.235  1.00  0.00     0.049 A 
ATOM     25  H   UNL A   1      40.471  30.515  29.842  1.00  0.00     0.167 HD
ATOM     26  C   UNL A   1      44.489  29.522  31.271  1.00  0.00     0.031 A 
ATOM     27  C   UNL A   1      38.125  32.038  29.760  1.00  0.00     0.031 A 
ATOM     28  C   UNL A   1      44.205  30.832  31.798  1.00  0.00     0.049 A 
ATOM     29  C   UNL A   1      39.084  32.795  30.631  1.00  0.00     0.074 A 
ATOM     30  C   UNL A   1      45.030  31.660  32.540  1.00  0.00     0.029 A 
ATOM     31  N   UNL A   1      42.998  31.499  31.651  1.00  0.00    -0.354 N 
ATOM     32  N   UNL A   1      40.304  32.471  30.987  1.00  0.00    -0.248 NA
ATOM     33  C   UNL A   1      38.618  34.079  31.170  1.00  0.00     0.031 C 
ATOM     34  C   UNL A   1      44.300  32.797  32.897  1.00  0.00     0.029 A 
ATOM     35  C   UNL A   1      43.045  32.714  32.313  1.00  0.00     0.049 A 
ATOM     36  H   UNL A   1      42.222  31.159  31.149  1.00  0.00     0.167 HD
ATOM     37  C   UNL A   1      40.764  33.526  31.763  1.00  0.00     0.074 A 
ATOM     38  C   UNL A   1      39.693  34.500  31.823  1.00  0.00     0.031 C 
ATOM     39  C   UNL A   1      41.971  33.676  32.363  1.00  0.00     0.031 A 
BRANCH  26  40
ATOM     40  C   UNL A   1      45.811  28.882  31.600  1.00  0.00    -0.014 A 
ATOM     41  C   UNL A   1      46.934  29.039  30.772  1.00  0.00     0.009 A 
ATOM     42  C   UNL A   1      45.937  28.113  32.768  1.00  0.00     0.009 A 
ATOM     43  C   UNL A   1      48.137  28.399  31.079  1.00  0.00     0.001 A 
ATOM     44  C   UNL A   1      47.150  27.503  33.092  1.00  0.00     0.001 A 
ATOM     45  C   UNL A   1      48.245  27.633  32.240  1.00  0.00     0.000 A 
ENDBRANCH  26  40
BRANCH  27  46
ATOM     46  C   UNL A   1      36.760  32.552  29.478  1.00  0.00    -0.014 A 
ATOM     47  C   UNL A   1      35.717  32.344  30.392  1.00  0.00     0.009 A 
ATOM     48  C   UNL A   1      36.507  33.295  28.314  1.00  0.00     0.009 A 
ATOM     49  C   UNL A   1      34.445  32.862  30.140  1.00  0.00     0.001 A 
ATOM     50  C   UNL A   1      35.242  33.838  28.080  1.00  0.00     0.001 A 
ATOM     51  C   UNL A   1      34.211  33.615  28.989  1.00  0.00     0.000 A 
ENDBRANCH  27  46
BRANCH  39  52
ATOM     52  C   UNL A   1      42.226  34.965  33.093  1.00  0.00    -0.014 A 
ATOM     53  C   UNL A   1      41.729  35.189  34.386  1.00  0.00     0.009 A 
ATOM     54  C   UNL A   1      43.038  35.942  32.496  1.00  0.00     0.009 A 
ATOM     55  C   UNL A   1      42.024  36.378  35.057  1.00  0.00     0.001 A 
ATOM     56  C   UNL A   1      43.356  37.115  33.180  1.00  0.00     0.001 A 
ATOM     57  C   UNL A   1      42.843  37.335  34.458  1.00  0.00     0.000 A 
ENDBRANCH  39  52
ENDBRANCH  13  14
ENDBRANCH   6   8
ENDBRANCH   3   4
ENDBRANCH   2   3
ENDBRANCH   1   2
BRANCH   1  58
ATOM     58  C   UNL A   1      33.659  22.331  26.244  1.00  0.00     0.002 C 
BRANCH  58  59
ATOM     59  C   UNL A   1      32.445  22.733  27.083  1.00  0.00     0.021 C 
BRANCH  59  60
ATOM     60  C   UNL A   1      31.444  23.635  26.377  1.00  0.00     0.116 C 
BRANCH  60  61
ATOM     61  N   UNL A   1      31.368  24.971  26.931  1.00  0.00    -0.354 N 
ATOM     62  C   UNL A   1      31.223  26.169  26.298  1.00  0.00     0.242 C 
ATOM     63  H   UNL A   1      31.431  25.021  27.911  1.00  0.00     0.163 HD
ATOM     64  O   UNL A   1      30.939  27.139  27.013  1.00  0.00    -0.273 OA
BRANCH  62  65
ATOM     65  C   UNL A   1      31.572  26.409  24.807  1.00  0.00     0.175 C 
ATOM     66  C   UNL A   1      30.387  25.947  23.956  1.00  0.00     0.045 C 
ATOM     67  N   UNL A   1      31.816  27.746  24.302  1.00  0.00    -0.323 N 
ATOM     68  C   UNL A   1      29.608  27.231  23.709  1.00  0.00     0.103 C 
ATOM     69  C   UNL A   1      30.713  28.256  23.623  1.00  0.00     0.223 C 
ATOM     70  O   UNL A   1      30.620  29.347  23.097  1.00  0.00    -0.275 OA
BRANCH  67  71
ATOM     71  C   UNL A   1      33.123  28.394  24.292  1.00  0.00     0.195 C 
BRANCH  71  72
ATOM     72  C   UNL A   1      33.422  29.116  25.558  1.00  0.00     0.123 A 
ATOM     73  C   UNL A   1      34.373  28.973  26.551  1.00  0.00     0.047 A 
ATOM     74  O   UNL A   1      32.613  30.179  25.856  1.00  0.00    -0.467 OA
ATOM     75  C   UNL A   1      34.099  29.964  27.523  1.00  0.00     0.042 A 
ATOM     76  C   UNL A   1      33.034  30.687  27.042  1.00  0.00     0.195 A 
ENDBRANCH  71  72
ENDBRANCH  67  71
ENDBRANCH  62  65
ENDBRANCH  60  61
ENDBRANCH  59  60
ENDBRANCH  58  59
ENDBRANCH   1  58
TORSDOF 15
ENDMDL
MODEL 3
REMARK VINA RESULT:      -8.9      4.946     10.637
REMARK SMILES O=C(NCCCCCCNC(=O)[C@H]1CCC(=O)N1Cc1ccco1)c1ccc(-c2c3nc(c(-c4ccccc4)c4ccc([nH]4)c(-c4ccccc4)c4nc(c(-c5ccccc5)c5ccc2[nH]5)C=C4)C=C3)cc1
REMARK SMILES IDX 6 1 5 2 4 3 3 4 1 5 2 6 25 8 26 9 72 10 27 11 71 12 28 13
REMARK SMILES IDX 29 14 30 15 65 16 31 17 70 18 64 19 66 20 32 21 69 22 63 23
REMARK SMILES IDX 62 24 33 26 55 27 40 28 54 29 41 30 44 31 53 32 67 33 42 34
REMARK SMILES IDX 43 35 52 37 68 38 45 39 34 40 35 41 39 42 36 43 38 44 37 45
REMARK SMILES IDX 56 46 57 47 61 48 58 49 60 50 59 51 46 52 47 53 51 54 48 55
REMARK SMILES IDX 50 56 49 57 7 58 8 59 9 60 10 61 11 62 12 64 13 65 14 66
REMARK SMILES IDX 18 67 15 68 16 69 17 70 19 71 20 72 21 73 24 74 22 75 23 76
REMARK H PARENT 3 7 66 25 44 36 10 63
REMARK Flexibility Score: inf
ROOT
ATOM      1  C   UNL A   1      31.561  30.641  26.615  1.00  0.00     0.002 C 
ENDROOT
BRANCH   1   2
ATOM      2  C   UNL A   1      31.439  32.166  26.662  1.00  0.00     0.021 C 
BRANCH   2   3
ATOM      3  C   UNL A   1      32.713  32.910  27.041  1.00  0.00     0.116 C 
BRANCH   3   4
ATOM      4  N   UNL A   1      32.437  34.211  27.624  1.00  0.00    -0.352 N 
ATOM      5  O   UNL A   1      32.526  35.850  29.165  1.00  0.00    -0.269 OA
ATOM      6  C   UNL A   1      33.016  34.824  28.703  1.00  0.00     0.251 C 
ATOM      7  H   UNL A   1      31.729  34.728  27.178  1.00  0.00     0.163 HD
BRANCH   6   8
ATOM      8  C   UNL A   1      34.225  34.242  29.324  1.00  0.00     0.039 A 
ATOM      9  C   UNL A   1      34.131  33.409  30.443  1.00  0.00     0.014 A 
ATOM     10  C   UNL A   1      35.468  34.510  28.746  1.00  0.00     0.014 A 
ATOM     11  C   UNL A   1      35.289  32.930  31.049  1.00  0.00     0.010 A 
ATOM     12  C   UNL A   1      36.622  33.968  29.311  1.00  0.00     0.010 A 
ATOM     13  C   UNL A   1      36.543  33.191  30.478  1.00  0.00    -0.014 A 
BRANCH  13  14
ATOM     14  C   UNL A   1      37.770  32.602  31.063  1.00  0.00     0.031 A 
ATOM     15  C   UNL A   1      38.418  31.403  30.435  1.00  0.00     0.074 A 
ATOM     16  C   UNL A   1      38.269  33.128  32.198  1.00  0.00     0.049 A 
ATOM     17  N   UNL A   1      39.432  30.695  30.864  1.00  0.00    -0.248 NA
ATOM     18  C   UNL A   1      37.846  30.933  29.165  1.00  0.00     0.031 C 
ATOM     19  C   UNL A   1      37.728  34.297  32.895  1.00  0.00     0.029 A 
ATOM     20  N   UNL A   1      39.335  32.743  32.968  1.00  0.00    -0.354 N 
ATOM     21  C   UNL A   1      39.602  29.679  29.933  1.00  0.00     0.074 A 
ATOM     22  C   UNL A   1      38.572  29.849  28.930  1.00  0.00     0.031 C 
ATOM     23  C   UNL A   1      38.471  34.539  33.984  1.00  0.00     0.029 A 
ATOM     24  C   UNL A   1      39.495  33.507  34.097  1.00  0.00     0.049 A 
ATOM     25  H   UNL A   1      39.927  31.991  32.735  1.00  0.00     0.167 HD
ATOM     26  C   UNL A   1      40.533  28.694  29.919  1.00  0.00     0.031 A 
ATOM     27  C   UNL A   1      40.345  33.373  35.132  1.00  0.00     0.031 A 
ATOM     28  C   UNL A   1      41.542  28.525  30.932  1.00  0.00     0.049 A 
ATOM     29  C   UNL A   1      41.330  32.241  35.125  1.00  0.00     0.074 A 
ATOM     30  C   UNL A   1      42.550  27.578  30.996  1.00  0.00     0.029 A 
ATOM     31  N   UNL A   1      41.663  29.313  32.067  1.00  0.00    -0.354 N 
ATOM     32  N   UNL A   1      41.502  31.305  34.224  1.00  0.00    -0.248 NA
ATOM     33  C   UNL A   1      42.239  32.148  36.274  1.00  0.00     0.031 C 
ATOM     34  C   UNL A   1      43.238  27.754  32.201  1.00  0.00     0.029 A 
ATOM     35  C   UNL A   1      42.708  28.857  32.851  1.00  0.00     0.049 A 
ATOM     36  H   UNL A   1      41.090  30.085  32.282  1.00  0.00     0.167 HD
ATOM     37  C   UNL A   1      42.560  30.531  34.678  1.00  0.00     0.074 A 
ATOM     38  C   UNL A   1      42.992  31.110  35.935  1.00  0.00     0.031 C 
ATOM     39  C   UNL A   1      43.129  29.445  34.100  1.00  0.00     0.031 A 
BRANCH  26  40
ATOM     40  C   UNL A   1      40.464  27.695  28.795  1.00  0.00    -0.014 A 
ATOM     41  C   UNL A   1      39.667  26.542  28.880  1.00  0.00     0.009 A 
ATOM     42  C   UNL A   1      41.207  27.916  27.624  1.00  0.00     0.009 A 
ATOM     43  C   UNL A   1      39.655  25.609  27.839  1.00  0.00     0.001 A 
ATOM     44  C   UNL A   1      41.167  27.001  26.571  1.00  0.00     0.001 A 
ATOM     45  C   UNL A   1      40.403  25.841  26.685  1.00  0.00     0.000 A 
ENDBRANCH  26  40
BRANCH  27  46
ATOM     46  C   UNL A   1      40.276  34.337  36.260  1.00  0.00    -0.014 A 
ATOM     47  C   UNL A   1      41.046  35.509  36.245  1.00  0.00     0.009 A 
ATOM     48  C   UNL A   1      39.401  34.111  37.335  1.00  0.00     0.009 A 
ATOM     49  C   UNL A   1      40.948  36.431  37.290  1.00  0.00     0.001 A 
ATOM     50  C   UNL A   1      39.283  35.048  38.363  1.00  0.00     0.001 A 
ATOM     51  C   UNL A   1      40.061  36.204  38.342  1.00  0.00     0.000 A 
ENDBRANCH  27  46
BRANCH  39  52
ATOM     52  C   UNL A   1      44.319  28.837  34.788  1.00  0.00    -0.014 A 
ATOM     53  C   UNL A   1      44.182  27.783  35.702  1.00  0.00     0.009 A 
ATOM     54  C   UNL A   1      45.607  29.289  34.457  1.00  0.00     0.009 A 
ATOM     55  C   UNL A   1      45.312  27.207  36.288  1.00  0.00     0.001 A 
ATOM     56  C   UNL A   1      46.735  28.693  35.020  1.00  0.00     0.001 A 
ATOM     57  C   UNL A   1      46.586  27.656  35.940  1.00  0.00     0.000 A 
ENDBRANCH  39  52
ENDBRANCH  13  14
ENDBRANCH   6   8
ENDBRANCH   3   4
ENDBRANCH   2   3
ENDBRANCH   1   2
BRANCH   1  58
ATOM     58  C   UNL A   1      32.892  30.055  27.103  1.00  0.00     0.002 C 
BRANCH  58  59
ATOM     59  C   UNL A   1      32.862  28.592  27.546  1.00  0.00     0.021 C 
BRANCH  59  60
ATOM     60  C   UNL A   1      31.474  27.976  27.642  1.00  0.00     0.116 C 
BRANCH  60  61
ATOM     61  N   UNL A   1      31.356  26.694  26.981  1.00  0.00    -0.354 N 
ATOM     62  C   UNL A   1      31.606  26.354  25.685  1.00  0.00     0.242 C 
ATOM     63  H   UNL A   1      31.050  25.955  27.555  1.00  0.00     0.163 HD
ATOM     64  O   UNL A   1      31.664  25.144  25.432  1.00  0.00    -0.273 OA
BRANCH  62  65
ATOM     65  C   UNL A   1      31.628  27.370  24.513  1.00  0.00     0.175 C 
ATOM     66  C   UNL A   1      33.061  27.460  23.984  1.00  0.00     0.045 C 
ATOM     67  N   UNL A   1      30.863  27.134  23.305  1.00  0.00    -0.323 N 
ATOM     68  C   UNL A   1      33.063  26.498  22.805  1.00  0.00     0.103 C 
ATOM     69  C   UNL A   1      31.661  26.658  22.268  1.00  0.00     0.223 C 
ATOM     70  O   UNL A   1      31.301  26.369  21.144  1.00  0.00    -0.275 OA
BRANCH  67  71
ATOM     71  C   UNL A   1      29.481  27.560  23.112  1.00  0.00     0.195 C 
BRANCH  71  72
ATOM     72  C   UNL A   1      29.353  29.026  22.891  1.00  0.00     0.123 A 
ATOM     73  C   UNL A   1      29.339  30.131  23.723  1.00  0.00     0.047 A 
ATOM     74  O   UNL A   1      29.229  29.437  21.591  1.00  0.00    -0.467 OA
ATOM     75  C   UNL A   1      29.146  31.262  22.894  1.00  0.00     0.042 A 
ATOM     76  C   UNL A   1      29.110  30.789  21.605  1.00  0.00     0.195 A 
ENDBRANCH  71  72
ENDBRANCH  67  71
ENDBRANCH  62  65
ENDBRANCH  60  61
ENDBRANCH  59  60
ENDBRANCH  58  59
ENDBRANCH   1  58
TORSDOF 15
ENDMDL
