MODEL 1
REMARK VINA RESULT:     -10.3      0.000      0.000
REMARK SMILES CC(C)Cc1ccc([C@H](CF)C(=O)NCCCCCCNC(=O)c2ccc(-c3c4nc(c(-c5ccccc5)c5ccc([nH]5)c(-c5ccccc5)c5nc(c(-c6ccccc6)c6ccc3[nH]6)C=C5)C=C4)cc2)cc1
REMARK SMILES IDX 17 1 16 2 15 3 14 4 12 5 13 6 9 8 8 9 5 10 6 11 73 12 7 13
REMARK SMILES IDX 72 14 4 15 2 16 1 17 3 18 10 19 11 20 18 21 19 22 20 23
REMARK SMILES IDX 21 24 22 25 23 27 24 28 25 29 71 30 26 31 70 32 27 33 28 34
REMARK SMILES IDX 29 35 64 36 30 37 69 38 63 39 65 40 31 41 68 42 62 43 61 44
REMARK SMILES IDX 32 46 54 47 39 48 53 49 40 50 43 51 52 52 66 53 41 54 42 55
REMARK SMILES IDX 51 57 67 58 44 59 33 60 34 61 38 62 35 63 37 64 36 65 55 66
REMARK SMILES IDX 56 67 60 68 57 69 59 70 58 71 45 72 46 73 50 74 47 75 49 76
REMARK SMILES IDX 48 77
REMARK H PARENT 14 7 21 26 65 45 43 56
REMARK Flexibility Score: inf
ROOT
ATOM      1  C   UNL A   1      36.571  21.971  24.936  1.00  0.00     0.002 C 
ENDROOT
BRANCH   1   2
ATOM      2  C   UNL A   1      36.047  22.709  23.704  1.00  0.00     0.021 C 
BRANCH   2   3
ATOM      3  C   UNL A   1      35.271  23.990  23.981  1.00  0.00     0.116 C 
BRANCH   3   4
ATOM      4  N   UNL A   1      33.970  24.032  23.359  1.00  0.00    -0.355 N 
ATOM      5  C   UNL A   1      32.762  23.606  23.824  1.00  0.00     0.230 C 
ATOM      6  O   UNL A   1      31.769  23.972  23.181  1.00  0.00    -0.274 OA
ATOM      7  H   UNL A   1      33.952  24.431  22.459  1.00  0.00     0.163 HD
BRANCH   5   8
ATOM      8  C   UNL A   1      32.584  22.737  25.076  1.00  0.00     0.139 C 
BRANCH   8   9
ATOM      9  C   UNL A   1      32.603  21.239  24.787  1.00  0.00    -0.033 A 
ATOM     10  C   UNL A   1      32.888  18.462  24.313  1.00  0.00    -0.048 A 
ATOM     11  C   UNL A   1      32.579  19.333  23.268  1.00  0.00     0.004 A 
ATOM     12  C   UNL A   1      32.983  18.974  25.610  1.00  0.00     0.004 A 
ATOM     13  C   UNL A   1      32.411  20.698  23.509  1.00  0.00     0.005 A 
ATOM     14  C   UNL A   1      32.863  20.347  25.840  1.00  0.00     0.005 A 
BRANCH  10  15
ATOM     15  C   UNL A   1      33.204  17.015  24.024  1.00  0.00     0.038 C 
BRANCH  15  16
ATOM     16  C   UNL A   1      33.618  16.245  25.297  1.00  0.00    -0.013 C 
ATOM     17  C   UNL A   1      32.818  14.950  25.475  1.00  0.00     0.008 C 
ATOM     18  C   UNL A   1      35.112  15.925  25.259  1.00  0.00     0.008 C 
ENDBRANCH  15  16
ENDBRANCH  10  15
ENDBRANCH   8   9
BRANCH   8  19
ATOM     19  C   UNL A   1      31.480  23.208  26.013  1.00  0.00     0.232 C 
ATOM     20  F   UNL A   1      30.326  22.539  25.748  1.00  0.00    -0.250 F 
ENDBRANCH   8  19
ENDBRANCH   5   8
ENDBRANCH   3   4
ENDBRANCH   2   3
ENDBRANCH   1   2
BRANCH   1  21
ATOM     21  C   UNL A   1      36.363  20.454  24.950  1.00  0.00     0.002 C 
BRANCH  21  22
ATOM     22  C   UNL A   1      37.630  19.596  24.912  1.00  0.00     0.021 C 
BRANCH  22  23
ATOM     23  C   UNL A   1      38.850  20.182  25.617  1.00  0.00     0.116 C 
BRANCH  23  24
ATOM     24  N   UNL A   1      39.955  19.245  25.702  1.00  0.00    -0.352 N 
ATOM     25  C   UNL A   1      41.262  19.459  26.061  1.00  0.00     0.251 C 
ATOM     26  H   UNL A   1      39.734  18.316  25.465  1.00  0.00     0.163 HD
ATOM     27  O   UNL A   1      42.090  18.565  25.929  1.00  0.00    -0.269 OA
BRANCH  25  28
ATOM     28  C   UNL A   1      41.685  20.777  26.585  1.00  0.00     0.039 A 
ATOM     29  C   UNL A   1      42.195  21.720  25.690  1.00  0.00     0.014 A 
ATOM     30  C   UNL A   1      41.597  21.082  27.947  1.00  0.00     0.014 A 
ATOM     31  C   UNL A   1      42.560  22.988  26.148  1.00  0.00     0.010 A 
ATOM     32  C   UNL A   1      41.894  22.368  28.392  1.00  0.00     0.010 A 
ATOM     33  C   UNL A   1      42.379  23.336  27.497  1.00  0.00    -0.014 A 
BRANCH  33  34
ATOM     34  C   UNL A   1      42.682  24.707  27.982  1.00  0.00     0.031 A 
ATOM     35  C   UNL A   1      44.085  25.082  28.380  1.00  0.00     0.074 A 
ATOM     36  C   UNL A   1      41.680  25.598  28.124  1.00  0.00     0.049 A 
ATOM     37  N   UNL A   1      44.526  26.211  28.877  1.00  0.00    -0.248 NA
ATOM     38  C   UNL A   1      45.124  24.052  28.221  1.00  0.00     0.031 C 
ATOM     39  C   UNL A   1      40.271  25.347  27.815  1.00  0.00     0.029 A 
ATOM     40  N   UNL A   1      41.692  26.895  28.576  1.00  0.00    -0.354 N 
ATOM     41  C   UNL A   1      45.881  26.017  29.111  1.00  0.00     0.074 A 
ATOM     42  C   UNL A   1      46.186  24.654  28.736  1.00  0.00     0.031 C 
ATOM     43  C   UNL A   1      39.558  26.457  28.069  1.00  0.00     0.029 A 
ATOM     44  C   UNL A   1      40.450  27.484  28.598  1.00  0.00     0.049 A 
ATOM     45  H   UNL A   1      42.513  27.359  28.858  1.00  0.00     0.167 HD
ATOM     46  C   UNL A   1      46.793  26.900  29.583  1.00  0.00     0.031 A 
ATOM     47  C   UNL A   1      40.067  28.707  29.013  1.00  0.00     0.031 A 
ATOM     48  C   UNL A   1      46.496  28.264  29.931  1.00  0.00     0.049 A 
ATOM     49  C   UNL A   1      41.105  29.662  29.535  1.00  0.00     0.074 A 
ATOM     50  C   UNL A   1      47.372  29.256  30.340  1.00  0.00     0.029 A 
ATOM     51  N   UNL A   1      45.230  28.825  29.920  1.00  0.00    -0.354 N 
ATOM     52  N   UNL A   1      42.399  29.491  29.660  1.00  0.00    -0.248 NA
ATOM     53  C   UNL A   1      40.629  30.986  29.965  1.00  0.00     0.031 C 
ATOM     54  C   UNL A   1      46.627  30.400  30.638  1.00  0.00     0.029 A 
ATOM     55  C   UNL A   1      45.298  30.140  30.349  1.00  0.00     0.049 A 
ATOM     56  H   UNL A   1      44.407  28.360  29.646  1.00  0.00     0.167 HD
ATOM     57  C   UNL A   1      42.893  30.694  30.149  1.00  0.00     0.074 A 
ATOM     58  C   UNL A   1      41.765  31.592  30.279  1.00  0.00     0.031 C 
ATOM     59  C   UNL A   1      44.169  31.025  30.465  1.00  0.00     0.031 A 
BRANCH  46  60
ATOM     60  C   UNL A   1      48.209  26.426  29.765  1.00  0.00    -0.014 A 
ATOM     61  C   UNL A   1      49.178  26.618  28.767  1.00  0.00     0.009 A 
ATOM     62  C   UNL A   1      48.598  25.860  30.989  1.00  0.00     0.009 A 
ATOM     63  C   UNL A   1      50.503  26.235  28.987  1.00  0.00     0.001 A 
ATOM     64  C   UNL A   1      49.928  25.505  31.216  1.00  0.00     0.001 A 
ATOM     65  C   UNL A   1      50.878  25.687  30.214  1.00  0.00     0.000 A 
ENDBRANCH  46  60
BRANCH  47  66
ATOM     66  C   UNL A   1      38.634  29.105  28.971  1.00  0.00    -0.014 A 
ATOM     67  C   UNL A   1      38.071  29.647  27.806  1.00  0.00     0.009 A 
ATOM     68  C   UNL A   1      37.831  28.990  30.119  1.00  0.00     0.009 A 
ATOM     69  C   UNL A   1      36.752  30.109  27.802  1.00  0.00     0.001 A 
ATOM     70  C   UNL A   1      36.502  29.418  30.101  1.00  0.00     0.001 A 
ATOM     71  C   UNL A   1      35.969  29.992  28.949  1.00  0.00     0.000 A 
ENDBRANCH  47  66
BRANCH  59  72
ATOM     72  C   UNL A   1      44.421  32.429  30.939  1.00  0.00    -0.014 A 
ATOM     73  C   UNL A   1      44.781  33.449  30.047  1.00  0.00     0.009 A 
ATOM     74  C   UNL A   1      44.253  32.741  32.298  1.00  0.00     0.009 A 
ATOM     75  C   UNL A   1      45.003  34.747  30.512  1.00  0.00     0.001 A 
ATOM     76  C   UNL A   1      44.442  34.045  32.754  1.00  0.00     0.001 A 
ATOM     77  C   UNL A   1      44.827  35.045  31.863  1.00  0.00     0.000 A 
ENDBRANCH  59  72
ENDBRANCH  33  34
ENDBRANCH  25  28
ENDBRANCH  23  24
ENDBRANCH  22  23
ENDBRANCH  21  22
ENDBRANCH   1  21
TORSDOF 17
ENDMDL
MODEL 2
REMARK VINA RESULT:     -10.2      4.840     10.060
REMARK SMILES CC(C)Cc1ccc([C@H](CF)C(=O)NCCCCCCNC(=O)c2ccc(-c3c4nc(c(-c5ccccc5)c5ccc([nH]5)c(-c5ccccc5)c5nc(c(-c6ccccc6)c6ccc3[nH]6)C=C5)C=C4)cc2)cc1
REMARK SMILES IDX 17 1 16 2 15 3 14 4 12 5 13 6 9 8 8 9 5 10 6 11 73 12 7 13
REMARK SMILES IDX 72 14 4 15 2 16 1 17 3 18 10 19 11 20 18 21 19 22 20 23
REMARK SMILES IDX 21 24 22 25 23 27 24 28 25 29 71 30 26 31 70 32 27 33 28 34
REMARK SMILES IDX 29 35 64 36 30 37 69 38 63 39 65 40 31 41 68 42 62 43 61 44
REMARK SMILES IDX 32 46 54 47 39 48 53 49 40 50 43 51 52 52 66 53 41 54 42 55
REMARK SMILES IDX 51 57 67 58 44 59 33 60 34 61 38 62 35 63 37 64 36 65 55 66
REMARK SMILES IDX 56 67 60 68 57 69 59 70 58 71 45 72 46 73 50 74 47 75 49 76
REMARK SMILES IDX 48 77
REMARK H PARENT 14 7 21 26 65 45 43 56
REMARK Flexibility Score: inf
ROOT
ATOM      1  C   UNL A   1      32.356  29.904  26.698  1.00  0.00     0.002 C 
ENDROOT
BRANCH   1   2
ATOM      2  C   UNL A   1      31.759  28.671  27.375  1.00  0.00     0.021 C 
BRANCH   2   3
ATOM      3  C   UNL A   1      32.305  27.329  26.906  1.00  0.00     0.116 C 
BRANCH   3   4
ATOM      4  N   UNL A   1      31.288  26.338  26.652  1.00  0.00    -0.355 N 
ATOM      5  C   UNL A   1      30.923  25.735  25.486  1.00  0.00     0.230 C 
ATOM      6  O   UNL A   1      30.176  24.753  25.589  1.00  0.00    -0.274 OA
ATOM      7  H   UNL A   1      30.778  26.054  27.445  1.00  0.00     0.163 HD
BRANCH   5   8
ATOM      8  C   UNL A   1      31.396  26.193  24.100  1.00  0.00     0.139 C 
BRANCH   8   9
ATOM      9  C   UNL A   1      30.602  27.369  23.542  1.00  0.00    -0.033 A 
ATOM     10  C   UNL A   1      29.041  29.394  22.323  1.00  0.00    -0.048 A 
ATOM     11  C   UNL A   1      30.433  29.488  22.346  1.00  0.00     0.004 A 
ATOM     12  C   UNL A   1      28.428  28.321  22.975  1.00  0.00     0.004 A 
ATOM     13  C   UNL A   1      31.199  28.502  22.971  1.00  0.00     0.005 A 
ATOM     14  C   UNL A   1      29.199  27.312  23.558  1.00  0.00     0.005 A 
BRANCH  10  15
ATOM     15  C   UNL A   1      28.229  30.386  21.528  1.00  0.00     0.038 C 
BRANCH  15  16
ATOM     16  C   UNL A   1      27.776  31.588  22.385  1.00  0.00    -0.013 C 
ATOM     17  C   UNL A   1      27.387  31.170  23.807  1.00  0.00     0.008 C 
ATOM     18  C   UNL A   1      28.881  32.643  22.441  1.00  0.00     0.008 C 
ENDBRANCH  15  16
ENDBRANCH  10  15
ENDBRANCH   8   9
BRANCH   8  19
ATOM     19  C   UNL A   1      31.656  25.056  23.120  1.00  0.00     0.232 C 
ATOM     20  F   UNL A   1      31.368  25.457  21.853  1.00  0.00    -0.250 F 
ENDBRANCH   8  19
ENDBRANCH   5   8
ENDBRANCH   3   4
ENDBRANCH   2   3
ENDBRANCH   1   2
BRANCH   1  21
ATOM     21  C   UNL A   1      31.365  30.821  25.975  1.00  0.00     0.002 C 
BRANCH  21  22
ATOM     22  C   UNL A   1      31.282  32.263  26.482  1.00  0.00     0.021 C 
BRANCH  22  23
ATOM     23  C   UNL A   1      32.534  32.797  27.172  1.00  0.00     0.116 C 
BRANCH  23  24
ATOM     24  N   UNL A   1      32.365  34.149  27.677  1.00  0.00    -0.352 N 
ATOM     25  C   UNL A   1      33.090  34.829  28.621  1.00  0.00     0.251 C 
ATOM     26  H   UNL A   1      31.616  34.651  27.282  1.00  0.00     0.163 HD
ATOM     27  O   UNL A   1      32.702  35.919  29.025  1.00  0.00    -0.269 OA
BRANCH  25  28
ATOM     28  C   UNL A   1      34.330  34.241  29.176  1.00  0.00     0.039 A 
ATOM     29  C   UNL A   1      34.247  33.499  30.357  1.00  0.00     0.014 A 
ATOM     30  C   UNL A   1      35.567  34.428  28.554  1.00  0.00     0.014 A 
ATOM     31  C   UNL A   1      35.392  32.895  30.881  1.00  0.00     0.010 A 
ATOM     32  C   UNL A   1      36.695  33.767  29.036  1.00  0.00     0.010 A 
ATOM     33  C   UNL A   1      36.620  32.993  30.205  1.00  0.00    -0.014 A 
BRANCH  33  34
ATOM     34  C   UNL A   1      37.827  32.285  30.703  1.00  0.00     0.031 A 
ATOM     35  C   UNL A   1      38.626  32.852  31.847  1.00  0.00     0.074 A 
ATOM     36  C   UNL A   1      38.242  31.162  30.083  1.00  0.00     0.049 A 
ATOM     37  N   UNL A   1      39.736  32.404  32.378  1.00  0.00    -0.248 NA
ATOM     38  C   UNL A   1      38.128  34.094  32.460  1.00  0.00     0.031 C 
ATOM     39  C   UNL A   1      37.582  30.532  28.937  1.00  0.00     0.029 A 
ATOM     40  N   UNL A   1      39.326  30.353  30.324  1.00  0.00    -0.354 N 
ATOM     41  C   UNL A   1      40.079  33.318  33.366  1.00  0.00     0.074 A 
ATOM     42  C   UNL A   1      39.082  34.365  33.339  1.00  0.00     0.031 C 
ATOM     43  C   UNL A   1      38.264  29.429  28.586  1.00  0.00     0.029 A 
ATOM     44  C   UNL A   1      39.430  29.295  29.453  1.00  0.00     0.049 A 
ATOM     45  H   UNL A   1      39.967  30.517  31.053  1.00  0.00     0.167 HD
ATOM     46  C   UNL A   1      41.123  33.281  34.227  1.00  0.00     0.031 A 
ATOM     47  C   UNL A   1      40.367  28.332  29.351  1.00  0.00     0.031 A 
ATOM     48  C   UNL A   1      42.101  32.226  34.272  1.00  0.00     0.049 A 
ATOM     49  C   UNL A   1      41.517  28.323  30.321  1.00  0.00     0.074 A 
ATOM     50  C   UNL A   1      43.147  32.062  35.163  1.00  0.00     0.029 A 
ATOM     51  N   UNL A   1      42.158  31.164  33.385  1.00  0.00    -0.354 N 
ATOM     52  N   UNL A   1      41.772  29.145  31.310  1.00  0.00    -0.248 NA
ATOM     53  C   UNL A   1      42.504  27.244  30.168  1.00  0.00     0.031 C 
ATOM     54  C   UNL A   1      43.877  30.935  34.778  1.00  0.00     0.029 A 
ATOM     55  C   UNL A   1      43.244  30.360  33.689  1.00  0.00     0.049 A 
ATOM     56  H   UNL A   1      41.522  31.003  32.652  1.00  0.00     0.167 HD
ATOM     57  C   UNL A   1      42.926  28.664  31.914  1.00  0.00     0.074 A 
ATOM     58  C   UNL A   1      43.310  27.467  31.195  1.00  0.00     0.031 C 
ATOM     59  C   UNL A   1      43.610  29.168  32.970  1.00  0.00     0.031 A 
BRANCH  46  60
ATOM     60  C   UNL A   1      41.281  34.420  35.198  1.00  0.00    -0.014 A 
ATOM     61  C   UNL A   1      42.031  35.560  34.871  1.00  0.00     0.009 A 
ATOM     62  C   UNL A   1      40.594  34.386  36.421  1.00  0.00     0.009 A 
ATOM     63  C   UNL A   1      42.104  36.635  35.759  1.00  0.00     0.001 A 
ATOM     64  C   UNL A   1      40.646  35.473  37.294  1.00  0.00     0.001 A 
ATOM     65  C   UNL A   1      41.405  36.595  36.965  1.00  0.00     0.000 A 
ENDBRANCH  46  60
BRANCH  47  66
ATOM     66  C   UNL A   1      40.278  27.301  28.282  1.00  0.00    -0.014 A 
ATOM     67  C   UNL A   1      39.610  26.088  28.508  1.00  0.00     0.009 A 
ATOM     68  C   UNL A   1      40.907  27.505  27.043  1.00  0.00     0.009 A 
ATOM     69  C   UNL A   1      39.613  25.084  27.536  1.00  0.00     0.001 A 
ATOM     70  C   UNL A   1      40.878  26.514  26.060  1.00  0.00     0.001 A 
ATOM     71  C   UNL A   1      40.245  25.299  26.313  1.00  0.00     0.000 A 
ENDBRANCH  47  66
BRANCH  59  72
ATOM     72  C   UNL A   1      44.817  28.405  33.440  1.00  0.00    -0.014 A 
ATOM     73  C   UNL A   1      44.708  27.370  34.380  1.00  0.00     0.009 A 
ATOM     74  C   UNL A   1      46.077  28.702  32.898  1.00  0.00     0.009 A 
ATOM     75  C   UNL A   1      45.843  26.672  34.796  1.00  0.00     0.001 A 
ATOM     76  C   UNL A   1      47.205  27.980  33.289  1.00  0.00     0.001 A 
ATOM     77  C   UNL A   1      47.089  26.973  34.245  1.00  0.00     0.000 A 
ENDBRANCH  59  72
ENDBRANCH  33  34
ENDBRANCH  25  28
ENDBRANCH  23  24
ENDBRANCH  22  23
ENDBRANCH  21  22
ENDBRANCH   1  21
TORSDOF 17
ENDMDL
MODEL 3
REMARK VINA RESULT:     -10.2      1.101      6.057
REMARK SMILES CC(C)Cc1ccc([C@H](CF)C(=O)NCCCCCCNC(=O)c2ccc(-c3c4nc(c(-c5ccccc5)c5ccc([nH]5)c(-c5ccccc5)c5nc(c(-c6ccccc6)c6ccc3[nH]6)C=C5)C=C4)cc2)cc1
REMARK SMILES IDX 17 1 16 2 15 3 14 4 12 5 13 6 9 8 8 9 5 10 6 11 73 12 7 13
REMARK SMILES IDX 72 14 4 15 2 16 1 17 3 18 10 19 11 20 18 21 19 22 20 23
REMARK SMILES IDX 21 24 22 25 23 27 24 28 25 29 71 30 26 31 70 32 27 33 28 34
REMARK SMILES IDX 29 35 64 36 30 37 69 38 63 39 65 40 31 41 68 42 62 43 61 44
REMARK SMILES IDX 32 46 54 47 39 48 53 49 40 50 43 51 52 52 66 53 41 54 42 55
REMARK SMILES IDX 51 57 67 58 44 59 33 60 34 61 38 62 35 63 37 64 36 65 55 66
REMARK SMILES IDX 56 67 60 68 57 69 59 70 58 71 45 72 46 73 50 74 47 75 49 76
REMARK SMILES IDX 48 77
REMARK H PARENT 14 7 21 26 65 45 43 56
REMARK Flexibility Score: inf
ROOT
ATOM      1  C   UNL A   1      36.696  21.410  25.056  1.00  0.00     0.002 C 
ENDROOT
BRANCH   1   2
ATOM      2  C   UNL A   1      36.238  22.312  23.911  1.00  0.00     0.021 C 
BRANCH   2   3
ATOM      3  C   UNL A   1      35.396  23.516  24.313  1.00  0.00     0.116 C 
BRANCH   3   4
ATOM      4  N   UNL A   1      34.288  23.779  23.428  1.00  0.00    -0.355 N 
ATOM      5  C   UNL A   1      32.955  23.554  23.601  1.00  0.00     0.230 C 
ATOM      6  O   UNL A   1      32.200  24.086  22.777  1.00  0.00    -0.274 OA
ATOM      7  H   UNL A   1      34.533  24.183  22.564  1.00  0.00     0.163 HD
BRANCH   5   8
ATOM      8  C   UNL A   1      32.369  22.715  24.745  1.00  0.00     0.139 C 
BRANCH   8   9
ATOM      9  C   UNL A   1      32.488  21.212  24.523  1.00  0.00    -0.033 A 
ATOM     10  C   UNL A   1      32.963  18.444  24.154  1.00  0.00    -0.048 A 
ATOM     11  C   UNL A   1      32.520  19.236  23.094  1.00  0.00     0.004 A 
ATOM     12  C   UNL A   1      33.098  19.025  25.418  1.00  0.00     0.004 A 
ATOM     13  C   UNL A   1      32.261  20.595  23.285  1.00  0.00     0.005 A 
ATOM     14  C   UNL A   1      32.884  20.395  25.595  1.00  0.00     0.005 A 
BRANCH  10  15
ATOM     15  C   UNL A   1      33.374  17.013  23.910  1.00  0.00     0.038 C 
BRANCH  15  16
ATOM     16  C   UNL A   1      33.695  16.267  25.223  1.00  0.00    -0.013 C 
ATOM     17  C   UNL A   1      32.822  15.021  25.410  1.00  0.00     0.008 C 
ATOM     18  C   UNL A   1      35.171  15.872  25.260  1.00  0.00     0.008 C 
ENDBRANCH  15  16
ENDBRANCH  10  15
ENDBRANCH   8   9
BRANCH   8  19
ATOM     19  C   UNL A   1      31.012  23.197  25.243  1.00  0.00     0.232 C 
ATOM     20  F   UNL A   1      31.129  24.440  25.784  1.00  0.00    -0.250 F 
ENDBRANCH   8  19
ENDBRANCH   5   8
ENDBRANCH   3   4
ENDBRANCH   2   3
ENDBRANCH   1   2
BRANCH   1  21
ATOM     21  C   UNL A   1      36.548  19.903  24.826  1.00  0.00     0.002 C 
BRANCH  21  22
ATOM     22  C   UNL A   1      37.814  19.062  25.010  1.00  0.00     0.021 C 
BRANCH  22  23
ATOM     23  C   UNL A   1      38.982  19.763  25.697  1.00  0.00     0.116 C 
BRANCH  23  24
ATOM     24  N   UNL A   1      40.158  18.917  25.812  1.00  0.00    -0.352 N 
ATOM     25  C   UNL A   1      41.459  19.256  26.086  1.00  0.00     0.251 C 
ATOM     26  H   UNL A   1      39.997  17.957  25.670  1.00  0.00     0.163 HD
ATOM     27  O   UNL A   1      42.344  18.414  25.994  1.00  0.00    -0.269 OA
BRANCH  25  28
ATOM     28  C   UNL A   1      41.804  20.643  26.469  1.00  0.00     0.039 A 
ATOM     29  C   UNL A   1      41.854  20.969  27.826  1.00  0.00     0.014 A 
ATOM     30  C   UNL A   1      42.060  21.622  25.505  1.00  0.00     0.014 A 
ATOM     31  C   UNL A   1      42.220  22.259  28.219  1.00  0.00     0.010 A 
ATOM     32  C   UNL A   1      42.493  22.887  25.896  1.00  0.00     0.010 A 
ATOM     33  C   UNL A   1      42.578  23.220  27.258  1.00  0.00    -0.014 A 
BRANCH  33  34
ATOM     34  C   UNL A   1      43.052  24.568  27.663  1.00  0.00     0.031 A 
ATOM     35  C   UNL A   1      42.064  25.641  28.039  1.00  0.00     0.074 A 
ATOM     36  C   UNL A   1      44.370  24.847  27.631  1.00  0.00     0.049 A 
ATOM     37  N   UNL A   1      42.290  26.890  28.364  1.00  0.00    -0.248 NA
ATOM     38  C   UNL A   1      40.639  25.274  28.029  1.00  0.00     0.031 C 
ATOM     39  C   UNL A   1      45.427  23.908  27.244  1.00  0.00     0.029 A 
ATOM     40  N   UNL A   1      45.049  26.005  27.921  1.00  0.00    -0.354 N 
ATOM     41  C   UNL A   1      41.040  27.458  28.571  1.00  0.00     0.074 A 
ATOM     42  C   UNL A   1      40.057  26.433  28.301  1.00  0.00     0.031 C 
ATOM     43  C   UNL A   1      46.618  24.522  27.337  1.00  0.00     0.029 A 
ATOM     44  C   UNL A   1      46.409  25.906  27.748  1.00  0.00     0.049 A 
ATOM     45  H   UNL A   1      44.602  26.828  28.224  1.00  0.00     0.167 HD
ATOM     46  C   UNL A   1      40.738  28.719  28.963  1.00  0.00     0.031 A 
ATOM     47  C   UNL A   1      47.380  26.830  27.888  1.00  0.00     0.031 A 
ATOM     48  C   UNL A   1      41.715  29.733  29.257  1.00  0.00     0.049 A 
ATOM     49  C   UNL A   1      47.009  28.222  28.322  1.00  0.00     0.074 A 
ATOM     50  C   UNL A   1      41.506  31.013  29.740  1.00  0.00     0.029 A 
ATOM     51  N   UNL A   1      43.082  29.586  29.088  1.00  0.00    -0.354 N 
ATOM     52  N   UNL A   1      45.827  28.714  28.604  1.00  0.00    -0.248 NA
ATOM     53  C   UNL A   1      48.111  29.185  28.467  1.00  0.00     0.031 C 
ATOM     54  C   UNL A   1      42.741  31.664  29.803  1.00  0.00     0.029 A 
ATOM     55  C   UNL A   1      43.725  30.766  29.424  1.00  0.00     0.049 A 
ATOM     56  H   UNL A   1      43.529  28.766  28.778  1.00  0.00     0.167 HD
ATOM     57  C   UNL A   1      46.048  30.030  28.991  1.00  0.00     0.074 A 
ATOM     58  C   UNL A   1      47.477  30.254  28.928  1.00  0.00     0.031 C 
ATOM     59  C   UNL A   1      45.148  30.971  29.364  1.00  0.00     0.031 A 
BRANCH  46  60
ATOM     60  C   UNL A   1      39.286  29.091  29.095  1.00  0.00    -0.014 A 
ATOM     61  C   UNL A   1      38.562  29.603  28.008  1.00  0.00     0.009 A 
ATOM     62  C   UNL A   1      38.614  28.841  30.302  1.00  0.00     0.009 A 
ATOM     63  C   UNL A   1      37.197  29.873  28.133  1.00  0.00     0.001 A 
ATOM     64  C   UNL A   1      37.245  29.086  30.415  1.00  0.00     0.001 A 
ATOM     65  C   UNL A   1      36.539  29.606  29.333  1.00  0.00     0.000 A 
ENDBRANCH  46  60
BRANCH  47  66
ATOM     66  C   UNL A   1      48.799  26.486  27.602  1.00  0.00    -0.014 A 
ATOM     67  C   UNL A   1      49.310  26.568  26.298  1.00  0.00     0.009 A 
ATOM     68  C   UNL A   1      49.638  26.022  28.629  1.00  0.00     0.009 A 
ATOM     69  C   UNL A   1      50.613  26.151  26.018  1.00  0.00     0.001 A 
ATOM     70  C   UNL A   1      50.953  25.640  28.353  1.00  0.00     0.001 A 
ATOM     71  C   UNL A   1      51.433  25.689  27.046  1.00  0.00     0.000 A 
ENDBRANCH  47  66
BRANCH  59  72
ATOM     72  C   UNL A   1      45.682  32.315  29.776  1.00  0.00    -0.014 A 
ATOM     73  C   UNL A   1      46.083  32.570  31.095  1.00  0.00     0.009 A 
ATOM     74  C   UNL A   1      45.825  33.327  28.813  1.00  0.00     0.009 A 
ATOM     75  C   UNL A   1      46.583  33.824  31.450  1.00  0.00     0.001 A 
ATOM     76  C   UNL A   1      46.356  34.568  29.163  1.00  0.00     0.001 A 
ATOM     77  C   UNL A   1      46.725  34.820  30.484  1.00  0.00     0.000 A 
ENDBRANCH  59  72
ENDBRANCH  33  34
ENDBRANCH  25  28
ENDBRANCH  23  24
ENDBRANCH  22  23
ENDBRANCH  21  22
ENDBRANCH   1  21
TORSDOF 17
ENDMDL
