MODEL 1
REMARK VINA RESULT:     -10.4      0.000      0.000
REMARK SMILES COc1cc(NS(=O)(=O)c2cc(C)c(C(=O)NCCCCCCNC(=O)c3ccc(-c4c5nc(c(-c6ccccc6)c6ccc([nH]6)c(-c6ccccc6)c6nc(c(-c7ccccc7)c7ccc4[nH]7)C=C6)C=C5)cc3)s2)cc(OC)c1
REMARK SMILES IDX 19 1 18 2 17 3 15 4 16 5 14 7 10 8 11 9 75 10 12 11 13 12
REMARK SMILES IDX 7 13 8 14 9 15 6 16 5 18 3 19 4 20 80 21 77 22 76 23 2 24
REMARK SMILES IDX 1 25 78 26 79 27 20 28 21 29 22 30 23 31 24 32 25 33 26 35
REMARK SMILES IDX 27 36 28 37 74 38 29 39 73 40 30 41 31 42 32 43 67 44 33 45
REMARK SMILES IDX 72 46 66 47 68 48 34 49 71 50 65 51 64 52 35 54 57 55 42 56
REMARK SMILES IDX 56 57 43 58 46 59 55 60 69 61 44 62 45 63 54 65 70 66 47 67
REMARK SMILES IDX 36 68 37 69 41 70 38 71 40 72 39 73 58 74 59 75 63 76 60 77
REMARK SMILES IDX 62 78 61 79 48 80 49 81 53 82 50 83 52 84 51 85
REMARK H PARENT 17 6 6 17 24 34 68 53 46 64
REMARK Flexibility Score: inf
ROOT
ATOM      1  C   UNL A   1      37.404  23.858  26.258  1.00  0.00     0.021 C 
ENDROOT
BRANCH   1   2
ATOM      2  C   UNL A   1      36.594  23.449  25.023  1.00  0.00     0.116 C 
BRANCH   2   3
ATOM      3  N   UNL A   1      36.346  22.029  25.026  1.00  0.00    -0.351 N 
ATOM      4  C   UNL A   1      35.252  21.251  24.761  1.00  0.00     0.261 C 
ATOM      5  O   UNL A   1      35.510  20.041  24.797  1.00  0.00    -0.268 OA
ATOM      6  H   UNL A   1      37.139  21.502  25.275  1.00  0.00     0.163 HD
BRANCH   4   7
ATOM      7  C   UNL A   1      33.898  21.750  24.488  1.00  0.00     0.096 A 
ATOM      8  C   UNL A   1      31.684  22.553  25.259  1.00  0.00     0.141 A 
ATOM      9  C   UNL A   1      31.951  22.958  23.973  1.00  0.00     0.038 A 
ATOM     10  S   UNL A   1      32.717  21.281  25.701  1.00  0.00    -0.116 S 
ATOM     11  C   UNL A   1      33.295  22.615  23.567  1.00  0.00    -0.026 A 
ATOM     12  C   UNL A   1      33.885  23.332  22.401  1.00  0.00     0.046 C 
BRANCH   8  13
ATOM     13  S   UNL A   1      30.590  23.205  26.492  1.00  0.00     0.271 S 
ATOM     14  O   UNL A   1      31.411  23.515  27.626  1.00  0.00    -0.200 OA
ATOM     15  O   UNL A   1      29.528  22.210  26.588  1.00  0.00    -0.200 OA
BRANCH  13  16
ATOM     16  N   UNL A   1      29.881  24.647  25.967  1.00  0.00    -0.279 N 
ATOM     17  H   UNL A   1      28.899  24.709  25.966  1.00  0.00     0.180 HD
BRANCH  16  18
ATOM     18  C   UNL A   1      30.635  25.792  25.520  1.00  0.00     0.056 A 
ATOM     19  C   UNL A   1      31.869  27.824  25.995  1.00  0.00     0.124 A 
ATOM     20  C   UNL A   1      31.445  26.549  26.361  1.00  0.00     0.073 A 
ATOM     21  C   UNL A   1      31.588  28.336  24.738  1.00  0.00     0.093 A 
ATOM     22  C   UNL A   1      30.822  27.579  23.857  1.00  0.00     0.124 A 
ATOM     23  C   UNL A   1      30.321  26.330  24.266  1.00  0.00     0.073 A 
BRANCH  19  24
ATOM     24  O   UNL A   1      32.564  28.556  26.924  1.00  0.00    -0.497 OA
ATOM     25  C   UNL A   1      32.152  29.927  26.877  1.00  0.00     0.278 C 
ENDBRANCH  19  24
BRANCH  22  26
ATOM     26  O   UNL A   1      30.463  27.959  22.592  1.00  0.00    -0.497 OA
ATOM     27  C   UNL A   1      29.461  28.965  22.491  1.00  0.00     0.278 C 
ENDBRANCH  22  26
ENDBRANCH  16  18
ENDBRANCH  13  16
ENDBRANCH   8  13
ENDBRANCH   4   7
ENDBRANCH   2   3
ENDBRANCH   1   2
BRANCH   1  28
ATOM     28  C   UNL A   1      38.918  23.677  26.104  1.00  0.00     0.002 C 
BRANCH  28  29
ATOM     29  C   UNL A   1      39.509  22.488  26.872  1.00  0.00     0.002 C 
BRANCH  29  30
ATOM     30  C   UNL A   1      39.705  21.204  26.057  1.00  0.00     0.021 C 
BRANCH  30  31
ATOM     31  C   UNL A   1      40.415  20.069  26.793  1.00  0.00     0.116 C 
BRANCH  31  32
ATOM     32  N   UNL A   1      41.632  19.661  26.111  1.00  0.00    -0.352 N 
ATOM     33  C   UNL A   1      42.732  20.393  25.750  1.00  0.00     0.251 C 
ATOM     34  H   UNL A   1      41.671  18.707  25.871  1.00  0.00     0.163 HD
ATOM     35  O   UNL A   1      43.559  19.901  24.987  1.00  0.00    -0.269 OA
BRANCH  33  36
ATOM     36  C   UNL A   1      42.945  21.765  26.263  1.00  0.00     0.039 A 
ATOM     37  C   UNL A   1      43.033  21.952  27.647  1.00  0.00     0.014 A 
ATOM     38  C   UNL A   1      42.963  22.875  25.410  1.00  0.00     0.014 A 
ATOM     39  C   UNL A   1      43.159  23.240  28.174  1.00  0.00     0.010 A 
ATOM     40  C   UNL A   1      43.143  24.157  25.933  1.00  0.00     0.010 A 
ATOM     41  C   UNL A   1      43.220  24.352  27.320  1.00  0.00    -0.014 A 
BRANCH  41  42
ATOM     42  C   UNL A   1      43.318  25.725  27.875  1.00  0.00     0.031 A 
ATOM     43  C   UNL A   1      44.664  26.331  28.165  1.00  0.00     0.074 A 
ATOM     44  C   UNL A   1      42.197  26.422  28.141  1.00  0.00     0.049 A 
ATOM     45  N   UNL A   1      44.951  27.515  28.648  1.00  0.00    -0.248 NA
ATOM     46  C   UNL A   1      45.842  25.491  27.895  1.00  0.00     0.031 C 
ATOM     47  C   UNL A   1      40.830  25.939  27.940  1.00  0.00     0.029 A 
ATOM     48  N   UNL A   1      42.035  27.692  28.637  1.00  0.00    -0.354 N 
ATOM     49  C   UNL A   1      46.335  27.553  28.758  1.00  0.00     0.074 A 
ATOM     50  C   UNL A   1      46.829  26.262  28.326  1.00  0.00     0.031 C 
ATOM     51  C   UNL A   1      39.968  26.911  28.285  1.00  0.00     0.029 A 
ATOM     52  C   UNL A   1      40.721  28.073  28.747  1.00  0.00     0.049 A 
ATOM     53  H   UNL A   1      42.788  28.273  28.888  1.00  0.00     0.167 HD
ATOM     54  C   UNL A   1      47.128  28.573  29.164  1.00  0.00     0.031 A 
ATOM     55  C   UNL A   1      40.182  29.233  29.165  1.00  0.00     0.031 A 
ATOM     56  C   UNL A   1      46.647  29.864  29.574  1.00  0.00     0.049 A 
ATOM     57  C   UNL A   1      41.082  30.362  29.580  1.00  0.00     0.074 A 
ATOM     58  C   UNL A   1      47.376  30.978  29.955  1.00  0.00     0.029 A 
ATOM     59  N   UNL A   1      45.308  30.217  29.647  1.00  0.00    -0.354 N 
ATOM     60  N   UNL A   1      42.391  30.399  29.624  1.00  0.00    -0.248 NA
ATOM     61  C   UNL A   1      40.427  31.614  29.985  1.00  0.00     0.031 C 
ATOM     62  C   UNL A   1      46.476  31.997  30.287  1.00  0.00     0.029 A 
ATOM     63  C   UNL A   1      45.190  31.528  30.077  1.00  0.00     0.049 A 
ATOM     64  H   UNL A   1      44.555  29.624  29.427  1.00  0.00     0.167 HD
ATOM     65  C   UNL A   1      42.717  31.683  30.041  1.00  0.00     0.074 A 
ATOM     66  C   UNL A   1      41.471  32.397  30.221  1.00  0.00     0.031 C 
ATOM     67  C   UNL A   1      43.942  32.223  30.253  1.00  0.00     0.031 A 
BRANCH  54  68
ATOM     68  C   UNL A   1      48.608  28.322  29.189  1.00  0.00    -0.014 A 
ATOM     69  C   UNL A   1      49.406  28.577  28.063  1.00  0.00     0.009 A 
ATOM     70  C   UNL A   1      49.217  27.843  30.360  1.00  0.00     0.009 A 
ATOM     71  C   UNL A   1      50.778  28.324  28.096  1.00  0.00     0.001 A 
ATOM     72  C   UNL A   1      50.593  27.613  30.397  1.00  0.00     0.001 A 
ATOM     73  C   UNL A   1      51.371  27.844  29.264  1.00  0.00     0.000 A 
ENDBRANCH  54  68
BRANCH  55  74
ATOM     74  C   UNL A   1      38.708  29.403  29.173  1.00  0.00    -0.014 A 
ATOM     75  C   UNL A   1      38.034  29.795  28.006  1.00  0.00     0.009 A 
ATOM     76  C   UNL A   1      37.969  29.175  30.343  1.00  0.00     0.009 A 
ATOM     77  C   UNL A   1      36.650  29.976  28.017  1.00  0.00     0.001 A 
ATOM     78  C   UNL A   1      36.583  29.336  30.345  1.00  0.00     0.001 A 
ATOM     79  C   UNL A   1      35.925  29.743  29.185  1.00  0.00     0.000 A 
ENDBRANCH  55  74
BRANCH  67  80
ATOM     80  C   UNL A   1      43.987  33.661  30.678  1.00  0.00    -0.014 A 
ATOM     81  C   UNL A   1      44.038  34.695  29.730  1.00  0.00     0.009 A 
ATOM     82  C   UNL A   1      43.958  33.984  32.042  1.00  0.00     0.009 A 
ATOM     83  C   UNL A   1      44.092  36.027  30.145  1.00  0.00     0.001 A 
ATOM     84  C   UNL A   1      43.990  35.317  32.453  1.00  0.00     0.001 A 
ATOM     85  C   UNL A   1      44.065  36.337  31.505  1.00  0.00     0.000 A 
ENDBRANCH  67  80
ENDBRANCH  41  42
ENDBRANCH  33  36
ENDBRANCH  31  32
ENDBRANCH  30  31
ENDBRANCH  29  30
ENDBRANCH  28  29
ENDBRANCH   1  28
TORSDOF 18
ENDMDL
MODEL 2
REMARK VINA RESULT:     -10.2      0.743      5.784
REMARK SMILES COc1cc(NS(=O)(=O)c2cc(C)c(C(=O)NCCCCCCNC(=O)c3ccc(-c4c5nc(c(-c6ccccc6)c6ccc([nH]6)c(-c6ccccc6)c6nc(c(-c7ccccc7)c7ccc4[nH]7)C=C6)C=C5)cc3)s2)cc(OC)c1
REMARK SMILES IDX 19 1 18 2 17 3 15 4 16 5 14 7 10 8 11 9 75 10 12 11 13 12
REMARK SMILES IDX 7 13 8 14 9 15 6 16 5 18 3 19 4 20 80 21 77 22 76 23 2 24
REMARK SMILES IDX 1 25 78 26 79 27 20 28 21 29 22 30 23 31 24 32 25 33 26 35
REMARK SMILES IDX 27 36 28 37 74 38 29 39 73 40 30 41 31 42 32 43 67 44 33 45
REMARK SMILES IDX 72 46 66 47 68 48 34 49 71 50 65 51 64 52 35 54 57 55 42 56
REMARK SMILES IDX 56 57 43 58 46 59 55 60 69 61 44 62 45 63 54 65 70 66 47 67
REMARK SMILES IDX 36 68 37 69 41 70 38 71 40 72 39 73 58 74 59 75 63 76 60 77
REMARK SMILES IDX 62 78 61 79 48 80 49 81 53 82 50 83 52 84 51 85
REMARK H PARENT 17 6 6 17 24 34 68 53 46 64
REMARK Flexibility Score: inf
ROOT
ATOM      1  C   UNL A   1      37.444  23.998  26.314  1.00  0.00     0.021 C 
ENDROOT
BRANCH   1   2
ATOM      2  C   UNL A   1      36.557  23.600  25.129  1.00  0.00     0.116 C 
BRANCH   2   3
ATOM      3  N   UNL A   1      36.377  22.170  25.089  1.00  0.00    -0.351 N 
ATOM      4  C   UNL A   1      35.323  21.350  24.791  1.00  0.00     0.261 C 
ATOM      5  O   UNL A   1      35.637  20.152  24.795  1.00  0.00    -0.268 OA
ATOM      6  H   UNL A   1      37.192  21.674  25.330  1.00  0.00     0.163 HD
BRANCH   4   7
ATOM      7  C   UNL A   1      33.950  21.792  24.519  1.00  0.00     0.096 A 
ATOM      8  C   UNL A   1      31.707  22.512  25.292  1.00  0.00     0.141 A 
ATOM      9  C   UNL A   1      31.954  22.917  24.002  1.00  0.00     0.038 A 
ATOM     10  S   UNL A   1      32.792  21.286  25.740  1.00  0.00    -0.116 S 
ATOM     11  C   UNL A   1      33.309  22.625  23.594  1.00  0.00    -0.026 A 
ATOM     12  C   UNL A   1      33.866  23.357  22.420  1.00  0.00     0.046 C 
BRANCH   8  13
ATOM     13  S   UNL A   1      30.593  23.129  26.525  1.00  0.00     0.271 S 
ATOM     14  O   UNL A   1      31.405  23.493  27.648  1.00  0.00    -0.200 OA
ATOM     15  O   UNL A   1      29.579  22.087  26.642  1.00  0.00    -0.200 OA
BRANCH  13  16
ATOM     16  N   UNL A   1      29.813  24.529  25.985  1.00  0.00    -0.279 N 
ATOM     17  H   UNL A   1      28.831  24.566  26.044  1.00  0.00     0.180 HD
BRANCH  16  18
ATOM     18  C   UNL A   1      30.505  25.671  25.443  1.00  0.00     0.056 A 
ATOM     19  C   UNL A   1      31.838  27.674  25.750  1.00  0.00     0.124 A 
ATOM     20  C   UNL A   1      31.455  26.397  26.156  1.00  0.00     0.073 A 
ATOM     21  C   UNL A   1      31.367  28.217  24.564  1.00  0.00     0.093 A 
ATOM     22  C   UNL A   1      30.455  27.490  23.806  1.00  0.00     0.124 A 
ATOM     23  C   UNL A   1      30.004  26.241  24.266  1.00  0.00     0.073 A 
BRANCH  19  24
ATOM     24  O   UNL A   1      32.687  28.375  26.567  1.00  0.00    -0.497 OA
ATOM     25  C   UNL A   1      32.861  29.706  26.069  1.00  0.00     0.278 C 
ENDBRANCH  19  24
BRANCH  22  26
ATOM     26  O   UNL A   1      29.903  27.903  22.622  1.00  0.00    -0.497 OA
ATOM     27  C   UNL A   1      28.839  28.844  22.711  1.00  0.00     0.278 C 
ENDBRANCH  22  26
ENDBRANCH  16  18
ENDBRANCH  13  16
ENDBRANCH   8  13
ENDBRANCH   4   7
ENDBRANCH   2   3
ENDBRANCH   1   2
BRANCH   1  28
ATOM     28  C   UNL A   1      38.945  23.817  26.063  1.00  0.00     0.002 C 
BRANCH  28  29
ATOM     29  C   UNL A   1      39.598  22.672  26.847  1.00  0.00     0.002 C 
BRANCH  29  30
ATOM     30  C   UNL A   1      39.815  21.372  26.064  1.00  0.00     0.021 C 
BRANCH  30  31
ATOM     31  C   UNL A   1      40.513  20.255  26.838  1.00  0.00     0.116 C 
BRANCH  31  32
ATOM     32  N   UNL A   1      41.656  19.728  26.113  1.00  0.00    -0.352 N 
ATOM     33  C   UNL A   1      42.779  20.362  25.651  1.00  0.00     0.251 C 
ATOM     34  H   UNL A   1      41.618  18.762  25.925  1.00  0.00     0.163 HD
ATOM     35  O   UNL A   1      43.525  19.775  24.871  1.00  0.00    -0.269 OA
BRANCH  33  36
ATOM     36  C   UNL A   1      43.113  21.741  26.073  1.00  0.00     0.039 A 
ATOM     37  C   UNL A   1      43.298  21.992  27.437  1.00  0.00     0.014 A 
ATOM     38  C   UNL A   1      43.151  22.801  25.160  1.00  0.00     0.014 A 
ATOM     39  C   UNL A   1      43.541  23.294  27.884  1.00  0.00     0.010 A 
ATOM     40  C   UNL A   1      43.446  24.093  25.600  1.00  0.00     0.010 A 
ATOM     41  C   UNL A   1      43.622  24.354  26.967  1.00  0.00    -0.014 A 
BRANCH  41  42
ATOM     42  C   UNL A   1      43.844  25.744  27.438  1.00  0.00     0.031 A 
ATOM     43  C   UNL A   1      42.680  26.589  27.879  1.00  0.00     0.074 A 
ATOM     44  C   UNL A   1      45.088  26.256  27.453  1.00  0.00     0.049 A 
ATOM     45  N   UNL A   1      42.675  27.821  28.323  1.00  0.00    -0.248 NA
ATOM     46  C   UNL A   1      41.344  25.978  27.789  1.00  0.00     0.031 C 
ATOM     47  C   UNL A   1      46.299  25.557  27.020  1.00  0.00     0.029 A 
ATOM     48  N   UNL A   1      45.539  27.490  27.852  1.00  0.00    -0.354 N 
ATOM     49  C   UNL A   1      41.341  28.137  28.547  1.00  0.00     0.074 A 
ATOM     50  C   UNL A   1      40.561  26.982  28.154  1.00  0.00     0.031 C 
ATOM     51  C   UNL A   1      47.359  26.363  27.201  1.00  0.00     0.029 A 
ATOM     52  C   UNL A   1      46.899  27.639  27.743  1.00  0.00     0.049 A 
ATOM     53  H   UNL A   1      44.943  28.200  28.184  1.00  0.00     0.167 HD
ATOM     54  C   UNL A   1      40.809  29.278  29.048  1.00  0.00     0.031 A 
ATOM     55  C   UNL A   1      47.690  28.682  28.055  1.00  0.00     0.031 A 
ATOM     56  C   UNL A   1      41.577  30.421  29.461  1.00  0.00     0.049 A 
ATOM     57  C   UNL A   1      47.081  29.924  28.641  1.00  0.00     0.074 A 
ATOM     58  C   UNL A   1      41.132  31.603  30.027  1.00  0.00     0.029 A 
ATOM     59  N   UNL A   1      42.956  30.520  29.357  1.00  0.00    -0.354 N 
ATOM     60  N   UNL A   1      45.823  30.185  28.896  1.00  0.00    -0.248 NA
ATOM     61  C   UNL A   1      48.008  31.009  28.996  1.00  0.00     0.031 C 
ATOM     62  C   UNL A   1      42.241  32.430  30.240  1.00  0.00     0.029 A 
ATOM     63  C   UNL A   1      43.377  31.748  29.839  1.00  0.00     0.049 A 
ATOM     64  H   UNL A   1      43.547  29.823  28.994  1.00  0.00     0.167 HD
ATOM     65  C   UNL A   1      45.808  31.452  29.463  1.00  0.00     0.074 A 
ATOM     66  C   UNL A   1      47.183  31.901  29.526  1.00  0.00     0.031 C 
ATOM     67  C   UNL A   1      44.749  32.179  29.894  1.00  0.00     0.031 A 
BRANCH  54  68
ATOM     68  C   UNL A   1      39.314  29.340  29.172  1.00  0.00    -0.014 A 
ATOM     69  C   UNL A   1      38.668  28.967  30.361  1.00  0.00     0.009 A 
ATOM     70  C   UNL A   1      38.542  29.797  28.092  1.00  0.00     0.009 A 
ATOM     71  C   UNL A   1      37.277  29.015  30.455  1.00  0.00     0.001 A 
ATOM     72  C   UNL A   1      37.151  29.867  28.197  1.00  0.00     0.001 A 
ATOM     73  C   UNL A   1      36.519  29.467  29.374  1.00  0.00     0.000 A 
ENDBRANCH  54  68
BRANCH  55  74
ATOM     74  C   UNL A   1      49.157  28.583  27.856  1.00  0.00    -0.014 A 
ATOM     75  C   UNL A   1      49.980  28.110  28.890  1.00  0.00     0.009 A 
ATOM     76  C   UNL A   1      49.740  28.959  26.638  1.00  0.00     0.009 A 
ATOM     77  C   UNL A   1      51.363  28.035  28.713  1.00  0.00     0.001 A 
ATOM     78  C   UNL A   1      51.121  28.864  26.457  1.00  0.00     0.001 A 
ATOM     79  C   UNL A   1      51.931  28.409  27.496  1.00  0.00     0.000 A 
ENDBRANCH  55  74
BRANCH  67  80
ATOM     80  C   UNL A   1      45.044  33.522  30.495  1.00  0.00    -0.014 A 
ATOM     81  C   UNL A   1      45.294  33.662  31.868  1.00  0.00     0.009 A 
ATOM     82  C   UNL A   1      45.092  34.656  29.671  1.00  0.00     0.009 A 
ATOM     83  C   UNL A   1      45.556  34.922  32.410  1.00  0.00     0.001 A 
ATOM     84  C   UNL A   1      45.375  35.911  30.213  1.00  0.00     0.001 A 
ATOM     85  C   UNL A   1      45.598  36.044  31.583  1.00  0.00     0.000 A 
ENDBRANCH  67  80
ENDBRANCH  41  42
ENDBRANCH  33  36
ENDBRANCH  31  32
ENDBRANCH  30  31
ENDBRANCH  29  30
ENDBRANCH  28  29
ENDBRANCH   1  28
TORSDOF 18
ENDMDL
MODEL 3
REMARK VINA RESULT:     -10.0      1.890      6.427
REMARK SMILES COc1cc(NS(=O)(=O)c2cc(C)c(C(=O)NCCCCCCNC(=O)c3ccc(-c4c5nc(c(-c6ccccc6)c6ccc([nH]6)c(-c6ccccc6)c6nc(c(-c7ccccc7)c7ccc4[nH]7)C=C6)C=C5)cc3)s2)cc(OC)c1
REMARK SMILES IDX 19 1 18 2 17 3 15 4 16 5 14 7 10 8 11 9 75 10 12 11 13 12
REMARK SMILES IDX 7 13 8 14 9 15 6 16 5 18 3 19 4 20 80 21 77 22 76 23 2 24
REMARK SMILES IDX 1 25 78 26 79 27 20 28 21 29 22 30 23 31 24 32 25 33 26 35
REMARK SMILES IDX 27 36 28 37 74 38 29 39 73 40 30 41 31 42 32 43 67 44 33 45
REMARK SMILES IDX 72 46 66 47 68 48 34 49 71 50 65 51 64 52 35 54 57 55 42 56
REMARK SMILES IDX 56 57 43 58 46 59 55 60 69 61 44 62 45 63 54 65 70 66 47 67
REMARK SMILES IDX 36 68 37 69 41 70 38 71 40 72 39 73 58 74 59 75 63 76 60 77
REMARK SMILES IDX 62 78 61 79 48 80 49 81 53 82 50 83 52 84 51 85
REMARK H PARENT 17 6 6 17 24 34 68 53 46 64
REMARK Flexibility Score: inf
ROOT
ATOM      1  C   UNL A   1      37.367  24.077  25.407  1.00  0.00     0.021 C 
ENDROOT
BRANCH   1   2
ATOM      2  C   UNL A   1      36.069  23.582  24.759  1.00  0.00     0.116 C 
BRANCH   2   3
ATOM      3  N   UNL A   1      34.984  23.615  25.707  1.00  0.00    -0.351 N 
ATOM      4  C   UNL A   1      33.700  24.088  25.672  1.00  0.00     0.261 C 
ATOM      5  O   UNL A   1      33.068  23.822  26.702  1.00  0.00    -0.268 OA
ATOM      6  H   UNL A   1      35.219  23.208  26.572  1.00  0.00     0.163 HD
BRANCH   4   7
ATOM      7  C   UNL A   1      33.105  24.854  24.570  1.00  0.00     0.096 A 
ATOM      8  C   UNL A   1      32.567  27.007  23.465  1.00  0.00     0.141 A 
ATOM      9  C   UNL A   1      32.545  25.960  22.575  1.00  0.00     0.038 A 
ATOM     10  S   UNL A   1      32.489  26.425  25.058  1.00  0.00    -0.116 S 
ATOM     11  C   UNL A   1      32.994  24.727  23.180  1.00  0.00    -0.026 A 
ATOM     12  C   UNL A   1      33.432  23.619  22.284  1.00  0.00     0.046 C 
BRANCH   8  13
ATOM     13  S   UNL A   1      32.789  28.749  23.224  1.00  0.00     0.271 S 
ATOM     14  O   UNL A   1      34.133  28.916  22.756  1.00  0.00    -0.200 OA
ATOM     15  O   UNL A   1      32.357  29.341  24.486  1.00  0.00    -0.200 OA
BRANCH  13  16
ATOM     16  N   UNL A   1      31.754  29.327  22.018  1.00  0.00    -0.279 N 
ATOM     17  H   UNL A   1      32.153  29.646  21.177  1.00  0.00     0.180 HD
BRANCH  16  18
ATOM     18  C   UNL A   1      30.319  29.379  22.154  1.00  0.00     0.056 A 
ATOM     19  C   UNL A   1      28.272  30.644  22.456  1.00  0.00     0.124 A 
ATOM     20  C   UNL A   1      29.579  30.546  21.984  1.00  0.00     0.073 A 
ATOM     21  C   UNL A   1      27.631  29.548  23.013  1.00  0.00     0.093 A 
ATOM     22  C   UNL A   1      28.333  28.354  23.149  1.00  0.00     0.124 A 
ATOM     23  C   UNL A   1      29.680  28.287  22.752  1.00  0.00     0.073 A 
BRANCH  19  24
ATOM     24  O   UNL A   1      27.649  31.861  22.359  1.00  0.00    -0.497 OA
ATOM     25  C   UNL A   1      28.028  32.512  21.141  1.00  0.00     0.278 C 
ENDBRANCH  19  24
BRANCH  22  26
ATOM     26  O   UNL A   1      27.830  27.198  23.685  1.00  0.00    -0.497 OA
ATOM     27  C   UNL A   1      28.782  26.215  24.079  1.00  0.00     0.278 C 
ENDBRANCH  22  26
ENDBRANCH  16  18
ENDBRANCH  13  16
ENDBRANCH   8  13
ENDBRANCH   4   7
ENDBRANCH   2   3
ENDBRANCH   1   2
BRANCH   1  28
ATOM     28  C   UNL A   1      37.886  23.180  26.536  1.00  0.00     0.002 C 
BRANCH  28  29
ATOM     29  C   UNL A   1      39.265  22.558  26.285  1.00  0.00     0.002 C 
BRANCH  29  30
ATOM     30  C   UNL A   1      39.259  21.181  25.610  1.00  0.00     0.021 C 
BRANCH  30  31
ATOM     31  C   UNL A   1      39.653  20.013  26.512  1.00  0.00     0.116 C 
BRANCH  31  32
ATOM     32  N   UNL A   1      40.826  19.316  26.013  1.00  0.00    -0.352 N 
ATOM     33  C   UNL A   1      42.092  19.778  25.768  1.00  0.00     0.251 C 
ATOM     34  H   UNL A   1      40.689  18.361  25.819  1.00  0.00     0.163 HD
ATOM     35  O   UNL A   1      42.880  19.075  25.140  1.00  0.00    -0.269 OA
BRANCH  33  36
ATOM     36  C   UNL A   1      42.532  21.109  26.247  1.00  0.00     0.039 A 
ATOM     37  C   UNL A   1      42.548  21.347  27.625  1.00  0.00     0.014 A 
ATOM     38  C   UNL A   1      42.834  22.147  25.359  1.00  0.00     0.014 A 
ATOM     39  C   UNL A   1      42.884  22.612  28.114  1.00  0.00     0.010 A 
ATOM     40  C   UNL A   1      43.222  23.396  25.848  1.00  0.00     0.010 A 
ATOM     41  C   UNL A   1      43.229  23.645  27.228  1.00  0.00    -0.014 A 
BRANCH  41  42
ATOM     42  C   UNL A   1      43.552  25.000  27.740  1.00  0.00     0.031 A 
ATOM     43  C   UNL A   1      42.451  25.982  28.035  1.00  0.00     0.074 A 
ATOM     44  C   UNL A   1      44.837  25.360  27.921  1.00  0.00     0.049 A 
ATOM     45  N   UNL A   1      42.536  27.208  28.488  1.00  0.00    -0.248 NA
ATOM     46  C   UNL A   1      41.075  25.535  27.766  1.00  0.00     0.031 C 
ATOM     47  C   UNL A   1      46.001  24.517  27.641  1.00  0.00     0.029 A 
ATOM     48  N   UNL A   1      45.376  26.532  28.388  1.00  0.00    -0.354 N 
ATOM     49  C   UNL A   1      41.232  27.683  28.540  1.00  0.00     0.074 A 
ATOM     50  C   UNL A   1      40.377  26.628  28.038  1.00  0.00     0.031 C 
ATOM     51  C   UNL A   1      47.117  25.192  27.967  1.00  0.00     0.029 A 
ATOM     52  C   UNL A   1      46.747  26.516  28.459  1.00  0.00     0.049 A 
ATOM     53  H   UNL A   1      44.832  27.310  28.648  1.00  0.00     0.167 HD
ATOM     54  C   UNL A   1      40.780  28.881  28.981  1.00  0.00     0.031 A 
ATOM     55  C   UNL A   1      47.610  27.458  28.881  1.00  0.00     0.031 A 
ATOM     56  C   UNL A   1      41.619  29.925  29.502  1.00  0.00     0.049 A 
ATOM     57  C   UNL A   1      47.084  28.767  29.396  1.00  0.00     0.074 A 
ATOM     58  C   UNL A   1      41.250  31.156  30.019  1.00  0.00     0.029 A 
ATOM     59  N   UNL A   1      43.002  29.858  29.579  1.00  0.00    -0.354 N 
ATOM     60  N   UNL A   1      45.843  29.178  29.490  1.00  0.00    -0.248 NA
ATOM     61  C   UNL A   1      48.080  29.734  29.881  1.00  0.00     0.031 C 
ATOM     62  C   UNL A   1      42.412  31.845  30.383  1.00  0.00     0.029 A 
ATOM     63  C   UNL A   1      43.501  31.028  30.125  1.00  0.00     0.049 A 
ATOM     64  H   UNL A   1      43.547  29.093  29.288  1.00  0.00     0.167 HD
ATOM     65  C   UNL A   1      45.907  30.441  30.063  1.00  0.00     0.074 A 
ATOM     66  C   UNL A   1      47.306  30.722  30.309  1.00  0.00     0.031 C 
ATOM     67  C   UNL A   1      44.896  31.292  30.362  1.00  0.00     0.031 A 
BRANCH  54  68
ATOM     68  C   UNL A   1      39.300  29.124  28.911  1.00  0.00    -0.014 A 
ATOM     69  C   UNL A   1      38.478  28.921  30.030  1.00  0.00     0.009 A 
ATOM     70  C   UNL A   1      38.722  29.580  27.715  1.00  0.00     0.009 A 
ATOM     71  C   UNL A   1      37.101  29.135  29.944  1.00  0.00     0.001 A 
ATOM     72  C   UNL A   1      37.348  29.815  27.640  1.00  0.00     0.001 A 
ATOM     73  C   UNL A   1      36.537  29.584  28.750  1.00  0.00     0.000 A 
ENDBRANCH  54  68
BRANCH  55  74
ATOM     74  C   UNL A   1      49.068  27.182  28.873  1.00  0.00    -0.014 A 
ATOM     75  C   UNL A   1      49.680  26.578  29.982  1.00  0.00     0.009 A 
ATOM     76  C   UNL A   1      49.852  27.520  27.762  1.00  0.00     0.009 A 
ATOM     77  C   UNL A   1      51.054  26.337  29.986  1.00  0.00     0.001 A 
ATOM     78  C   UNL A   1      51.224  27.259  27.759  1.00  0.00     0.001 A 
ATOM     79  C   UNL A   1      51.825  26.674  28.874  1.00  0.00     0.000 A 
ENDBRANCH  55  74
BRANCH  67  80
ATOM     80  C   UNL A   1      45.269  32.593  31.010  1.00  0.00    -0.014 A 
ATOM     81  C   UNL A   1      45.364  32.706  32.405  1.00  0.00     0.009 A 
ATOM     82  C   UNL A   1      45.548  33.712  30.212  1.00  0.00     0.009 A 
ATOM     83  C   UNL A   1      45.701  33.927  32.991  1.00  0.00     0.001 A 
ATOM     84  C   UNL A   1      45.906  34.926  30.800  1.00  0.00     0.001 A 
ATOM     85  C   UNL A   1      45.974  35.035  32.188  1.00  0.00     0.000 A 
ENDBRANCH  67  80
ENDBRANCH  41  42
ENDBRANCH  33  36
ENDBRANCH  31  32
ENDBRANCH  30  31
ENDBRANCH  29  30
ENDBRANCH  28  29
ENDBRANCH   1  28
TORSDOF 18
ENDMDL
