MODEL 1
REMARK VINA RESULT:     -10.3      0.000      0.000
REMARK SMILES CCC[C@@H](CNC(=O)NCc1c(C)nn(C)c1C)C(=O)NCCCCCCNC(=O)c1ccc(-c2c3nc(c(-c4ccccc4)c4ccc([nH]4)c(-c4ccccc4)c4nc(c(-c5ccccc5)c5ccc2[nH]5)C=C4)C=C3)cc1
REMARK SMILES IDX 23 1 22 2 21 3 19 4 20 5 4 7 3 8 2 9 1 10 5 11 6 12 7 13
REMARK SMILES IDX 8 15 9 16 10 18 11 19 12 20 17 21 13 22 14 23 15 24 18 25
REMARK SMILES IDX 16 26 24 27 25 28 26 29 27 30 28 31 29 32 30 34 31 35 32 36
REMARK SMILES IDX 78 37 33 38 77 39 34 40 35 41 36 42 71 43 37 44 76 45 70 46
REMARK SMILES IDX 72 47 38 48 75 49 69 50 68 51 39 53 61 54 46 55 60 56 47 57
REMARK SMILES IDX 50 58 59 59 73 60 48 61 49 62 58 64 74 65 51 66 40 67 41 68
REMARK SMILES IDX 45 69 42 70 44 71 43 72 62 73 63 74 67 75 64 76 66 77 65 78
REMARK SMILES IDX 52 79 53 80 57 81 54 82 56 83 55 84
REMARK H PARENT 21 6 6 14 9 17 28 33 72 52 50 63
REMARK Flexibility Score: inf
ROOT
ATOM      1  C   UNL A   1      33.823  28.549  27.133  1.00  0.00     0.021 C 
ENDROOT
BRANCH   1   2
ATOM      2  C   UNL A   1      33.211  27.724  26.011  1.00  0.00     0.116 C 
BRANCH   2   3
ATOM      3  N   UNL A   1      33.520  28.237  24.693  1.00  0.00    -0.356 N 
ATOM      4  C   UNL A   1      32.697  28.623  23.682  1.00  0.00     0.224 C 
ATOM      5  O   UNL A   1      33.204  29.259  22.752  1.00  0.00    -0.275 OA
ATOM      6  H   UNL A   1      34.482  28.320  24.496  1.00  0.00     0.163 HD
BRANCH   4   7
ATOM      7  C   UNL A   1      31.203  28.306  23.659  1.00  0.00     0.097 C 
BRANCH   7   8
ATOM      8  C   UNL A   1      30.315  29.564  23.787  1.00  0.00     0.015 C 
BRANCH   8   9
ATOM      9  C   UNL A   1      29.377  29.851  22.609  1.00  0.00    -0.003 C 
ATOM     10  C   UNL A   1      27.904  29.678  22.938  1.00  0.00     0.004 C 
ENDBRANCH   8   9
ENDBRANCH   7   8
BRANCH   7  11
ATOM     11  C   UNL A   1      30.805  27.271  22.593  1.00  0.00     0.131 C 
BRANCH  11  12
ATOM     12  N   UNL A   1      31.890  26.674  21.840  1.00  0.00    -0.337 N 
ATOM     13  C   UNL A   1      32.388  25.435  21.720  1.00  0.00     0.315 C 
ATOM     14  H   UNL A   1      32.373  27.330  21.290  1.00  0.00     0.165 HD
ATOM     15  O   UNL A   1      33.372  25.294  20.989  1.00  0.00    -0.249 OA
ATOM     16  N   UNL A   1      31.892  24.354  22.320  1.00  0.00    -0.334 N 
ATOM     17  H   UNL A   1      32.401  23.539  22.103  1.00  0.00     0.165 HD
BRANCH  16  18
ATOM     18  C   UNL A   1      30.789  24.092  23.212  1.00  0.00     0.157 C 
BRANCH  18  19
ATOM     19  C   UNL A   1      31.249  23.980  24.634  1.00  0.00     0.015 A 
ATOM     20  C   UNL A   1      30.910  24.746  25.796  1.00  0.00     0.065 A 
ATOM     21  C   UNL A   1      32.175  23.053  25.112  1.00  0.00     0.040 A 
ATOM     22  C   UNL A   1      29.986  25.889  25.998  1.00  0.00     0.069 C 
ATOM     23  N   UNL A   1      31.554  24.311  26.883  1.00  0.00    -0.178 NA
ATOM     24  N   UNL A   1      32.293  23.286  26.455  1.00  0.00    -0.272 N 
ATOM     25  C   UNL A   1      32.937  21.982  24.417  1.00  0.00     0.067 C 
ATOM     26  C   UNL A   1      33.084  22.580  27.435  1.00  0.00     0.174 C 
ENDBRANCH  18  19
ENDBRANCH  16  18
ENDBRANCH  11  12
ENDBRANCH   7  11
ENDBRANCH   4   7
ENDBRANCH   2   3
ENDBRANCH   1   2
BRANCH   1  27
ATOM     27  C   UNL A   1      33.366  30.009  27.147  1.00  0.00     0.002 C 
BRANCH  27  28
ATOM     28  C   UNL A   1      31.848  30.228  27.086  1.00  0.00     0.002 C 
BRANCH  28  29
ATOM     29  C   UNL A   1      31.395  31.679  26.900  1.00  0.00     0.021 C 
BRANCH  29  30
ATOM     30  C   UNL A   1      32.521  32.673  26.649  1.00  0.00     0.116 C 
BRANCH  30  31
ATOM     31  N   UNL A   1      32.319  33.924  27.362  1.00  0.00    -0.352 N 
ATOM     32  C   UNL A   1      33.009  34.438  28.430  1.00  0.00     0.251 C 
ATOM     33  H   UNL A   1      31.578  34.481  27.030  1.00  0.00     0.163 HD
ATOM     34  O   UNL A   1      32.584  35.420  29.025  1.00  0.00    -0.269 OA
BRANCH  32  35
ATOM     35  C   UNL A   1      34.261  33.791  28.870  1.00  0.00     0.039 A 
ATOM     36  C   UNL A   1      35.470  34.217  28.315  1.00  0.00     0.014 A 
ATOM     37  C   UNL A   1      34.244  32.766  29.821  1.00  0.00     0.014 A 
ATOM     38  C   UNL A   1      36.667  33.650  28.751  1.00  0.00     0.010 A 
ATOM     39  C   UNL A   1      35.442  32.258  30.311  1.00  0.00     0.010 A 
ATOM     40  C   UNL A   1      36.666  32.689  29.776  1.00  0.00    -0.014 A 
BRANCH  40  41
ATOM     41  C   UNL A   1      37.935  32.127  30.300  1.00  0.00     0.031 A 
ATOM     42  C   UNL A   1      38.484  30.845  29.738  1.00  0.00     0.074 A 
ATOM     43  C   UNL A   1      38.563  32.740  31.321  1.00  0.00     0.049 A 
ATOM     44  N   UNL A   1      39.552  30.176  30.098  1.00  0.00    -0.248 NA
ATOM     45  C   UNL A   1      37.724  30.217  28.644  1.00  0.00     0.031 C 
ATOM     46  C   UNL A   1      38.110  33.968  31.981  1.00  0.00     0.029 A 
ATOM     47  N   UNL A   1      39.716  32.412  31.990  1.00  0.00    -0.354 N 
ATOM     48  C   UNL A   1      39.579  29.047  29.289  1.00  0.00     0.074 A 
ATOM     49  C   UNL A   1      38.398  29.092  28.457  1.00  0.00     0.031 C 
ATOM     50  C   UNL A   1      38.990  34.303  32.938  1.00  0.00     0.029 A 
ATOM     51  C   UNL A   1      40.041  33.294  32.992  1.00  0.00     0.049 A 
ATOM     52  H   UNL A   1      40.257  31.619  31.771  1.00  0.00     0.167 HD
ATOM     53  C   UNL A   1      40.515  28.068  29.233  1.00  0.00     0.031 A 
ATOM     54  C   UNL A   1      41.066  33.285  33.865  1.00  0.00     0.031 A 
ATOM     55  C   UNL A   1      41.692  28.028  30.058  1.00  0.00     0.049 A 
ATOM     56  C   UNL A   1      42.078  32.175  33.794  1.00  0.00     0.074 A 
ATOM     57  C   UNL A   1      42.728  27.111  30.036  1.00  0.00     0.029 A 
ATOM     58  N   UNL A   1      41.987  28.941  31.059  1.00  0.00    -0.354 N 
ATOM     59  N   UNL A   1      42.132  31.154  32.973  1.00  0.00    -0.248 NA
ATOM     60  C   UNL A   1      43.180  32.224  34.765  1.00  0.00     0.031 C 
ATOM     61  C   UNL A   1      43.618  27.432  31.066  1.00  0.00     0.029 A 
ATOM     62  C   UNL A   1      43.173  28.591  31.682  1.00  0.00     0.049 A 
ATOM     63  H   UNL A   1      41.435  29.723  31.292  1.00  0.00     0.167 HD
ATOM     64  C   UNL A   1      43.286  30.459  33.308  1.00  0.00     0.074 A 
ATOM     65  C   UNL A   1      43.912  31.183  34.394  1.00  0.00     0.031 C 
ATOM     66  C   UNL A   1      43.785  29.322  32.761  1.00  0.00     0.031 A 
BRANCH  53  67
ATOM     67  C   UNL A   1      40.293  26.950  28.252  1.00  0.00    -0.014 A 
ATOM     68  C   UNL A   1      40.815  27.005  26.948  1.00  0.00     0.009 A 
ATOM     69  C   UNL A   1      39.588  25.802  28.650  1.00  0.00     0.009 A 
ATOM     70  C   UNL A   1      40.604  25.953  26.055  1.00  0.00     0.001 A 
ATOM     71  C   UNL A   1      39.407  24.738  27.765  1.00  0.00     0.001 A 
ATOM     72  C   UNL A   1      39.905  24.818  26.466  1.00  0.00     0.000 A 
ENDBRANCH  53  67
BRANCH  54  73
ATOM     73  C   UNL A   1      41.192  34.364  34.880  1.00  0.00    -0.014 A 
ATOM     74  C   UNL A   1      40.585  34.237  36.139  1.00  0.00     0.009 A 
ATOM     75  C   UNL A   1      41.911  35.534  34.591  1.00  0.00     0.009 A 
ATOM     76  C   UNL A   1      40.668  35.272  37.073  1.00  0.00     0.001 A 
ATOM     77  C   UNL A   1      42.021  36.553  35.540  1.00  0.00     0.001 A 
ATOM     78  C   UNL A   1      41.389  36.427  36.774  1.00  0.00     0.000 A 
ENDBRANCH  54  73
BRANCH  66  79
ATOM     79  C   UNL A   1      45.092  28.814  33.302  1.00  0.00    -0.014 A 
ATOM     80  C   UNL A   1      45.141  27.858  34.329  1.00  0.00     0.009 A 
ATOM     81  C   UNL A   1      46.296  29.270  32.740  1.00  0.00     0.009 A 
ATOM     82  C   UNL A   1      46.371  27.398  34.807  1.00  0.00     0.001 A 
ATOM     83  C   UNL A   1      47.521  28.782  33.195  1.00  0.00     0.001 A 
ATOM     84  C   UNL A   1      47.558  27.855  34.235  1.00  0.00     0.000 A 
ENDBRANCH  66  79
ENDBRANCH  40  41
ENDBRANCH  32  35
ENDBRANCH  30  31
ENDBRANCH  29  30
ENDBRANCH  28  29
ENDBRANCH  27  28
ENDBRANCH   1  27
TORSDOF 19
ENDMDL
MODEL 2
REMARK VINA RESULT:      -9.6      1.602      6.233
REMARK SMILES CCC[C@@H](CNC(=O)NCc1c(C)nn(C)c1C)C(=O)NCCCCCCNC(=O)c1ccc(-c2c3nc(c(-c4ccccc4)c4ccc([nH]4)c(-c4ccccc4)c4nc(c(-c5ccccc5)c5ccc2[nH]5)C=C4)C=C3)cc1
REMARK SMILES IDX 23 1 22 2 21 3 19 4 20 5 4 7 3 8 2 9 1 10 5 11 6 12 7 13
REMARK SMILES IDX 8 15 9 16 10 18 11 19 12 20 17 21 13 22 14 23 15 24 18 25
REMARK SMILES IDX 16 26 24 27 25 28 26 29 27 30 28 31 29 32 30 34 31 35 32 36
REMARK SMILES IDX 78 37 33 38 77 39 34 40 35 41 36 42 71 43 37 44 76 45 70 46
REMARK SMILES IDX 72 47 38 48 75 49 69 50 68 51 39 53 61 54 46 55 60 56 47 57
REMARK SMILES IDX 50 58 59 59 73 60 48 61 49 62 58 64 74 65 51 66 40 67 41 68
REMARK SMILES IDX 45 69 42 70 44 71 43 72 62 73 63 74 67 75 64 76 66 77 65 78
REMARK SMILES IDX 52 79 53 80 57 81 54 82 56 83 55 84
REMARK H PARENT 21 6 6 14 9 17 28 33 72 52 50 63
REMARK Flexibility Score: inf
ROOT
ATOM      1  C   UNL A   1      33.819  28.008  26.309  1.00  0.00     0.021 C 
ENDROOT
BRANCH   1   2
ATOM      2  C   UNL A   1      33.705  28.792  25.011  1.00  0.00     0.116 C 
BRANCH   2   3
ATOM      3  N   UNL A   1      34.020  28.001  23.839  1.00  0.00    -0.356 N 
ATOM      4  C   UNL A   1      33.220  27.228  23.057  1.00  0.00     0.224 C 
ATOM      5  O   UNL A   1      33.681  26.857  21.971  1.00  0.00    -0.275 OA
ATOM      6  H   UNL A   1      34.966  28.027  23.565  1.00  0.00     0.163 HD
BRANCH   4   7
ATOM      7  C   UNL A   1      31.807  26.813  23.464  1.00  0.00     0.097 C 
BRANCH   7   8
ATOM      8  C   UNL A   1      30.716  27.387  22.532  1.00  0.00     0.015 C 
BRANCH   8   9
ATOM      9  C   UNL A   1      30.671  28.913  22.406  1.00  0.00    -0.003 C 
ATOM     10  C   UNL A   1      29.507  29.558  23.140  1.00  0.00     0.004 C 
ENDBRANCH   8   9
ENDBRANCH   7   8
BRANCH   7  11
ATOM     11  C   UNL A   1      31.685  25.332  23.859  1.00  0.00     0.131 C 
BRANCH  11  12
ATOM     12  N   UNL A   1      31.388  25.060  25.251  1.00  0.00    -0.337 N 
ATOM     13  C   UNL A   1      31.456  23.978  26.040  1.00  0.00     0.315 C 
ATOM     14  H   UNL A   1      31.060  25.856  25.729  1.00  0.00     0.165 HD
ATOM     15  O   UNL A   1      31.079  24.109  27.207  1.00  0.00    -0.249 OA
ATOM     16  N   UNL A   1      31.908  22.785  25.657  1.00  0.00    -0.334 N 
ATOM     17  H   UNL A   1      31.877  22.122  26.384  1.00  0.00     0.165 HD
BRANCH  16  18
ATOM     18  C   UNL A   1      32.433  22.233  24.432  1.00  0.00     0.157 C 
BRANCH  18  19
ATOM     19  C   UNL A   1      33.837  21.737  24.611  1.00  0.00     0.015 A 
ATOM     20  C   UNL A   1      34.353  20.411  24.777  1.00  0.00     0.065 A 
ATOM     21  C   UNL A   1      34.974  22.542  24.672  1.00  0.00     0.040 A 
ATOM     22  C   UNL A   1      33.692  19.085  24.814  1.00  0.00     0.069 C 
ATOM     23  N   UNL A   1      35.684  20.410  24.907  1.00  0.00    -0.178 NA
ATOM     24  N   UNL A   1      36.037  21.694  24.824  1.00  0.00    -0.272 N 
ATOM     25  C   UNL A   1      35.135  24.018  24.595  1.00  0.00     0.067 C 
ATOM     26  C   UNL A   1      37.445  22.003  24.895  1.00  0.00     0.174 C 
ENDBRANCH  18  19
ENDBRANCH  16  18
ENDBRANCH  11  12
ENDBRANCH   7  11
ENDBRANCH   4   7
ENDBRANCH   2   3
ENDBRANCH   1   2
BRANCH   1  27
ATOM     27  C   UNL A   1      34.044  28.884  27.543  1.00  0.00     0.002 C 
BRANCH  27  28
ATOM     28  C   UNL A   1      34.214  30.384  27.266  1.00  0.00     0.002 C 
BRANCH  28  29
ATOM     29  C   UNL A   1      33.032  31.270  27.672  1.00  0.00     0.021 C 
BRANCH  29  30
ATOM     30  C   UNL A   1      32.743  32.424  26.721  1.00  0.00     0.116 C 
BRANCH  30  31
ATOM     31  N   UNL A   1      32.420  33.652  27.428  1.00  0.00    -0.352 N 
ATOM     32  C   UNL A   1      33.066  34.244  28.483  1.00  0.00     0.251 C 
ATOM     33  H   UNL A   1      31.619  34.125  27.104  1.00  0.00     0.163 HD
ATOM     34  O   UNL A   1      32.548  35.181  29.078  1.00  0.00    -0.269 OA
BRANCH  32  35
ATOM     35  C   UNL A   1      34.386  33.736  28.909  1.00  0.00     0.039 A 
ATOM     36  C   UNL A   1      34.484  33.059  30.127  1.00  0.00     0.014 A 
ATOM     37  C   UNL A   1      35.521  33.930  28.117  1.00  0.00     0.014 A 
ATOM     38  C   UNL A   1      35.712  32.531  30.525  1.00  0.00     0.010 A 
ATOM     39  C   UNL A   1      36.726  33.336  28.477  1.00  0.00     0.010 A 
ATOM     40  C   UNL A   1      36.836  32.637  29.689  1.00  0.00    -0.014 A 
BRANCH  40  41
ATOM     41  C   UNL A   1      38.132  32.021  30.066  1.00  0.00     0.031 A 
ATOM     42  C   UNL A   1      39.089  32.759  30.962  1.00  0.00     0.074 A 
ATOM     43  C   UNL A   1      38.472  30.823  29.556  1.00  0.00     0.049 A 
ATOM     44  N   UNL A   1      40.284  32.405  31.362  1.00  0.00    -0.248 NA
ATOM     45  C   UNL A   1      38.658  34.079  31.454  1.00  0.00     0.031 C 
ATOM     46  C   UNL A   1      37.649  30.024  28.644  1.00  0.00     0.029 A 
ATOM     47  N   UNL A   1      39.605  30.067  29.726  1.00  0.00    -0.354 N 
ATOM     48  C   UNL A   1      40.751  33.461  32.135  1.00  0.00     0.074 A 
ATOM     49  C   UNL A   1      39.736  34.489  32.106  1.00  0.00     0.031 C 
ATOM     50  C   UNL A   1      38.291  28.880  28.359  1.00  0.00     0.029 A 
ATOM     51  C   UNL A   1      39.587  28.883  29.028  1.00  0.00     0.049 A 
ATOM     52  H   UNL A   1      40.359  30.347  30.295  1.00  0.00     0.167 HD
ATOM     53  C   UNL A   1      41.915  33.558  32.822  1.00  0.00     0.031 A 
ATOM     54  C   UNL A   1      40.516  27.913  28.929  1.00  0.00     0.031 A 
ATOM     55  C   UNL A   1      42.922  32.531  32.854  1.00  0.00     0.049 A 
ATOM     56  C   UNL A   1      41.807  28.056  29.685  1.00  0.00     0.074 A 
ATOM     57  C   UNL A   1      44.108  32.510  33.566  1.00  0.00     0.029 A 
ATOM     58  N   UNL A   1      42.865  31.347  32.136  1.00  0.00    -0.354 N 
ATOM     59  N   UNL A   1      42.202  29.027  30.473  1.00  0.00    -0.248 NA
ATOM     60  C   UNL A   1      42.778  26.961  29.547  1.00  0.00     0.031 C 
ATOM     61  C   UNL A   1      44.799  31.342  33.230  1.00  0.00     0.029 A 
ATOM     62  C   UNL A   1      44.010  30.602  32.365  1.00  0.00     0.049 A 
ATOM     63  H   UNL A   1      42.121  31.075  31.551  1.00  0.00     0.167 HD
ATOM     64  C   UNL A   1      43.451  28.646  30.948  1.00  0.00     0.074 A 
ATOM     65  C   UNL A   1      43.739  27.348  30.373  1.00  0.00     0.031 C 
ATOM     66  C   UNL A   1      44.283  29.311  31.787  1.00  0.00     0.031 A 
BRANCH  53  67
ATOM     67  C   UNL A   1      42.168  34.829  33.586  1.00  0.00    -0.014 A 
ATOM     68  C   UNL A   1      41.713  34.992  34.905  1.00  0.00     0.009 A 
ATOM     69  C   UNL A   1      42.910  35.863  32.993  1.00  0.00     0.009 A 
ATOM     70  C   UNL A   1      41.965  36.177  35.600  1.00  0.00     0.001 A 
ATOM     71  C   UNL A   1      43.188  37.033  33.701  1.00  0.00     0.001 A 
ATOM     72  C   UNL A   1      42.707  37.194  34.999  1.00  0.00     0.000 A 
ENDBRANCH  53  67
BRANCH  54  73
ATOM     73  C   UNL A   1      40.258  26.717  28.085  1.00  0.00    -0.014 A 
ATOM     74  C   UNL A   1      39.527  25.629  28.589  1.00  0.00     0.009 A 
ATOM     75  C   UNL A   1      40.752  26.649  26.773  1.00  0.00     0.009 A 
ATOM     76  C   UNL A   1      39.325  24.488  27.809  1.00  0.00     0.001 A 
ATOM     77  C   UNL A   1      40.519  25.520  25.984  1.00  0.00     0.001 A 
ATOM     78  C   UNL A   1      39.818  24.437  26.506  1.00  0.00     0.000 A 
ENDBRANCH  54  73
BRANCH  66  79
ATOM     79  C   UNL A   1      45.567  28.628  32.168  1.00  0.00    -0.014 A 
ATOM     80  C   UNL A   1      46.744  28.807  31.424  1.00  0.00     0.009 A 
ATOM     81  C   UNL A   1      45.607  27.825  33.320  1.00  0.00     0.009 A 
ATOM     82  C   UNL A   1      47.925  28.166  31.806  1.00  0.00     0.001 A 
ATOM     83  C   UNL A   1      46.797  27.215  33.719  1.00  0.00     0.001 A 
ATOM     84  C   UNL A   1      47.951  27.377  32.956  1.00  0.00     0.000 A 
ENDBRANCH  66  79
ENDBRANCH  40  41
ENDBRANCH  32  35
ENDBRANCH  30  31
ENDBRANCH  29  30
ENDBRANCH  28  29
ENDBRANCH  27  28
ENDBRANCH   1  27
TORSDOF 19
ENDMDL
MODEL 3
REMARK VINA RESULT:      -9.5      2.853      7.622
REMARK SMILES CCC[C@@H](CNC(=O)NCc1c(C)nn(C)c1C)C(=O)NCCCCCCNC(=O)c1ccc(-c2c3nc(c(-c4ccccc4)c4ccc([nH]4)c(-c4ccccc4)c4nc(c(-c5ccccc5)c5ccc2[nH]5)C=C4)C=C3)cc1
REMARK SMILES IDX 23 1 22 2 21 3 19 4 20 5 4 7 3 8 2 9 1 10 5 11 6 12 7 13
REMARK SMILES IDX 8 15 9 16 10 18 11 19 12 20 17 21 13 22 14 23 15 24 18 25
REMARK SMILES IDX 16 26 24 27 25 28 26 29 27 30 28 31 29 32 30 34 31 35 32 36
REMARK SMILES IDX 78 37 33 38 77 39 34 40 35 41 36 42 71 43 37 44 76 45 70 46
REMARK SMILES IDX 72 47 38 48 75 49 69 50 68 51 39 53 61 54 46 55 60 56 47 57
REMARK SMILES IDX 50 58 59 59 73 60 48 61 49 62 58 64 74 65 51 66 40 67 41 68
REMARK SMILES IDX 45 69 42 70 44 71 43 72 62 73 63 74 67 75 64 76 66 77 65 78
REMARK SMILES IDX 52 79 53 80 57 81 54 82 56 83 55 84
REMARK H PARENT 21 6 6 14 9 17 28 33 72 52 50 63
REMARK Flexibility Score: inf
ROOT
ATOM      1  C   UNL A   1      33.875  25.817  25.682  1.00  0.00     0.021 C 
ENDROOT
BRANCH   1   2
ATOM      2  C   UNL A   1      34.567  24.476  25.866  1.00  0.00     0.116 C 
BRANCH   2   3
ATOM      3  N   UNL A   1      35.476  24.152  24.785  1.00  0.00    -0.356 N 
ATOM      4  C   UNL A   1      35.407  23.179  23.838  1.00  0.00     0.224 C 
ATOM      5  O   UNL A   1      36.180  23.270  22.878  1.00  0.00    -0.275 OA
ATOM      6  H   UNL A   1      36.273  24.728  24.728  1.00  0.00     0.163 HD
BRANCH   4   7
ATOM      7  C   UNL A   1      34.429  22.008  23.916  1.00  0.00     0.097 C 
BRANCH   7   8
ATOM      8  C   UNL A   1      34.733  21.043  25.084  1.00  0.00     0.015 C 
BRANCH   8   9
ATOM      9  C   UNL A   1      34.518  19.552  24.801  1.00  0.00    -0.003 C 
ATOM     10  C   UNL A   1      33.168  19.027  25.258  1.00  0.00     0.004 C 
ENDBRANCH   8   9
ENDBRANCH   7   8
BRANCH   7  11
ATOM     11  C   UNL A   1      32.960  22.412  23.704  1.00  0.00     0.131 C 
BRANCH  11  12
ATOM     12  N   UNL A   1      32.116  22.410  24.882  1.00  0.00    -0.337 N 
ATOM     13  C   UNL A   1      30.958  22.997  25.217  1.00  0.00     0.315 C 
ATOM     14  H   UNL A   1      32.477  21.847  25.604  1.00  0.00     0.165 HD
ATOM     15  O   UNL A   1      30.532  22.789  26.356  1.00  0.00    -0.249 OA
ATOM     16  N   UNL A   1      30.236  23.772  24.409  1.00  0.00    -0.334 N 
ATOM     17  H   UNL A   1      29.418  24.106  24.843  1.00  0.00     0.165 HD
BRANCH  16  18
ATOM     18  C   UNL A   1      30.366  24.239  23.051  1.00  0.00     0.157 C 
BRANCH  18  19
ATOM     19  C   UNL A   1      30.736  25.692  23.003  1.00  0.00     0.015 A 
ATOM     20  C   UNL A   1      31.948  26.342  22.603  1.00  0.00     0.065 A 
ATOM     21  C   UNL A   1      29.910  26.747  23.391  1.00  0.00     0.040 A 
ATOM     22  C   UNL A   1      33.234  25.816  22.086  1.00  0.00     0.069 C 
ATOM     23  N   UNL A   1      31.859  27.671  22.717  1.00  0.00    -0.178 NA
ATOM     24  N   UNL A   1      30.625  27.893  23.173  1.00  0.00    -0.272 N 
ATOM     25  C   UNL A   1      28.526  26.760  23.933  1.00  0.00     0.067 C 
ATOM     26  C   UNL A   1      30.222  29.266  23.362  1.00  0.00     0.174 C 
ENDBRANCH  18  19
ENDBRANCH  16  18
ENDBRANCH  11  12
ENDBRANCH   7  11
ENDBRANCH   4   7
ENDBRANCH   2   3
ENDBRANCH   1   2
BRANCH   1  27
ATOM     27  C   UNL A   1      32.404  25.818  26.101  1.00  0.00     0.002 C 
BRANCH  27  28
ATOM     28  C   UNL A   1      31.842  27.177  26.541  1.00  0.00     0.002 C 
BRANCH  28  29
ATOM     29  C   UNL A   1      32.744  28.385  26.271  1.00  0.00     0.021 C 
BRANCH  29  30
ATOM     30  C   UNL A   1      33.756  28.686  27.370  1.00  0.00     0.116 C 
BRANCH  30  31
ATOM     31  N   UNL A   1      33.746  30.087  27.756  1.00  0.00    -0.352 N 
ATOM     32  C   UNL A   1      34.716  30.821  28.390  1.00  0.00     0.251 C 
ATOM     33  H   UNL A   1      32.924  30.580  27.531  1.00  0.00     0.163 HD
ATOM     34  O   UNL A   1      34.467  31.945  28.806  1.00  0.00    -0.269 OA
BRANCH  32  35
ATOM     35  C   UNL A   1      36.061  30.242  28.583  1.00  0.00     0.039 A 
ATOM     36  C   UNL A   1      36.974  30.294  27.526  1.00  0.00     0.014 A 
ATOM     37  C   UNL A   1      36.420  29.646  29.795  1.00  0.00     0.014 A 
ATOM     38  C   UNL A   1      38.264  29.794  27.704  1.00  0.00     0.010 A 
ATOM     39  C   UNL A   1      37.728  29.220  29.996  1.00  0.00     0.010 A 
ATOM     40  C   UNL A   1      38.662  29.282  28.950  1.00  0.00    -0.014 A 
BRANCH  40  41
ATOM     41  C   UNL A   1      40.050  28.811  29.176  1.00  0.00     0.031 A 
ATOM     42  C   UNL A   1      41.070  29.729  29.791  1.00  0.00     0.074 A 
ATOM     43  C   UNL A   1      40.407  27.575  28.776  1.00  0.00     0.049 A 
ATOM     44  N   UNL A   1      42.341  29.513  30.024  1.00  0.00    -0.248 NA
ATOM     45  C   UNL A   1      40.612  31.075  30.173  1.00  0.00     0.031 C 
ATOM     46  C   UNL A   1      39.520  26.604  28.130  1.00  0.00     0.029 A 
ATOM     47  N   UNL A   1      41.614  26.926  28.847  1.00  0.00    -0.354 N 
ATOM     48  C   UNL A   1      42.832  30.696  30.561  1.00  0.00     0.074 A 
ATOM     49  C   UNL A   1      41.740  31.643  30.573  1.00  0.00     0.031 C 
ATOM     50  C   UNL A   1      40.206  25.474  27.892  1.00  0.00     0.029 A 
ATOM     51  C   UNL A   1      41.587  25.656  28.323  1.00  0.00     0.049 A 
ATOM     52  H   UNL A   1      42.422  27.332  29.237  1.00  0.00     0.167 HD
ATOM     53  C   UNL A   1      44.078  30.964  31.020  1.00  0.00     0.031 A 
ATOM     54  C   UNL A   1      42.569  24.743  28.194  1.00  0.00     0.031 A 
ATOM     55  C   UNL A   1      45.163  30.019  31.013  1.00  0.00     0.049 A 
ATOM     56  C   UNL A   1      43.948  25.075  28.693  1.00  0.00     0.074 A 
ATOM     57  C   UNL A   1      46.445  30.177  31.509  1.00  0.00     0.029 A 
ATOM     58  N   UNL A   1      45.094  28.744  30.476  1.00  0.00    -0.354 N 
ATOM     59  N   UNL A   1      44.378  26.172  29.268  1.00  0.00    -0.248 NA
ATOM     60  C   UNL A   1      44.975  24.036  28.535  1.00  0.00     0.031 C 
ATOM     61  C   UNL A   1      47.172  29.019  31.215  1.00  0.00     0.029 A 
ATOM     62  C   UNL A   1      46.322  28.114  30.601  1.00  0.00     0.049 A 
ATOM     63  H   UNL A   1      44.293  28.343  30.068  1.00  0.00     0.167 HD
ATOM     64  C   UNL A   1      45.715  25.943  29.568  1.00  0.00     0.074 A 
ATOM     65  C   UNL A   1      46.019  24.598  29.127  1.00  0.00     0.031 C 
ATOM     66  C   UNL A   1      46.610  26.774  30.158  1.00  0.00     0.031 A 
BRANCH  53  67
ATOM     67  C   UNL A   1      44.339  32.345  31.558  1.00  0.00    -0.014 A 
ATOM     68  C   UNL A   1      44.026  32.686  32.884  1.00  0.00     0.009 A 
ATOM     69  C   UNL A   1      44.947  33.310  30.738  1.00  0.00     0.009 A 
ATOM     70  C   UNL A   1      44.283  33.971  33.366  1.00  0.00     0.001 A 
ATOM     71  C   UNL A   1      45.233  34.583  31.231  1.00  0.00     0.001 A 
ATOM     72  C   UNL A   1      44.891  34.916  32.541  1.00  0.00     0.000 A 
ENDBRANCH  53  67
BRANCH  54  73
ATOM     73  C   UNL A   1      42.284  23.424  27.570  1.00  0.00    -0.014 A 
ATOM     74  C   UNL A   1      42.553  23.202  26.210  1.00  0.00     0.009 A 
ATOM     75  C   UNL A   1      41.729  22.381  28.329  1.00  0.00     0.009 A 
ATOM     76  C   UNL A   1      42.243  21.976  25.618  1.00  0.00     0.001 A 
ATOM     77  C   UNL A   1      41.451  21.145  27.741  1.00  0.00     0.001 A 
ATOM     78  C   UNL A   1      41.696  20.948  26.385  1.00  0.00     0.000 A 
ENDBRANCH  54  73
BRANCH  66  79
ATOM     79  C   UNL A   1      47.993  26.236  30.400  1.00  0.00    -0.014 A 
ATOM     80  C   UNL A   1      48.976  26.259  29.398  1.00  0.00     0.009 A 
ATOM     81  C   UNL A   1      48.328  25.738  31.670  1.00  0.00     0.009 A 
ATOM     82  C   UNL A   1      50.255  25.759  29.654  1.00  0.00     0.001 A 
ATOM     83  C   UNL A   1      49.617  25.273  31.932  1.00  0.00     0.001 A 
ATOM     84  C   UNL A   1      50.576  25.273  30.921  1.00  0.00     0.000 A 
ENDBRANCH  66  79
ENDBRANCH  40  41
ENDBRANCH  32  35
ENDBRANCH  30  31
ENDBRANCH  29  30
ENDBRANCH  28  29
ENDBRANCH  27  28
ENDBRANCH   1  27
TORSDOF 19
ENDMDL
