MODEL 1
REMARK VINA RESULT:     -11.0      0.000      0.000
REMARK SMILES C[C@H](C(=O)NCCCCCCNC(=O)c1ccc(-c2c3nc(c(-c4ccccc4)c4ccc([nH]4)c(-c4ccccc4)c4nc(c(-c5ccccc5)c5ccc2[nH]5)C=C4)C=C3)cc1)[C@H](C)[NH+]1CCN(c2ccccc2Cl)CC1
REMARK SMILES IDX 8 1 7 2 6 3 5 4 3 5 4 6 2 8 1 9 63 10 64 11 65 12 66 13
REMARK SMILES IDX 77 14 67 16 76 17 68 18 69 19 70 20 74 21 71 22 73 23 75 24
REMARK SMILES IDX 72 25 9 26 10 27 11 28 12 29 13 30 14 32 15 33 16 34 62 35
REMARK SMILES IDX 17 36 61 37 18 38 19 39 20 40 55 41 21 42 60 43 54 44 56 45
REMARK SMILES IDX 22 46 59 47 53 48 52 49 23 51 45 52 30 53 44 54 31 55 34 56
REMARK SMILES IDX 43 57 57 58 32 59 33 60 42 62 58 63 35 64 24 65 25 66 29 67
REMARK SMILES IDX 26 68 28 69 27 70 46 71 47 72 51 73 48 74 50 75 49 76 36 77
REMARK SMILES IDX 37 78 41 79 38 80 40 81 39 82
REMARK H PARENT 5 7 65 15 12 31 56 50 34 61
REMARK Flexibility Score: inf
ROOT
ATOM      1  C   UNL A   1      35.055  21.197  26.242  1.00  0.00     0.002 C 
ENDROOT
BRANCH   1   2
ATOM      2  C   UNL A   1      33.570  20.877  26.032  1.00  0.00     0.021 C 
BRANCH   2   3
ATOM      3  C   UNL A   1      32.879  21.831  25.061  1.00  0.00     0.116 C 
BRANCH   3   4
ATOM      4  N   UNL A   1      32.206  22.885  25.779  1.00  0.00    -0.356 N 
ATOM      5  C   UNL A   1      32.529  24.160  26.072  1.00  0.00     0.228 C 
ATOM      6  O   UNL A   1      31.764  24.721  26.871  1.00  0.00    -0.275 OA
ATOM      7  H   UNL A   1      31.326  22.617  26.128  1.00  0.00     0.163 HD
BRANCH   5   8
ATOM      8  C   UNL A   1      33.728  24.935  25.510  1.00  0.00     0.133 C 
ATOM      9  C   UNL A   1      35.158  24.510  25.821  1.00  0.00     0.024 C 
BRANCH   8  10
ATOM     10  C   UNL A   1      33.488  25.078  23.970  1.00  0.00     0.193 C 
ATOM     11  C   UNL A   1      34.454  24.152  23.190  1.00  0.00     0.076 C 
BRANCH  10  12
ATOM     12  N   UNL A   1      33.597  26.467  23.444  1.00  0.00    -0.329 N 
ATOM     13  C   UNL A   1      32.935  26.603  22.111  1.00  0.00     0.284 C 
ATOM     14  C   UNL A   1      32.988  27.497  24.331  1.00  0.00     0.284 C 
ATOM     15  H   UNL A   1      34.602  26.630  23.382  1.00  0.00     0.348 HD
ATOM     16  C   UNL A   1      31.382  26.558  22.120  1.00  0.00     0.178 C 
ATOM     17  C   UNL A   1      31.452  27.407  24.457  1.00  0.00     0.178 C 
ATOM     18  N   UNL A   1      30.857  27.489  23.124  1.00  0.00    -0.359 N 
BRANCH  18  19
ATOM     19  C   UNL A   1      29.825  28.358  22.827  1.00  0.00     0.056 A 
ATOM     20  C   UNL A   1      30.125  29.583  22.204  1.00  0.00     0.027 A 
ATOM     21  C   UNL A   1      28.468  28.113  23.135  1.00  0.00     0.064 A 
ATOM     22  C   UNL A   1      29.134  30.520  21.900  1.00  0.00     0.002 A 
ATOM     23  C   UNL A   1      27.474  29.053  22.831  1.00  0.00     0.023 A 
ATOM     24  Cl  UNL A   1      27.935  26.706  23.996  1.00  0.00    -0.082 Cl
ATOM     25  C   UNL A   1      27.807  30.256  22.216  1.00  0.00     0.002 A 
ENDBRANCH  18  19
ENDBRANCH  10  12
ENDBRANCH   8  10
ENDBRANCH   5   8
ENDBRANCH   3   4
ENDBRANCH   2   3
ENDBRANCH   1   2
BRANCH   1  26
ATOM     26  C   UNL A   1      35.920  21.097  24.979  1.00  0.00     0.002 C 
BRANCH  26  27
ATOM     27  C   UNL A   1      37.040  20.054  25.048  1.00  0.00     0.021 C 
BRANCH  27  28
ATOM     28  C   UNL A   1      38.411  20.640  25.353  1.00  0.00     0.116 C 
BRANCH  28  29
ATOM     29  N   UNL A   1      39.402  19.596  25.550  1.00  0.00    -0.352 N 
ATOM     30  C   UNL A   1      40.704  19.714  25.961  1.00  0.00     0.251 C 
ATOM     31  H   UNL A   1      39.095  18.680  25.365  1.00  0.00     0.163 HD
ATOM     32  O   UNL A   1      41.480  18.773  25.843  1.00  0.00    -0.269 OA
BRANCH  30  33
ATOM     33  C   UNL A   1      41.170  20.990  26.539  1.00  0.00     0.039 A 
ATOM     34  C   UNL A   1      41.726  21.954  25.696  1.00  0.00     0.014 A 
ATOM     35  C   UNL A   1      41.067  21.226  27.913  1.00  0.00     0.014 A 
ATOM     36  C   UNL A   1      42.147  23.173  26.228  1.00  0.00     0.010 A 
ATOM     37  C   UNL A   1      41.415  22.468  28.429  1.00  0.00     0.010 A 
ATOM     38  C   UNL A   1      41.975  23.447  27.595  1.00  0.00    -0.014 A 
BRANCH  38  39
ATOM     39  C   UNL A   1      42.400  24.742  28.179  1.00  0.00     0.031 A 
ATOM     40  C   UNL A   1      41.393  25.839  28.385  1.00  0.00     0.074 A 
ATOM     41  C   UNL A   1      43.698  24.951  28.466  1.00  0.00     0.049 A 
ATOM     42  N   UNL A   1      41.575  27.054  28.837  1.00  0.00    -0.248 NA
ATOM     43  C   UNL A   1      40.002  25.540  28.006  1.00  0.00     0.031 C 
ATOM     44  C   UNL A   1      44.776  23.978  28.279  1.00  0.00     0.029 A 
ATOM     45  N   UNL A   1      44.330  26.055  28.977  1.00  0.00    -0.354 N 
ATOM     46  C   UNL A   1      40.330  27.667  28.777  1.00  0.00     0.074 A 
ATOM     47  C   UNL A   1      39.414  26.711  28.195  1.00  0.00     0.031 C 
ATOM     48  C   UNL A   1      45.930  24.518  28.702  1.00  0.00     0.029 A 
ATOM     49  C   UNL A   1      45.682  25.883  29.151  1.00  0.00     0.049 A 
ATOM     50  H   UNL A   1      43.860  26.892  29.199  1.00  0.00     0.167 HD
ATOM     51  C   UNL A   1      39.975  28.908  29.189  1.00  0.00     0.031 A 
ATOM     52  C   UNL A   1      46.615  26.733  29.619  1.00  0.00     0.031 A 
ATOM     53  C   UNL A   1      40.886  29.854  29.775  1.00  0.00     0.049 A 
ATOM     54  C   UNL A   1      46.202  28.111  30.053  1.00  0.00     0.074 A 
ATOM     55  C   UNL A   1      40.617  31.114  30.279  1.00  0.00     0.029 A 
ATOM     56  N   UNL A   1      42.249  29.643  29.930  1.00  0.00    -0.354 N 
ATOM     57  N   UNL A   1      45.008  28.654  30.055  1.00  0.00    -0.248 NA
ATOM     58  C   UNL A   1      47.266  28.988  30.560  1.00  0.00     0.031 C 
ATOM     59  C   UNL A   1      41.826  31.688  30.687  1.00  0.00     0.029 A 
ATOM     60  C   UNL A   1      42.838  30.760  30.495  1.00  0.00     0.049 A 
ATOM     61  H   UNL A   1      42.725  28.820  29.675  1.00  0.00     0.167 HD
ATOM     62  C   UNL A   1      45.171  29.925  30.591  1.00  0.00     0.074 A 
ATOM     63  C   UNL A   1      46.578  30.065  30.914  1.00  0.00     0.031 C 
ATOM     64  C   UNL A   1      44.241  30.886  30.804  1.00  0.00     0.031 A 
BRANCH  51  65
ATOM     65  C   UNL A   1      38.538  29.309  28.998  1.00  0.00    -0.014 A 
ATOM     66  C   UNL A   1      38.070  29.795  27.765  1.00  0.00     0.009 A 
ATOM     67  C   UNL A   1      37.635  29.198  30.067  1.00  0.00     0.009 A 
ATOM     68  C   UNL A   1      36.744  30.209  27.622  1.00  0.00     0.001 A 
ATOM     69  C   UNL A   1      36.301  29.580  29.912  1.00  0.00     0.001 A 
ATOM     70  C   UNL A   1      35.859  30.098  28.695  1.00  0.00     0.000 A 
ENDBRANCH  51  65
BRANCH  52  71
ATOM     71  C   UNL A   1      48.028  26.288  29.731  1.00  0.00    -0.014 A 
ATOM     72  C   UNL A   1      48.895  26.402  28.634  1.00  0.00     0.009 A 
ATOM     73  C   UNL A   1      48.522  25.764  30.936  1.00  0.00     0.009 A 
ATOM     74  C   UNL A   1      50.223  25.980  28.734  1.00  0.00     0.001 A 
ATOM     75  C   UNL A   1      49.857  25.368  31.041  1.00  0.00     0.001 A 
ATOM     76  C   UNL A   1      50.704  25.470  29.939  1.00  0.00     0.000 A 
ENDBRANCH  52  71
BRANCH  64  77
ATOM     77  C   UNL A   1      44.705  32.162  31.447  1.00  0.00    -0.014 A 
ATOM     78  C   UNL A   1      45.116  33.263  30.679  1.00  0.00     0.009 A 
ATOM     79  C   UNL A   1      44.692  32.276  32.846  1.00  0.00     0.009 A 
ATOM     80  C   UNL A   1      45.536  34.439  31.303  1.00  0.00     0.001 A 
ATOM     81  C   UNL A   1      45.083  33.464  33.465  1.00  0.00     0.001 A 
ATOM     82  C   UNL A   1      45.514  34.541  32.693  1.00  0.00     0.000 A 
ENDBRANCH  64  77
ENDBRANCH  38  39
ENDBRANCH  30  33
ENDBRANCH  28  29
ENDBRANCH  27  28
ENDBRANCH  26  27
ENDBRANCH   1  26
TORSDOF 16
ENDMDL
MODEL 2
REMARK VINA RESULT:     -11.0      1.541      6.269
REMARK SMILES C[C@H](C(=O)NCCCCCCNC(=O)c1ccc(-c2c3nc(c(-c4ccccc4)c4ccc([nH]4)c(-c4ccccc4)c4nc(c(-c5ccccc5)c5ccc2[nH]5)C=C4)C=C3)cc1)[C@H](C)[NH+]1CCN(c2ccccc2Cl)CC1
REMARK SMILES IDX 8 1 7 2 6 3 5 4 3 5 4 6 2 8 1 9 63 10 64 11 65 12 66 13
REMARK SMILES IDX 77 14 67 16 76 17 68 18 69 19 70 20 74 21 71 22 73 23 75 24
REMARK SMILES IDX 72 25 9 26 10 27 11 28 12 29 13 30 14 32 15 33 16 34 62 35
REMARK SMILES IDX 17 36 61 37 18 38 19 39 20 40 55 41 21 42 60 43 54 44 56 45
REMARK SMILES IDX 22 46 59 47 53 48 52 49 23 51 45 52 30 53 44 54 31 55 34 56
REMARK SMILES IDX 43 57 57 58 32 59 33 60 42 62 58 63 35 64 24 65 25 66 29 67
REMARK SMILES IDX 26 68 28 69 27 70 46 71 47 72 51 73 48 74 50 75 49 76 36 77
REMARK SMILES IDX 37 78 41 79 38 80 40 81 39 82
REMARK H PARENT 5 7 65 15 12 31 56 50 34 61
REMARK Flexibility Score: inf
ROOT
ATOM      1  C   UNL A   1      38.243  22.566  25.092  1.00  0.00     0.002 C 
ENDROOT
BRANCH   1   2
ATOM      2  C   UNL A   1      37.560  23.411  26.175  1.00  0.00     0.021 C 
BRANCH   2   3
ATOM      3  C   UNL A   1      36.058  23.573  25.956  1.00  0.00     0.116 C 
BRANCH   3   4
ATOM      4  N   UNL A   1      35.324  22.645  26.781  1.00  0.00    -0.356 N 
ATOM      5  C   UNL A   1      34.139  22.020  26.644  1.00  0.00     0.228 C 
ATOM      6  O   UNL A   1      33.746  21.418  27.655  1.00  0.00    -0.275 OA
ATOM      7  H   UNL A   1      35.787  22.421  27.621  1.00  0.00     0.163 HD
BRANCH   5   8
ATOM      8  C   UNL A   1      33.275  22.000  25.376  1.00  0.00     0.133 C 
ATOM      9  C   UNL A   1      32.807  20.687  24.760  1.00  0.00     0.024 C 
BRANCH   8  10
ATOM     10  C   UNL A   1      32.079  22.978  25.633  1.00  0.00     0.193 C 
ATOM     11  C   UNL A   1      30.777  22.177  25.880  1.00  0.00     0.076 C 
BRANCH  10  12
ATOM     12  N   UNL A   1      31.849  23.983  24.558  1.00  0.00    -0.329 N 
ATOM     13  C   UNL A   1      30.631  24.805  24.828  1.00  0.00     0.284 C 
ATOM     14  C   UNL A   1      32.977  24.938  24.375  1.00  0.00     0.284 C 
ATOM     15  H   UNL A   1      31.744  23.422  23.713  1.00  0.00     0.348 HD
ATOM     16  C   UNL A   1      30.752  25.835  25.985  1.00  0.00     0.178 C 
ATOM     17  C   UNL A   1      33.202  25.900  25.560  1.00  0.00     0.178 C 
ATOM     18  N   UNL A   1      31.966  26.639  25.818  1.00  0.00    -0.359 N 
BRANCH  18  19
ATOM     19  C   UNL A   1      31.939  28.014  25.946  1.00  0.00     0.056 A 
ATOM     20  C   UNL A   1      32.518  28.603  27.084  1.00  0.00     0.027 A 
ATOM     21  C   UNL A   1      31.335  28.886  25.012  1.00  0.00     0.064 A 
ATOM     22  C   UNL A   1      32.502  29.985  27.290  1.00  0.00     0.002 A 
ATOM     23  C   UNL A   1      31.318  30.272  25.220  1.00  0.00     0.023 A 
ATOM     24  Cl  UNL A   1      30.484  28.325  23.610  1.00  0.00    -0.082 Cl
ATOM     25  C   UNL A   1      31.899  30.821  26.358  1.00  0.00     0.002 A 
ENDBRANCH  18  19
ENDBRANCH  10  12
ENDBRANCH   8  10
ENDBRANCH   5   8
ENDBRANCH   3   4
ENDBRANCH   2   3
ENDBRANCH   1   2
BRANCH   1  26
ATOM     26  C   UNL A   1      37.436  21.349  24.622  1.00  0.00     0.002 C 
BRANCH  26  27
ATOM     27  C   UNL A   1      38.113  19.997  24.863  1.00  0.00     0.021 C 
BRANCH  27  28
ATOM     28  C   UNL A   1      38.964  19.948  26.123  1.00  0.00     0.116 C 
BRANCH  28  29
ATOM     29  N   UNL A   1      40.172  19.169  25.917  1.00  0.00    -0.352 N 
ATOM     30  C   UNL A   1      41.478  19.585  25.944  1.00  0.00     0.251 C 
ATOM     31  H   UNL A   1      40.034  18.212  25.735  1.00  0.00     0.163 HD
ATOM     32  O   UNL A   1      42.369  18.863  25.511  1.00  0.00    -0.269 OA
BRANCH  30  33
ATOM     33  C   UNL A   1      41.804  20.917  26.491  1.00  0.00     0.039 A 
ATOM     34  C   UNL A   1      42.144  21.947  25.612  1.00  0.00     0.014 A 
ATOM     35  C   UNL A   1      41.784  21.142  27.871  1.00  0.00     0.014 A 
ATOM     36  C   UNL A   1      42.430  23.216  26.116  1.00  0.00     0.010 A 
ATOM     37  C   UNL A   1      41.993  22.423  28.365  1.00  0.00     0.010 A 
ATOM     38  C   UNL A   1      42.336  23.468  27.495  1.00  0.00    -0.014 A 
BRANCH  38  39
ATOM     39  C   UNL A   1      42.619  24.813  28.051  1.00  0.00     0.031 A 
ATOM     40  C   UNL A   1      44.015  25.168  28.481  1.00  0.00     0.074 A 
ATOM     41  C   UNL A   1      41.614  25.691  28.223  1.00  0.00     0.049 A 
ATOM     42  N   UNL A   1      44.456  26.272  29.031  1.00  0.00    -0.248 NA
ATOM     43  C   UNL A   1      45.048  24.136  28.295  1.00  0.00     0.031 C 
ATOM     44  C   UNL A   1      40.211  25.452  27.877  1.00  0.00     0.029 A 
ATOM     45  N   UNL A   1      41.619  26.963  28.735  1.00  0.00    -0.354 N 
ATOM     46  C   UNL A   1      45.807  26.058  29.273  1.00  0.00     0.074 A 
ATOM     47  C   UNL A   1      46.101  24.702  28.863  1.00  0.00     0.031 C 
ATOM     48  C   UNL A   1      39.499  26.556  28.155  1.00  0.00     0.029 A 
ATOM     49  C   UNL A   1      40.383  27.561  28.735  1.00  0.00     0.049 A 
ATOM     50  H   UNL A   1      42.433  27.406  29.072  1.00  0.00     0.167 HD
ATOM     51  C   UNL A   1      46.726  26.918  29.774  1.00  0.00     0.031 A 
ATOM     52  C   UNL A   1      40.006  28.782  29.156  1.00  0.00     0.031 A 
ATOM     53  C   UNL A   1      46.431  28.268  30.174  1.00  0.00     0.049 A 
ATOM     54  C   UNL A   1      41.039  29.714  29.725  1.00  0.00     0.074 A 
ATOM     55  C   UNL A   1      47.299  29.239  30.638  1.00  0.00     0.029 A 
ATOM     56  N   UNL A   1      45.165  28.835  30.162  1.00  0.00    -0.354 N 
ATOM     57  N   UNL A   1      42.326  29.523  29.885  1.00  0.00    -0.248 NA
ATOM     58  C   UNL A   1      40.565  31.035  30.160  1.00  0.00     0.031 C 
ATOM     59  C   UNL A   1      46.550  30.376  30.961  1.00  0.00     0.029 A 
ATOM     60  C   UNL A   1      45.224  30.133  30.638  1.00  0.00     0.049 A 
ATOM     61  H   UNL A   1      44.345  28.380  29.860  1.00  0.00     0.167 HD
ATOM     62  C   UNL A   1      42.823  30.709  30.410  1.00  0.00     0.074 A 
ATOM     63  C   UNL A   1      41.698  31.616  30.530  1.00  0.00     0.031 C 
ATOM     64  C   UNL A   1      44.095  31.021  30.756  1.00  0.00     0.031 A 
BRANCH  51  65
ATOM     65  C   UNL A   1      48.131  26.406  29.930  1.00  0.00    -0.014 A 
ATOM     66  C   UNL A   1      48.566  25.807  31.124  1.00  0.00     0.009 A 
ATOM     67  C   UNL A   1      49.037  26.522  28.863  1.00  0.00     0.009 A 
ATOM     68  C   UNL A   1      49.889  25.384  31.265  1.00  0.00     0.001 A 
ATOM     69  C   UNL A   1      50.351  26.067  28.994  1.00  0.00     0.001 A 
ATOM     70  C   UNL A   1      50.779  25.511  30.199  1.00  0.00     0.000 A 
ENDBRANCH  51  65
BRANCH  52  71
ATOM     71  C   UNL A   1      38.588  29.204  29.022  1.00  0.00    -0.014 A 
ATOM     72  C   UNL A   1      38.110  29.700  27.799  1.00  0.00     0.009 A 
ATOM     73  C   UNL A   1      37.702  29.098  30.104  1.00  0.00     0.009 A 
ATOM     74  C   UNL A   1      36.779  30.102  27.670  1.00  0.00     0.001 A 
ATOM     75  C   UNL A   1      36.364  29.475  29.964  1.00  0.00     0.001 A 
ATOM     76  C   UNL A   1      35.905  29.983  28.750  1.00  0.00     0.000 A 
ENDBRANCH  52  71
BRANCH  64  77
ATOM     77  C   UNL A   1      44.347  32.412  31.263  1.00  0.00    -0.014 A 
ATOM     78  C   UNL A   1      44.359  32.700  32.637  1.00  0.00     0.009 A 
ATOM     79  C   UNL A   1      44.618  33.444  30.350  1.00  0.00     0.009 A 
ATOM     80  C   UNL A   1      44.603  34.002  33.082  1.00  0.00     0.001 A 
ATOM     81  C   UNL A   1      44.892  34.735  30.799  1.00  0.00     0.001 A 
ATOM     82  C   UNL A   1      44.875  35.016  32.164  1.00  0.00     0.000 A 
ENDBRANCH  64  77
ENDBRANCH  38  39
ENDBRANCH  30  33
ENDBRANCH  28  29
ENDBRANCH  27  28
ENDBRANCH  26  27
ENDBRANCH   1  26
TORSDOF 16
ENDMDL
MODEL 3
REMARK VINA RESULT:     -10.3      2.990      8.148
REMARK SMILES C[C@H](C(=O)NCCCCCCNC(=O)c1ccc(-c2c3nc(c(-c4ccccc4)c4ccc([nH]4)c(-c4ccccc4)c4nc(c(-c5ccccc5)c5ccc2[nH]5)C=C4)C=C3)cc1)[C@H](C)[NH+]1CCN(c2ccccc2Cl)CC1
REMARK SMILES IDX 8 1 7 2 6 3 5 4 3 5 4 6 2 8 1 9 63 10 64 11 65 12 66 13
REMARK SMILES IDX 77 14 67 16 76 17 68 18 69 19 70 20 74 21 71 22 73 23 75 24
REMARK SMILES IDX 72 25 9 26 10 27 11 28 12 29 13 30 14 32 15 33 16 34 62 35
REMARK SMILES IDX 17 36 61 37 18 38 19 39 20 40 55 41 21 42 60 43 54 44 56 45
REMARK SMILES IDX 22 46 59 47 53 48 52 49 23 51 45 52 30 53 44 54 31 55 34 56
REMARK SMILES IDX 43 57 57 58 32 59 33 60 42 62 58 63 35 64 24 65 25 66 29 67
REMARK SMILES IDX 26 68 28 69 27 70 46 71 47 72 51 73 48 74 50 75 49 76 36 77
REMARK SMILES IDX 37 78 41 79 38 80 40 81 39 82
REMARK H PARENT 5 7 65 15 12 31 56 50 34 61
REMARK Flexibility Score: inf
ROOT
ATOM      1  C   UNL A   1      32.045  28.672  26.685  1.00  0.00     0.002 C 
ENDROOT
BRANCH   1   2
ATOM      2  C   UNL A   1      31.888  28.844  25.169  1.00  0.00     0.021 C 
BRANCH   2   3
ATOM      3  C   UNL A   1      31.154  27.683  24.503  1.00  0.00     0.116 C 
BRANCH   3   4
ATOM      4  N   UNL A   1      30.536  26.838  25.495  1.00  0.00    -0.356 N 
ATOM      5  C   UNL A   1      30.192  25.536  25.520  1.00  0.00     0.228 C 
ATOM      6  O   UNL A   1      29.511  25.195  26.499  1.00  0.00    -0.275 OA
ATOM      7  H   UNL A   1      30.322  27.313  26.330  1.00  0.00     0.163 HD
BRANCH   5   8
ATOM      8  C   UNL A   1      30.568  24.487  24.465  1.00  0.00     0.133 C 
ATOM      9  C   UNL A   1      30.992  24.897  23.060  1.00  0.00     0.024 C 
BRANCH   8  10
ATOM     10  C   UNL A   1      31.617  23.535  25.132  1.00  0.00     0.193 C 
ATOM     11  C   UNL A   1      30.899  22.340  25.808  1.00  0.00     0.076 C 
BRANCH  10  12
ATOM     12  N   UNL A   1      32.524  24.190  26.114  1.00  0.00    -0.329 N 
ATOM     13  C   UNL A   1      33.141  23.194  27.042  1.00  0.00     0.284 C 
ATOM     14  C   UNL A   1      33.647  24.942  25.487  1.00  0.00     0.284 C 
ATOM     15  H   UNL A   1      31.920  24.844  26.612  1.00  0.00     0.348 HD
ATOM     16  C   UNL A   1      34.222  22.268  26.419  1.00  0.00     0.178 C 
ATOM     17  C   UNL A   1      34.680  24.059  24.755  1.00  0.00     0.178 C 
ATOM     18  N   UNL A   1      35.211  23.068  25.690  1.00  0.00    -0.359 N 
BRANCH  18  19
ATOM     19  C   UNL A   1      36.566  22.855  25.853  1.00  0.00     0.056 A 
ATOM     20  C   UNL A   1      37.369  23.910  26.320  1.00  0.00     0.027 A 
ATOM     21  C   UNL A   1      37.220  21.640  25.549  1.00  0.00     0.064 A 
ATOM     22  C   UNL A   1      38.751  23.773  26.482  1.00  0.00     0.002 A 
ATOM     23  C   UNL A   1      38.606  21.502  25.710  1.00  0.00     0.023 A 
ATOM     24  Cl  UNL A   1      36.402  20.274  24.864  1.00  0.00    -0.082 Cl
ATOM     25  C   UNL A   1      39.371  22.567  26.174  1.00  0.00     0.002 A 
ENDBRANCH  18  19
ENDBRANCH  10  12
ENDBRANCH   8  10
ENDBRANCH   5   8
ENDBRANCH   3   4
ENDBRANCH   2   3
ENDBRANCH   1   2
BRANCH   1  26
ATOM     26  C   UNL A   1      33.495  28.667  27.185  1.00  0.00     0.002 C 
BRANCH  26  27
ATOM     27  C   UNL A   1      34.128  30.054  27.333  1.00  0.00     0.021 C 
BRANCH  27  28
ATOM     28  C   UNL A   1      35.520  30.035  27.947  1.00  0.00     0.116 C 
BRANCH  28  29
ATOM     29  N   UNL A   1      35.468  30.241  29.385  1.00  0.00    -0.352 N 
ATOM     30  C   UNL A   1      36.398  29.906  30.334  1.00  0.00     0.251 C 
ATOM     31  H   UNL A   1      34.655  30.681  29.721  1.00  0.00     0.163 HD
ATOM     32  O   UNL A   1      36.104  29.922  31.524  1.00  0.00    -0.269 OA
BRANCH  30  33
ATOM     33  C   UNL A   1      37.758  29.515  29.913  1.00  0.00     0.039 A 
ATOM     34  C   UNL A   1      38.160  29.770  28.600  1.00  0.00     0.014 A 
ATOM     35  C   UNL A   1      38.627  28.887  30.810  1.00  0.00     0.014 A 
ATOM     36  C   UNL A   1      39.451  29.428  28.197  1.00  0.00     0.010 A 
ATOM     37  C   UNL A   1      39.936  28.618  30.431  1.00  0.00     0.010 A 
ATOM     38  C   UNL A   1      40.355  28.869  29.116  1.00  0.00    -0.014 A 
BRANCH  38  39
ATOM     39  C   UNL A   1      41.737  28.513  28.714  1.00  0.00     0.031 A 
ATOM     40  C   UNL A   1      42.053  27.109  28.279  1.00  0.00     0.074 A 
ATOM     41  C   UNL A   1      42.715  29.433  28.796  1.00  0.00     0.049 A 
ATOM     42  N   UNL A   1      43.205  26.590  27.935  1.00  0.00    -0.248 NA
ATOM     43  C   UNL A   1      40.933  26.154  28.257  1.00  0.00     0.031 C 
ATOM     44  C   UNL A   1      42.541  30.819  29.235  1.00  0.00     0.029 A 
ATOM     45  N   UNL A   1      44.054  29.338  28.513  1.00  0.00    -0.354 N 
ATOM     46  C   UNL A   1      42.950  25.249  27.675  1.00  0.00     0.074 A 
ATOM     47  C   UNL A   1      41.550  25.022  27.956  1.00  0.00     0.031 C 
ATOM     48  C   UNL A   1      43.722  31.453  29.159  1.00  0.00     0.029 A 
ATOM     49  C   UNL A   1      44.741  30.511  28.707  1.00  0.00     0.049 A 
ATOM     50  H   UNL A   1      44.482  28.507  28.201  1.00  0.00     0.167 HD
ATOM     51  C   UNL A   1      43.800  24.295  27.225  1.00  0.00     0.031 A 
ATOM     52  C   UNL A   1      46.045  30.795  28.538  1.00  0.00     0.031 A 
ATOM     53  C   UNL A   1      45.191  24.526  26.940  1.00  0.00     0.049 A 
ATOM     54  C   UNL A   1      46.974  29.717  28.055  1.00  0.00     0.074 A 
ATOM     55  C   UNL A   1      46.124  23.644  26.425  1.00  0.00     0.029 A 
ATOM     56  N   UNL A   1      45.850  25.728  27.153  1.00  0.00    -0.354 N 
ATOM     57  N   UNL A   1      46.706  28.471  27.748  1.00  0.00    -0.248 NA
ATOM     58  C   UNL A   1      48.385  30.091  27.885  1.00  0.00     0.031 C 
ATOM     59  C   UNL A   1      47.362  24.296  26.380  1.00  0.00     0.029 A 
ATOM     60  C   UNL A   1      47.184  25.603  26.807  1.00  0.00     0.049 A 
ATOM     61  H   UNL A   1      45.431  26.548  27.500  1.00  0.00     0.167 HD
ATOM     62  C   UNL A   1      47.907  27.919  27.319  1.00  0.00     0.074 A 
ATOM     63  C   UNL A   1      48.901  28.972  27.395  1.00  0.00     0.031 C 
ATOM     64  C   UNL A   1      48.162  26.658  26.895  1.00  0.00     0.031 A 
BRANCH  51  65
ATOM     65  C   UNL A   1      43.241  22.912  27.033  1.00  0.00    -0.014 A 
ATOM     66  C   UNL A   1      42.679  22.194  28.102  1.00  0.00     0.009 A 
ATOM     67  C   UNL A   1      43.274  22.317  25.762  1.00  0.00     0.009 A 
ATOM     68  C   UNL A   1      42.210  20.892  27.913  1.00  0.00     0.001 A 
ATOM     69  C   UNL A   1      42.773  21.028  25.568  1.00  0.00     0.001 A 
ATOM     70  C   UNL A   1      42.255  20.311  26.646  1.00  0.00     0.000 A 
ENDBRANCH  51  65
BRANCH  52  71
ATOM     71  C   UNL A   1      46.541  32.171  28.798  1.00  0.00    -0.014 A 
ATOM     72  C   UNL A   1      47.009  32.526  30.072  1.00  0.00     0.009 A 
ATOM     73  C   UNL A   1      46.566  33.130  27.774  1.00  0.00     0.009 A 
ATOM     74  C   UNL A   1      47.472  33.820  30.321  1.00  0.00     0.001 A 
ATOM     75  C   UNL A   1      47.054  34.415  28.019  1.00  0.00     0.001 A 
ATOM     76  C   UNL A   1      47.500  34.761  29.293  1.00  0.00     0.000 A 
ENDBRANCH  52  71
BRANCH  64  77
ATOM     77  C   UNL A   1      49.563  26.355  26.444  1.00  0.00    -0.014 A 
ATOM     78  C   UNL A   1      50.463  25.660  27.268  1.00  0.00     0.009 A 
ATOM     79  C   UNL A   1      49.975  26.737  25.158  1.00  0.00     0.009 A 
ATOM     80  C   UNL A   1      51.758  25.386  26.822  1.00  0.00     0.001 A 
ATOM     81  C   UNL A   1      51.258  26.433  24.704  1.00  0.00     0.001 A 
ATOM     82  C   UNL A   1      52.152  25.766  25.540  1.00  0.00     0.000 A 
ENDBRANCH  64  77
ENDBRANCH  38  39
ENDBRANCH  30  33
ENDBRANCH  28  29
ENDBRANCH  27  28
ENDBRANCH  26  27
ENDBRANCH   1  26
TORSDOF 16
ENDMDL
