MODEL 1
REMARK VINA RESULT:     -12.6      0.000      0.000
REMARK SMILES O=C(NCCCCCCNC(=O)[C@H]1CC=CC[C@@H]1C(=O)Nc1nn(Cc2ccccc2F)cc1Br)c1ccc(-c2c3nc(c(-c4ccccc4)c4ccc([nH]4)c(-c4ccccc4)c4nc(c(-c5ccccc5)c5ccc2[nH]5)C=C4)C=C3)cc1
REMARK SMILES IDX 7 1 6 2 5 3 4 4 3 5 1 6 2 7 36 9 37 10 83 11 38 12 82 13
REMARK SMILES IDX 39 14 40 15 41 16 76 17 42 18 81 19 75 20 77 21 43 22 80 23
REMARK SMILES IDX 74 24 73 25 44 27 66 28 51 29 65 30 52 31 55 32 64 33 78 34
REMARK SMILES IDX 53 35 54 36 63 38 79 39 56 40 45 41 46 42 50 43 47 44 49 45
REMARK SMILES IDX 48 46 67 47 68 48 72 49 69 50 71 51 70 52 57 53 58 54 62 55
REMARK SMILES IDX 59 56 61 57 60 58 8 59 9 60 10 61 11 62 12 64 13 65 14 66
REMARK SMILES IDX 18 67 15 68 17 69 16 70 19 71 20 72 21 73 22 75 23 76 34 77
REMARK SMILES IDX 24 78 33 79 35 80 25 81 26 82 27 83 31 84 28 85 30 86 32 87
REMARK SMILES IDX 29 88
REMARK H PARENT 3 8 77 26 55 37 10 63 21 74
REMARK Flexibility Score: inf
ROOT
ATOM      1  C   UNL A   1      32.188  29.062  26.930  1.00  0.00     0.002 C 
ENDROOT
BRANCH   1   2
ATOM      2  C   UNL A   1      33.650  28.791  26.582  1.00  0.00     0.002 C 
BRANCH   2   3
ATOM      3  C   UNL A   1      34.663  29.338  27.587  1.00  0.00     0.021 C 
BRANCH   3   4
ATOM      4  C   UNL A   1      34.787  30.864  27.635  1.00  0.00     0.116 C 
BRANCH   4   5
ATOM      5  N   UNL A   1      34.674  31.466  28.949  1.00  0.00    -0.352 N 
ATOM      6  O   UNL A   1      35.201  32.315  30.939  1.00  0.00    -0.269 OA
ATOM      7  C   UNL A   1      35.539  31.584  30.004  1.00  0.00     0.251 C 
ATOM      8  H   UNL A   1      33.794  31.873  29.120  1.00  0.00     0.163 HD
BRANCH   7   9
ATOM      9  C   UNL A   1      36.799  30.809  30.123  1.00  0.00     0.039 A 
ATOM     10  C   UNL A   1      38.062  31.289  29.778  1.00  0.00     0.014 A 
ATOM     11  C   UNL A   1      36.676  29.485  30.577  1.00  0.00     0.014 A 
ATOM     12  C   UNL A   1      39.144  30.425  29.713  1.00  0.00     0.010 A 
ATOM     13  C   UNL A   1      37.771  28.630  30.576  1.00  0.00     0.010 A 
ATOM     14  C   UNL A   1      38.993  29.090  30.090  1.00  0.00    -0.014 A 
BRANCH  14  15
ATOM     15  C   UNL A   1      40.195  28.264  30.112  1.00  0.00     0.031 A 
ATOM     16  C   UNL A   1      40.886  28.206  31.433  1.00  0.00     0.074 A 
ATOM     17  C   UNL A   1      40.593  27.487  29.086  1.00  0.00     0.049 A 
ATOM     18  N   UNL A   1      42.105  28.528  31.719  1.00  0.00    -0.248 NA
ATOM     19  C   UNL A   1      40.074  27.826  32.599  1.00  0.00     0.031 C 
ATOM     20  C   UNL A   1      39.871  27.200  27.847  1.00  0.00     0.029 A 
ATOM     21  N   UNL A   1      41.688  26.680  29.006  1.00  0.00    -0.354 N 
ATOM     22  C   UNL A   1      42.271  28.235  33.073  1.00  0.00     0.074 A 
ATOM     23  C   UNL A   1      40.960  27.933  33.588  1.00  0.00     0.031 C 
ATOM     24  C   UNL A   1      40.417  26.109  27.263  1.00  0.00     0.029 A 
ATOM     25  C   UNL A   1      41.594  25.711  28.017  1.00  0.00     0.049 A 
ATOM     26  H   UNL A   1      42.472  26.775  29.594  1.00  0.00     0.167 HD
ATOM     27  C   UNL A   1      43.499  28.044  33.628  1.00  0.00     0.031 A 
ATOM     28  C   UNL A   1      42.378  24.615  27.879  1.00  0.00     0.031 A 
ATOM     29  C   UNL A   1      44.553  28.597  32.821  1.00  0.00     0.049 A 
ATOM     30  C   UNL A   1      43.616  24.830  28.660  1.00  0.00     0.074 A 
ATOM     31  C   UNL A   1      44.878  29.854  32.352  1.00  0.00     0.029 A 
ATOM     32  N   UNL A   1      45.319  27.720  32.092  1.00  0.00    -0.354 N 
ATOM     33  N   UNL A   1      44.539  25.688  28.333  1.00  0.00    -0.248 NA
ATOM     34  C   UNL A   1      43.656  24.363  30.037  1.00  0.00     0.031 C 
ATOM     35  C   UNL A   1      45.445  29.633  31.063  1.00  0.00     0.029 A 
ATOM     36  C   UNL A   1      45.466  28.254  30.843  1.00  0.00     0.049 A 
ATOM     37  H   UNL A   1      45.692  26.865  32.411  1.00  0.00     0.167 HD
ATOM     38  C   UNL A   1      44.992  26.194  29.542  1.00  0.00     0.074 A 
ATOM     39  C   UNL A   1      44.502  25.258  30.552  1.00  0.00     0.031 C 
ATOM     40  C   UNL A   1      45.476  27.468  29.632  1.00  0.00     0.031 A 
BRANCH  27  41
ATOM     41  C   UNL A   1      43.774  26.981  34.670  1.00  0.00    -0.014 A 
ATOM     42  C   UNL A   1      43.291  25.677  34.444  1.00  0.00     0.009 A 
ATOM     43  C   UNL A   1      44.200  27.274  35.980  1.00  0.00     0.009 A 
ATOM     44  C   UNL A   1      43.130  24.766  35.494  1.00  0.00     0.001 A 
ATOM     45  C   UNL A   1      44.085  26.350  37.021  1.00  0.00     0.001 A 
ATOM     46  C   UNL A   1      43.513  25.109  36.786  1.00  0.00     0.000 A 
ENDBRANCH  27  41
BRANCH  28  47
ATOM     47  C   UNL A   1      42.012  23.290  27.338  1.00  0.00    -0.014 A 
ATOM     48  C   UNL A   1      42.842  22.636  26.415  1.00  0.00     0.009 A 
ATOM     49  C   UNL A   1      40.971  22.548  27.925  1.00  0.00     0.009 A 
ATOM     50  C   UNL A   1      42.655  21.279  26.117  1.00  0.00     0.001 A 
ATOM     51  C   UNL A   1      40.780  21.197  27.623  1.00  0.00     0.001 A 
ATOM     52  C   UNL A   1      41.633  20.558  26.730  1.00  0.00     0.000 A 
ENDBRANCH  28  47
BRANCH  40  53
ATOM     53  C   UNL A   1      45.759  28.212  28.354  1.00  0.00    -0.014 A 
ATOM     54  C   UNL A   1      44.794  28.997  27.700  1.00  0.00     0.009 A 
ATOM     55  C   UNL A   1      47.079  28.245  27.881  1.00  0.00     0.009 A 
ATOM     56  C   UNL A   1      45.135  29.766  26.584  1.00  0.00     0.001 A 
ATOM     57  C   UNL A   1      47.424  29.031  26.779  1.00  0.00     0.001 A 
ATOM     58  C   UNL A   1      46.451  29.786  26.127  1.00  0.00     0.000 A 
ENDBRANCH  40  53
ENDBRANCH  14  15
ENDBRANCH   7   9
ENDBRANCH   4   5
ENDBRANCH   3   4
ENDBRANCH   2   3
ENDBRANCH   1   2
BRANCH   1  59
ATOM     59  C   UNL A   1      31.415  27.852  27.470  1.00  0.00     0.021 C 
BRANCH  59  60
ATOM     60  C   UNL A   1      31.048  26.789  26.437  1.00  0.00     0.116 C 
BRANCH  60  61
ATOM     61  N   UNL A   1      31.657  25.520  26.778  1.00  0.00    -0.356 N 
ATOM     62  C   UNL A   1      32.356  24.641  26.002  1.00  0.00     0.224 C 
ATOM     63  H   UNL A   1      31.550  25.248  27.718  1.00  0.00     0.163 HD
ATOM     64  O   UNL A   1      32.493  23.507  26.465  1.00  0.00    -0.275 OA
BRANCH  62  65
ATOM     65  C   UNL A   1      32.948  25.089  24.655  1.00  0.00     0.095 C 
ATOM     66  C   UNL A   1      34.475  24.926  24.656  1.00  0.00     0.041 C 
ATOM     67  C   UNL A   1      32.313  24.321  23.472  1.00  0.00     0.095 C 
ATOM     68  C   UNL A   1      34.925  23.509  24.466  1.00  0.00    -0.030 C 
ATOM     69  C   UNL A   1      32.711  22.814  23.520  1.00  0.00     0.041 C 
ATOM     70  C   UNL A   1      34.122  22.555  23.979  1.00  0.00    -0.030 C 
BRANCH  67  71
ATOM     71  C   UNL A   1      32.666  24.889  22.085  1.00  0.00     0.229 C 
ATOM     72  O   UNL A   1      33.315  24.220  21.267  1.00  0.00    -0.274 OA
ATOM     73  N   UNL A   1      32.218  26.082  21.612  1.00  0.00    -0.308 N 
ATOM     74  H   UNL A   1      32.384  26.213  20.650  1.00  0.00     0.171 HD
BRANCH  73  75
ATOM     75  C   UNL A   1      31.581  27.141  22.208  1.00  0.00     0.168 A 
ATOM     76  N   UNL A   1      30.271  27.230  22.427  1.00  0.00    -0.153 NA
ATOM     77  C   UNL A   1      32.231  28.270  22.763  1.00  0.00     0.080 A 
ATOM     78  N   UNL A   1      30.077  28.492  22.866  1.00  0.00    -0.265 N 
ATOM     79  C   UNL A   1      31.245  29.113  23.205  1.00  0.00     0.127 A 
ATOM     80  Br  UNL A   1      34.076  28.572  22.822  1.00  0.00    -0.045 Br
BRANCH  78  81
ATOM     81  C   UNL A   1      28.730  28.983  23.139  1.00  0.00     0.182 C 
BRANCH  81  82
ATOM     82  C   UNL A   1      28.359  30.349  22.597  1.00  0.00     0.009 A 
ATOM     83  C   UNL A   1      28.029  30.446  21.232  1.00  0.00     0.008 A 
ATOM     84  C   UNL A   1      28.498  31.555  23.298  1.00  0.00     0.128 A 
ATOM     85  C   UNL A   1      27.891  31.691  20.605  1.00  0.00     0.001 A 
ATOM     86  C   UNL A   1      28.405  32.795  22.672  1.00  0.00     0.039 A 
ATOM     87  F   UNL A   1      28.745  31.581  24.606  1.00  0.00    -0.207 F 
ATOM     88  C   UNL A   1      28.107  32.867  21.320  1.00  0.00     0.003 A 
ENDBRANCH  81  82
ENDBRANCH  78  81
ENDBRANCH  73  75
ENDBRANCH  67  71
ENDBRANCH  62  65
ENDBRANCH  60  61
ENDBRANCH  59  60
ENDBRANCH   1  59
TORSDOF 17
ENDMDL
MODEL 2
REMARK VINA RESULT:     -12.2      3.822      9.094
REMARK SMILES O=C(NCCCCCCNC(=O)[C@H]1CC=CC[C@@H]1C(=O)Nc1nn(Cc2ccccc2F)cc1Br)c1ccc(-c2c3nc(c(-c4ccccc4)c4ccc([nH]4)c(-c4ccccc4)c4nc(c(-c5ccccc5)c5ccc2[nH]5)C=C4)C=C3)cc1
REMARK SMILES IDX 7 1 6 2 5 3 4 4 3 5 1 6 2 7 36 9 37 10 83 11 38 12 82 13
REMARK SMILES IDX 39 14 40 15 41 16 76 17 42 18 81 19 75 20 77 21 43 22 80 23
REMARK SMILES IDX 74 24 73 25 44 27 66 28 51 29 65 30 52 31 55 32 64 33 78 34
REMARK SMILES IDX 53 35 54 36 63 38 79 39 56 40 45 41 46 42 50 43 47 44 49 45
REMARK SMILES IDX 48 46 67 47 68 48 72 49 69 50 71 51 70 52 57 53 58 54 62 55
REMARK SMILES IDX 59 56 61 57 60 58 8 59 9 60 10 61 11 62 12 64 13 65 14 66
REMARK SMILES IDX 18 67 15 68 17 69 16 70 19 71 20 72 21 73 22 75 23 76 34 77
REMARK SMILES IDX 24 78 33 79 35 80 25 81 26 82 27 83 31 84 28 85 30 86 32 87
REMARK SMILES IDX 29 88
REMARK H PARENT 3 8 77 26 55 37 10 63 21 74
REMARK Flexibility Score: inf
ROOT
ATOM      1  C   UNL A   1      36.444  23.655  24.305  1.00  0.00     0.002 C 
ENDROOT
BRANCH   1   2
ATOM      2  C   UNL A   1      37.243  22.708  25.196  1.00  0.00     0.002 C 
BRANCH   2   3
ATOM      3  C   UNL A   1      38.267  23.388  26.104  1.00  0.00     0.021 C 
BRANCH   3   4
ATOM      4  C   UNL A   1      39.368  22.476  26.655  1.00  0.00     0.116 C 
BRANCH   4   5
ATOM      5  N   UNL A   1      40.622  22.490  25.927  1.00  0.00    -0.352 N 
ATOM      6  O   UNL A   1      42.712  22.964  25.323  1.00  0.00    -0.269 OA
ATOM      7  C   UNL A   1      41.709  23.322  25.946  1.00  0.00     0.251 C 
ATOM      8  H   UNL A   1      40.711  21.748  25.286  1.00  0.00     0.163 HD
BRANCH   7   9
ATOM      9  C   UNL A   1      41.707  24.661  26.587  1.00  0.00     0.039 A 
ATOM     10  C   UNL A   1      42.192  24.930  27.866  1.00  0.00     0.014 A 
ATOM     11  C   UNL A   1      41.127  25.705  25.847  1.00  0.00     0.014 A 
ATOM     12  C   UNL A   1      41.947  26.157  28.463  1.00  0.00     0.010 A 
ATOM     13  C   UNL A   1      40.936  26.958  26.417  1.00  0.00     0.010 A 
ATOM     14  C   UNL A   1      41.298  27.162  27.746  1.00  0.00    -0.014 A 
BRANCH  14  15
ATOM     15  C   UNL A   1      41.176  28.466  28.389  1.00  0.00     0.031 A 
ATOM     16  C   UNL A   1      42.315  29.395  28.133  1.00  0.00     0.074 A 
ATOM     17  C   UNL A   1      40.075  28.882  29.043  1.00  0.00     0.049 A 
ATOM     18  N   UNL A   1      43.094  29.970  28.990  1.00  0.00    -0.248 NA
ATOM     19  C   UNL A   1      42.683  29.634  26.729  1.00  0.00     0.031 C 
ATOM     20  C   UNL A   1      38.774  28.217  29.123  1.00  0.00     0.029 A 
ATOM     21  N   UNL A   1      39.857  30.073  29.670  1.00  0.00    -0.354 N 
ATOM     22  C   UNL A   1      43.952  30.779  28.245  1.00  0.00     0.074 A 
ATOM     23  C   UNL A   1      43.740  30.432  26.863  1.00  0.00     0.031 C 
ATOM     24  C   UNL A   1      37.848  29.111  29.538  1.00  0.00     0.029 A 
ATOM     25  C   UNL A   1      38.515  30.359  29.871  1.00  0.00     0.049 A 
ATOM     26  H   UNL A   1      40.584  30.674  29.953  1.00  0.00     0.167 HD
ATOM     27  C   UNL A   1      44.616  31.832  28.795  1.00  0.00     0.031 A 
ATOM     28  C   UNL A   1      37.982  31.558  30.207  1.00  0.00     0.031 A 
ATOM     29  C   UNL A   1      44.689  31.740  30.229  1.00  0.00     0.049 A 
ATOM     30  C   UNL A   1      39.062  32.405  30.760  1.00  0.00     0.074 A 
ATOM     31  C   UNL A   1      45.217  30.839  31.131  1.00  0.00     0.029 A 
ATOM     32  N   UNL A   1      43.855  32.552  30.958  1.00  0.00    -0.354 N 
ATOM     33  N   UNL A   1      39.632  32.193  31.910  1.00  0.00    -0.248 NA
ATOM     34  C   UNL A   1      39.792  33.277  29.853  1.00  0.00     0.031 C 
ATOM     35  C   UNL A   1      44.315  30.852  32.236  1.00  0.00     0.029 A 
ATOM     36  C   UNL A   1      43.317  31.786  31.955  1.00  0.00     0.049 A 
ATOM     37  H   UNL A   1      43.678  33.507  30.794  1.00  0.00     0.167 HD
ATOM     38  C   UNL A   1      40.962  32.532  31.712  1.00  0.00     0.074 A 
ATOM     39  C   UNL A   1      40.974  33.303  30.471  1.00  0.00     0.031 C 
ATOM     40  C   UNL A   1      41.956  31.917  32.418  1.00  0.00     0.031 A 
BRANCH  27  41
ATOM     41  C   UNL A   1      44.808  33.150  28.076  1.00  0.00    -0.014 A 
ATOM     42  C   UNL A   1      43.675  33.947  27.818  1.00  0.00     0.009 A 
ATOM     43  C   UNL A   1      45.982  33.483  27.373  1.00  0.00     0.009 A 
ATOM     44  C   UNL A   1      43.688  34.936  26.828  1.00  0.00     0.001 A 
ATOM     45  C   UNL A   1      46.011  34.502  26.418  1.00  0.00     0.001 A 
ATOM     46  C   UNL A   1      44.853  35.202  26.118  1.00  0.00     0.000 A 
ENDBRANCH  27  41
BRANCH  28  47
ATOM     47  C   UNL A   1      36.664  32.112  29.835  1.00  0.00    -0.014 A 
ATOM     48  C   UNL A   1      35.772  32.566  30.817  1.00  0.00     0.009 A 
ATOM     49  C   UNL A   1      36.385  32.435  28.494  1.00  0.00     0.009 A 
ATOM     50  C   UNL A   1      34.657  33.342  30.471  1.00  0.00     0.001 A 
ATOM     51  C   UNL A   1      35.271  33.204  28.148  1.00  0.00     0.001 A 
ATOM     52  C   UNL A   1      34.415  33.671  29.139  1.00  0.00     0.000 A 
ENDBRANCH  28  47
BRANCH  40  53
ATOM     53  C   UNL A   1      41.567  31.067  33.599  1.00  0.00    -0.014 A 
ATOM     54  C   UNL A   1      41.306  29.690  33.492  1.00  0.00     0.009 A 
ATOM     55  C   UNL A   1      41.616  31.640  34.878  1.00  0.00     0.009 A 
ATOM     56  C   UNL A   1      41.067  28.917  34.632  1.00  0.00     0.001 A 
ATOM     57  C   UNL A   1      41.399  30.864  36.018  1.00  0.00     0.001 A 
ATOM     58  C   UNL A   1      41.118  29.504  35.895  1.00  0.00     0.000 A 
ENDBRANCH  40  53
ENDBRANCH  14  15
ENDBRANCH   7   9
ENDBRANCH   4   5
ENDBRANCH   3   4
ENDBRANCH   2   3
ENDBRANCH   1   2
BRANCH   1  59
ATOM     59  C   UNL A   1      35.601  22.971  23.222  1.00  0.00     0.021 C 
BRANCH  59  60
ATOM     60  C   UNL A   1      34.240  23.605  22.945  1.00  0.00     0.116 C 
BRANCH  60  61
ATOM     61  N   UNL A   1      34.324  25.048  23.045  1.00  0.00    -0.356 N 
ATOM     62  C   UNL A   1      33.676  25.914  23.877  1.00  0.00     0.224 C 
ATOM     63  H   UNL A   1      34.947  25.471  22.411  1.00  0.00     0.163 HD
ATOM     64  O   UNL A   1      33.701  27.100  23.545  1.00  0.00    -0.275 OA
BRANCH  62  65
ATOM     65  C   UNL A   1      33.000  25.402  25.161  1.00  0.00     0.095 C 
ATOM     66  C   UNL A   1      33.100  26.451  26.278  1.00  0.00     0.041 C 
ATOM     67  C   UNL A   1      31.526  25.007  24.907  1.00  0.00     0.095 C 
ATOM     68  C   UNL A   1      32.126  27.580  26.127  1.00  0.00    -0.030 C 
ATOM     69  C   UNL A   1      30.672  26.265  24.565  1.00  0.00     0.041 C 
ATOM     70  C   UNL A   1      31.049  27.504  25.336  1.00  0.00    -0.030 C 
BRANCH  67  71
ATOM     71  C   UNL A   1      30.863  24.252  26.073  1.00  0.00     0.229 C 
ATOM     72  O   UNL A   1      30.077  24.826  26.842  1.00  0.00    -0.274 OA
ATOM     73  N   UNL A   1      30.987  22.915  26.286  1.00  0.00    -0.308 N 
ATOM     74  H   UNL A   1      30.360  22.563  26.959  1.00  0.00     0.171 HD
BRANCH  73  75
ATOM     75  C   UNL A   1      31.812  21.958  25.750  1.00  0.00     0.168 A 
ATOM     76  N   UNL A   1      31.527  21.195  24.698  1.00  0.00    -0.153 NA
ATOM     77  C   UNL A   1      33.134  21.694  26.182  1.00  0.00     0.080 A 
ATOM     78  N   UNL A   1      32.534  20.297  24.638  1.00  0.00    -0.265 N 
ATOM     79  C   UNL A   1      33.589  20.641  25.434  1.00  0.00     0.127 A 
ATOM     80  Br  UNL A   1      34.053  22.578  27.551  1.00  0.00    -0.045 Br
BRANCH  78  81
ATOM     81  C   UNL A   1      32.520  19.233  23.638  1.00  0.00     0.182 C 
BRANCH  81  82
ATOM     82  C   UNL A   1      32.844  17.829  24.106  1.00  0.00     0.009 A 
ATOM     83  C   UNL A   1      32.285  17.398  25.325  1.00  0.00     0.008 A 
ATOM     84  C   UNL A   1      33.803  16.989  23.522  1.00  0.00     0.128 A 
ATOM     85  C   UNL A   1      32.705  16.209  25.935  1.00  0.00     0.001 A 
ATOM     86  C   UNL A   1      34.255  15.829  24.144  1.00  0.00     0.039 A 
ATOM     87  F   UNL A   1      34.348  17.266  22.339  1.00  0.00    -0.207 F 
ATOM     88  C   UNL A   1      33.711  15.438  25.357  1.00  0.00     0.003 A 
ENDBRANCH  81  82
ENDBRANCH  78  81
ENDBRANCH  73  75
ENDBRANCH  67  71
ENDBRANCH  62  65
ENDBRANCH  60  61
ENDBRANCH  59  60
ENDBRANCH   1  59
TORSDOF 17
ENDMDL
MODEL 3
REMARK VINA RESULT:     -12.0      2.616      7.508
REMARK SMILES O=C(NCCCCCCNC(=O)[C@H]1CC=CC[C@@H]1C(=O)Nc1nn(Cc2ccccc2F)cc1Br)c1ccc(-c2c3nc(c(-c4ccccc4)c4ccc([nH]4)c(-c4ccccc4)c4nc(c(-c5ccccc5)c5ccc2[nH]5)C=C4)C=C3)cc1
REMARK SMILES IDX 7 1 6 2 5 3 4 4 3 5 1 6 2 7 36 9 37 10 83 11 38 12 82 13
REMARK SMILES IDX 39 14 40 15 41 16 76 17 42 18 81 19 75 20 77 21 43 22 80 23
REMARK SMILES IDX 74 24 73 25 44 27 66 28 51 29 65 30 52 31 55 32 64 33 78 34
REMARK SMILES IDX 53 35 54 36 63 38 79 39 56 40 45 41 46 42 50 43 47 44 49 45
REMARK SMILES IDX 48 46 67 47 68 48 72 49 69 50 71 51 70 52 57 53 58 54 62 55
REMARK SMILES IDX 59 56 61 57 60 58 8 59 9 60 10 61 11 62 12 64 13 65 14 66
REMARK SMILES IDX 18 67 15 68 17 69 16 70 19 71 20 72 21 73 22 75 23 76 34 77
REMARK SMILES IDX 24 78 33 79 35 80 25 81 26 82 27 83 31 84 28 85 30 86 32 87
REMARK SMILES IDX 29 88
REMARK H PARENT 3 8 77 26 55 37 10 63 21 74
REMARK Flexibility Score: inf
ROOT
ATOM      1  C   UNL A   1      38.979  21.680  26.323  1.00  0.00     0.002 C 
ENDROOT
BRANCH   1   2
ATOM      2  C   UNL A   1      40.429  21.253  26.536  1.00  0.00     0.002 C 
BRANCH   2   3
ATOM      3  C   UNL A   1      40.749  19.822  26.104  1.00  0.00     0.021 C 
BRANCH   3   4
ATOM      4  C   UNL A   1      42.197  19.374  26.328  1.00  0.00     0.116 C 
BRANCH   4   5
ATOM      5  N   UNL A   1      43.110  19.619  25.229  1.00  0.00    -0.352 N 
ATOM      6  O   UNL A   1      44.738  20.492  23.986  1.00  0.00    -0.269 OA
ATOM      7  C   UNL A   1      43.944  20.658  24.915  1.00  0.00     0.251 C 
ATOM      8  H   UNL A   1      43.136  18.887  24.571  1.00  0.00     0.163 HD
BRANCH   7   9
ATOM      9  C   UNL A   1      43.872  21.992  25.563  1.00  0.00     0.039 A 
ATOM     10  C   UNL A   1      44.569  22.353  26.716  1.00  0.00     0.014 A 
ATOM     11  C   UNL A   1      42.997  22.923  24.979  1.00  0.00     0.014 A 
ATOM     12  C   UNL A   1      44.272  23.538  27.371  1.00  0.00     0.010 A 
ATOM     13  C   UNL A   1      42.741  24.141  25.597  1.00  0.00     0.010 A 
ATOM     14  C   UNL A   1      43.340  24.421  26.823  1.00  0.00    -0.014 A 
BRANCH  14  15
ATOM     15  C   UNL A   1      43.159  25.702  27.498  1.00  0.00     0.031 A 
ATOM     16  C   UNL A   1      44.195  26.726  27.178  1.00  0.00     0.074 A 
ATOM     17  C   UNL A   1      42.079  26.016  28.238  1.00  0.00     0.049 A 
ATOM     18  N   UNL A   1      44.986  27.353  27.986  1.00  0.00    -0.248 NA
ATOM     19  C   UNL A   1      44.438  27.013  25.755  1.00  0.00     0.031 C 
ATOM     20  C   UNL A   1      40.847  25.243  28.400  1.00  0.00     0.029 A 
ATOM     21  N   UNL A   1      41.811  27.176  28.902  1.00  0.00    -0.354 N 
ATOM     22  C   UNL A   1      45.716  28.240  27.196  1.00  0.00     0.074 A 
ATOM     23  C   UNL A   1      45.433  27.895  25.827  1.00  0.00     0.031 C 
ATOM     24  C   UNL A   1      39.884  26.051  28.897  1.00  0.00     0.029 A 
ATOM     25  C   UNL A   1      40.468  27.346  29.205  1.00  0.00     0.049 A 
ATOM     26  H   UNL A   1      42.505  27.831  29.143  1.00  0.00     0.167 HD
ATOM     27  C   UNL A   1      46.330  29.338  27.717  1.00  0.00     0.031 A 
ATOM     28  C   UNL A   1      39.865  28.492  29.602  1.00  0.00     0.031 A 
ATOM     29  C   UNL A   1      46.516  29.234  29.139  1.00  0.00     0.049 A 
ATOM     30  C   UNL A   1      40.909  29.419  30.090  1.00  0.00     0.074 A 
ATOM     31  C   UNL A   1      47.182  28.368  29.983  1.00  0.00     0.029 A 
ATOM     32  N   UNL A   1      45.675  29.963  29.943  1.00  0.00    -0.354 N 
ATOM     33  N   UNL A   1      41.578  29.240  31.192  1.00  0.00    -0.248 NA
ATOM     34  C   UNL A   1      41.495  30.361  29.150  1.00  0.00     0.031 C 
ATOM     35  C   UNL A   1      46.367  28.291  31.151  1.00  0.00     0.029 A 
ATOM     36  C   UNL A   1      45.277  29.143  30.961  1.00  0.00     0.049 A 
ATOM     37  H   UNL A   1      45.408  30.902  29.810  1.00  0.00     0.167 HD
ATOM     38  C   UNL A   1      42.857  29.692  30.904  1.00  0.00     0.074 A 
ATOM     39  C   UNL A   1      42.714  30.478  29.681  1.00  0.00     0.031 C 
ATOM     40  C   UNL A   1      43.948  29.153  31.525  1.00  0.00     0.031 A 
BRANCH  27  41
ATOM     41  C   UNL A   1      46.359  30.677  27.011  1.00  0.00    -0.014 A 
ATOM     42  C   UNL A   1      47.567  31.400  26.989  1.00  0.00     0.009 A 
ATOM     43  C   UNL A   1      45.197  31.386  26.653  1.00  0.00     0.009 A 
ATOM     44  C   UNL A   1      47.589  32.778  26.743  1.00  0.00     0.001 A 
ATOM     45  C   UNL A   1      45.221  32.752  26.360  1.00  0.00     0.001 A 
ATOM     46  C   UNL A   1      46.413  33.456  26.444  1.00  0.00     0.000 A 
ENDBRANCH  27  41
BRANCH  28  47
ATOM     47  C   UNL A   1      38.482  28.938  29.337  1.00  0.00    -0.014 A 
ATOM     48  C   UNL A   1      37.544  29.028  30.376  1.00  0.00     0.009 A 
ATOM     49  C   UNL A   1      38.152  29.527  28.102  1.00  0.00     0.009 A 
ATOM     50  C   UNL A   1      36.332  29.709  30.193  1.00  0.00     0.001 A 
ATOM     51  C   UNL A   1      36.942  30.201  27.917  1.00  0.00     0.001 A 
ATOM     52  C   UNL A   1      36.038  30.306  28.969  1.00  0.00     0.000 A 
ENDBRANCH  28  47
BRANCH  40  53
ATOM     53  C   UNL A   1      43.719  28.258  32.714  1.00  0.00    -0.014 A 
ATOM     54  C   UNL A   1      43.768  26.856  32.632  1.00  0.00     0.009 A 
ATOM     55  C   UNL A   1      43.603  28.849  33.980  1.00  0.00     0.009 A 
ATOM     56  C   UNL A   1      43.670  26.068  33.783  1.00  0.00     0.001 A 
ATOM     57  C   UNL A   1      43.527  28.064  35.132  1.00  0.00     0.001 A 
ATOM     58  C   UNL A   1      43.554  26.674  35.033  1.00  0.00     0.000 A 
ENDBRANCH  40  53
ENDBRANCH  14  15
ENDBRANCH   7   9
ENDBRANCH   4   5
ENDBRANCH   3   4
ENDBRANCH   2   3
ENDBRANCH   1   2
BRANCH   1  59
ATOM     59  C   UNL A   1      38.758  23.195  26.215  1.00  0.00     0.021 C 
BRANCH  59  60
ATOM     60  C   UNL A   1      37.428  23.626  25.602  1.00  0.00     0.116 C 
BRANCH  60  61
ATOM     61  N   UNL A   1      36.333  23.316  26.497  1.00  0.00    -0.356 N 
ATOM     62  C   UNL A   1      35.020  23.058  26.228  1.00  0.00     0.224 C 
ATOM     63  H   UNL A   1      36.573  23.287  27.451  1.00  0.00     0.163 HD
ATOM     64  O   UNL A   1      34.250  23.129  27.188  1.00  0.00    -0.275 OA
BRANCH  62  65
ATOM     65  C   UNL A   1      34.576  22.671  24.807  1.00  0.00     0.095 C 
ATOM     66  C   UNL A   1      35.327  21.419  24.330  1.00  0.00     0.041 C 
ATOM     67  C   UNL A   1      33.046  22.459  24.728  1.00  0.00     0.095 C 
ATOM     68  C   UNL A   1      34.800  20.146  24.920  1.00  0.00    -0.030 C 
ATOM     69  C   UNL A   1      32.622  21.209  25.556  1.00  0.00     0.041 C 
ATOM     70  C   UNL A   1      33.594  20.060  25.495  1.00  0.00    -0.030 C 
BRANCH  67  71
ATOM     71  C   UNL A   1      32.498  22.322  23.296  1.00  0.00     0.229 C 
ATOM     72  O   UNL A   1      32.564  21.244  22.687  1.00  0.00    -0.274 OA
ATOM     73  N   UNL A   1      31.820  23.301  22.641  1.00  0.00    -0.308 N 
ATOM     74  H   UNL A   1      31.385  22.993  21.813  1.00  0.00     0.171 HD
BRANCH  73  75
ATOM     75  C   UNL A   1      31.621  24.633  22.903  1.00  0.00     0.168 A 
ATOM     76  N   UNL A   1      31.237  25.141  24.072  1.00  0.00    -0.153 NA
ATOM     77  C   UNL A   1      31.877  25.686  21.992  1.00  0.00     0.080 A 
ATOM     78  N   UNL A   1      31.004  26.447  23.823  1.00  0.00    -0.265 N 
ATOM     79  C   UNL A   1      31.499  26.846  22.615  1.00  0.00     0.127 A 
ATOM     80  Br  UNL A   1      32.545  25.512  20.253  1.00  0.00    -0.045 Br
BRANCH  78  81
ATOM     81  C   UNL A   1      30.486  27.320  24.873  1.00  0.00     0.182 C 
BRANCH  81  82
ATOM     82  C   UNL A   1      31.456  28.289  25.520  1.00  0.00     0.009 A 
ATOM     83  C   UNL A   1      32.348  27.778  26.482  1.00  0.00     0.008 A 
ATOM     84  C   UNL A   1      31.415  29.682  25.377  1.00  0.00     0.128 A 
ATOM     85  C   UNL A   1      33.120  28.632  27.281  1.00  0.00     0.001 A 
ATOM     86  C   UNL A   1      32.146  30.537  26.197  1.00  0.00     0.039 A 
ATOM     87  F   UNL A   1      30.656  30.270  24.453  1.00  0.00    -0.207 F 
ATOM     88  C   UNL A   1      32.997  30.013  27.157  1.00  0.00     0.003 A 
ENDBRANCH  81  82
ENDBRANCH  78  81
ENDBRANCH  73  75
ENDBRANCH  67  71
ENDBRANCH  62  65
ENDBRANCH  60  61
ENDBRANCH  59  60
ENDBRANCH   1  59
TORSDOF 17
ENDMDL
