MODEL 1
REMARK VINA RESULT:     -11.4      0.000      0.000
REMARK SMILES C[C@@H](C(=O)NCCCCCCNC(=O)c1ccc(-c2c3nc(c(-c4ccccc4)c4ccc([nH]4)c(-c4ccccc4)c4nc(c(-c5ccccc5)c5ccc2[nH]5)C=C4)C=C3)cc1)c1ccc(-c2ccn(C(F)F)c(=O)c2)cc1
REMARK SMILES IDX 8 1 7 2 6 3 5 4 3 5 4 6 2 8 1 9 63 10 64 11 78 12 65 13
REMARK SMILES IDX 77 14 66 15 67 16 68 17 76 18 69 19 74 20 70 21 75 22 71 23
REMARK SMILES IDX 72 24 73 25 9 26 10 27 11 28 12 29 13 30 14 32 15 33 16 34
REMARK SMILES IDX 62 35 17 36 61 37 18 38 19 39 20 40 55 41 21 42 60 43 54 44
REMARK SMILES IDX 56 45 22 46 59 47 53 48 52 49 23 51 45 52 30 53 44 54 31 55
REMARK SMILES IDX 34 56 43 57 57 58 32 59 33 60 42 62 58 63 35 64 24 65 25 66
REMARK SMILES IDX 29 67 26 68 28 69 27 70 46 71 47 72 51 73 48 74 50 75 49 76
REMARK SMILES IDX 36 77 37 78 41 79 38 80 40 81 39 82
REMARK H PARENT 5 7 12 31 56 50 34 61
REMARK Flexibility Score: inf
ROOT
ATOM      1  C   UNL A   1      35.534  23.039  24.824  1.00  0.00     0.002 C 
ENDROOT
BRANCH   1   2
ATOM      2  C   UNL A   1      35.164  24.210  25.747  1.00  0.00     0.021 C 
BRANCH   2   3
ATOM      3  C   UNL A   1      34.448  25.358  25.031  1.00  0.00     0.116 C 
BRANCH   3   4
ATOM      4  N   UNL A   1      33.237  25.705  25.743  1.00  0.00    -0.356 N 
ATOM      5  C   UNL A   1      31.939  25.676  25.330  1.00  0.00     0.227 C 
ATOM      6  O   UNL A   1      31.118  26.229  26.066  1.00  0.00    -0.274 OA
ATOM      7  H   UNL A   1      33.372  26.010  26.669  1.00  0.00     0.163 HD
BRANCH   5   8
ATOM      8  C   UNL A   1      31.559  24.932  24.039  1.00  0.00     0.105 C 
ATOM      9  C   UNL A   1      30.107  25.165  23.604  1.00  0.00     0.023 C 
BRANCH   8  10
ATOM     10  C   UNL A   1      31.819  23.434  24.157  1.00  0.00    -0.036 A 
ATOM     11  C   UNL A   1      32.331  22.708  23.069  1.00  0.00     0.005 A 
ATOM     12  C   UNL A   1      31.547  22.757  25.353  1.00  0.00     0.005 A 
ATOM     13  C   UNL A   1      32.591  21.344  23.179  1.00  0.00     0.009 A 
ATOM     14  C   UNL A   1      31.809  21.390  25.465  1.00  0.00     0.009 A 
ATOM     15  C   UNL A   1      32.347  20.680  24.383  1.00  0.00    -0.018 A 
BRANCH  15  16
ATOM     16  C   UNL A   1      32.676  19.253  24.530  1.00  0.00    -0.011 A 
ATOM     17  C   UNL A   1      32.552  18.537  25.783  1.00  0.00     0.027 A 
ATOM     18  C   UNL A   1      33.151  18.612  23.449  1.00  0.00     0.080 A 
ATOM     19  C   UNL A   1      32.942  17.260  25.871  1.00  0.00     0.095 A 
ATOM     20  C   UNL A   1      33.574  17.189  23.528  1.00  0.00     0.255 A 
ATOM     21  N   UNL A   1      33.456  16.594  24.773  1.00  0.00    -0.258 N 
ATOM     22  O   UNL A   1      34.004  16.650  22.514  1.00  0.00    -0.269 OA
BRANCH  21  23
ATOM     23  C   UNL A   1      33.923  15.238  24.890  1.00  0.00     0.451 C 
ATOM     24  F   UNL A   1      35.196  15.192  25.349  1.00  0.00    -0.185 F 
ATOM     25  F   UNL A   1      33.142  14.534  25.747  1.00  0.00    -0.185 F 
ENDBRANCH  21  23
ENDBRANCH  15  16
ENDBRANCH   8  10
ENDBRANCH   5   8
ENDBRANCH   3   4
ENDBRANCH   2   3
ENDBRANCH   1   2
BRANCH   1  26
ATOM     26  C   UNL A   1      35.719  21.694  25.532  1.00  0.00     0.002 C 
BRANCH  26  27
ATOM     27  C   UNL A   1      36.843  20.824  24.968  1.00  0.00     0.021 C 
BRANCH  27  28
ATOM     28  C   UNL A   1      38.231  21.172  25.497  1.00  0.00     0.116 C 
BRANCH  28  29
ATOM     29  N   UNL A   1      39.090  20.001  25.581  1.00  0.00    -0.352 N 
ATOM     30  C   UNL A   1      40.409  19.918  25.952  1.00  0.00     0.251 C 
ATOM     31  H   UNL A   1      38.666  19.147  25.336  1.00  0.00     0.163 HD
ATOM     32  O   UNL A   1      41.044  18.884  25.768  1.00  0.00    -0.269 OA
BRANCH  30  33
ATOM     33  C   UNL A   1      41.072  21.094  26.552  1.00  0.00     0.039 A 
ATOM     34  C   UNL A   1      41.713  22.010  25.716  1.00  0.00     0.014 A 
ATOM     35  C   UNL A   1      41.037  21.301  27.934  1.00  0.00     0.014 A 
ATOM     36  C   UNL A   1      42.248  23.180  26.258  1.00  0.00     0.010 A 
ATOM     37  C   UNL A   1      41.510  22.498  28.463  1.00  0.00     0.010 A 
ATOM     38  C   UNL A   1      42.107  23.456  27.628  1.00  0.00    -0.014 A 
BRANCH  38  39
ATOM     39  C   UNL A   1      42.526  24.761  28.200  1.00  0.00     0.031 A 
ATOM     40  C   UNL A   1      41.518  25.853  28.423  1.00  0.00     0.074 A 
ATOM     41  C   UNL A   1      43.835  24.990  28.429  1.00  0.00     0.049 A 
ATOM     42  N   UNL A   1      41.715  27.086  28.820  1.00  0.00    -0.248 NA
ATOM     43  C   UNL A   1      40.109  25.529  28.144  1.00  0.00     0.031 C 
ATOM     44  C   UNL A   1      44.915  24.024  28.214  1.00  0.00     0.029 A 
ATOM     45  N   UNL A   1      44.483  26.116  28.876  1.00  0.00    -0.354 N 
ATOM     46  C   UNL A   1      40.464  27.688  28.816  1.00  0.00     0.074 A 
ATOM     47  C   UNL A   1      39.518  26.699  28.347  1.00  0.00     0.031 C 
ATOM     48  C   UNL A   1      46.087  24.594  28.540  1.00  0.00     0.029 A 
ATOM     49  C   UNL A   1      45.850  25.977  28.937  1.00  0.00     0.049 A 
ATOM     50  H   UNL A   1      44.013  26.943  29.129  1.00  0.00     0.167 HD
ATOM     51  C   UNL A   1      40.134  28.950  29.179  1.00  0.00     0.031 A 
ATOM     52  C   UNL A   1      46.808  26.871  29.248  1.00  0.00     0.031 A 
ATOM     53  C   UNL A   1      41.075  29.927  29.660  1.00  0.00     0.049 A 
ATOM     54  C   UNL A   1      46.411  28.274  29.619  1.00  0.00     0.074 A 
ATOM     55  C   UNL A   1      40.820  31.202  30.136  1.00  0.00     0.029 A 
ATOM     56  N   UNL A   1      42.447  29.745  29.714  1.00  0.00    -0.354 N 
ATOM     57  N   UNL A   1      45.212  28.795  29.709  1.00  0.00    -0.248 NA
ATOM     58  C   UNL A   1      47.499  29.211  29.930  1.00  0.00     0.031 C 
ATOM     59  C   UNL A   1      42.044  31.818  30.407  1.00  0.00     0.029 A 
ATOM     60  C   UNL A   1      43.056  30.903  30.164  1.00  0.00     0.049 A 
ATOM     61  H   UNL A   1      42.918  28.916  29.468  1.00  0.00     0.167 HD
ATOM     62  C   UNL A   1      45.401  30.112  30.107  1.00  0.00     0.074 A 
ATOM     63  C   UNL A   1      46.827  30.304  30.264  1.00  0.00     0.031 C 
ATOM     64  C   UNL A   1      44.476  31.080  30.316  1.00  0.00     0.031 A 
BRANCH  51  65
ATOM     65  C   UNL A   1      38.695  29.368  29.057  1.00  0.00    -0.014 A 
ATOM     66  C   UNL A   1      38.170  29.842  27.844  1.00  0.00     0.009 A 
ATOM     67  C   UNL A   1      37.832  29.203  30.152  1.00  0.00     0.009 A 
ATOM     68  C   UNL A   1      36.815  30.162  27.740  1.00  0.00     0.001 A 
ATOM     69  C   UNL A   1      36.474  29.499  30.037  1.00  0.00     0.001 A 
ATOM     70  C   UNL A   1      35.967  29.983  28.833  1.00  0.00     0.000 A 
ENDBRANCH  51  65
BRANCH  52  71
ATOM     71  C   UNL A   1      48.244  26.484  29.193  1.00  0.00    -0.014 A 
ATOM     72  C   UNL A   1      48.992  26.666  28.019  1.00  0.00     0.009 A 
ATOM     73  C   UNL A   1      48.865  25.895  30.306  1.00  0.00     0.009 A 
ATOM     74  C   UNL A   1      50.318  26.231  27.951  1.00  0.00     0.001 A 
ATOM     75  C   UNL A   1      50.200  25.493  30.247  1.00  0.00     0.001 A 
ATOM     76  C   UNL A   1      50.922  25.648  29.064  1.00  0.00     0.000 A 
ENDBRANCH  52  71
BRANCH  64  77
ATOM     77  C   UNL A   1      44.972  32.428  30.756  1.00  0.00    -0.014 A 
ATOM     78  C   UNL A   1      45.168  32.721  32.115  1.00  0.00     0.009 A 
ATOM     79  C   UNL A   1      45.305  33.396  29.795  1.00  0.00     0.009 A 
ATOM     80  C   UNL A   1      45.667  33.966  32.503  1.00  0.00     0.001 A 
ATOM     81  C   UNL A   1      45.834  34.627  30.184  1.00  0.00     0.001 A 
ATOM     82  C   UNL A   1      46.007  34.914  31.538  1.00  0.00     0.000 A 
ENDBRANCH  64  77
ENDBRANCH  38  39
ENDBRANCH  30  33
ENDBRANCH  28  29
ENDBRANCH  27  28
ENDBRANCH  26  27
ENDBRANCH   1  26
TORSDOF 16
ENDMDL
MODEL 2
REMARK VINA RESULT:     -11.4      2.590      6.798
REMARK SMILES C[C@@H](C(=O)NCCCCCCNC(=O)c1ccc(-c2c3nc(c(-c4ccccc4)c4ccc([nH]4)c(-c4ccccc4)c4nc(c(-c5ccccc5)c5ccc2[nH]5)C=C4)C=C3)cc1)c1ccc(-c2ccn(C(F)F)c(=O)c2)cc1
REMARK SMILES IDX 8 1 7 2 6 3 5 4 3 5 4 6 2 8 1 9 63 10 64 11 78 12 65 13
REMARK SMILES IDX 77 14 66 15 67 16 68 17 76 18 69 19 74 20 70 21 75 22 71 23
REMARK SMILES IDX 72 24 73 25 9 26 10 27 11 28 12 29 13 30 14 32 15 33 16 34
REMARK SMILES IDX 62 35 17 36 61 37 18 38 19 39 20 40 55 41 21 42 60 43 54 44
REMARK SMILES IDX 56 45 22 46 59 47 53 48 52 49 23 51 45 52 30 53 44 54 31 55
REMARK SMILES IDX 34 56 43 57 57 58 32 59 33 60 42 62 58 63 35 64 24 65 25 66
REMARK SMILES IDX 29 67 26 68 28 69 27 70 46 71 47 72 51 73 48 74 50 75 49 76
REMARK SMILES IDX 36 77 37 78 41 79 38 80 40 81 39 82
REMARK H PARENT 5 7 12 31 56 50 34 61
REMARK Flexibility Score: inf
ROOT
ATOM      1  C   UNL A   1      34.748  25.074  25.073  1.00  0.00     0.002 C 
ENDROOT
BRANCH   1   2
ATOM      2  C   UNL A   1      34.045  26.231  25.798  1.00  0.00     0.021 C 
BRANCH   2   3
ATOM      3  C   UNL A   1      32.958  26.913  24.964  1.00  0.00     0.116 C 
BRANCH   3   4
ATOM      4  N   UNL A   1      33.540  27.500  23.778  1.00  0.00    -0.356 N 
ATOM      5  C   UNL A   1      33.260  27.279  22.463  1.00  0.00     0.227 C 
ATOM      6  O   UNL A   1      34.053  27.754  21.647  1.00  0.00    -0.274 OA
ATOM      7  H   UNL A   1      34.250  28.160  23.946  1.00  0.00     0.163 HD
BRANCH   5   8
ATOM      8  C   UNL A   1      31.980  26.525  22.065  1.00  0.00     0.105 C 
ATOM      9  C   UNL A   1      30.703  27.131  22.659  1.00  0.00     0.023 C 
BRANCH   8  10
ATOM     10  C   UNL A   1      32.060  25.049  22.436  1.00  0.00    -0.036 A 
ATOM     11  C   UNL A   1      33.120  24.250  21.974  1.00  0.00     0.005 A 
ATOM     12  C   UNL A   1      31.075  24.463  23.242  1.00  0.00     0.005 A 
ATOM     13  C   UNL A   1      33.209  22.906  22.328  1.00  0.00     0.009 A 
ATOM     14  C   UNL A   1      31.165  23.116  23.599  1.00  0.00     0.009 A 
ATOM     15  C   UNL A   1      32.241  22.334  23.157  1.00  0.00    -0.018 A 
BRANCH  15  16
ATOM     16  C   UNL A   1      32.359  20.932  23.588  1.00  0.00    -0.011 A 
ATOM     17  C   UNL A   1      32.655  20.546  24.952  1.00  0.00     0.027 A 
ATOM     18  C   UNL A   1      32.222  19.981  22.649  1.00  0.00     0.080 A 
ATOM     19  C   UNL A   1      32.827  19.256  25.265  1.00  0.00     0.095 A 
ATOM     20  C   UNL A   1      32.395  18.544  22.985  1.00  0.00     0.255 A 
ATOM     21  N   UNL A   1      32.714  18.268  24.304  1.00  0.00    -0.258 N 
ATOM     22  O   UNL A   1      32.264  17.715  22.091  1.00  0.00    -0.269 OA
BRANCH  21  23
ATOM     23  C   UNL A   1      32.954  16.890  24.639  1.00  0.00     0.451 C 
ATOM     24  F   UNL A   1      34.168  16.479  24.201  1.00  0.00    -0.185 F 
ATOM     25  F   UNL A   1      32.908  16.706  25.981  1.00  0.00    -0.185 F 
ENDBRANCH  21  23
ENDBRANCH  15  16
ENDBRANCH   8  10
ENDBRANCH   5   8
ENDBRANCH   3   4
ENDBRANCH   2   3
ENDBRANCH   1   2
BRANCH   1  26
ATOM     26  C   UNL A   1      34.534  23.694  25.702  1.00  0.00     0.002 C 
BRANCH  26  27
ATOM     27  C   UNL A   1      35.820  22.962  26.089  1.00  0.00     0.021 C 
BRANCH  27  28
ATOM     28  C   UNL A   1      37.066  23.456  25.360  1.00  0.00     0.116 C 
BRANCH  28  29
ATOM     29  N   UNL A   1      38.231  22.638  25.659  1.00  0.00    -0.352 N 
ATOM     30  C   UNL A   1      39.423  23.005  26.233  1.00  0.00     0.251 C 
ATOM     31  H   UNL A   1      38.155  21.688  25.414  1.00  0.00     0.163 HD
ATOM     32  O   UNL A   1      40.380  22.237  26.224  1.00  0.00    -0.269 OA
BRANCH  30  33
ATOM     33  C   UNL A   1      39.557  24.344  26.841  1.00  0.00     0.039 A 
ATOM     34  C   UNL A   1      39.058  24.557  28.127  1.00  0.00     0.014 A 
ATOM     35  C   UNL A   1      40.197  25.377  26.150  1.00  0.00     0.014 A 
ATOM     36  C   UNL A   1      39.275  25.785  28.755  1.00  0.00     0.010 A 
ATOM     37  C   UNL A   1      40.471  26.576  26.802  1.00  0.00     0.010 A 
ATOM     38  C   UNL A   1      40.026  26.785  28.116  1.00  0.00    -0.014 A 
BRANCH  38  39
ATOM     39  C   UNL A   1      40.404  28.037  28.823  1.00  0.00     0.031 A 
ATOM     40  C   UNL A   1      41.724  28.140  29.534  1.00  0.00     0.074 A 
ATOM     41  C   UNL A   1      39.512  29.045  28.900  1.00  0.00     0.049 A 
ATOM     42  N   UNL A   1      42.181  29.113  30.282  1.00  0.00    -0.248 NA
ATOM     43  C   UNL A   1      42.642  26.996  29.409  1.00  0.00     0.031 C 
ATOM     44  C   UNL A   1      38.181  29.049  28.287  1.00  0.00     0.029 A 
ATOM     45  N   UNL A   1      39.582  30.256  29.544  1.00  0.00    -0.354 N 
ATOM     46  C   UNL A   1      43.425  28.690  30.733  1.00  0.00     0.074 A 
ATOM     47  C   UNL A   1      43.638  27.361  30.203  1.00  0.00     0.031 C 
ATOM     48  C   UNL A   1      37.568  30.209  28.574  1.00  0.00     0.029 A 
ATOM     49  C   UNL A   1      38.436  31.007  29.432  1.00  0.00     0.049 A 
ATOM     50  H   UNL A   1      40.378  30.558  30.039  1.00  0.00     0.167 HD
ATOM     51  C   UNL A   1      44.310  29.355  31.512  1.00  0.00     0.031 A 
ATOM     52  C   UNL A   1      38.108  32.193  29.980  1.00  0.00     0.031 A 
ATOM     53  C   UNL A   1      44.101  30.683  32.024  1.00  0.00     0.049 A 
ATOM     54  C   UNL A   1      39.103  32.893  30.865  1.00  0.00     0.074 A 
ATOM     55  C   UNL A   1      44.979  31.472  32.747  1.00  0.00     0.029 A 
ATOM     56  N   UNL A   1      42.932  31.412  31.881  1.00  0.00    -0.354 N 
ATOM     57  N   UNL A   1      40.316  32.523  31.196  1.00  0.00    -0.248 NA
ATOM     58  C   UNL A   1      38.683  34.173  31.452  1.00  0.00     0.031 C 
ATOM     59  C   UNL A   1      44.316  32.647  33.106  1.00  0.00     0.029 A 
ATOM     60  C   UNL A   1      43.047  32.619  32.548  1.00  0.00     0.049 A 
ATOM     61  H   UNL A   1      42.137  31.115  31.380  1.00  0.00     0.167 HD
ATOM     62  C   UNL A   1      40.810  33.533  32.011  1.00  0.00     0.074 A 
ATOM     63  C   UNL A   1      39.777  34.542  32.105  1.00  0.00     0.031 C 
ATOM     64  C   UNL A   1      42.011  33.614  32.633  1.00  0.00     0.031 A 
BRANCH  51  65
ATOM     65  C   UNL A   1      45.589  28.657  31.883  1.00  0.00    -0.014 A 
ATOM     66  C   UNL A   1      46.747  28.785  31.100  1.00  0.00     0.009 A 
ATOM     67  C   UNL A   1      45.656  27.928  33.081  1.00  0.00     0.009 A 
ATOM     68  C   UNL A   1      47.940  28.179  31.500  1.00  0.00     0.001 A 
ATOM     69  C   UNL A   1      46.856  27.346  33.492  1.00  0.00     0.001 A 
ATOM     70  C   UNL A   1      47.995  27.467  32.700  1.00  0.00     0.000 A 
ENDBRANCH  51  65
BRANCH  52  71
ATOM     71  C   UNL A   1      36.764  32.786  29.741  1.00  0.00    -0.014 A 
ATOM     72  C   UNL A   1      36.508  33.539  28.585  1.00  0.00     0.009 A 
ATOM     73  C   UNL A   1      35.740  32.632  30.689  1.00  0.00     0.009 A 
ATOM     74  C   UNL A   1      35.267  34.156  28.403  1.00  0.00     0.001 A 
ATOM     75  C   UNL A   1      34.490  33.221  30.489  1.00  0.00     0.001 A 
ATOM     76  C   UNL A   1      34.259  33.995  29.352  1.00  0.00     0.000 A 
ENDBRANCH  52  71
BRANCH  64  77
ATOM     77  C   UNL A   1      42.284  34.841  33.455  1.00  0.00    -0.014 A 
ATOM     78  C   UNL A   1      42.971  35.939  32.914  1.00  0.00     0.009 A 
ATOM     79  C   UNL A   1      41.792  34.925  34.768  1.00  0.00     0.009 A 
ATOM     80  C   UNL A   1      43.180  37.087  33.680  1.00  0.00     0.001 A 
ATOM     81  C   UNL A   1      41.975  36.086  35.520  1.00  0.00     0.001 A 
ATOM     82  C   UNL A   1      42.675  37.163  34.978  1.00  0.00     0.000 A 
ENDBRANCH  64  77
ENDBRANCH  38  39
ENDBRANCH  30  33
ENDBRANCH  28  29
ENDBRANCH  27  28
ENDBRANCH  26  27
ENDBRANCH   1  26
TORSDOF 16
ENDMDL
MODEL 3
REMARK VINA RESULT:     -11.0      1.938      2.527
REMARK SMILES C[C@@H](C(=O)NCCCCCCNC(=O)c1ccc(-c2c3nc(c(-c4ccccc4)c4ccc([nH]4)c(-c4ccccc4)c4nc(c(-c5ccccc5)c5ccc2[nH]5)C=C4)C=C3)cc1)c1ccc(-c2ccn(C(F)F)c(=O)c2)cc1
REMARK SMILES IDX 8 1 7 2 6 3 5 4 3 5 4 6 2 8 1 9 63 10 64 11 78 12 65 13
REMARK SMILES IDX 77 14 66 15 67 16 68 17 76 18 69 19 74 20 70 21 75 22 71 23
REMARK SMILES IDX 72 24 73 25 9 26 10 27 11 28 12 29 13 30 14 32 15 33 16 34
REMARK SMILES IDX 62 35 17 36 61 37 18 38 19 39 20 40 55 41 21 42 60 43 54 44
REMARK SMILES IDX 56 45 22 46 59 47 53 48 52 49 23 51 45 52 30 53 44 54 31 55
REMARK SMILES IDX 34 56 43 57 57 58 32 59 33 60 42 62 58 63 35 64 24 65 25 66
REMARK SMILES IDX 29 67 26 68 28 69 27 70 46 71 47 72 51 73 48 74 50 75 49 76
REMARK SMILES IDX 36 77 37 78 41 79 38 80 40 81 39 82
REMARK H PARENT 5 7 12 31 56 50 34 61
REMARK Flexibility Score: inf
ROOT
ATOM      1  C   UNL A   1      35.051  24.088  25.159  1.00  0.00     0.002 C 
ENDROOT
BRANCH   1   2
ATOM      2  C   UNL A   1      34.898  25.464  25.826  1.00  0.00     0.021 C 
BRANCH   2   3
ATOM      3  C   UNL A   1      33.849  26.359  25.161  1.00  0.00     0.116 C 
BRANCH   3   4
ATOM      4  N   UNL A   1      32.765  26.619  26.082  1.00  0.00    -0.356 N 
ATOM      5  C   UNL A   1      31.418  26.548  25.892  1.00  0.00     0.227 C 
ATOM      6  O   UNL A   1      30.714  27.030  26.782  1.00  0.00    -0.274 OA
ATOM      7  H   UNL A   1      33.043  26.888  26.986  1.00  0.00     0.163 HD
BRANCH   5   8
ATOM      8  C   UNL A   1      30.852  25.844  24.647  1.00  0.00     0.105 C 
ATOM      9  C   UNL A   1      29.327  25.947  24.526  1.00  0.00     0.023 C 
BRANCH   8  10
ATOM     10  C   UNL A   1      31.267  24.379  24.593  1.00  0.00    -0.036 A 
ATOM     11  C   UNL A   1      31.042  23.530  25.690  1.00  0.00     0.005 A 
ATOM     12  C   UNL A   1      31.884  23.855  23.449  1.00  0.00     0.005 A 
ATOM     13  C   UNL A   1      31.400  22.185  25.637  1.00  0.00     0.009 A 
ATOM     14  C   UNL A   1      32.241  22.506  23.396  1.00  0.00     0.009 A 
ATOM     15  C   UNL A   1      31.987  21.661  24.483  1.00  0.00    -0.018 A 
BRANCH  15  16
ATOM     16  C   UNL A   1      32.311  20.228  24.393  1.00  0.00    -0.011 A 
ATOM     17  C   UNL A   1      32.831  19.463  25.508  1.00  0.00     0.027 A 
ATOM     18  C   UNL A   1      32.149  19.629  23.201  1.00  0.00     0.080 A 
ATOM     19  C   UNL A   1      33.181  18.182  25.341  1.00  0.00     0.095 A 
ATOM     20  C   UNL A   1      32.518  18.203  23.005  1.00  0.00     0.255 A 
ATOM     21  N   UNL A   1      33.043  17.559  24.114  1.00  0.00    -0.258 N 
ATOM     22  O   UNL A   1      32.354  17.703  21.897  1.00  0.00    -0.269 OA
BRANCH  21  23
ATOM     23  C   UNL A   1      33.472  16.198  23.930  1.00  0.00     0.451 C 
ATOM     24  F   UNL A   1      34.768  16.036  24.288  1.00  0.00    -0.185 F 
ATOM     25  F   UNL A   1      32.721  15.353  24.679  1.00  0.00    -0.185 F 
ENDBRANCH  21  23
ENDBRANCH  15  16
ENDBRANCH   8  10
ENDBRANCH   5   8
ENDBRANCH   3   4
ENDBRANCH   2   3
ENDBRANCH   1   2
BRANCH   1  26
ATOM     26  C   UNL A   1      34.979  22.896  26.118  1.00  0.00     0.002 C 
BRANCH  26  27
ATOM     27  C   UNL A   1      35.669  21.628  25.612  1.00  0.00     0.021 C 
BRANCH  27  28
ATOM     28  C   UNL A   1      37.072  21.856  25.058  1.00  0.00     0.116 C 
BRANCH  28  29
ATOM     29  N   UNL A   1      37.981  20.780  25.422  1.00  0.00    -0.352 N 
ATOM     30  C   UNL A   1      39.223  20.854  26.002  1.00  0.00     0.251 C 
ATOM     31  H   UNL A   1      37.662  19.870  25.224  1.00  0.00     0.163 HD
ATOM     32  O   UNL A   1      39.947  19.864  26.051  1.00  0.00    -0.269 OA
BRANCH  30  33
ATOM     33  C   UNL A   1      39.698  22.142  26.544  1.00  0.00     0.039 A 
ATOM     34  C   UNL A   1      40.713  22.141  27.503  1.00  0.00     0.014 A 
ATOM     35  C   UNL A   1      39.158  23.348  26.087  1.00  0.00     0.014 A 
ATOM     36  C   UNL A   1      41.246  23.354  27.943  1.00  0.00     0.010 A 
ATOM     37  C   UNL A   1      39.735  24.553  26.476  1.00  0.00     0.010 A 
ATOM     38  C   UNL A   1      40.795  24.567  27.396  1.00  0.00    -0.014 A 
BRANCH  38  39
ATOM     39  C   UNL A   1      41.453  25.857  27.730  1.00  0.00     0.031 A 
ATOM     40  C   UNL A   1      40.732  26.889  28.549  1.00  0.00     0.074 A 
ATOM     41  C   UNL A   1      42.668  26.130  27.213  1.00  0.00     0.049 A 
ATOM     42  N   UNL A   1      41.108  28.105  28.856  1.00  0.00    -0.248 NA
ATOM     43  C   UNL A   1      39.406  26.519  29.073  1.00  0.00     0.031 C 
ATOM     44  C   UNL A   1      43.454  25.226  26.370  1.00  0.00     0.029 A 
ATOM     45  N   UNL A   1      43.448  27.257  27.305  1.00  0.00    -0.354 N 
ATOM     46  C   UNL A   1      40.061  28.651  29.587  1.00  0.00     0.074 A 
ATOM     47  C   UNL A   1      39.020  27.649  29.651  1.00  0.00     0.031 C 
ATOM     48  C   UNL A   1      44.607  25.828  26.033  1.00  0.00     0.029 A 
ATOM     49  C   UNL A   1      44.620  27.175  26.590  1.00  0.00     0.049 A 
ATOM     50  H   UNL A   1      43.193  28.047  27.833  1.00  0.00     0.167 HD
ATOM     51  C   UNL A   1      39.979  29.876  30.159  1.00  0.00     0.031 A 
ATOM     52  C   UNL A   1      45.585  28.092  26.382  1.00  0.00     0.031 A 
ATOM     53  C   UNL A   1      41.023  30.865  30.107  1.00  0.00     0.049 A 
ATOM     54  C   UNL A   1      45.451  29.454  27.007  1.00  0.00     0.074 A 
ATOM     55  C   UNL A   1      41.067  32.100  30.732  1.00  0.00     0.029 A 
ATOM     56  N   UNL A   1      42.196  30.741  29.380  1.00  0.00    -0.354 N 
ATOM     57  N   UNL A   1      44.500  29.916  27.782  1.00  0.00    -0.248 NA
ATOM     58  C   UNL A   1      46.523  30.419  26.729  1.00  0.00     0.031 C 
ATOM     59  C   UNL A   1      42.232  32.754  30.324  1.00  0.00     0.029 A 
ATOM     60  C   UNL A   1      42.945  31.898  29.498  1.00  0.00     0.049 A 
ATOM     61  H   UNL A   1      42.457  29.948  28.857  1.00  0.00     0.167 HD
ATOM     62  C   UNL A   1      44.870  31.216  28.099  1.00  0.00     0.074 A 
ATOM     63  C   UNL A   1      46.142  31.462  27.455  1.00  0.00     0.031 C 
ATOM     64  C   UNL A   1      44.210  32.130  28.852  1.00  0.00     0.031 A 
BRANCH  51  65
ATOM     65  C   UNL A   1      38.712  30.236  30.882  1.00  0.00    -0.014 A 
ATOM     66  C   UNL A   1      38.557  29.992  32.256  1.00  0.00     0.009 A 
ATOM     67  C   UNL A   1      37.689  30.907  30.192  1.00  0.00     0.009 A 
ATOM     68  C   UNL A   1      37.395  30.395  32.918  1.00  0.00     0.001 A 
ATOM     69  C   UNL A   1      36.541  31.331  30.862  1.00  0.00     0.001 A 
ATOM     70  C   UNL A   1      36.392  31.071  32.222  1.00  0.00     0.000 A 
ENDBRANCH  51  65
BRANCH  52  71
ATOM     71  C   UNL A   1      46.751  27.772  25.515  1.00  0.00    -0.014 A 
ATOM     72  C   UNL A   1      47.961  27.332  26.074  1.00  0.00     0.009 A 
ATOM     73  C   UNL A   1      46.671  27.942  24.123  1.00  0.00     0.009 A 
ATOM     74  C   UNL A   1      49.075  27.107  25.261  1.00  0.00     0.001 A 
ATOM     75  C   UNL A   1      47.775  27.682  23.310  1.00  0.00     0.001 A 
ATOM     76  C   UNL A   1      48.982  27.278  23.880  1.00  0.00     0.000 A 
ENDBRANCH  52  71
BRANCH  64  77
ATOM     77  C   UNL A   1      44.858  33.472  29.038  1.00  0.00    -0.014 A 
ATOM     78  C   UNL A   1      45.777  33.697  30.075  1.00  0.00     0.009 A 
ATOM     79  C   UNL A   1      44.592  34.506  28.126  1.00  0.00     0.009 A 
ATOM     80  C   UNL A   1      46.399  34.939  30.208  1.00  0.00     0.001 A 
ATOM     81  C   UNL A   1      45.240  35.737  28.243  1.00  0.00     0.001 A 
ATOM     82  C   UNL A   1      46.137  35.954  29.288  1.00  0.00     0.000 A 
ENDBRANCH  64  77
ENDBRANCH  38  39
ENDBRANCH  30  33
ENDBRANCH  28  29
ENDBRANCH  27  28
ENDBRANCH  26  27
ENDBRANCH   1  26
TORSDOF 16
ENDMDL
