MODEL 1
REMARK VINA RESULT:     -12.4      0.000      0.000
REMARK SMILES O=C(NCCCCCCNC(=O)[C@@H]1[C@H](C(=O)Nc2ccccc2Cc2ccccc2)[C@H]2C=C[C@@H]1O2)c1ccc(-c2c3nc(c(-c4ccccc4)c4ccc([nH]4)c(-c4ccccc4)c4nc(c(-c5ccccc5)c5ccc2[nH]5)C=C4)C=C3)cc1
REMARK SMILES IDX 7 1 6 2 5 3 4 4 3 5 1 6 2 7 36 9 37 10 83 11 38 12 82 13
REMARK SMILES IDX 39 14 40 15 41 16 76 17 42 18 81 19 75 20 77 21 43 22 80 23
REMARK SMILES IDX 74 24 73 25 44 27 66 28 51 29 65 30 52 31 55 32 64 33 78 34
REMARK SMILES IDX 53 35 54 36 63 38 79 39 56 40 45 41 46 42 50 43 47 44 49 45
REMARK SMILES IDX 48 46 67 47 68 48 72 49 69 50 71 51 70 52 57 53 58 54 62 55
REMARK SMILES IDX 59 56 61 57 60 58 8 59 9 60 10 61 11 62 12 64 13 65 14 66
REMARK SMILES IDX 34 67 31 68 33 69 35 70 32 71 15 72 16 73 17 74 18 76 19 77
REMARK SMILES IDX 23 78 20 79 22 80 21 81 24 82 25 83 26 84 30 85 27 86 29 87
REMARK SMILES IDX 28 88
REMARK H PARENT 3 8 77 26 55 37 10 63 17 75
REMARK Flexibility Score: inf
ROOT
ATOM      1  C   UNL A   1      31.138  27.655  24.566  1.00  0.00     0.002 C 
ENDROOT
BRANCH   1   2
ATOM      2  C   UNL A   1      32.495  27.297  25.157  1.00  0.00     0.002 C 
BRANCH   2   3
ATOM      3  C   UNL A   1      33.371  28.403  25.753  1.00  0.00     0.021 C 
BRANCH   3   4
ATOM      4  C   UNL A   1      33.493  28.578  27.261  1.00  0.00     0.116 C 
BRANCH   4   5
ATOM      5  N   UNL A   1      33.532  29.961  27.700  1.00  0.00    -0.352 N 
ATOM      6  O   UNL A   1      34.256  31.825  28.733  1.00  0.00    -0.269 OA
ATOM      7  C   UNL A   1      34.522  30.694  28.305  1.00  0.00     0.251 C 
ATOM      8  H   UNL A   1      32.700  30.462  27.534  1.00  0.00     0.163 HD
BRANCH   7   9
ATOM      9  C   UNL A   1      35.900  30.175  28.472  1.00  0.00     0.039 A 
ATOM     10  C   UNL A   1      36.850  30.294  27.458  1.00  0.00     0.014 A 
ATOM     11  C   UNL A   1      36.281  29.628  29.705  1.00  0.00     0.014 A 
ATOM     12  C   UNL A   1      38.119  29.741  27.619  1.00  0.00     0.010 A 
ATOM     13  C   UNL A   1      37.590  29.173  29.906  1.00  0.00     0.010 A 
ATOM     14  C   UNL A   1      38.519  29.209  28.856  1.00  0.00    -0.014 A 
BRANCH  14  15
ATOM     15  C   UNL A   1      39.940  28.805  29.048  1.00  0.00     0.031 A 
ATOM     16  C   UNL A   1      40.937  29.715  29.713  1.00  0.00     0.074 A 
ATOM     17  C   UNL A   1      40.321  27.580  28.631  1.00  0.00     0.049 A 
ATOM     18  N   UNL A   1      42.202  29.496  29.974  1.00  0.00    -0.248 NA
ATOM     19  C   UNL A   1      40.460  31.041  30.128  1.00  0.00     0.031 C 
ATOM     20  C   UNL A   1      39.446  26.609  27.964  1.00  0.00     0.029 A 
ATOM     21  N   UNL A   1      41.521  26.926  28.728  1.00  0.00    -0.354 N 
ATOM     22  C   UNL A   1      42.680  30.664  30.556  1.00  0.00     0.074 A 
ATOM     23  C   UNL A   1      41.573  31.596  30.590  1.00  0.00     0.031 C 
ATOM     24  C   UNL A   1      40.115  25.463  27.784  1.00  0.00     0.029 A 
ATOM     25  C   UNL A   1      41.487  25.642  28.239  1.00  0.00     0.049 A 
ATOM     26  H   UNL A   1      42.330  27.337  29.111  1.00  0.00     0.167 HD
ATOM     27  C   UNL A   1      43.927  30.933  31.016  1.00  0.00     0.031 A 
ATOM     28  C   UNL A   1      42.455  24.712  28.146  1.00  0.00     0.031 A 
ATOM     29  C   UNL A   1      45.025  30.000  30.974  1.00  0.00     0.049 A 
ATOM     30  C   UNL A   1      43.832  25.053  28.626  1.00  0.00     0.074 A 
ATOM     31  C   UNL A   1      46.317  30.166  31.444  1.00  0.00     0.029 A 
ATOM     32  N   UNL A   1      44.963  28.730  30.421  1.00  0.00    -0.354 N 
ATOM     33  N   UNL A   1      44.256  26.151  29.203  1.00  0.00    -0.248 NA
ATOM     34  C   UNL A   1      44.866  24.028  28.439  1.00  0.00     0.031 C 
ATOM     35  C   UNL A   1      47.052  29.020  31.119  1.00  0.00     0.029 A 
ATOM     36  C   UNL A   1      46.201  28.113  30.510  1.00  0.00     0.049 A 
ATOM     37  H   UNL A   1      44.158  28.326  30.023  1.00  0.00     0.167 HD
ATOM     38  C   UNL A   1      45.602  25.941  29.469  1.00  0.00     0.074 A 
ATOM     39  C   UNL A   1      45.914  24.602  29.010  1.00  0.00     0.031 C 
ATOM     40  C   UNL A   1      46.497  26.782  30.041  1.00  0.00     0.031 A 
BRANCH  27  41
ATOM     41  C   UNL A   1      44.183  32.313  31.567  1.00  0.00    -0.014 A 
ATOM     42  C   UNL A   1      44.597  33.372  30.743  1.00  0.00     0.009 A 
ATOM     43  C   UNL A   1      43.976  32.563  32.934  1.00  0.00     0.009 A 
ATOM     44  C   UNL A   1      44.840  34.639  31.285  1.00  0.00     0.001 A 
ATOM     45  C   UNL A   1      44.189  33.836  33.466  1.00  0.00     0.001 A 
ATOM     46  C   UNL A   1      44.633  34.870  32.644  1.00  0.00     0.000 A 
ENDBRANCH  27  41
BRANCH  28  47
ATOM     47  C   UNL A   1      42.151  23.378  27.561  1.00  0.00    -0.014 A 
ATOM     48  C   UNL A   1      41.514  22.391  28.327  1.00  0.00     0.009 A 
ATOM     49  C   UNL A   1      42.490  23.089  26.229  1.00  0.00     0.009 A 
ATOM     50  C   UNL A   1      41.241  21.136  27.778  1.00  0.00     0.001 A 
ATOM     51  C   UNL A   1      42.183  21.846  25.673  1.00  0.00     0.001 A 
ATOM     52  C   UNL A   1      41.568  20.867  26.450  1.00  0.00     0.000 A 
ENDBRANCH  28  47
BRANCH  40  53
ATOM     53  C   UNL A   1      47.891  26.253  30.238  1.00  0.00    -0.014 A 
ATOM     54  C   UNL A   1      48.840  26.283  29.205  1.00  0.00     0.009 A 
ATOM     55  C   UNL A   1      48.260  25.725  31.485  1.00  0.00     0.009 A 
ATOM     56  C   UNL A   1      50.117  25.753  29.404  1.00  0.00     0.001 A 
ATOM     57  C   UNL A   1      49.546  25.228  31.693  1.00  0.00     0.001 A 
ATOM     58  C   UNL A   1      50.469  25.231  30.648  1.00  0.00     0.000 A 
ENDBRANCH  40  53
ENDBRANCH  14  15
ENDBRANCH   7   9
ENDBRANCH   4   5
ENDBRANCH   3   4
ENDBRANCH   2   3
ENDBRANCH   1   2
BRANCH   1  59
ATOM     59  C   UNL A   1      30.460  26.753  23.546  1.00  0.00     0.021 C 
BRANCH  59  60
ATOM     60  C   UNL A   1      30.928  25.542  22.646  1.00  0.00     0.116 C 
BRANCH  60  61
ATOM     61  N   UNL A   1      31.989  24.478  22.411  1.00  0.00    -0.356 N 
ATOM     62  C   UNL A   1      33.054  23.782  23.074  1.00  0.00     0.227 C 
ATOM     63  H   UNL A   1      31.920  24.154  21.484  1.00  0.00     0.163 HD
ATOM     64  O   UNL A   1      33.790  23.290  22.178  1.00  0.00    -0.275 OA
BRANCH  62  65
ATOM     65  C   UNL A   1      33.746  23.395  24.740  1.00  0.00     0.127 C 
ATOM     66  C   UNL A   1      33.420  21.994  25.292  1.00  0.00     0.127 C 
ATOM     67  C   UNL A   1      33.807  24.028  26.201  1.00  0.00     0.155 C 
ATOM     68  C   UNL A   1      32.867  22.161  26.721  1.00  0.00     0.155 C 
ATOM     69  C   UNL A   1      34.663  23.370  27.281  1.00  0.00     0.004 C 
ATOM     70  O   UNL A   1      32.534  23.556  26.729  1.00  0.00    -0.365 OA
ATOM     71  C   UNL A   1      34.017  22.259  27.660  1.00  0.00     0.004 C 
BRANCH  66  72
ATOM     72  C   UNL A   1      32.452  21.358  24.442  1.00  0.00     0.231 C 
ATOM     73  O   UNL A   1      31.506  21.996  23.978  1.00  0.00    -0.274 OA
ATOM     74  N   UNL A   1      32.622  20.081  24.097  1.00  0.00    -0.325 N 
ATOM     75  H   UNL A   1      31.854  19.809  23.546  1.00  0.00     0.169 HD
BRANCH  74  76
ATOM     76  C   UNL A   1      33.495  18.963  24.223  1.00  0.00     0.044 A 
ATOM     77  C   UNL A   1      32.542  17.893  24.028  1.00  0.00     0.026 A 
ATOM     78  C   UNL A   1      34.905  18.640  24.519  1.00  0.00    -0.020 A 
ATOM     79  C   UNL A   1      32.798  16.562  24.210  1.00  0.00     0.002 A 
ATOM     80  C   UNL A   1      35.087  17.217  24.655  1.00  0.00     0.006 A 
ATOM     81  C   UNL A   1      34.077  16.231  24.547  1.00  0.00     0.000 A 
BRANCH  78  82
ATOM     82  C   UNL A   1      36.476  19.396  24.718  1.00  0.00     0.073 C 
BRANCH  82  83
ATOM     83  C   UNL A   1      37.110  20.996  24.768  1.00  0.00    -0.044 A 
ATOM     84  C   UNL A   1      36.829  22.142  23.959  1.00  0.00     0.004 A 
ATOM     85  C   UNL A   1      38.015  21.329  25.801  1.00  0.00     0.004 A 
ATOM     86  C   UNL A   1      37.081  23.489  24.300  1.00  0.00     0.000 A 
ATOM     87  C   UNL A   1      38.336  22.685  26.127  1.00  0.00     0.000 A 
ATOM     88  C   UNL A   1      37.805  23.767  25.428  1.00  0.00     0.000 A 
ENDBRANCH  82  83
ENDBRANCH  78  82
ENDBRANCH  74  76
ENDBRANCH  66  72
ENDBRANCH  62  65
ENDBRANCH  60  61
ENDBRANCH  59  60
ENDBRANCH   1  59
TORSDOF 17
ENDMDL
MODEL 2
REMARK VINA RESULT:     -12.2      1.839      7.123
REMARK SMILES O=C(NCCCCCCNC(=O)[C@@H]1[C@H](C(=O)Nc2ccccc2Cc2ccccc2)[C@H]2C=C[C@@H]1O2)c1ccc(-c2c3nc(c(-c4ccccc4)c4ccc([nH]4)c(-c4ccccc4)c4nc(c(-c5ccccc5)c5ccc2[nH]5)C=C4)C=C3)cc1
REMARK SMILES IDX 7 1 6 2 5 3 4 4 3 5 1 6 2 7 36 9 37 10 83 11 38 12 82 13
REMARK SMILES IDX 39 14 40 15 41 16 76 17 42 18 81 19 75 20 77 21 43 22 80 23
REMARK SMILES IDX 74 24 73 25 44 27 66 28 51 29 65 30 52 31 55 32 64 33 78 34
REMARK SMILES IDX 53 35 54 36 63 38 79 39 56 40 45 41 46 42 50 43 47 44 49 45
REMARK SMILES IDX 48 46 67 47 68 48 72 49 69 50 71 51 70 52 57 53 58 54 62 55
REMARK SMILES IDX 59 56 61 57 60 58 8 59 9 60 10 61 11 62 12 64 13 65 14 66
REMARK SMILES IDX 34 67 31 68 33 69 35 70 32 71 15 72 16 73 17 74 18 76 19 77
REMARK SMILES IDX 23 78 20 79 22 80 21 81 24 82 25 83 26 84 30 85 27 86 29 87
REMARK SMILES IDX 28 88
REMARK H PARENT 3 8 77 26 55 37 10 63 17 75
REMARK Flexibility Score: inf
ROOT
ATOM      1  C   UNL A   1      36.645  22.709  25.454  1.00  0.00     0.002 C 
ENDROOT
BRANCH   1   2
ATOM      2  C   UNL A   1      38.078  22.284  25.750  1.00  0.00     0.002 C 
BRANCH   2   3
ATOM      3  C   UNL A   1      38.642  21.026  25.082  1.00  0.00     0.021 C 
BRANCH   3   4
ATOM      4  C   UNL A   1      38.671  19.693  25.820  1.00  0.00     0.116 C 
BRANCH   4   5
ATOM      5  N   UNL A   1      39.959  19.024  25.792  1.00  0.00    -0.352 N 
ATOM      6  O   UNL A   1      42.193  18.755  25.779  1.00  0.00    -0.269 OA
ATOM      7  C   UNL A   1      41.229  19.491  26.025  1.00  0.00     0.251 C 
ATOM      8  H   UNL A   1      39.914  18.067  25.565  1.00  0.00     0.163 HD
BRANCH   7   9
ATOM      9  C   UNL A   1      41.487  20.852  26.553  1.00  0.00     0.039 A 
ATOM     10  C   UNL A   1      41.298  21.157  27.901  1.00  0.00     0.014 A 
ATOM     11  C   UNL A   1      42.011  21.830  25.698  1.00  0.00     0.014 A 
ATOM     12  C   UNL A   1      41.488  22.459  28.357  1.00  0.00     0.010 A 
ATOM     13  C   UNL A   1      42.309  23.111  26.182  1.00  0.00     0.010 A 
ATOM     14  C   UNL A   1      42.032  23.443  27.516  1.00  0.00    -0.014 A 
BRANCH  14  15
ATOM     15  C   UNL A   1      42.401  24.768  28.089  1.00  0.00     0.031 A 
ATOM     16  C   UNL A   1      41.374  25.844  28.315  1.00  0.00     0.074 A 
ATOM     17  C   UNL A   1      43.688  24.984  28.430  1.00  0.00     0.049 A 
ATOM     18  N   UNL A   1      41.535  27.039  28.827  1.00  0.00    -0.248 NA
ATOM     19  C   UNL A   1      39.993  25.549  27.906  1.00  0.00     0.031 C 
ATOM     20  C   UNL A   1      44.779  24.020  28.251  1.00  0.00     0.029 A 
ATOM     21  N   UNL A   1      44.297  26.059  29.022  1.00  0.00    -0.354 N 
ATOM     22  C   UNL A   1      40.288  27.649  28.776  1.00  0.00     0.074 A 
ATOM     23  C   UNL A   1      39.384  26.699  28.162  1.00  0.00     0.031 C 
ATOM     24  C   UNL A   1      45.900  24.515  28.791  1.00  0.00     0.029 A 
ATOM     25  C   UNL A   1      45.633  25.863  29.274  1.00  0.00     0.049 A 
ATOM     26  H   UNL A   1      43.822  26.893  29.244  1.00  0.00     0.167 HD
ATOM     27  C   UNL A   1      39.931  28.887  29.199  1.00  0.00     0.031 A 
ATOM     28  C   UNL A   1      46.554  26.680  29.817  1.00  0.00     0.031 A 
ATOM     29  C   UNL A   1      40.839  29.829  29.804  1.00  0.00     0.049 A 
ATOM     30  C   UNL A   1      46.138  28.057  30.238  1.00  0.00     0.074 A 
ATOM     31  C   UNL A   1      40.569  31.095  30.297  1.00  0.00     0.029 A 
ATOM     32  N   UNL A   1      42.196  29.611  29.992  1.00  0.00    -0.354 N 
ATOM     33  N   UNL A   1      44.948  28.603  30.212  1.00  0.00    -0.248 NA
ATOM     34  C   UNL A   1      47.196  28.931  30.760  1.00  0.00     0.031 C 
ATOM     35  C   UNL A   1      41.773  31.665  30.723  1.00  0.00     0.029 A 
ATOM     36  C   UNL A   1      42.782  30.730  30.563  1.00  0.00     0.049 A 
ATOM     37  H   UNL A   1      42.673  28.783  29.754  1.00  0.00     0.167 HD
ATOM     38  C   UNL A   1      45.106  29.879  30.734  1.00  0.00     0.074 A 
ATOM     39  C   UNL A   1      46.505  30.013  31.090  1.00  0.00     0.031 C 
ATOM     40  C   UNL A   1      44.177  30.851  30.904  1.00  0.00     0.031 A 
BRANCH  27  41
ATOM     41  C   UNL A   1      38.502  29.313  28.980  1.00  0.00    -0.014 A 
ATOM     42  C   UNL A   1      38.050  29.769  27.731  1.00  0.00     0.009 A 
ATOM     43  C   UNL A   1      37.582  29.227  30.039  1.00  0.00     0.009 A 
ATOM     44  C   UNL A   1      36.721  30.170  27.561  1.00  0.00     0.001 A 
ATOM     45  C   UNL A   1      36.249  29.598  29.858  1.00  0.00     0.001 A 
ATOM     46  C   UNL A   1      35.822  30.082  28.622  1.00  0.00     0.000 A 
ENDBRANCH  27  41
BRANCH  28  47
ATOM     47  C   UNL A   1      47.959  26.217  29.977  1.00  0.00    -0.014 A 
ATOM     48  C   UNL A   1      48.415  25.735  31.213  1.00  0.00     0.009 A 
ATOM     49  C   UNL A   1      48.848  26.246  28.890  1.00  0.00     0.009 A 
ATOM     50  C   UNL A   1      49.737  25.312  31.362  1.00  0.00     0.001 A 
ATOM     51  C   UNL A   1      50.159  25.789  29.034  1.00  0.00     0.001 A 
ATOM     52  C   UNL A   1      50.606  25.331  30.272  1.00  0.00     0.000 A 
ENDBRANCH  28  47
BRANCH  40  53
ATOM     53  C   UNL A   1      44.645  32.129  31.542  1.00  0.00    -0.014 A 
ATOM     54  C   UNL A   1      45.114  33.205  30.772  1.00  0.00     0.009 A 
ATOM     55  C   UNL A   1      44.607  32.258  32.939  1.00  0.00     0.009 A 
ATOM     56  C   UNL A   1      45.575  34.368  31.392  1.00  0.00     0.001 A 
ATOM     57  C   UNL A   1      45.036  33.434  33.554  1.00  0.00     0.001 A 
ATOM     58  C   UNL A   1      45.531  34.483  32.781  1.00  0.00     0.000 A 
ENDBRANCH  40  53
ENDBRANCH  14  15
ENDBRANCH   7   9
ENDBRANCH   4   5
ENDBRANCH   3   4
ENDBRANCH   2   3
ENDBRANCH   1   2
BRANCH   1  59
ATOM     59  C   UNL A   1      36.055  22.571  24.059  1.00  0.00     0.021 C 
BRANCH  59  60
ATOM     60  C   UNL A   1      34.857  23.249  23.285  1.00  0.00     0.116 C 
BRANCH  60  61
ATOM     61  N   UNL A   1      34.160  24.552  22.927  1.00  0.00    -0.356 N 
ATOM     62  C   UNL A   1      33.464  25.658  23.519  1.00  0.00     0.227 C 
ATOM     63  H   UNL A   1      34.201  24.682  21.952  1.00  0.00     0.163 HD
ATOM     64  O   UNL A   1      32.804  26.216  22.602  1.00  0.00    -0.275 OA
BRANCH  62  65
ATOM     65  C   UNL A   1      33.157  26.515  25.125  1.00  0.00     0.127 C 
ATOM     66  C   UNL A   1      31.896  26.071  25.890  1.00  0.00     0.127 C 
ATOM     67  C   UNL A   1      33.069  27.995  25.708  1.00  0.00     0.155 C 
ATOM     68  C   UNL A   1      31.097  27.334  26.268  1.00  0.00     0.155 C 
ATOM     69  C   UNL A   1      32.923  28.214  27.211  1.00  0.00     0.004 C 
ATOM     70  O   UNL A   1      31.681  28.305  25.389  1.00  0.00    -0.365 OA
ATOM     71  C   UNL A   1      31.663  27.887  27.528  1.00  0.00     0.004 C 
BRANCH  66  72
ATOM     72  C   UNL A   1      31.112  25.201  25.058  1.00  0.00     0.231 C 
ATOM     73  O   UNL A   1      30.307  25.662  24.247  1.00  0.00    -0.274 OA
ATOM     74  N   UNL A   1      31.310  23.884  25.117  1.00  0.00    -0.325 N 
ATOM     75  H   UNL A   1      30.668  23.451  24.509  1.00  0.00     0.169 HD
BRANCH  74  76
ATOM     76  C   UNL A   1      32.099  22.867  25.725  1.00  0.00     0.044 A 
ATOM     77  C   UNL A   1      32.424  23.528  26.970  1.00  0.00     0.026 A 
ATOM     78  C   UNL A   1      32.651  21.526  25.445  1.00  0.00    -0.020 A 
ATOM     79  C   UNL A   1      33.317  23.072  27.899  1.00  0.00     0.002 A 
ATOM     80  C   UNL A   1      33.548  21.112  26.494  1.00  0.00     0.006 A 
ATOM     81  C   UNL A   1      33.895  21.864  27.642  1.00  0.00     0.000 A 
BRANCH  78  82
ATOM     82  C   UNL A   1      32.555  20.215  24.282  1.00  0.00     0.073 C 
BRANCH  82  83
ATOM     83  C   UNL A   1      32.844  18.518  24.266  1.00  0.00    -0.044 A 
ATOM     84  C   UNL A   1      33.420  17.674  23.264  1.00  0.00     0.004 A 
ATOM     85  C   UNL A   1      32.554  17.775  25.432  1.00  0.00     0.004 A 
ATOM     86  C   UNL A   1      33.977  16.393  23.469  1.00  0.00     0.000 A 
ATOM     87  C   UNL A   1      33.055  16.450  25.638  1.00  0.00     0.000 A 
ATOM     88  C   UNL A   1      33.835  15.791  24.689  1.00  0.00     0.000 A 
ENDBRANCH  82  83
ENDBRANCH  78  82
ENDBRANCH  74  76
ENDBRANCH  66  72
ENDBRANCH  62  65
ENDBRANCH  60  61
ENDBRANCH  59  60
ENDBRANCH   1  59
TORSDOF 17
ENDMDL
MODEL 3
REMARK VINA RESULT:     -12.2      0.363      5.651
REMARK SMILES O=C(NCCCCCCNC(=O)[C@@H]1[C@H](C(=O)Nc2ccccc2Cc2ccccc2)[C@H]2C=C[C@@H]1O2)c1ccc(-c2c3nc(c(-c4ccccc4)c4ccc([nH]4)c(-c4ccccc4)c4nc(c(-c5ccccc5)c5ccc2[nH]5)C=C4)C=C3)cc1
REMARK SMILES IDX 7 1 6 2 5 3 4 4 3 5 1 6 2 7 36 9 37 10 83 11 38 12 82 13
REMARK SMILES IDX 39 14 40 15 41 16 76 17 42 18 81 19 75 20 77 21 43 22 80 23
REMARK SMILES IDX 74 24 73 25 44 27 66 28 51 29 65 30 52 31 55 32 64 33 78 34
REMARK SMILES IDX 53 35 54 36 63 38 79 39 56 40 45 41 46 42 50 43 47 44 49 45
REMARK SMILES IDX 48 46 67 47 68 48 72 49 69 50 71 51 70 52 57 53 58 54 62 55
REMARK SMILES IDX 59 56 61 57 60 58 8 59 9 60 10 61 11 62 12 64 13 65 14 66
REMARK SMILES IDX 34 67 31 68 33 69 35 70 32 71 15 72 16 73 17 74 18 76 19 77
REMARK SMILES IDX 23 78 20 79 22 80 21 81 24 82 25 83 26 84 30 85 27 86 29 87
REMARK SMILES IDX 28 88
REMARK H PARENT 3 8 77 26 55 37 10 63 17 75
REMARK Flexibility Score: inf
ROOT
ATOM      1  C   UNL A   1      31.044  27.624  24.497  1.00  0.00     0.002 C 
ENDROOT
BRANCH   1   2
ATOM      2  C   UNL A   1      32.543  27.758  24.728  1.00  0.00     0.002 C 
BRANCH   2   3
ATOM      3  C   UNL A   1      33.088  29.009  25.423  1.00  0.00     0.021 C 
BRANCH   3   4
ATOM      4  C   UNL A   1      33.756  28.918  26.789  1.00  0.00     0.116 C 
BRANCH   4   5
ATOM      5  N   UNL A   1      33.752  30.160  27.539  1.00  0.00    -0.352 N 
ATOM      6  O   UNL A   1      34.385  31.726  29.027  1.00  0.00    -0.269 OA
ATOM      7  C   UNL A   1      34.690  30.723  28.368  1.00  0.00     0.251 C 
ATOM      8  H   UNL A   1      32.931  30.694  27.435  1.00  0.00     0.163 HD
BRANCH   7   9
ATOM      9  C   UNL A   1      36.056  30.166  28.509  1.00  0.00     0.039 A 
ATOM     10  C   UNL A   1      37.004  30.295  27.494  1.00  0.00     0.014 A 
ATOM     11  C   UNL A   1      36.431  29.570  29.721  1.00  0.00     0.014 A 
ATOM     12  C   UNL A   1      38.259  29.708  27.629  1.00  0.00     0.010 A 
ATOM     13  C   UNL A   1      37.730  29.077  29.899  1.00  0.00     0.010 A 
ATOM     14  C   UNL A   1      38.654  29.126  28.844  1.00  0.00    -0.014 A 
BRANCH  14  15
ATOM     15  C   UNL A   1      40.065  28.681  29.014  1.00  0.00     0.031 A 
ATOM     16  C   UNL A   1      40.519  27.312  28.587  1.00  0.00     0.074 A 
ATOM     17  C   UNL A   1      40.952  29.548  29.546  1.00  0.00     0.049 A 
ATOM     18  N   UNL A   1      41.718  26.787  28.647  1.00  0.00    -0.248 NA
ATOM     19  C   UNL A   1      39.499  26.411  28.031  1.00  0.00     0.031 C 
ATOM     20  C   UNL A   1      40.630  30.902  30.008  1.00  0.00     0.029 A 
ATOM     21  N   UNL A   1      42.301  29.441  29.762  1.00  0.00    -0.354 N 
ATOM     22  C   UNL A   1      41.593  25.490  28.166  1.00  0.00     0.074 A 
ATOM     23  C   UNL A   1      40.196  25.299  27.838  1.00  0.00     0.031 C 
ATOM     24  C   UNL A   1      41.759  31.523  30.376  1.00  0.00     0.029 A 
ATOM     25  C   UNL A   1      42.869  30.587  30.263  1.00  0.00     0.049 A 
ATOM     26  H   UNL A   1      42.814  28.621  29.575  1.00  0.00     0.167 HD
ATOM     27  C   UNL A   1      42.554  24.545  28.015  1.00  0.00     0.031 A 
ATOM     28  C   UNL A   1      44.139  30.857  30.615  1.00  0.00     0.031 A 
ATOM     29  C   UNL A   1      43.943  24.741  28.349  1.00  0.00     0.049 A 
ATOM     30  C   UNL A   1      45.171  29.780  30.474  1.00  0.00     0.074 A 
ATOM     31  C   UNL A   1      44.999  23.858  28.202  1.00  0.00     0.029 A 
ATOM     32  N   UNL A   1      44.466  25.899  28.905  1.00  0.00    -0.354 N 
ATOM     33  N   UNL A   1      45.040  28.570  29.987  1.00  0.00    -0.248 NA
ATOM     34  C   UNL A   1      46.526  30.104  30.935  1.00  0.00     0.031 C 
ATOM     35  C   UNL A   1      46.148  24.459  28.728  1.00  0.00     0.029 A 
ATOM     36  C   UNL A   1      45.824  25.742  29.137  1.00  0.00     0.049 A 
ATOM     37  H   UNL A   1      43.949  26.712  29.107  1.00  0.00     0.167 HD
ATOM     38  C   UNL A   1      46.300  27.994  30.062  1.00  0.00     0.074 A 
ATOM     39  C   UNL A   1      47.184  28.998  30.620  1.00  0.00     0.031 C 
ATOM     40  C   UNL A   1      46.689  26.747  29.701  1.00  0.00     0.031 A 
BRANCH  27  41
ATOM     41  C   UNL A   1      42.127  23.192  27.504  1.00  0.00    -0.014 A 
ATOM     42  C   UNL A   1      41.499  22.252  28.338  1.00  0.00     0.009 A 
ATOM     43  C   UNL A   1      42.330  22.865  26.153  1.00  0.00     0.009 A 
ATOM     44  C   UNL A   1      41.126  21.000  27.840  1.00  0.00     0.001 A 
ATOM     45  C   UNL A   1      41.929  21.627  25.651  1.00  0.00     0.001 A 
ATOM     46  C   UNL A   1      41.338  20.690  26.497  1.00  0.00     0.000 A 
ENDBRANCH  27  41
BRANCH  28  47
ATOM     47  C   UNL A   1      44.495  32.200  31.146  1.00  0.00    -0.014 A 
ATOM     48  C   UNL A   1      44.946  33.212  30.284  1.00  0.00     0.009 A 
ATOM     49  C   UNL A   1      44.378  32.480  32.517  1.00  0.00     0.009 A 
ATOM     50  C   UNL A   1      45.290  34.468  30.788  1.00  0.00     0.001 A 
ATOM     51  C   UNL A   1      44.688  33.748  33.012  1.00  0.00     0.001 A 
ATOM     52  C   UNL A   1      45.154  34.738  32.149  1.00  0.00     0.000 A 
ENDBRANCH  28  47
BRANCH  40  53
ATOM     53  C   UNL A   1      48.147  26.421  29.864  1.00  0.00    -0.014 A 
ATOM     54  C   UNL A   1      49.076  26.677  28.843  1.00  0.00     0.009 A 
ATOM     55  C   UNL A   1      48.598  25.857  31.068  1.00  0.00     0.009 A 
ATOM     56  C   UNL A   1      50.419  26.331  29.008  1.00  0.00     0.001 A 
ATOM     57  C   UNL A   1      49.946  25.545  31.243  1.00  0.00     0.001 A 
ATOM     58  C   UNL A   1      50.853  25.771  30.209  1.00  0.00     0.000 A 
ENDBRANCH  40  53
ENDBRANCH  14  15
ENDBRANCH   7   9
ENDBRANCH   4   5
ENDBRANCH   3   4
ENDBRANCH   2   3
ENDBRANCH   1   2
BRANCH   1  59
ATOM     59  C   UNL A   1      30.495  26.797  23.345  1.00  0.00     0.021 C 
BRANCH  59  60
ATOM     60  C   UNL A   1      30.998  25.532  22.543  1.00  0.00     0.116 C 
BRANCH  60  61
ATOM     61  N   UNL A   1      32.114  24.517  22.356  1.00  0.00    -0.356 N 
ATOM     62  C   UNL A   1      33.158  23.843  23.074  1.00  0.00     0.227 C 
ATOM     63  H   UNL A   1      32.124  24.217  21.418  1.00  0.00     0.163 HD
ATOM     64  O   UNL A   1      33.974  23.406  22.220  1.00  0.00    -0.275 OA
BRANCH  62  65
ATOM     65  C   UNL A   1      33.748  23.434  24.774  1.00  0.00     0.127 C 
ATOM     66  C   UNL A   1      33.354  22.042  25.303  1.00  0.00     0.127 C 
ATOM     67  C   UNL A   1      33.745  24.063  26.239  1.00  0.00     0.155 C 
ATOM     68  C   UNL A   1      32.729  22.220  26.700  1.00  0.00     0.155 C 
ATOM     69  C   UNL A   1      34.522  23.380  27.361  1.00  0.00     0.004 C 
ATOM     70  O   UNL A   1      32.433  23.624  26.694  1.00  0.00    -0.365 OA
ATOM     71  C   UNL A   1      33.827  22.285  27.701  1.00  0.00     0.004 C 
BRANCH  66  72
ATOM     72  C   UNL A   1      32.419  21.433  24.399  1.00  0.00     0.231 C 
ATOM     73  O   UNL A   1      31.494  22.087  23.915  1.00  0.00    -0.274 OA
ATOM     74  N   UNL A   1      32.597  20.165  24.026  1.00  0.00    -0.325 N 
ATOM     75  H   UNL A   1      31.850  19.912  23.438  1.00  0.00     0.169 HD
BRANCH  74  76
ATOM     76  C   UNL A   1      33.460  19.040  24.157  1.00  0.00     0.044 A 
ATOM     77  C   UNL A   1      32.505  17.978  23.924  1.00  0.00     0.026 A 
ATOM     78  C   UNL A   1      34.860  18.703  24.481  1.00  0.00    -0.020 A 
ATOM     79  C   UNL A   1      32.748  16.643  24.093  1.00  0.00     0.002 A 
ATOM     80  C   UNL A   1      35.030  17.277  24.600  1.00  0.00     0.006 A 
ATOM     81  C   UNL A   1      34.018  16.300  24.454  1.00  0.00     0.000 A 
BRANCH  78  82
ATOM     82  C   UNL A   1      36.431  19.446  24.726  1.00  0.00     0.073 C 
BRANCH  82  83
ATOM     83  C   UNL A   1      37.078  21.041  24.792  1.00  0.00    -0.044 A 
ATOM     84  C   UNL A   1      36.825  22.190  23.976  1.00  0.00     0.004 A 
ATOM     85  C   UNL A   1      37.961  21.367  25.845  1.00  0.00     0.004 A 
ATOM     86  C   UNL A   1      37.080  23.534  24.323  1.00  0.00     0.000 A 
ATOM     87  C   UNL A   1      38.285  22.720  26.179  1.00  0.00     0.000 A 
ATOM     88  C   UNL A   1      37.780  23.806  25.467  1.00  0.00     0.000 A 
ENDBRANCH  82  83
ENDBRANCH  78  82
ENDBRANCH  74  76
ENDBRANCH  66  72
ENDBRANCH  62  65
ENDBRANCH  60  61
ENDBRANCH  59  60
ENDBRANCH   1  59
TORSDOF 17
ENDMDL
