MODEL 1
REMARK VINA RESULT:     -11.8      0.000      0.000
REMARK SMILES C[C@@]1(Oc2c[nH]c3ccc(Br)c(Cl)c23)O[C@@H](C(=O)NCCCCCCNC(=O)c2ccc(-c3c4nc(c(-c5ccccc5)c5ccc([nH]5)c(-c5ccccc5)c5nc(c(-c6ccccc6)c6ccc3[nH]6)C=C5)C=C4)cc2)[C@@](C)(O)[C@@](C)(O)[C@@]1(C)O
REMARK SMILES IDX 22 1 21 2 20 3 19 4 17 5 18 6 16 8 1 9 2 10 15 11 83 12
REMARK SMILES IDX 80 13 84 14 77 15 81 16 78 17 3 18 4 19 5 20 14 21 6 22 7 23
REMARK SMILES IDX 12 24 8 26 10 27 13 28 9 29 11 30 85 31 82 33 79 35 23 37
REMARK SMILES IDX 24 38 25 39 26 40 27 41 28 43 29 44 30 45 76 46 31 47 75 48
REMARK SMILES IDX 32 49 33 50 34 51 69 52 35 53 74 54 68 55 70 56 36 57 73 58
REMARK SMILES IDX 67 59 66 60 37 62 59 63 44 64 58 65 45 66 48 67 57 68 71 69
REMARK SMILES IDX 46 70 47 71 56 73 72 74 49 75 38 76 39 77 43 78 40 79 42 80
REMARK SMILES IDX 41 81 60 82 61 83 65 84 62 85 64 86 63 87 50 88 51 89 55 90
REMARK SMILES IDX 52 91 54 92 53 93
REMARK H PARENT 19 7 6 25 85 32 82 34 79 36 26 42 70 61 48 72
REMARK Flexibility Score: inf
ROOT
ATOM      1  C   UNL A   1      39.799  21.567  26.476  1.00  0.00     0.002 C 
ENDROOT
BRANCH   1   2
ATOM      2  C   UNL A   1      39.150  22.950  26.501  1.00  0.00     0.021 C 
BRANCH   2   3
ATOM      3  C   UNL A   1      37.783  23.023  25.822  1.00  0.00     0.116 C 
BRANCH   3   4
ATOM      4  N   UNL A   1      36.570  23.093  26.645  1.00  0.00    -0.354 N 
ATOM      5  C   UNL A   1      35.227  23.165  26.368  1.00  0.00     0.252 C 
ATOM      6  O   UNL A   1      34.495  22.893  27.337  1.00  0.00    -0.272 OA
ATOM      7  H   UNL A   1      36.762  23.088  27.610  1.00  0.00     0.163 HD
BRANCH   5   8
ATOM      8  C   UNL A   1      34.476  23.691  25.014  1.00  0.00     0.246 C 
ATOM      9  C   UNL A   1      32.590  24.849  26.892  1.00  0.00     0.094 C 
ATOM     10  C   UNL A   1      32.198  24.382  25.455  1.00  0.00     0.240 C 
ATOM     11  O   UNL A   1      33.442  24.706  24.797  1.00  0.00    -0.322 OA
ATOM     12  C   UNL A   1      31.780  22.928  24.828  1.00  0.00     0.158 C 
ATOM     13  C   UNL A   1      32.898  21.813  24.555  1.00  0.00     0.128 C 
ATOM     14  C   UNL A   1      31.197  23.136  23.393  1.00  0.00     0.053 C 
ATOM     15  C   UNL A   1      34.231  22.451  24.088  1.00  0.00     0.129 C 
ATOM     16  C   UNL A   1      32.388  20.622  23.693  1.00  0.00     0.049 C 
ATOM     17  C   UNL A   1      34.311  22.862  22.608  1.00  0.00     0.049 C 
BRANCH  10  18
ATOM     18  O   UNL A   1      31.050  25.331  25.561  1.00  0.00    -0.457 OA
BRANCH  18  19
ATOM     19  C   UNL A   1      30.808  26.398  24.795  1.00  0.00     0.150 A 
ATOM     20  C   UNL A   1      30.070  26.264  23.645  1.00  0.00     0.130 A 
ATOM     21  C   UNL A   1      31.318  27.738  24.832  1.00  0.00     0.061 A 
ATOM     22  N   UNL A   1      29.872  27.522  23.150  1.00  0.00    -0.358 N 
ATOM     23  C   UNL A   1      30.456  28.447  23.988  1.00  0.00     0.051 A 
ATOM     24  C   UNL A   1      32.250  28.495  25.577  1.00  0.00     0.068 A 
ATOM     25  H   UNL A   1      29.386  27.734  22.321  1.00  0.00     0.166 HD
ATOM     26  C   UNL A   1      30.293  29.833  24.068  1.00  0.00     0.028 A 
ATOM     27  C   UNL A   1      32.029  29.863  25.769  1.00  0.00     0.037 A 
ATOM     28  Cl  UNL A   1      33.637  27.649  26.124  1.00  0.00    -0.082 Cl
ATOM     29  C   UNL A   1      31.024  30.512  25.050  1.00  0.00     0.019 A 
ATOM     30  Br  UNL A   1      32.978  30.864  27.076  1.00  0.00    -0.049 Br
ENDBRANCH  18  19
ENDBRANCH  10  18
BRANCH  12  31
ATOM     31  O   UNL A   1      30.785  22.300  25.642  1.00  0.00    -0.380 OA
ATOM     32  H   UNL A   1      31.107  22.235  26.555  1.00  0.00     0.211 HD
ENDBRANCH  12  31
BRANCH  13  33
ATOM     33  O   UNL A   1      33.214  21.078  25.747  1.00  0.00    -0.384 OA
ATOM     34  H   UNL A   1      33.667  20.254  25.508  1.00  0.00     0.211 HD
ENDBRANCH  13  33
BRANCH  15  35
ATOM     35  O   UNL A   1      35.253  21.431  24.234  1.00  0.00    -0.384 OA
ATOM     36  H   UNL A   1      35.748  21.348  23.404  1.00  0.00     0.211 HD
ENDBRANCH  15  35
ENDBRANCH   5   8
ENDBRANCH   3   4
ENDBRANCH   2   3
ENDBRANCH   1   2
BRANCH   1  37
ATOM     37  C   UNL A   1      40.881  21.276  27.530  1.00  0.00     0.002 C 
BRANCH  37  38
ATOM     38  C   UNL A   1      41.870  20.136  27.243  1.00  0.00     0.021 C 
BRANCH  38  39
ATOM     39  C   UNL A   1      41.978  19.758  25.774  1.00  0.00     0.116 C 
BRANCH  39  40
ATOM     40  N   UNL A   1      43.362  19.743  25.316  1.00  0.00    -0.352 N 
ATOM     41  C   UNL A   1      44.229  20.787  25.107  1.00  0.00     0.251 C 
ATOM     42  H   UNL A   1      43.730  18.849  25.126  1.00  0.00     0.163 HD
ATOM     43  O   UNL A   1      45.244  20.626  24.448  1.00  0.00    -0.269 OA
BRANCH  41  44
ATOM     44  C   UNL A   1      43.938  22.106  25.697  1.00  0.00     0.039 A 
ATOM     45  C   UNL A   1      43.086  22.987  25.026  1.00  0.00     0.014 A 
ATOM     46  C   UNL A   1      44.576  22.492  26.877  1.00  0.00     0.014 A 
ATOM     47  C   UNL A   1      42.859  24.246  25.568  1.00  0.00     0.010 A 
ATOM     48  C   UNL A   1      44.276  23.696  27.468  1.00  0.00     0.010 A 
ATOM     49  C   UNL A   1      43.461  24.590  26.789  1.00  0.00    -0.014 A 
BRANCH  49  50
ATOM     50  C   UNL A   1      43.151  25.862  27.413  1.00  0.00     0.031 A 
ATOM     51  C   UNL A   1      44.082  26.960  27.052  1.00  0.00     0.074 A 
ATOM     52  C   UNL A   1      42.036  26.086  28.137  1.00  0.00     0.049 A 
ATOM     53  N   UNL A   1      44.931  27.546  27.827  1.00  0.00    -0.248 NA
ATOM     54  C   UNL A   1      44.171  27.368  25.640  1.00  0.00     0.031 C 
ATOM     55  C   UNL A   1      40.877  25.212  28.348  1.00  0.00     0.029 A 
ATOM     56  N   UNL A   1      41.674  27.224  28.784  1.00  0.00    -0.354 N 
ATOM     57  C   UNL A   1      45.560  28.510  27.051  1.00  0.00     0.074 A 
ATOM     58  C   UNL A   1      45.152  28.273  25.688  1.00  0.00     0.031 C 
ATOM     59  C   UNL A   1      39.861  25.931  28.882  1.00  0.00     0.029 A 
ATOM     60  C   UNL A   1      40.351  27.258  29.207  1.00  0.00     0.049 A 
ATOM     61  H   UNL A   1      42.301  27.967  28.940  1.00  0.00     0.167 HD
ATOM     62  C   UNL A   1      46.213  29.562  27.614  1.00  0.00     0.031 A 
ATOM     63  C   UNL A   1      39.721  28.321  29.764  1.00  0.00     0.031 A 
ATOM     64  C   UNL A   1      46.460  29.356  29.016  1.00  0.00     0.049 A 
ATOM     65  C   UNL A   1      40.778  29.199  30.316  1.00  0.00     0.074 A 
ATOM     66  C   UNL A   1      47.202  28.449  29.746  1.00  0.00     0.029 A 
ATOM     67  N   UNL A   1      45.555  29.901  29.895  1.00  0.00    -0.354 N 
ATOM     68  N   UNL A   1      41.547  28.860  31.309  1.00  0.00    -0.248 NA
ATOM     69  C   UNL A   1      41.269  30.284  29.482  1.00  0.00     0.031 C 
ATOM     70  C   UNL A   1      46.395  28.148  30.882  1.00  0.00     0.029 A 
ATOM     71  C   UNL A   1      45.244  28.935  30.817  1.00  0.00     0.049 A 
ATOM     72  H   UNL A   1      45.197  30.818  29.868  1.00  0.00     0.167 HD
ATOM     73  C   UNL A   1      42.793  29.369  30.977  1.00  0.00     0.074 A 
ATOM     74  C   UNL A   1      42.539  30.318  29.894  1.00  0.00     0.031 C 
ATOM     75  C   UNL A   1      43.938  28.773  31.419  1.00  0.00     0.031 A 
BRANCH  62  76
ATOM     76  C   UNL A   1      46.289  30.920  26.977  1.00  0.00    -0.014 A 
ATOM     77  C   UNL A   1      47.513  31.607  26.960  1.00  0.00     0.009 A 
ATOM     78  C   UNL A   1      45.137  31.654  26.635  1.00  0.00     0.009 A 
ATOM     79  C   UNL A   1      47.574  32.970  26.646  1.00  0.00     0.001 A 
ATOM     80  C   UNL A   1      45.197  33.005  26.286  1.00  0.00     0.001 A 
ATOM     81  C   UNL A   1      46.415  33.668  26.311  1.00  0.00     0.000 A 
ENDBRANCH  62  76
BRANCH  63  82
ATOM     82  C   UNL A   1      38.340  28.814  29.550  1.00  0.00    -0.014 A 
ATOM     83  C   UNL A   1      37.585  29.274  30.644  1.00  0.00     0.009 A 
ATOM     84  C   UNL A   1      37.887  29.141  28.260  1.00  0.00     0.009 A 
ATOM     85  C   UNL A   1      36.466  30.096  30.456  1.00  0.00     0.001 A 
ATOM     86  C   UNL A   1      36.763  29.957  28.073  1.00  0.00     0.001 A 
ATOM     87  C   UNL A   1      36.068  30.454  29.172  1.00  0.00     0.000 A 
ENDBRANCH  63  82
BRANCH  75  88
ATOM     88  C   UNL A   1      43.810  27.670  32.443  1.00  0.00    -0.014 A 
ATOM     89  C   UNL A   1      43.943  26.307  32.121  1.00  0.00     0.009 A 
ATOM     90  C   UNL A   1      43.743  28.031  33.795  1.00  0.00     0.009 A 
ATOM     91  C   UNL A   1      44.005  25.336  33.129  1.00  0.00     0.001 A 
ATOM     92  C   UNL A   1      43.822  27.065  34.800  1.00  0.00     0.001 A 
ATOM     93  C   UNL A   1      43.956  25.719  34.468  1.00  0.00     0.000 A 
ENDBRANCH  75  88
ENDBRANCH  49  50
ENDBRANCH  41  44
ENDBRANCH  39  40
ENDBRANCH  38  39
ENDBRANCH  37  38
ENDBRANCH   1  37
TORSDOF 18
ENDMDL
MODEL 2
REMARK VINA RESULT:     -11.2      2.104      3.087
REMARK SMILES C[C@@]1(Oc2c[nH]c3ccc(Br)c(Cl)c23)O[C@@H](C(=O)NCCCCCCNC(=O)c2ccc(-c3c4nc(c(-c5ccccc5)c5ccc([nH]5)c(-c5ccccc5)c5nc(c(-c6ccccc6)c6ccc3[nH]6)C=C5)C=C4)cc2)[C@@](C)(O)[C@@](C)(O)[C@@]1(C)O
REMARK SMILES IDX 22 1 21 2 20 3 19 4 17 5 18 6 16 8 1 9 2 10 15 11 83 12
REMARK SMILES IDX 80 13 84 14 77 15 81 16 78 17 3 18 4 19 5 20 14 21 6 22 7 23
REMARK SMILES IDX 12 24 8 26 10 27 13 28 9 29 11 30 85 31 82 33 79 35 23 37
REMARK SMILES IDX 24 38 25 39 26 40 27 41 28 43 29 44 30 45 76 46 31 47 75 48
REMARK SMILES IDX 32 49 33 50 34 51 69 52 35 53 74 54 68 55 70 56 36 57 73 58
REMARK SMILES IDX 67 59 66 60 37 62 59 63 44 64 58 65 45 66 48 67 57 68 71 69
REMARK SMILES IDX 46 70 47 71 56 73 72 74 49 75 38 76 39 77 43 78 40 79 42 80
REMARK SMILES IDX 41 81 60 82 61 83 65 84 62 85 64 86 63 87 50 88 51 89 55 90
REMARK SMILES IDX 52 91 54 92 53 93
REMARK H PARENT 19 7 6 25 85 32 82 34 79 36 26 42 70 61 48 72
REMARK Flexibility Score: inf
ROOT
ATOM      1  C   UNL A   1      38.877  24.232  27.445  1.00  0.00     0.002 C 
ENDROOT
BRANCH   1   2
ATOM      2  C   UNL A   1      38.385  23.784  26.069  1.00  0.00     0.021 C 
BRANCH   2   3
ATOM      3  C   UNL A   1      36.938  23.292  26.041  1.00  0.00     0.116 C 
BRANCH   3   4
ATOM      4  N   UNL A   1      36.666  21.854  25.930  1.00  0.00    -0.354 N 
ATOM      5  C   UNL A   1      35.800  21.099  25.178  1.00  0.00     0.252 C 
ATOM      6  O   UNL A   1      36.087  19.888  25.139  1.00  0.00    -0.272 OA
ATOM      7  H   UNL A   1      37.229  21.311  26.527  1.00  0.00     0.163 HD
BRANCH   5   8
ATOM      8  C   UNL A   1      34.395  21.536  24.465  1.00  0.00     0.246 C 
ATOM      9  C   UNL A   1      35.927  23.839  23.584  1.00  0.00     0.094 C 
ATOM     10  C   UNL A   1      34.388  23.876  23.843  1.00  0.00     0.240 C 
ATOM     11  O   UNL A   1      34.086  22.526  23.430  1.00  0.00    -0.322 OA
ATOM     12  C   UNL A   1      33.488  24.092  25.194  1.00  0.00     0.158 C 
ATOM     13  C   UNL A   1      33.330  22.905  26.260  1.00  0.00     0.128 C 
ATOM     14  C   UNL A   1      32.000  24.337  24.785  1.00  0.00     0.053 C 
ATOM     15  C   UNL A   1      33.276  21.522  25.562  1.00  0.00     0.129 C 
ATOM     16  C   UNL A   1      32.218  23.165  27.317  1.00  0.00     0.049 C 
ATOM     17  C   UNL A   1      31.925  21.120  24.946  1.00  0.00     0.049 C 
BRANCH  10  18
ATOM     18  O   UNL A   1      34.355  25.048  22.919  1.00  0.00    -0.457 OA
BRANCH  18  19
ATOM     19  C   UNL A   1      33.275  25.669  22.437  1.00  0.00     0.150 A 
ATOM     20  C   UNL A   1      32.692  25.228  21.276  1.00  0.00     0.130 A 
ATOM     21  C   UNL A   1      32.623  26.889  22.816  1.00  0.00     0.061 A 
ATOM     22  N   UNL A   1      31.547  25.953  21.104  1.00  0.00    -0.358 N 
ATOM     23  C   UNL A   1      31.390  26.828  22.156  1.00  0.00     0.051 A 
ATOM     24  C   UNL A   1      32.802  27.940  23.744  1.00  0.00     0.068 A 
ATOM     25  H   UNL A   1      30.928  25.863  20.343  1.00  0.00     0.166 HD
ATOM     26  C   UNL A   1      30.275  27.559  22.574  1.00  0.00     0.028 A 
ATOM     27  C   UNL A   1      31.681  28.596  24.264  1.00  0.00     0.037 A 
ATOM     28  Cl  UNL A   1      34.425  28.365  24.092  1.00  0.00    -0.082 Cl
ATOM     29  C   UNL A   1      30.421  28.366  23.709  1.00  0.00     0.019 A 
ATOM     30  Br  UNL A   1      31.789  29.712  25.798  1.00  0.00    -0.049 Br
ENDBRANCH  18  19
ENDBRANCH  10  18
BRANCH  12  31
ATOM     31  O   UNL A   1      33.956  25.226  25.931  1.00  0.00    -0.380 OA
ATOM     32  H   UNL A   1      34.386  25.850  25.326  1.00  0.00     0.211 HD
ENDBRANCH  12  31
BRANCH  13  33
ATOM     33  O   UNL A   1      34.450  22.847  27.156  1.00  0.00    -0.384 OA
ATOM     34  H   UNL A   1      34.263  22.214  27.867  1.00  0.00     0.211 HD
ENDBRANCH  13  33
BRANCH  15  35
ATOM     35  O   UNL A   1      33.512  20.529  26.593  1.00  0.00    -0.384 OA
ATOM     36  H   UNL A   1      33.189  20.862  27.444  1.00  0.00     0.211 HD
ENDBRANCH  15  35
ENDBRANCH   5   8
ENDBRANCH   3   4
ENDBRANCH   2   3
ENDBRANCH   1   2
BRANCH   1  37
ATOM     37  C   UNL A   1      40.165  23.582  27.980  1.00  0.00     0.002 C 
BRANCH  37  38
ATOM     38  C   UNL A   1      40.759  22.412  27.183  1.00  0.00     0.021 C 
BRANCH  38  39
ATOM     39  C   UNL A   1      42.220  22.123  27.490  1.00  0.00     0.116 C 
BRANCH  39  40
ATOM     40  N   UNL A   1      43.084  22.408  26.351  1.00  0.00    -0.352 N 
ATOM     41  C   UNL A   1      43.280  23.586  25.672  1.00  0.00     0.251 C 
ATOM     42  H   UNL A   1      43.605  21.642  26.018  1.00  0.00     0.163 HD
ATOM     43  O   UNL A   1      43.807  23.584  24.571  1.00  0.00    -0.269 OA
BRANCH  41  44
ATOM     44  C   UNL A   1      42.866  24.860  26.286  1.00  0.00     0.039 A 
ATOM     45  C   UNL A   1      41.939  25.673  25.625  1.00  0.00     0.014 A 
ATOM     46  C   UNL A   1      43.459  25.279  27.478  1.00  0.00     0.014 A 
ATOM     47  C   UNL A   1      41.594  26.894  26.191  1.00  0.00     0.010 A 
ATOM     48  C   UNL A   1      43.046  26.439  28.090  1.00  0.00     0.010 A 
ATOM     49  C   UNL A   1      42.154  27.267  27.422  1.00  0.00    -0.014 A 
BRANCH  49  50
ATOM     50  C   UNL A   1      41.725  28.493  28.069  1.00  0.00     0.031 A 
ATOM     51  C   UNL A   1      42.667  29.628  27.908  1.00  0.00     0.074 A 
ATOM     52  C   UNL A   1      40.514  28.650  28.639  1.00  0.00     0.049 A 
ATOM     53  N   UNL A   1      43.382  30.182  28.828  1.00  0.00    -0.248 NA
ATOM     54  C   UNL A   1      42.942  30.124  26.549  1.00  0.00     0.031 C 
ATOM     55  C   UNL A   1      39.361  27.743  28.633  1.00  0.00     0.029 A 
ATOM     56  N   UNL A   1      40.033  29.739  29.293  1.00  0.00    -0.354 N 
ATOM     57  C   UNL A   1      44.086  31.204  28.206  1.00  0.00     0.074 A 
ATOM     58  C   UNL A   1      43.881  31.043  26.788  1.00  0.00     0.031 C 
ATOM     59  C   UNL A   1      38.261  28.408  29.058  1.00  0.00     0.029 A 
ATOM     60  C   UNL A   1      38.664  29.722  29.526  1.00  0.00     0.049 A 
ATOM     61  H   UNL A   1      40.611  30.483  29.580  1.00  0.00     0.167 HD
ATOM     62  C   UNL A   1      44.625  32.231  28.917  1.00  0.00     0.031 A 
ATOM     63  C   UNL A   1      37.932  30.736  30.047  1.00  0.00     0.031 A 
ATOM     64  C   UNL A   1      44.678  31.945  30.326  1.00  0.00     0.049 A 
ATOM     65  C   UNL A   1      38.876  31.599  30.794  1.00  0.00     0.074 A 
ATOM     66  C   UNL A   1      45.335  31.009  31.100  1.00  0.00     0.029 A 
ATOM     67  N   UNL A   1      43.644  32.418  31.097  1.00  0.00    -0.354 N 
ATOM     68  N   UNL A   1      39.508  31.214  31.865  1.00  0.00    -0.248 NA
ATOM     69  C   UNL A   1      39.450  32.742  30.103  1.00  0.00     0.031 C 
ATOM     70  C   UNL A   1      44.385  30.623  32.090  1.00  0.00     0.029 A 
ATOM     71  C   UNL A   1      43.233  31.390  31.908  1.00  0.00     0.049 A 
ATOM     72  H   UNL A   1      43.268  33.327  31.073  1.00  0.00     0.167 HD
ATOM     73  C   UNL A   1      40.773  31.767  31.744  1.00  0.00     0.074 A 
ATOM     74  C   UNL A   1      40.648  32.775  30.692  1.00  0.00     0.031 C 
ATOM     75  C   UNL A   1      41.861  31.167  32.308  1.00  0.00     0.031 A 
BRANCH  62  76
ATOM     76  C   UNL A   1      44.752  33.627  28.377  1.00  0.00    -0.014 A 
ATOM     77  C   UNL A   1      43.607  34.432  28.270  1.00  0.00     0.009 A 
ATOM     78  C   UNL A   1      45.914  34.077  27.723  1.00  0.00     0.009 A 
ATOM     79  C   UNL A   1      43.620  35.614  27.518  1.00  0.00     0.001 A 
ATOM     80  C   UNL A   1      45.942  35.272  27.002  1.00  0.00     0.001 A 
ATOM     81  C   UNL A   1      44.787  36.031  26.883  1.00  0.00     0.000 A 
ENDBRANCH  62  76
BRANCH  63  82
ATOM     82  C   UNL A   1      36.582  31.214  29.669  1.00  0.00    -0.014 A 
ATOM     83  C   UNL A   1      35.793  31.899  30.611  1.00  0.00     0.009 A 
ATOM     84  C   UNL A   1      36.202  31.296  28.318  1.00  0.00     0.009 A 
ATOM     85  C   UNL A   1      34.715  32.698  30.208  1.00  0.00     0.001 A 
ATOM     86  C   UNL A   1      35.120  32.089  27.917  1.00  0.00     0.001 A 
ATOM     87  C   UNL A   1      34.392  32.810  28.859  1.00  0.00     0.000 A 
ENDBRANCH  63  82
BRANCH  75  88
ATOM     88  C   UNL A   1      41.621  30.001  33.237  1.00  0.00    -0.014 A 
ATOM     89  C   UNL A   1      41.553  28.668  32.793  1.00  0.00     0.009 A 
ATOM     90  C   UNL A   1      41.655  30.241  34.618  1.00  0.00     0.009 A 
ATOM     91  C   UNL A   1      41.519  27.608  33.709  1.00  0.00     0.001 A 
ATOM     92  C   UNL A   1      41.638  29.184  35.530  1.00  0.00     0.001 A 
ATOM     93  C   UNL A   1      41.573  27.869  35.076  1.00  0.00     0.000 A 
ENDBRANCH  75  88
ENDBRANCH  49  50
ENDBRANCH  41  44
ENDBRANCH  39  40
ENDBRANCH  38  39
ENDBRANCH  37  38
ENDBRANCH   1  37
TORSDOF 18
ENDMDL
MODEL 3
REMARK VINA RESULT:     -11.1      2.897      8.164
REMARK SMILES C[C@@]1(Oc2c[nH]c3ccc(Br)c(Cl)c23)O[C@@H](C(=O)NCCCCCCNC(=O)c2ccc(-c3c4nc(c(-c5ccccc5)c5ccc([nH]5)c(-c5ccccc5)c5nc(c(-c6ccccc6)c6ccc3[nH]6)C=C5)C=C4)cc2)[C@@](C)(O)[C@@](C)(O)[C@@]1(C)O
REMARK SMILES IDX 22 1 21 2 20 3 19 4 17 5 18 6 16 8 1 9 2 10 15 11 83 12
REMARK SMILES IDX 80 13 84 14 77 15 81 16 78 17 3 18 4 19 5 20 14 21 6 22 7 23
REMARK SMILES IDX 12 24 8 26 10 27 13 28 9 29 11 30 85 31 82 33 79 35 23 37
REMARK SMILES IDX 24 38 25 39 26 40 27 41 28 43 29 44 30 45 76 46 31 47 75 48
REMARK SMILES IDX 32 49 33 50 34 51 69 52 35 53 74 54 68 55 70 56 36 57 73 58
REMARK SMILES IDX 67 59 66 60 37 62 59 63 44 64 58 65 45 66 48 67 57 68 71 69
REMARK SMILES IDX 46 70 47 71 56 73 72 74 49 75 38 76 39 77 43 78 40 79 42 80
REMARK SMILES IDX 41 81 60 82 61 83 65 84 62 85 64 86 63 87 50 88 51 89 55 90
REMARK SMILES IDX 52 91 54 92 53 93
REMARK H PARENT 19 7 6 25 85 32 82 34 79 36 26 42 70 61 48 72
REMARK Flexibility Score: inf
ROOT
ATOM      1  C   UNL A   1      34.613  30.336  27.507  1.00  0.00     0.002 C 
ENDROOT
BRANCH   1   2
ATOM      2  C   UNL A   1      33.249  30.945  27.189  1.00  0.00     0.021 C 
BRANCH   2   3
ATOM      3  C   UNL A   1      32.243  29.967  26.582  1.00  0.00     0.116 C 
BRANCH   3   4
ATOM      4  N   UNL A   1      31.368  30.414  25.491  1.00  0.00    -0.354 N 
ATOM      5  C   UNL A   1      30.600  29.768  24.554  1.00  0.00     0.252 C 
ATOM      6  O   UNL A   1      29.757  30.498  24.000  1.00  0.00    -0.272 OA
ATOM      7  H   UNL A   1      31.324  31.394  25.414  1.00  0.00     0.163 HD
BRANCH   5   8
ATOM      8  C   UNL A   1      30.737  28.246  23.974  1.00  0.00     0.246 C 
ATOM      9  C   UNL A   1      31.394  27.596  26.726  1.00  0.00     0.094 C 
ATOM     10  C   UNL A   1      31.944  26.803  25.499  1.00  0.00     0.240 C 
ATOM     11  O   UNL A   1      30.790  26.942  24.642  1.00  0.00    -0.322 OA
ATOM     12  C   UNL A   1      33.218  27.038  24.497  1.00  0.00     0.158 C 
ATOM     13  C   UNL A   1      33.153  28.161  23.355  1.00  0.00     0.128 C 
ATOM     14  C   UNL A   1      33.445  25.748  23.646  1.00  0.00     0.053 C 
ATOM     15  C   UNL A   1      31.727  28.281  22.760  1.00  0.00     0.129 C 
ATOM     16  C   UNL A   1      34.305  28.054  22.314  1.00  0.00     0.049 C 
ATOM     17  C   UNL A   1      31.331  27.225  21.713  1.00  0.00     0.049 C 
BRANCH  10  18
ATOM     18  O   UNL A   1      32.138  25.662  26.442  1.00  0.00    -0.457 OA
BRANCH  18  19
ATOM     19  C   UNL A   1      31.771  24.391  26.260  1.00  0.00     0.150 A 
ATOM     20  C   UNL A   1      30.464  24.020  26.454  1.00  0.00     0.130 A 
ATOM     21  C   UNL A   1      32.534  23.197  26.033  1.00  0.00     0.061 A 
ATOM     22  N   UNL A   1      30.358  22.714  26.067  1.00  0.00    -0.358 N 
ATOM     23  C   UNL A   1      31.578  22.266  25.610  1.00  0.00     0.051 A 
ATOM     24  C   UNL A   1      33.889  22.809  25.945  1.00  0.00     0.068 A 
ATOM     25  H   UNL A   1      29.535  22.175  26.110  1.00  0.00     0.166 HD
ATOM     26  C   UNL A   1      31.911  21.130  24.866  1.00  0.00     0.028 A 
ATOM     27  C   UNL A   1      34.249  21.751  25.103  1.00  0.00     0.037 A 
ATOM     28  Cl  UNL A   1      34.979  23.652  26.964  1.00  0.00    -0.082 Cl
ATOM     29  C   UNL A   1      33.258  20.950  24.533  1.00  0.00     0.019 A 
ATOM     30  Br  UNL A   1      36.053  21.430  24.602  1.00  0.00    -0.049 Br
ENDBRANCH  18  19
ENDBRANCH  10  18
BRANCH  12  31
ATOM     31  O   UNL A   1      34.403  27.308  25.251  1.00  0.00    -0.380 OA
ATOM     32  H   UNL A   1      34.681  28.225  25.100  1.00  0.00     0.211 HD
ENDBRANCH  12  31
BRANCH  13  33
ATOM     33  O   UNL A   1      33.470  29.461  23.873  1.00  0.00    -0.384 OA
ATOM     34  H   UNL A   1      32.728  30.065  23.709  1.00  0.00     0.211 HD
ENDBRANCH  13  33
BRANCH  15  35
ATOM     35  O   UNL A   1      31.683  29.538  22.037  1.00  0.00    -0.384 OA
ATOM     36  H   UNL A   1      30.985  30.101  22.407  1.00  0.00     0.211 HD
ENDBRANCH  15  35
ENDBRANCH   5   8
ENDBRANCH   3   4
ENDBRANCH   2   3
ENDBRANCH   1   2
BRANCH   1  37
ATOM     37  C   UNL A   1      35.737  31.302  27.924  1.00  0.00     0.002 C 
BRANCH  37  38
ATOM     38  C   UNL A   1      35.348  32.752  28.249  1.00  0.00     0.021 C 
BRANCH  38  39
ATOM     39  C   UNL A   1      36.530  33.697  28.397  1.00  0.00     0.116 C 
BRANCH  39  40
ATOM     40  N   UNL A   1      36.641  34.225  29.751  1.00  0.00    -0.352 N 
ATOM     41  C   UNL A   1      37.151  33.636  30.883  1.00  0.00     0.251 C 
ATOM     42  H   UNL A   1      36.300  35.140  29.874  1.00  0.00     0.163 HD
ATOM     43  O   UNL A   1      36.902  34.098  31.985  1.00  0.00    -0.269 OA
BRANCH  41  44
ATOM     44  C   UNL A   1      38.015  32.449  30.762  1.00  0.00     0.039 A 
ATOM     45  C   UNL A   1      37.487  31.183  31.032  1.00  0.00     0.014 A 
ATOM     46  C   UNL A   1      39.368  32.606  30.456  1.00  0.00     0.014 A 
ATOM     47  C   UNL A   1      38.325  30.077  30.962  1.00  0.00     0.010 A 
ATOM     48  C   UNL A   1      40.175  31.506  30.288  1.00  0.00     0.010 A 
ATOM     49  C   UNL A   1      39.667  30.251  30.590  1.00  0.00    -0.014 A 
BRANCH  49  50
ATOM     50  C   UNL A   1      40.524  29.093  30.417  1.00  0.00     0.031 A 
ATOM     51  C   UNL A   1      41.173  28.624  31.667  1.00  0.00     0.074 A 
ATOM     52  C   UNL A   1      40.616  28.399  29.265  1.00  0.00     0.049 A 
ATOM     53  N   UNL A   1      42.429  28.675  31.957  1.00  0.00    -0.248 NA
ATOM     54  C   UNL A   1      40.316  28.161  32.771  1.00  0.00     0.031 C 
ATOM     55  C   UNL A   1      39.835  28.542  28.033  1.00  0.00     0.029 A 
ATOM     56  N   UNL A   1      41.408  27.329  28.995  1.00  0.00    -0.354 N 
ATOM     57  C   UNL A   1      42.557  28.108  33.218  1.00  0.00     0.074 A 
ATOM     58  C   UNL A   1      41.219  27.928  33.727  1.00  0.00     0.031 C 
ATOM     59  C   UNL A   1      40.040  27.462  27.240  1.00  0.00     0.029 A 
ATOM     60  C   UNL A   1      41.089  26.648  27.827  1.00  0.00     0.049 A 
ATOM     61  H   UNL A   1      42.150  27.057  29.582  1.00  0.00     0.167 HD
ATOM     62  C   UNL A   1      43.752  27.639  33.669  1.00  0.00     0.031 A 
ATOM     63  C   UNL A   1      41.647  25.487  27.404  1.00  0.00     0.031 A 
ATOM     64  C   UNL A   1      44.853  28.110  32.872  1.00  0.00     0.049 A 
ATOM     65  C   UNL A   1      42.960  25.378  28.081  1.00  0.00     0.074 A 
ATOM     66  C   UNL A   1      45.393  29.352  32.602  1.00  0.00     0.029 A 
ATOM     67  N   UNL A   1      45.302  27.277  31.876  1.00  0.00    -0.354 N 
ATOM     68  N   UNL A   1      43.953  26.190  27.858  1.00  0.00    -0.248 NA
ATOM     69  C   UNL A   1      43.027  24.630  29.325  1.00  0.00     0.031 C 
ATOM     70  C   UNL A   1      45.730  29.311  31.218  1.00  0.00     0.029 A 
ATOM     71  C   UNL A   1      45.441  28.032  30.739  1.00  0.00     0.049 A 
ATOM     72  H   UNL A   1      45.490  26.314  31.963  1.00  0.00     0.167 HD
ATOM     73  C   UNL A   1      44.532  26.385  29.102  1.00  0.00     0.074 A 
ATOM     74  C   UNL A   1      43.983  25.325  29.947  1.00  0.00     0.031 C 
ATOM     75  C   UNL A   1      45.184  27.545  29.401  1.00  0.00     0.031 A 
BRANCH  62  76
ATOM     76  C   UNL A   1      43.878  26.465  34.596  1.00  0.00    -0.014 A 
ATOM     77  C   UNL A   1      44.643  26.588  35.767  1.00  0.00     0.009 A 
ATOM     78  C   UNL A   1      43.488  25.165  34.219  1.00  0.00     0.009 A 
ATOM     79  C   UNL A   1      45.025  25.460  36.504  1.00  0.00     0.001 A 
ATOM     80  C   UNL A   1      43.837  24.041  34.970  1.00  0.00     0.001 A 
ATOM     81  C   UNL A   1      44.623  24.188  36.104  1.00  0.00     0.000 A 
ENDBRANCH  62  76
BRANCH  63  82
ATOM     82  C   UNL A   1      41.008  24.315  26.762  1.00  0.00    -0.014 A 
ATOM     83  C   UNL A   1      41.792  23.208  26.392  1.00  0.00     0.009 A 
ATOM     84  C   UNL A   1      39.614  24.141  26.811  1.00  0.00     0.009 A 
ATOM     85  C   UNL A   1      41.209  21.955  26.159  1.00  0.00     0.001 A 
ATOM     86  C   UNL A   1      39.032  22.890  26.570  1.00  0.00     0.001 A 
ATOM     87  C   UNL A   1      39.832  21.792  26.269  1.00  0.00     0.000 A 
ENDBRANCH  63  82
BRANCH  75  88
ATOM     88  C   UNL A   1      45.433  28.525  28.279  1.00  0.00    -0.014 A 
ATOM     89  C   UNL A   1      44.502  29.507  27.897  1.00  0.00     0.009 A 
ATOM     90  C   UNL A   1      46.719  28.575  27.722  1.00  0.00     0.009 A 
ATOM     91  C   UNL A   1      44.852  30.509  26.983  1.00  0.00     0.001 A 
ATOM     92  C   UNL A   1      47.072  29.583  26.825  1.00  0.00     0.001 A 
ATOM     93  C   UNL A   1      46.141  30.552  26.457  1.00  0.00     0.000 A 
ENDBRANCH  75  88
ENDBRANCH  49  50
ENDBRANCH  41  44
ENDBRANCH  39  40
ENDBRANCH  38  39
ENDBRANCH  37  38
ENDBRANCH   1  37
TORSDOF 18
ENDMDL
