MODEL 1
REMARK VINA RESULT:     -11.0      0.000      0.000
REMARK SMILES C[C@@H](C(=O)NCCCCCCNC(=O)c1ccc(-c2c3nc(c(-c4ccccc4)c4ccc([nH]4)c(-c4ccccc4)c4nc(c(-c5ccccc5)c5ccc2[nH]5)C=C4)C=C3)cc1)c1ccc(C[C@@H]2CCC[C@@H]2O)cc1F
REMARK SMILES IDX 7 1 6 2 5 3 3 4 4 5 2 7 1 8 63 9 64 10 75 11 65 12 74 13
REMARK SMILES IDX 76 14 66 15 67 16 68 17 69 18 72 19 70 20 71 21 73 22 8 24
REMARK SMILES IDX 9 25 10 26 11 27 12 28 13 29 14 31 15 32 16 33 62 34 17 35
REMARK SMILES IDX 61 36 18 37 19 38 20 39 55 40 21 41 60 42 54 43 56 44 22 45
REMARK SMILES IDX 59 46 53 47 52 48 23 50 45 51 30 52 44 53 31 54 34 55 43 56
REMARK SMILES IDX 57 57 32 58 33 59 42 61 58 62 35 63 24 64 25 65 29 66 26 67
REMARK SMILES IDX 28 68 27 69 46 70 47 71 51 72 48 73 50 74 49 75 36 76 37 77
REMARK SMILES IDX 41 78 38 79 40 80 39 81
REMARK H PARENT 5 6 73 23 12 30 56 49 34 60
REMARK Flexibility Score: inf
ROOT
ATOM      1  C   UNL A   1      34.420  24.809  25.774  1.00  0.00     0.021 C 
ENDROOT
BRANCH   1   2
ATOM      2  C   UNL A   1      33.956  23.417  26.220  1.00  0.00     0.116 C 
BRANCH   2   3
ATOM      3  N   UNL A   1      34.592  22.405  25.408  1.00  0.00    -0.356 N 
ATOM      4  C   UNL A   1      34.017  21.354  24.754  1.00  0.00     0.227 C 
ATOM      5  O   UNL A   1      34.739  20.366  24.618  1.00  0.00    -0.274 OA
ATOM      6  H   UNL A   1      35.568  22.484  25.313  1.00  0.00     0.163 HD
BRANCH   4   7
ATOM      7  C   UNL A   1      32.566  21.467  24.247  1.00  0.00     0.108 C 
ATOM      8  C   UNL A   1      32.293  20.404  23.176  1.00  0.00     0.023 C 
BRANCH   7   9
ATOM      9  C   UNL A   1      32.121  22.838  23.732  1.00  0.00    -0.000 A 
ATOM     10  C   UNL A   1      31.005  23.535  24.207  1.00  0.00     0.008 A 
ATOM     11  C   UNL A   1      32.889  23.476  22.747  1.00  0.00     0.127 A 
ATOM     12  C   UNL A   1      30.670  24.798  23.715  1.00  0.00     0.004 A 
ATOM     13  C   UNL A   1      32.567  24.742  22.255  1.00  0.00     0.043 A 
ATOM     14  F   UNL A   1      33.969  22.862  22.241  1.00  0.00    -0.207 F 
ATOM     15  C   UNL A   1      31.424  25.404  22.710  1.00  0.00    -0.045 A 
BRANCH  15  16
ATOM     16  C   UNL A   1      30.996  26.725  22.124  1.00  0.00     0.041 C 
BRANCH  16  17
ATOM     17  C   UNL A   1      30.543  27.830  23.106  1.00  0.00     0.022 C 
ATOM     18  C   UNL A   1      29.025  28.008  23.254  1.00  0.00     0.007 C 
ATOM     19  C   UNL A   1      31.012  29.259  22.817  1.00  0.00     0.117 C 
ATOM     20  C   UNL A   1      28.634  29.213  22.391  1.00  0.00     0.003 C 
ATOM     21  C   UNL A   1      29.933  29.855  21.920  1.00  0.00     0.032 C 
BRANCH  19  22
ATOM     22  O   UNL A   1      32.310  29.329  22.265  1.00  0.00    -0.393 OA
ATOM     23  H   UNL A   1      32.926  29.677  22.928  1.00  0.00     0.210 HD
ENDBRANCH  19  22
ENDBRANCH  16  17
ENDBRANCH  15  16
ENDBRANCH   7   9
ENDBRANCH   4   7
ENDBRANCH   2   3
ENDBRANCH   1   2
BRANCH   1  24
ATOM     24  C   UNL A   1      33.351  25.905  25.899  1.00  0.00     0.002 C 
BRANCH  24  25
ATOM     25  C   UNL A   1      33.689  27.219  25.192  1.00  0.00     0.002 C 
BRANCH  25  26
ATOM     26  C   UNL A   1      33.108  28.466  25.858  1.00  0.00     0.021 C 
BRANCH  26  27
ATOM     27  C   UNL A   1      33.551  28.670  27.302  1.00  0.00     0.116 C 
BRANCH  27  28
ATOM     28  N   UNL A   1      33.556  30.075  27.677  1.00  0.00    -0.352 N 
ATOM     29  C   UNL A   1      34.536  30.793  28.313  1.00  0.00     0.251 C 
ATOM     30  H   UNL A   1      32.746  30.580  27.442  1.00  0.00     0.163 HD
ATOM     31  O   UNL A   1      34.301  31.920  28.743  1.00  0.00    -0.269 OA
BRANCH  29  32
ATOM     32  C   UNL A   1      35.874  30.195  28.503  1.00  0.00     0.039 A 
ATOM     33  C   UNL A   1      36.767  30.180  27.429  1.00  0.00     0.014 A 
ATOM     34  C   UNL A   1      36.247  29.656  29.738  1.00  0.00     0.014 A 
ATOM     35  C   UNL A   1      38.057  29.680  27.613  1.00  0.00     0.010 A 
ATOM     36  C   UNL A   1      37.556  29.231  29.940  1.00  0.00     0.010 A 
ATOM     37  C   UNL A   1      38.473  29.236  28.879  1.00  0.00    -0.014 A 
BRANCH  37  38
ATOM     38  C   UNL A   1      39.868  28.780  29.109  1.00  0.00     0.031 A 
ATOM     39  C   UNL A   1      40.878  29.707  29.727  1.00  0.00     0.074 A 
ATOM     40  C   UNL A   1      40.238  27.547  28.710  1.00  0.00     0.049 A 
ATOM     41  N   UNL A   1      42.147  29.498  29.970  1.00  0.00    -0.248 NA
ATOM     42  C   UNL A   1      40.408  31.051  30.100  1.00  0.00     0.031 C 
ATOM     43  C   UNL A   1      39.363  26.566  28.063  1.00  0.00     0.029 A 
ATOM     44  N   UNL A   1      41.450  26.909  28.790  1.00  0.00    -0.354 N 
ATOM     45  C   UNL A   1      42.628  30.684  30.510  1.00  0.00     0.074 A 
ATOM     46  C   UNL A   1      41.529  31.625  30.510  1.00  0.00     0.031 C 
ATOM     47  C   UNL A   1      40.058  25.441  27.835  1.00  0.00     0.029 A 
ATOM     48  C   UNL A   1      41.435  25.634  28.275  1.00  0.00     0.049 A 
ATOM     49  H   UNL A   1      42.253  27.324  29.178  1.00  0.00     0.167 HD
ATOM     50  C   UNL A   1      43.866  30.960  30.985  1.00  0.00     0.031 A 
ATOM     51  C   UNL A   1      42.422  24.724  28.165  1.00  0.00     0.031 A 
ATOM     52  C   UNL A   1      44.958  30.023  30.987  1.00  0.00     0.049 A 
ATOM     53  C   UNL A   1      43.795  25.067  28.672  1.00  0.00     0.074 A 
ATOM     54  C   UNL A   1      46.236  30.191  31.493  1.00  0.00     0.029 A 
ATOM     55  N   UNL A   1      44.904  28.746  30.452  1.00  0.00    -0.354 N 
ATOM     56  N   UNL A   1      44.214  26.168  29.248  1.00  0.00    -0.248 NA
ATOM     57  C   UNL A   1      44.830  24.033  28.524  1.00  0.00     0.031 C 
ATOM     58  C   UNL A   1      46.974  29.037  31.209  1.00  0.00     0.029 A 
ATOM     59  C   UNL A   1      46.135  28.125  30.588  1.00  0.00     0.049 A 
ATOM     60  H   UNL A   1      44.109  28.339  30.037  1.00  0.00     0.167 HD
ATOM     61  C   UNL A   1      45.550  25.949  29.557  1.00  0.00     0.074 A 
ATOM     62  C   UNL A   1      45.866  24.604  29.123  1.00  0.00     0.031 C 
ATOM     63  C   UNL A   1      46.436  26.787  30.148  1.00  0.00     0.031 A 
BRANCH  50  64
ATOM     64  C   UNL A   1      44.108  32.340  31.533  1.00  0.00    -0.014 A 
ATOM     65  C   UNL A   1      44.551  33.387  30.708  1.00  0.00     0.009 A 
ATOM     66  C   UNL A   1      43.850  32.609  32.886  1.00  0.00     0.009 A 
ATOM     67  C   UNL A   1      44.766  34.662  31.234  1.00  0.00     0.001 A 
ATOM     68  C   UNL A   1      44.034  33.894  33.403  1.00  0.00     0.001 A 
ATOM     69  C   UNL A   1      44.502  34.916  32.579  1.00  0.00     0.000 A 
ENDBRANCH  50  64
BRANCH  51  70
ATOM     70  C   UNL A   1      42.148  23.396  27.553  1.00  0.00    -0.014 A 
ATOM     71  C   UNL A   1      41.650  22.341  28.333  1.00  0.00     0.009 A 
ATOM     72  C   UNL A   1      42.399  23.171  26.191  1.00  0.00     0.009 A 
ATOM     73  C   UNL A   1      41.438  21.081  27.768  1.00  0.00     0.001 A 
ATOM     74  C   UNL A   1      42.155  21.920  25.622  1.00  0.00     0.001 A 
ATOM     75  C   UNL A   1      41.687  20.873  26.412  1.00  0.00     0.000 A 
ENDBRANCH  51  70
BRANCH  63  76
ATOM     76  C   UNL A   1      47.823  26.259  30.395  1.00  0.00    -0.014 A 
ATOM     77  C   UNL A   1      48.211  25.784  31.658  1.00  0.00     0.009 A 
ATOM     78  C   UNL A   1      48.742  26.202  29.336  1.00  0.00     0.009 A 
ATOM     79  C   UNL A   1      49.504  25.299  31.862  1.00  0.00     0.001 A 
ATOM     80  C   UNL A   1      50.022  25.685  29.535  1.00  0.00     0.001 A 
ATOM     81  C   UNL A   1      50.406  25.244  30.800  1.00  0.00     0.000 A 
ENDBRANCH  63  76
ENDBRANCH  37  38
ENDBRANCH  29  32
ENDBRANCH  27  28
ENDBRANCH  26  27
ENDBRANCH  25  26
ENDBRANCH  24  25
ENDBRANCH   1  24
TORSDOF 17
ENDMDL
MODEL 2
REMARK VINA RESULT:     -10.9      1.512      4.167
REMARK SMILES C[C@@H](C(=O)NCCCCCCNC(=O)c1ccc(-c2c3nc(c(-c4ccccc4)c4ccc([nH]4)c(-c4ccccc4)c4nc(c(-c5ccccc5)c5ccc2[nH]5)C=C4)C=C3)cc1)c1ccc(C[C@@H]2CCC[C@@H]2O)cc1F
REMARK SMILES IDX 7 1 6 2 5 3 3 4 4 5 2 7 1 8 63 9 64 10 75 11 65 12 74 13
REMARK SMILES IDX 76 14 66 15 67 16 68 17 69 18 72 19 70 20 71 21 73 22 8 24
REMARK SMILES IDX 9 25 10 26 11 27 12 28 13 29 14 31 15 32 16 33 62 34 17 35
REMARK SMILES IDX 61 36 18 37 19 38 20 39 55 40 21 41 60 42 54 43 56 44 22 45
REMARK SMILES IDX 59 46 53 47 52 48 23 50 45 51 30 52 44 53 31 54 34 55 43 56
REMARK SMILES IDX 57 57 32 58 33 59 42 61 58 62 35 63 24 64 25 65 29 66 26 67
REMARK SMILES IDX 28 68 27 69 46 70 47 71 51 72 48 73 50 74 49 75 36 76 37 77
REMARK SMILES IDX 41 78 38 79 40 80 39 81
REMARK H PARENT 5 6 73 23 12 30 56 49 34 60
REMARK Flexibility Score: inf
ROOT
ATOM      1  C   UNL A   1      31.797  28.684  23.347  1.00  0.00     0.021 C 
ENDROOT
BRANCH   1   2
ATOM      2  C   UNL A   1      31.068  27.496  22.708  1.00  0.00     0.116 C 
BRANCH   2   3
ATOM      3  N   UNL A   1      32.000  26.710  21.931  1.00  0.00    -0.356 N 
ATOM      4  C   UNL A   1      33.033  25.934  22.370  1.00  0.00     0.227 C 
ATOM      5  O   UNL A   1      33.978  25.832  21.588  1.00  0.00    -0.274 OA
ATOM      6  H   UNL A   1      31.872  26.739  20.955  1.00  0.00     0.163 HD
BRANCH   4   7
ATOM      7  C   UNL A   1      32.953  25.263  23.755  1.00  0.00     0.108 C 
ATOM      8  C   UNL A   1      34.123  25.718  24.635  1.00  0.00     0.023 C 
BRANCH   7   9
ATOM      9  C   UNL A   1      32.861  23.735  23.776  1.00  0.00    -0.000 A 
ATOM     10  C   UNL A   1      33.887  22.889  24.210  1.00  0.00     0.008 A 
ATOM     11  C   UNL A   1      31.665  23.120  23.376  1.00  0.00     0.127 A 
ATOM     12  C   UNL A   1      33.729  21.501  24.232  1.00  0.00     0.004 A 
ATOM     13  C   UNL A   1      31.494  21.736  23.403  1.00  0.00     0.043 A 
ATOM     14  F   UNL A   1      30.642  23.871  22.942  1.00  0.00    -0.207 F 
ATOM     15  C   UNL A   1      32.545  20.904  23.798  1.00  0.00    -0.045 A 
BRANCH  15  16
ATOM     16  C   UNL A   1      32.424  19.403  23.740  1.00  0.00     0.041 C 
BRANCH  16  17
ATOM     17  C   UNL A   1      33.602  18.568  24.294  1.00  0.00     0.022 C 
ATOM     18  C   UNL A   1      34.104  17.439  23.384  1.00  0.00     0.007 C 
ATOM     19  C   UNL A   1      33.379  17.841  25.623  1.00  0.00     0.117 C 
ATOM     20  C   UNL A   1      33.493  16.136  23.913  1.00  0.00     0.003 C 
ATOM     21  C   UNL A   1      32.820  16.476  25.238  1.00  0.00     0.032 C 
BRANCH  19  22
ATOM     22  O   UNL A   1      32.563  18.552  26.530  1.00  0.00    -0.393 OA
ATOM     23  H   UNL A   1      33.075  19.273  26.929  1.00  0.00     0.210 HD
ENDBRANCH  19  22
ENDBRANCH  16  17
ENDBRANCH  15  16
ENDBRANCH   7   9
ENDBRANCH   4   7
ENDBRANCH   2   3
ENDBRANCH   1   2
BRANCH   1  24
ATOM     24  C   UNL A   1      30.962  29.462  24.376  1.00  0.00     0.002 C 
BRANCH  24  25
ATOM     25  C   UNL A   1      31.647  29.688  25.725  1.00  0.00     0.002 C 
BRANCH  25  26
ATOM     26  C   UNL A   1      32.398  28.472  26.267  1.00  0.00     0.021 C 
BRANCH  26  27
ATOM     27  C   UNL A   1      33.651  28.813  27.064  1.00  0.00     0.116 C 
BRANCH  27  28
ATOM     28  N   UNL A   1      33.629  30.181  27.555  1.00  0.00    -0.352 N 
ATOM     29  C   UNL A   1      34.573  30.848  28.294  1.00  0.00     0.251 C 
ATOM     30  H   UNL A   1      32.826  30.701  27.327  1.00  0.00     0.163 HD
ATOM     31  O   UNL A   1      34.310  31.934  28.805  1.00  0.00    -0.269 OA
BRANCH  29  32
ATOM     32  C   UNL A   1      35.905  30.241  28.494  1.00  0.00     0.039 A 
ATOM     33  C   UNL A   1      36.843  30.311  27.461  1.00  0.00     0.014 A 
ATOM     34  C   UNL A   1      36.230  29.611  29.699  1.00  0.00     0.014 A 
ATOM     35  C   UNL A   1      38.127  29.803  27.661  1.00  0.00     0.010 A 
ATOM     36  C   UNL A   1      37.532  29.177  29.924  1.00  0.00     0.010 A 
ATOM     37  C   UNL A   1      38.493  29.265  28.906  1.00  0.00    -0.014 A 
BRANCH  37  38
ATOM     38  C   UNL A   1      39.880  28.797  29.160  1.00  0.00     0.031 A 
ATOM     39  C   UNL A   1      40.881  29.708  29.815  1.00  0.00     0.074 A 
ATOM     40  C   UNL A   1      40.252  27.569  28.750  1.00  0.00     0.049 A 
ATOM     41  N   UNL A   1      42.143  29.489  30.083  1.00  0.00    -0.248 NA
ATOM     42  C   UNL A   1      40.410  31.049  30.199  1.00  0.00     0.031 C 
ATOM     43  C   UNL A   1      39.386  26.603  28.068  1.00  0.00     0.029 A 
ATOM     44  N   UNL A   1      41.458  26.922  28.846  1.00  0.00    -0.354 N 
ATOM     45  C   UNL A   1      42.618  30.663  30.652  1.00  0.00     0.074 A 
ATOM     46  C   UNL A   1      41.525  31.610  30.642  1.00  0.00     0.031 C 
ATOM     47  C   UNL A   1      40.079  25.478  27.837  1.00  0.00     0.029 A 
ATOM     48  C   UNL A   1      41.448  25.656  28.311  1.00  0.00     0.049 A 
ATOM     49  H   UNL A   1      42.254  27.326  29.258  1.00  0.00     0.167 HD
ATOM     50  C   UNL A   1      43.847  30.924  31.158  1.00  0.00     0.031 A 
ATOM     51  C   UNL A   1      42.431  24.742  28.208  1.00  0.00     0.031 A 
ATOM     52  C   UNL A   1      44.934  29.981  31.170  1.00  0.00     0.049 A 
ATOM     53  C   UNL A   1      43.795  25.069  28.751  1.00  0.00     0.074 A 
ATOM     54  C   UNL A   1      46.201  30.133  31.706  1.00  0.00     0.029 A 
ATOM     55  N   UNL A   1      44.884  28.713  30.613  1.00  0.00    -0.354 N 
ATOM     56  N   UNL A   1      44.207  26.158  29.353  1.00  0.00    -0.248 NA
ATOM     57  C   UNL A   1      44.827  24.032  28.609  1.00  0.00     0.031 C 
ATOM     58  C   UNL A   1      46.938  28.980  31.420  1.00  0.00     0.029 A 
ATOM     59  C   UNL A   1      46.109  28.083  30.767  1.00  0.00     0.049 A 
ATOM     60  H   UNL A   1      44.096  28.318  30.175  1.00  0.00     0.167 HD
ATOM     61  C   UNL A   1      45.535  25.927  29.689  1.00  0.00     0.074 A 
ATOM     62  C   UNL A   1      45.853  24.587  29.240  1.00  0.00     0.031 C 
ATOM     63  C   UNL A   1      46.412  26.750  30.312  1.00  0.00     0.031 A 
BRANCH  50  64
ATOM     64  C   UNL A   1      44.084  32.294  31.734  1.00  0.00    -0.014 A 
ATOM     65  C   UNL A   1      43.869  32.561  33.096  1.00  0.00     0.009 A 
ATOM     66  C   UNL A   1      44.570  33.323  30.911  1.00  0.00     0.009 A 
ATOM     67  C   UNL A   1      44.098  33.838  33.613  1.00  0.00     0.001 A 
ATOM     68  C   UNL A   1      44.830  34.590  31.438  1.00  0.00     0.001 A 
ATOM     69  C   UNL A   1      44.584  34.849  32.785  1.00  0.00     0.000 A 
ENDBRANCH  50  64
BRANCH  51  70
ATOM     70  C   UNL A   1      42.165  23.426  27.570  1.00  0.00    -0.014 A 
ATOM     71  C   UNL A   1      41.626  22.367  28.317  1.00  0.00     0.009 A 
ATOM     72  C   UNL A   1      42.461  23.215  26.214  1.00  0.00     0.009 A 
ATOM     73  C   UNL A   1      41.420  21.116  27.728  1.00  0.00     0.001 A 
ATOM     74  C   UNL A   1      42.223  21.974  25.620  1.00  0.00     0.001 A 
ATOM     75  C   UNL A   1      41.715  20.923  26.379  1.00  0.00     0.000 A 
ENDBRANCH  51  70
BRANCH  63  76
ATOM     76  C   UNL A   1      47.790  26.210  30.582  1.00  0.00    -0.014 A 
ATOM     77  C   UNL A   1      48.159  25.750  31.855  1.00  0.00     0.009 A 
ATOM     78  C   UNL A   1      48.719  26.126  29.533  1.00  0.00     0.009 A 
ATOM     79  C   UNL A   1      49.445  25.253  32.081  1.00  0.00     0.001 A 
ATOM     80  C   UNL A   1      49.991  25.598  29.753  1.00  0.00     0.001 A 
ATOM     81  C   UNL A   1      50.357  25.172  31.028  1.00  0.00     0.000 A 
ENDBRANCH  63  76
ENDBRANCH  37  38
ENDBRANCH  29  32
ENDBRANCH  27  28
ENDBRANCH  26  27
ENDBRANCH  25  26
ENDBRANCH  24  25
ENDBRANCH   1  24
TORSDOF 17
ENDMDL
MODEL 3
REMARK VINA RESULT:     -10.8      2.511      8.027
REMARK SMILES C[C@@H](C(=O)NCCCCCCNC(=O)c1ccc(-c2c3nc(c(-c4ccccc4)c4ccc([nH]4)c(-c4ccccc4)c4nc(c(-c5ccccc5)c5ccc2[nH]5)C=C4)C=C3)cc1)c1ccc(C[C@@H]2CCC[C@@H]2O)cc1F
REMARK SMILES IDX 7 1 6 2 5 3 3 4 4 5 2 7 1 8 63 9 64 10 75 11 65 12 74 13
REMARK SMILES IDX 76 14 66 15 67 16 68 17 69 18 72 19 70 20 71 21 73 22 8 24
REMARK SMILES IDX 9 25 10 26 11 27 12 28 13 29 14 31 15 32 16 33 62 34 17 35
REMARK SMILES IDX 61 36 18 37 19 38 20 39 55 40 21 41 60 42 54 43 56 44 22 45
REMARK SMILES IDX 59 46 53 47 52 48 23 50 45 51 30 52 44 53 31 54 34 55 43 56
REMARK SMILES IDX 57 57 32 58 33 59 42 61 58 62 35 63 24 64 25 65 29 66 26 67
REMARK SMILES IDX 28 68 27 69 46 70 47 71 51 72 48 73 50 74 49 75 36 76 37 77
REMARK SMILES IDX 41 78 38 79 40 80 39 81
REMARK H PARENT 5 6 73 23 12 30 56 49 34 60
REMARK Flexibility Score: inf
ROOT
ATOM      1  C   UNL A   1      34.406  25.639  24.695  1.00  0.00     0.021 C 
ENDROOT
BRANCH   1   2
ATOM      2  C   UNL A   1      33.649  26.924  25.052  1.00  0.00     0.116 C 
BRANCH   2   3
ATOM      3  N   UNL A   1      32.701  26.656  26.110  1.00  0.00    -0.356 N 
ATOM      4  C   UNL A   1      31.368  26.380  26.009  1.00  0.00     0.227 C 
ATOM      5  O   UNL A   1      30.688  26.732  26.971  1.00  0.00    -0.274 OA
ATOM      6  H   UNL A   1      33.065  26.674  27.024  1.00  0.00     0.163 HD
BRANCH   4   7
ATOM      7  C   UNL A   1      30.825  25.672  24.752  1.00  0.00     0.108 C 
ATOM      8  C   UNL A   1      29.299  25.801  24.687  1.00  0.00     0.023 C 
BRANCH   7   9
ATOM      9  C   UNL A   1      31.222  24.206  24.561  1.00  0.00    -0.000 A 
ATOM     10  C   UNL A   1      31.119  23.224  25.552  1.00  0.00     0.008 A 
ATOM     11  C   UNL A   1      31.686  23.786  23.304  1.00  0.00     0.127 A 
ATOM     12  C   UNL A   1      31.471  21.896  25.303  1.00  0.00     0.004 A 
ATOM     13  C   UNL A   1      32.032  22.459  23.044  1.00  0.00     0.043 A 
ATOM     14  F   UNL A   1      31.816  24.676  22.310  1.00  0.00    -0.207 F 
ATOM     15  C   UNL A   1      31.964  21.501  24.059  1.00  0.00    -0.045 A 
BRANCH  15  16
ATOM     16  C   UNL A   1      32.428  20.085  23.835  1.00  0.00     0.041 C 
BRANCH  16  17
ATOM     17  C   UNL A   1      33.192  19.392  24.987  1.00  0.00     0.022 C 
ATOM     18  C   UNL A   1      34.720  19.528  24.949  1.00  0.00     0.007 C 
ATOM     19  C   UNL A   1      33.002  17.880  25.141  1.00  0.00     0.117 C 
ATOM     20  C   UNL A   1      35.268  18.218  24.372  1.00  0.00     0.003 C 
ATOM     21  C   UNL A   1      34.091  17.255  24.275  1.00  0.00     0.032 C 
BRANCH  19  22
ATOM     22  O   UNL A   1      31.701  17.435  24.823  1.00  0.00    -0.393 OA
ATOM     23  H   UNL A   1      31.295  18.047  24.189  1.00  0.00     0.210 HD
ENDBRANCH  19  22
ENDBRANCH  16  17
ENDBRANCH  15  16
ENDBRANCH   7   9
ENDBRANCH   4   7
ENDBRANCH   2   3
ENDBRANCH   1   2
BRANCH   1  24
ATOM     24  C   UNL A   1      34.683  24.712  25.888  1.00  0.00     0.002 C 
BRANCH  24  25
ATOM     25  C   UNL A   1      34.857  23.235  25.531  1.00  0.00     0.002 C 
BRANCH  25  26
ATOM     26  C   UNL A   1      36.011  22.946  24.571  1.00  0.00     0.021 C 
BRANCH  26  27
ATOM     27  C   UNL A   1      37.323  23.625  24.944  1.00  0.00     0.116 C 
BRANCH  27  28
ATOM     28  N   UNL A   1      38.324  22.669  25.389  1.00  0.00    -0.352 N 
ATOM     29  C   UNL A   1      39.451  22.887  26.139  1.00  0.00     0.251 C 
ATOM     30  H   UNL A   1      38.173  21.737  25.112  1.00  0.00     0.163 HD
ATOM     31  O   UNL A   1      40.303  22.008  26.252  1.00  0.00    -0.269 OA
BRANCH  29  32
ATOM     32  C   UNL A   1      39.650  24.197  26.795  1.00  0.00     0.039 A 
ATOM     33  C   UNL A   1      39.118  24.403  28.069  1.00  0.00     0.014 A 
ATOM     34  C   UNL A   1      40.364  25.214  26.155  1.00  0.00     0.014 A 
ATOM     35  C   UNL A   1      39.357  25.610  28.728  1.00  0.00     0.010 A 
ATOM     36  C   UNL A   1      40.666  26.385  26.844  1.00  0.00     0.010 A 
ATOM     37  C   UNL A   1      40.163  26.596  28.136  1.00  0.00    -0.014 A 
BRANCH  37  38
ATOM     38  C   UNL A   1      40.494  27.850  28.859  1.00  0.00     0.031 A 
ATOM     39  C   UNL A   1      41.821  28.001  29.549  1.00  0.00     0.074 A 
ATOM     40  C   UNL A   1      39.575  28.833  28.939  1.00  0.00     0.049 A 
ATOM     41  N   UNL A   1      42.272  29.005  30.259  1.00  0.00    -0.248 NA
ATOM     42  C   UNL A   1      42.757  26.869  29.450  1.00  0.00     0.031 C 
ATOM     43  C   UNL A   1      38.236  28.794  28.346  1.00  0.00     0.029 A 
ATOM     44  N   UNL A   1      39.629  30.057  29.555  1.00  0.00    -0.354 N 
ATOM     45  C   UNL A   1      43.532  28.621  30.699  1.00  0.00     0.074 A 
ATOM     46  C   UNL A   1      43.754  27.273  30.222  1.00  0.00     0.031 C 
ATOM     47  C   UNL A   1      37.609  29.952  28.599  1.00  0.00     0.029 A 
ATOM     48  C   UNL A   1      38.480  30.798  29.410  1.00  0.00     0.049 A 
ATOM     49  H   UNL A   1      40.415  30.375  30.055  1.00  0.00     0.167 HD
ATOM     50  C   UNL A   1      44.434  29.333  31.416  1.00  0.00     0.031 A 
ATOM     51  C   UNL A   1      38.160  32.018  29.880  1.00  0.00     0.031 A 
ATOM     52  C   UNL A   1      44.214  30.675  31.888  1.00  0.00     0.049 A 
ATOM     53  C   UNL A   1      39.168  32.775  30.700  1.00  0.00     0.074 A 
ATOM     54  C   UNL A   1      45.085  31.499  32.578  1.00  0.00     0.029 A 
ATOM     55  N   UNL A   1      43.035  31.386  31.724  1.00  0.00    -0.354 N 
ATOM     56  N   UNL A   1      40.384  32.426  31.044  1.00  0.00    -0.248 NA
ATOM     57  C   UNL A   1      38.761  34.101  31.186  1.00  0.00     0.031 C 
ATOM     58  C   UNL A   1      44.414  32.686  32.886  1.00  0.00     0.029 A 
ATOM     59  C   UNL A   1      43.147  32.628  32.328  1.00  0.00     0.049 A 
ATOM     60  H   UNL A   1      42.237  31.057  31.249  1.00  0.00     0.167 HD
ATOM     61  C   UNL A   1      40.898  33.500  31.760  1.00  0.00     0.074 A 
ATOM     62  C   UNL A   1      39.868  34.519  31.783  1.00  0.00     0.031 C 
ATOM     63  C   UNL A   1      42.113  33.631  32.346  1.00  0.00     0.031 A 
BRANCH  50  64
ATOM     64  C   UNL A   1      45.742  28.666  31.744  1.00  0.00    -0.014 A 
ATOM     65  C   UNL A   1      45.902  27.908  32.915  1.00  0.00     0.009 A 
ATOM     66  C   UNL A   1      46.819  28.763  30.849  1.00  0.00     0.009 A 
ATOM     67  C   UNL A   1      47.122  27.293  33.201  1.00  0.00     0.001 A 
ATOM     68  C   UNL A   1      48.028  28.120  31.121  1.00  0.00     0.001 A 
ATOM     69  C   UNL A   1      48.182  27.394  32.301  1.00  0.00     0.000 A 
ENDBRANCH  50  64
BRANCH  51  70
ATOM     70  C   UNL A   1      36.827  32.607  29.585  1.00  0.00    -0.014 A 
ATOM     71  C   UNL A   1      35.774  32.485  30.505  1.00  0.00     0.009 A 
ATOM     72  C   UNL A   1      36.595  33.281  28.376  1.00  0.00     0.009 A 
ATOM     73  C   UNL A   1      34.508  32.997  30.206  1.00  0.00     0.001 A 
ATOM     74  C   UNL A   1      35.338  33.821  28.095  1.00  0.00     0.001 A 
ATOM     75  C   UNL A   1      34.293  33.668  29.003  1.00  0.00     0.000 A 
ENDBRANCH  51  70
BRANCH  63  76
ATOM     76  C   UNL A   1      42.411  34.938  33.028  1.00  0.00    -0.014 A 
ATOM     77  C   UNL A   1      43.168  35.937  32.398  1.00  0.00     0.009 A 
ATOM     78  C   UNL A   1      41.891  35.186  34.308  1.00  0.00     0.009 A 
ATOM     79  C   UNL A   1      43.432  37.142  33.052  1.00  0.00     0.001 A 
ATOM     80  C   UNL A   1      42.127  36.403  34.946  1.00  0.00     0.001 A 
ATOM     81  C   UNL A   1      42.906  37.377  34.323  1.00  0.00     0.000 A 
ENDBRANCH  63  76
ENDBRANCH  37  38
ENDBRANCH  29  32
ENDBRANCH  27  28
ENDBRANCH  26  27
ENDBRANCH  25  26
ENDBRANCH  24  25
ENDBRANCH   1  24
TORSDOF 17
ENDMDL
