MODEL 1
REMARK VINA RESULT:     -10.8      0.000      0.000
REMARK SMILES CC(C)c1ccc(OCC[C@H]2CCC[C@@]2([NH3+])C(=O)NCCCCCCNC(=O)c2ccc(-c3c4nc(c(-c5ccccc5)c5ccc([nH]5)c(-c5ccccc5)c5nc(c(-c6ccccc6)c6ccc3[nH]6)C=C5)C=C4)cc2)cc1
REMARK SMILES IDX 21 1 20 2 19 3 17 4 18 5 15 7 11 8 12 9 13 10 14 11 10 12
REMARK SMILES IDX 9 13 8 14 7 15 4 16 5 17 78 18 6 19 77 20 2 21 1 22 3 23
REMARK SMILES IDX 16 24 22 28 23 29 24 30 25 31 26 32 27 33 28 35 29 36 30 37
REMARK SMILES IDX 76 38 31 39 75 40 32 41 33 42 34 43 69 44 35 45 74 46 68 47
REMARK SMILES IDX 70 48 36 49 73 50 67 51 66 52 37 54 59 55 44 56 58 57 45 58
REMARK SMILES IDX 48 59 57 60 71 61 46 62 47 63 56 65 72 66 49 67 38 68 39 69
REMARK SMILES IDX 43 70 40 71 42 72 41 73 60 74 61 75 65 76 62 77 64 78 63 79
REMARK SMILES IDX 50 80 51 81 55 82 52 83 54 84 53 85
REMARK H PARENT 19 6 16 25 16 26 16 27 26 34 70 53 48 64
REMARK Flexibility Score: inf
ROOT
ATOM      1  C   UNL A   1      36.240  23.689  25.484  1.00  0.00     0.021 C 
ENDROOT
BRANCH   1   2
ATOM      2  C   UNL A   1      34.795  24.091  25.160  1.00  0.00     0.116 C 
BRANCH   2   3
ATOM      3  N   UNL A   1      33.859  23.528  26.113  1.00  0.00    -0.351 N 
ATOM      4  C   UNL A   1      32.578  23.899  26.416  1.00  0.00     0.281 C 
ATOM      5  O   UNL A   1      32.057  23.324  27.379  1.00  0.00    -0.268 OA
ATOM      6  H   UNL A   1      34.199  22.758  26.622  1.00  0.00     0.163 HD
BRANCH   4   7
ATOM      7  C   UNL A   1      31.824  25.021  25.644  1.00  0.00     0.176 C 
ATOM      8  C   UNL A   1      31.571  24.781  24.118  1.00  0.00     0.064 C 
ATOM      9  C   UNL A   1      30.586  25.916  23.840  1.00  0.00     0.011 C 
ATOM     10  C   UNL A   1      29.738  26.068  25.121  1.00  0.00     0.008 C 
ATOM     11  C   UNL A   1      30.399  25.176  26.170  1.00  0.00     0.079 C 
BRANCH   8  12
ATOM     12  C   UNL A   1      31.088  23.389  23.576  1.00  0.00     0.052 C 
BRANCH  12  13
ATOM     13  C   UNL A   1      32.063  22.230  23.225  1.00  0.00     0.230 C 
BRANCH  13  14
ATOM     14  O   UNL A   1      32.038  21.100  24.135  1.00  0.00    -0.494 OA
BRANCH  14  15
ATOM     15  C   UNL A   1      32.845  20.026  23.870  1.00  0.00     0.119 A 
ATOM     16  C   UNL A   1      33.809  17.402  23.985  1.00  0.00    -0.045 A 
ATOM     17  C   UNL A   1      32.812  17.743  23.063  1.00  0.00     0.008 A 
ATOM     18  C   UNL A   1      34.510  18.447  24.600  1.00  0.00     0.008 A 
ATOM     19  C   UNL A   1      32.327  19.057  23.011  1.00  0.00     0.047 A 
ATOM     20  C   UNL A   1      34.053  19.770  24.501  1.00  0.00     0.047 A 
BRANCH  16  21
ATOM     21  C   UNL A   1      34.009  15.976  24.474  1.00  0.00     0.013 C 
ATOM     22  C   UNL A   1      35.303  15.865  25.299  1.00  0.00     0.012 C 
ATOM     23  C   UNL A   1      32.830  15.426  25.267  1.00  0.00     0.012 C 
ENDBRANCH  16  21
ENDBRANCH  14  15
ENDBRANCH  13  14
ENDBRANCH  12  13
ENDBRANCH   8  12
BRANCH   7  24
ATOM     24  N   UNL A   1      32.477  26.359  25.801  1.00  0.00    -0.345 N 
ATOM     25  H   UNL A   1      32.284  26.930  24.979  1.00  0.00     0.345 HD
ATOM     26  H   UNL A   1      33.485  26.235  25.900  1.00  0.00     0.345 HD
ATOM     27  H   UNL A   1      32.109  26.821  26.632  1.00  0.00     0.345 HD
ENDBRANCH   7  24
ENDBRANCH   4   7
ENDBRANCH   2   3
ENDBRANCH   1   2
BRANCH   1  28
ATOM     28  C   UNL A   1      36.421  22.175  25.593  1.00  0.00     0.002 C 
BRANCH  28  29
ATOM     29  C   UNL A   1      37.270  21.573  24.470  1.00  0.00     0.002 C 
BRANCH  29  30
ATOM     30  C   UNL A   1      38.013  20.294  24.870  1.00  0.00     0.021 C 
BRANCH  30  31
ATOM     31  C   UNL A   1      38.974  20.510  26.032  1.00  0.00     0.116 C 
BRANCH  31  32
ATOM     32  N   UNL A   1      40.041  19.519  25.994  1.00  0.00    -0.352 N 
ATOM     33  C   UNL A   1      41.396  19.731  25.994  1.00  0.00     0.251 C 
ATOM     34  H   UNL A   1      39.753  18.578  25.965  1.00  0.00     0.163 HD
ATOM     35  O   UNL A   1      42.167  18.878  25.584  1.00  0.00    -0.269 OA
BRANCH  33  36
ATOM     36  C   UNL A   1      41.901  21.014  26.515  1.00  0.00     0.039 A 
ATOM     37  C   UNL A   1      42.279  22.019  25.624  1.00  0.00     0.014 A 
ATOM     38  C   UNL A   1      41.988  21.210  27.897  1.00  0.00     0.014 A 
ATOM     39  C   UNL A   1      42.701  23.249  26.126  1.00  0.00     0.010 A 
ATOM     40  C   UNL A   1      42.332  22.458  28.392  1.00  0.00     0.010 A 
ATOM     41  C   UNL A   1      42.699  23.486  27.510  1.00  0.00    -0.014 A 
BRANCH  41  42
ATOM     42  C   UNL A   1      43.077  24.803  28.070  1.00  0.00     0.031 A 
ATOM     43  C   UNL A   1      42.019  25.838  28.326  1.00  0.00     0.074 A 
ATOM     44  C   UNL A   1      44.377  25.090  28.268  1.00  0.00     0.049 A 
ATOM     45  N   UNL A   1      42.157  27.077  28.726  1.00  0.00    -0.248 NA
ATOM     46  C   UNL A   1      40.624  25.439  28.075  1.00  0.00     0.031 C 
ATOM     47  C   UNL A   1      45.495  24.176  28.020  1.00  0.00     0.029 A 
ATOM     48  N   UNL A   1      44.979  26.239  28.711  1.00  0.00    -0.354 N 
ATOM     49  C   UNL A   1      40.874  27.606  28.757  1.00  0.00     0.074 A 
ATOM     50  C   UNL A   1      39.976  26.574  28.288  1.00  0.00     0.031 C 
ATOM     51  C   UNL A   1      46.643  24.792  28.338  1.00  0.00     0.029 A 
ATOM     52  C   UNL A   1      46.349  26.156  28.762  1.00  0.00     0.049 A 
ATOM     53  H   UNL A   1      44.477  27.046  28.968  1.00  0.00     0.167 HD
ATOM     54  C   UNL A   1      40.477  28.837  29.158  1.00  0.00     0.031 A 
ATOM     55  C   UNL A   1      47.265  27.084  29.097  1.00  0.00     0.031 A 
ATOM     56  C   UNL A   1      41.377  29.858  29.624  1.00  0.00     0.049 A 
ATOM     57  C   UNL A   1      46.801  28.454  29.503  1.00  0.00     0.074 A 
ATOM     58  C   UNL A   1      41.072  31.118  30.106  1.00  0.00     0.029 A 
ATOM     59  N   UNL A   1      42.757  29.736  29.661  1.00  0.00    -0.354 N 
ATOM     60  N   UNL A   1      45.579  28.918  29.597  1.00  0.00    -0.248 NA
ATOM     61  C   UNL A   1      47.844  29.427  29.855  1.00  0.00     0.031 C 
ATOM     62  C   UNL A   1      42.272  31.783  30.374  1.00  0.00     0.029 A 
ATOM     63  C   UNL A   1      43.321  30.913  30.123  1.00  0.00     0.049 A 
ATOM     64  H   UNL A   1      43.261  28.933  29.396  1.00  0.00     0.167 HD
ATOM     65  C   UNL A   1      45.704  30.228  30.045  1.00  0.00     0.074 A 
ATOM     66  C   UNL A   1      47.120  30.476  30.219  1.00  0.00     0.031 C 
ATOM     67  C   UNL A   1      44.733  31.142  30.287  1.00  0.00     0.031 A 
BRANCH  54  68
ATOM     68  C   UNL A   1      39.008  29.150  29.092  1.00  0.00    -0.014 A 
ATOM     69  C   UNL A   1      38.169  28.953  30.201  1.00  0.00     0.009 A 
ATOM     70  C   UNL A   1      38.461  29.682  27.914  1.00  0.00     0.009 A 
ATOM     71  C   UNL A   1      36.807  29.251  30.120  1.00  0.00     0.001 A 
ATOM     72  C   UNL A   1      37.105  30.008  27.845  1.00  0.00     0.001 A 
ATOM     73  C   UNL A   1      36.278  29.782  28.945  1.00  0.00     0.000 A 
ENDBRANCH  54  68
BRANCH  55  74
ATOM     74  C   UNL A   1      48.713  26.748  29.060  1.00  0.00    -0.014 A 
ATOM     75  C   UNL A   1      49.333  26.145  30.165  1.00  0.00     0.009 A 
ATOM     76  C   UNL A   1      49.485  27.033  27.923  1.00  0.00     0.009 A 
ATOM     77  C   UNL A   1      50.701  25.863  30.143  1.00  0.00     0.001 A 
ATOM     78  C   UNL A   1      50.845  26.720  27.891  1.00  0.00     0.001 A 
ATOM     79  C   UNL A   1      51.454  26.146  29.005  1.00  0.00     0.000 A 
ENDBRANCH  55  74
BRANCH  67  80
ATOM     80  C   UNL A   1      45.169  32.487  30.799  1.00  0.00    -0.014 A 
ATOM     81  C   UNL A   1      45.400  33.561  29.924  1.00  0.00     0.009 A 
ATOM     82  C   UNL A   1      45.299  32.694  32.182  1.00  0.00     0.009 A 
ATOM     83  C   UNL A   1      45.784  34.806  30.425  1.00  0.00     0.001 A 
ATOM     84  C   UNL A   1      45.650  33.948  32.679  1.00  0.00     0.001 A 
ATOM     85  C   UNL A   1      45.901  35.001  31.801  1.00  0.00     0.000 A 
ENDBRANCH  67  80
ENDBRANCH  41  42
ENDBRANCH  33  36
ENDBRANCH  31  32
ENDBRANCH  30  31
ENDBRANCH  29  30
ENDBRANCH  28  29
ENDBRANCH   1  28
TORSDOF 19
ENDMDL
MODEL 2
REMARK VINA RESULT:     -10.8      2.580      7.048
REMARK SMILES CC(C)c1ccc(OCC[C@H]2CCC[C@@]2([NH3+])C(=O)NCCCCCCNC(=O)c2ccc(-c3c4nc(c(-c5ccccc5)c5ccc([nH]5)c(-c5ccccc5)c5nc(c(-c6ccccc6)c6ccc3[nH]6)C=C5)C=C4)cc2)cc1
REMARK SMILES IDX 21 1 20 2 19 3 17 4 18 5 15 7 11 8 12 9 13 10 14 11 10 12
REMARK SMILES IDX 9 13 8 14 7 15 4 16 5 17 78 18 6 19 77 20 2 21 1 22 3 23
REMARK SMILES IDX 16 24 22 28 23 29 24 30 25 31 26 32 27 33 28 35 29 36 30 37
REMARK SMILES IDX 76 38 31 39 75 40 32 41 33 42 34 43 69 44 35 45 74 46 68 47
REMARK SMILES IDX 70 48 36 49 73 50 67 51 66 52 37 54 59 55 44 56 58 57 45 58
REMARK SMILES IDX 48 59 57 60 71 61 46 62 47 63 56 65 72 66 49 67 38 68 39 69
REMARK SMILES IDX 43 70 40 71 42 72 41 73 60 74 61 75 65 76 62 77 64 78 63 79
REMARK SMILES IDX 50 80 51 81 55 82 52 83 54 84 53 85
REMARK H PARENT 19 6 16 25 16 26 16 27 26 34 70 53 48 64
REMARK Flexibility Score: inf
ROOT
ATOM      1  C   UNL A   1      33.031  24.125  22.341  1.00  0.00     0.021 C 
ENDROOT
BRANCH   1   2
ATOM      2  C   UNL A   1      33.357  25.623  22.405  1.00  0.00     0.116 C 
BRANCH   2   3
ATOM      3  N   UNL A   1      32.267  26.428  21.892  1.00  0.00    -0.351 N 
ATOM      4  C   UNL A   1      31.528  27.404  22.501  1.00  0.00     0.281 C 
ATOM      5  O   UNL A   1      30.558  27.831  21.864  1.00  0.00    -0.268 OA
ATOM      6  H   UNL A   1      32.018  26.243  20.957  1.00  0.00     0.163 HD
BRANCH   4   7
ATOM      7  C   UNL A   1      31.837  27.918  23.937  1.00  0.00     0.176 C 
ATOM      8  C   UNL A   1      30.952  27.351  25.096  1.00  0.00     0.064 C 
ATOM      9  C   UNL A   1      31.753  27.848  26.299  1.00  0.00     0.011 C 
ATOM     10  C   UNL A   1      33.236  27.794  25.874  1.00  0.00     0.008 C 
ATOM     11  C   UNL A   1      33.233  27.483  24.378  1.00  0.00     0.079 C 
BRANCH   8  12
ATOM     12  C   UNL A   1      30.585  25.826  25.178  1.00  0.00     0.052 C 
BRANCH  12  13
ATOM     13  C   UNL A   1      30.881  24.946  26.425  1.00  0.00     0.230 C 
BRANCH  13  14
ATOM     14  O   UNL A   1      32.216  24.380  26.483  1.00  0.00    -0.494 OA
BRANCH  14  15
ATOM     15  C   UNL A   1      32.360  23.025  26.348  1.00  0.00     0.119 A 
ATOM     16  C   UNL A   1      33.406  20.596  25.435  1.00  0.00    -0.045 A 
ATOM     17  C   UNL A   1      33.972  21.229  26.548  1.00  0.00     0.008 A 
ATOM     18  C   UNL A   1      32.146  21.035  25.009  1.00  0.00     0.008 A 
ATOM     19  C   UNL A   1      33.450  22.449  27.000  1.00  0.00     0.047 A 
ATOM     20  C   UNL A   1      31.600  22.229  25.504  1.00  0.00     0.047 A 
BRANCH  16  21
ATOM     21  C   UNL A   1      34.186  19.611  24.579  1.00  0.00     0.013 C 
ATOM     22  C   UNL A   1      35.686  19.672  24.916  1.00  0.00     0.012 C 
ATOM     23  C   UNL A   1      33.684  18.177  24.675  1.00  0.00     0.012 C 
ENDBRANCH  16  21
ENDBRANCH  14  15
ENDBRANCH  13  14
ENDBRANCH  12  13
ENDBRANCH   8  12
BRANCH   7  24
ATOM     24  N   UNL A   1      31.816  29.412  24.025  1.00  0.00    -0.345 N 
ATOM     25  H   UNL A   1      31.939  29.809  23.094  1.00  0.00     0.345 HD
ATOM     26  H   UNL A   1      32.574  29.727  24.631  1.00  0.00     0.345 HD
ATOM     27  H   UNL A   1      30.924  29.717  24.411  1.00  0.00     0.345 HD
ENDBRANCH   7  24
ENDBRANCH   4   7
ENDBRANCH   2   3
ENDBRANCH   1   2
BRANCH   1  28
ATOM     28  C   UNL A   1      34.166  23.250  22.875  1.00  0.00     0.002 C 
BRANCH  28  29
ATOM     29  C   UNL A   1      35.037  23.946  23.925  1.00  0.00     0.002 C 
BRANCH  29  30
ATOM     30  C   UNL A   1      36.351  23.216  24.224  1.00  0.00     0.021 C 
BRANCH  30  31
ATOM     31  C   UNL A   1      36.850  23.457  25.642  1.00  0.00     0.116 C 
BRANCH  31  32
ATOM     32  N   UNL A   1      37.938  22.541  25.957  1.00  0.00    -0.352 N 
ATOM     33  C   UNL A   1      39.223  22.846  26.328  1.00  0.00     0.251 C 
ATOM     34  H   UNL A   1      37.723  21.583  25.896  1.00  0.00     0.163 HD
ATOM     35  O   UNL A   1      40.126  22.034  26.196  1.00  0.00    -0.269 OA
BRANCH  33  36
ATOM     36  C   UNL A   1      39.486  24.176  26.904  1.00  0.00     0.039 A 
ATOM     37  C   UNL A   1      39.110  24.442  28.221  1.00  0.00     0.014 A 
ATOM     38  C   UNL A   1      40.114  25.153  26.126  1.00  0.00     0.014 A 
ATOM     39  C   UNL A   1      39.414  25.684  28.778  1.00  0.00     0.010 A 
ATOM     40  C   UNL A   1      40.484  26.357  26.704  1.00  0.00     0.010 A 
ATOM     41  C   UNL A   1      40.130  26.636  28.033  1.00  0.00    -0.014 A 
BRANCH  41  42
ATOM     42  C   UNL A   1      40.526  27.936  28.618  1.00  0.00     0.031 A 
ATOM     43  C   UNL A   1      41.918  28.124  29.150  1.00  0.00     0.074 A 
ATOM     44  C   UNL A   1      39.608  28.913  28.741  1.00  0.00     0.049 A 
ATOM     45  N   UNL A   1      42.428  29.152  29.779  1.00  0.00    -0.248 NA
ATOM     46  C   UNL A   1      42.853  27.000  28.979  1.00  0.00     0.031 C 
ATOM     47  C   UNL A   1      38.216  28.831  28.293  1.00  0.00     0.029 A 
ATOM     48  N   UNL A   1      39.706  30.164  29.294  1.00  0.00    -0.354 N 
ATOM     49  C   UNL A   1      43.732  28.792  30.091  1.00  0.00     0.074 A 
ATOM     50  C   UNL A   1      43.921  27.434  29.630  1.00  0.00     0.031 C 
ATOM     51  C   UNL A   1      37.599  29.991  28.566  1.00  0.00     0.029 A 
ATOM     52  C   UNL A   1      38.533  30.876  29.252  1.00  0.00     0.049 A 
ATOM     53  H   UNL A   1      40.539  30.518  29.682  1.00  0.00     0.167 HD
ATOM     54  C   UNL A   1      44.693  29.533  30.692  1.00  0.00     0.031 A 
ATOM     55  C   UNL A   1      38.240  32.100  29.730  1.00  0.00     0.031 A 
ATOM     56  C   UNL A   1      44.498  30.883  31.147  1.00  0.00     0.049 A 
ATOM     57  C   UNL A   1      39.314  32.887  30.426  1.00  0.00     0.074 A 
ATOM     58  C   UNL A   1      45.422  31.741  31.717  1.00  0.00     0.029 A 
ATOM     59  N   UNL A   1      43.294  31.570  31.088  1.00  0.00    -0.354 N 
ATOM     60  N   UNL A   1      40.564  32.561  30.651  1.00  0.00    -0.248 NA
ATOM     61  C   UNL A   1      38.937  34.215  30.931  1.00  0.00     0.031 C 
ATOM     62  C   UNL A   1      44.761  32.924  32.062  1.00  0.00     0.029 A 
ATOM     63  C   UNL A   1      43.443  32.828  31.646  1.00  0.00     0.049 A 
ATOM     64  H   UNL A   1      42.459  31.214  30.707  1.00  0.00     0.167 HD
ATOM     65  C   UNL A   1      41.130  33.654  31.296  1.00  0.00     0.074 A 
ATOM     66  C   UNL A   1      40.091  34.656  31.412  1.00  0.00     0.031 C 
ATOM     67  C   UNL A   1      42.396  33.811  31.755  1.00  0.00     0.031 A 
BRANCH  54  68
ATOM     68  C   UNL A   1      46.035  28.890  30.906  1.00  0.00    -0.014 A 
ATOM     69  C   UNL A   1      47.051  28.981  29.941  1.00  0.00     0.009 A 
ATOM     70  C   UNL A   1      46.299  28.212  32.107  1.00  0.00     0.009 A 
ATOM     71  C   UNL A   1      48.291  28.377  30.159  1.00  0.00     0.001 A 
ATOM     72  C   UNL A   1      47.550  27.636  32.336  1.00  0.00     0.001 A 
ATOM     73  C   UNL A   1      48.541  27.711  31.358  1.00  0.00     0.000 A 
ENDBRANCH  54  68
BRANCH  55  74
ATOM     74  C   UNL A   1      36.869  32.654  29.570  1.00  0.00    -0.014 A 
ATOM     75  C   UNL A   1      35.907  32.477  30.576  1.00  0.00     0.009 A 
ATOM     76  C   UNL A   1      36.513  33.356  28.408  1.00  0.00     0.009 A 
ATOM     77  C   UNL A   1      34.609  32.966  30.408  1.00  0.00     0.001 A 
ATOM     78  C   UNL A   1      35.225  33.872  28.257  1.00  0.00     0.001 A 
ATOM     79  C   UNL A   1      34.271  33.666  29.252  1.00  0.00     0.000 A 
ENDBRANCH  55  74
BRANCH  67  80
ATOM     80  C   UNL A   1      42.737  35.128  32.395  1.00  0.00    -0.014 A 
ATOM     81  C   UNL A   1      42.405  35.397  33.732  1.00  0.00     0.009 A 
ATOM     82  C   UNL A   1      43.446  36.093  31.662  1.00  0.00     0.009 A 
ATOM     83  C   UNL A   1      42.750  36.619  34.311  1.00  0.00     0.001 A 
ATOM     84  C   UNL A   1      43.818  37.299  32.253  1.00  0.00     0.001 A 
ATOM     85  C   UNL A   1      43.462  37.565  33.575  1.00  0.00     0.000 A 
ENDBRANCH  67  80
ENDBRANCH  41  42
ENDBRANCH  33  36
ENDBRANCH  31  32
ENDBRANCH  30  31
ENDBRANCH  29  30
ENDBRANCH  28  29
ENDBRANCH   1  28
TORSDOF 19
ENDMDL
MODEL 3
REMARK VINA RESULT:     -10.7      3.993      9.341
REMARK SMILES CC(C)c1ccc(OCC[C@H]2CCC[C@@]2([NH3+])C(=O)NCCCCCCNC(=O)c2ccc(-c3c4nc(c(-c5ccccc5)c5ccc([nH]5)c(-c5ccccc5)c5nc(c(-c6ccccc6)c6ccc3[nH]6)C=C5)C=C4)cc2)cc1
REMARK SMILES IDX 21 1 20 2 19 3 17 4 18 5 15 7 11 8 12 9 13 10 14 11 10 12
REMARK SMILES IDX 9 13 8 14 7 15 4 16 5 17 78 18 6 19 77 20 2 21 1 22 3 23
REMARK SMILES IDX 16 24 22 28 23 29 24 30 25 31 26 32 27 33 28 35 29 36 30 37
REMARK SMILES IDX 76 38 31 39 75 40 32 41 33 42 34 43 69 44 35 45 74 46 68 47
REMARK SMILES IDX 70 48 36 49 73 50 67 51 66 52 37 54 59 55 44 56 58 57 45 58
REMARK SMILES IDX 48 59 57 60 71 61 46 62 47 63 56 65 72 66 49 67 38 68 39 69
REMARK SMILES IDX 43 70 40 71 42 72 41 73 60 74 61 75 65 76 62 77 64 78 63 79
REMARK SMILES IDX 50 80 51 81 55 82 52 83 54 84 53 85
REMARK H PARENT 19 6 16 25 16 26 16 27 26 34 70 53 48 64
REMARK Flexibility Score: inf
ROOT
ATOM      1  C   UNL A   1      33.113  28.640  25.764  1.00  0.00     0.021 C 
ENDROOT
BRANCH   1   2
ATOM      2  C   UNL A   1      33.355  27.226  26.307  1.00  0.00     0.116 C 
BRANCH   2   3
ATOM      3  N   UNL A   1      32.197  26.377  26.116  1.00  0.00    -0.351 N 
ATOM      4  C   UNL A   1      32.100  25.125  25.573  1.00  0.00     0.281 C 
ATOM      5  O   UNL A   1      30.954  24.690  25.405  1.00  0.00    -0.268 OA
ATOM      6  H   UNL A   1      31.345  26.761  26.425  1.00  0.00     0.163 HD
BRANCH   4   7
ATOM      7  C   UNL A   1      33.345  24.305  25.128  1.00  0.00     0.176 C 
ATOM      8  C   UNL A   1      33.824  24.494  23.650  1.00  0.00     0.064 C 
ATOM      9  C   UNL A   1      35.178  23.788  23.726  1.00  0.00     0.011 C 
ATOM     10  C   UNL A   1      35.726  24.071  25.142  1.00  0.00     0.008 C 
ATOM     11  C   UNL A   1      34.585  24.737  25.908  1.00  0.00     0.079 C 
BRANCH   8  12
ATOM     12  C   UNL A   1      33.898  25.915  22.986  1.00  0.00     0.052 C 
BRANCH  12  13
ATOM     13  C   UNL A   1      33.005  26.340  21.786  1.00  0.00     0.230 C 
BRANCH  13  14
ATOM     14  O   UNL A   1      31.576  26.230  22.005  1.00  0.00    -0.494 OA
BRANCH  14  15
ATOM     15  C   UNL A   1      30.913  27.292  22.560  1.00  0.00     0.119 A 
ATOM     16  C   UNL A   1      28.973  29.286  22.851  1.00  0.00    -0.045 A 
ATOM     17  C   UNL A   1      28.740  28.003  23.359  1.00  0.00     0.008 A 
ATOM     18  C   UNL A   1      30.287  29.615  22.494  1.00  0.00     0.008 A 
ATOM     19  C   UNL A   1      29.711  27.003  23.208  1.00  0.00     0.047 A 
ATOM     20  C   UNL A   1      31.271  28.621  22.396  1.00  0.00     0.047 A 
BRANCH  16  21
ATOM     21  C   UNL A   1      27.839  30.236  22.496  1.00  0.00     0.013 C 
ATOM     22  C   UNL A   1      27.613  31.253  23.629  1.00  0.00     0.012 C 
ATOM     23  C   UNL A   1      28.033  30.960  21.170  1.00  0.00     0.012 C 
ENDBRANCH  16  21
ENDBRANCH  14  15
ENDBRANCH  13  14
ENDBRANCH  12  13
ENDBRANCH   8  12
BRANCH   7  24
ATOM     24  N   UNL A   1      33.181  22.839  25.379  1.00  0.00    -0.345 N 
ATOM     25  H   UNL A   1      33.090  22.349  24.488  1.00  0.00     0.345 HD
ATOM     26  H   UNL A   1      32.344  22.682  25.939  1.00  0.00     0.345 HD
ATOM     27  H   UNL A   1      33.996  22.486  25.879  1.00  0.00     0.345 HD
ENDBRANCH   7  24
ENDBRANCH   4   7
ENDBRANCH   2   3
ENDBRANCH   1   2
BRANCH   1  28
ATOM     28  C   UNL A   1      32.100  29.427  26.597  1.00  0.00     0.002 C 
BRANCH  28  29
ATOM     29  C   UNL A   1      31.410  30.555  25.823  1.00  0.00     0.002 C 
BRANCH  29  30
ATOM     30  C   UNL A   1      31.261  31.854  26.622  1.00  0.00     0.021 C 
BRANCH  30  31
ATOM     31  C   UNL A   1      32.576  32.330  27.224  1.00  0.00     0.116 C 
BRANCH  31  32
ATOM     32  N   UNL A   1      32.515  33.759  27.502  1.00  0.00    -0.352 N 
ATOM     33  C   UNL A   1      33.196  34.467  28.458  1.00  0.00     0.251 C 
ATOM     34  H   UNL A   1      31.907  34.282  26.930  1.00  0.00     0.163 HD
ATOM     35  O   UNL A   1      32.794  35.554  28.844  1.00  0.00    -0.269 OA
BRANCH  33  36
ATOM     36  C   UNL A   1      34.438  33.888  29.001  1.00  0.00     0.039 A 
ATOM     37  C   UNL A   1      34.394  33.153  30.186  1.00  0.00     0.014 A 
ATOM     38  C   UNL A   1      35.643  34.078  28.318  1.00  0.00     0.014 A 
ATOM     39  C   UNL A   1      35.563  32.560  30.663  1.00  0.00     0.010 A 
ATOM     40  C   UNL A   1      36.786  33.424  28.751  1.00  0.00     0.010 A 
ATOM     41  C   UNL A   1      36.757  32.666  29.931  1.00  0.00    -0.014 A 
BRANCH  41  42
ATOM     42  C   UNL A   1      37.998  31.992  30.375  1.00  0.00     0.031 A 
ATOM     43  C   UNL A   1      38.900  32.665  31.371  1.00  0.00     0.074 A 
ATOM     44  C   UNL A   1      38.348  30.818  29.819  1.00  0.00     0.049 A 
ATOM     45  N   UNL A   1      40.070  32.281  31.814  1.00  0.00    -0.248 NA
ATOM     46  C   UNL A   1      38.441  33.951  31.921  1.00  0.00     0.031 C 
ATOM     47  C   UNL A   1      37.569  30.088  28.815  1.00  0.00     0.029 A 
ATOM     48  N   UNL A   1      39.458  30.036  30.010  1.00  0.00    -0.354 N 
ATOM     49  C   UNL A   1      40.491  33.283  32.678  1.00  0.00     0.074 A 
ATOM     50  C   UNL A   1      39.478  34.315  32.659  1.00  0.00     0.031 C 
ATOM     51  C   UNL A   1      38.213  28.955  28.499  1.00  0.00     0.029 A 
ATOM     52  C   UNL A   1      39.471  28.902  29.236  1.00  0.00     0.049 A 
ATOM     53  H   UNL A   1      40.176  30.265  30.644  1.00  0.00     0.167 HD
ATOM     54  C   UNL A   1      41.613  33.330  33.434  1.00  0.00     0.031 A 
ATOM     55  C   UNL A   1      40.403  27.937  29.121  1.00  0.00     0.031 A 
ATOM     56  C   UNL A   1      42.615  32.298  33.449  1.00  0.00     0.049 A 
ATOM     57  C   UNL A   1      41.656  28.032  29.944  1.00  0.00     0.074 A 
ATOM     58  C   UNL A   1      43.761  32.223  34.221  1.00  0.00     0.029 A 
ATOM     59  N   UNL A   1      42.593  31.165  32.650  1.00  0.00    -0.354 N 
ATOM     60  N   UNL A   1      42.008  28.950  30.811  1.00  0.00    -0.248 NA
ATOM     61  C   UNL A   1      42.640  26.953  29.775  1.00  0.00     0.031 C 
ATOM     62  C   UNL A   1      44.465  31.075  33.842  1.00  0.00     0.029 A 
ATOM     63  C   UNL A   1      43.724  30.403  32.883  1.00  0.00     0.049 A 
ATOM     64  H   UNL A   1      41.879  30.938  32.010  1.00  0.00     0.167 HD
ATOM     65  C   UNL A   1      43.239  28.545  31.313  1.00  0.00     0.074 A 
ATOM     66  C   UNL A   1      43.563  27.291  30.664  1.00  0.00     0.031 C 
ATOM     67  C   UNL A   1      44.031  29.159  32.226  1.00  0.00     0.031 A 
BRANCH  54  68
ATOM     68  C   UNL A   1      41.821  34.546  34.294  1.00  0.00    -0.014 A 
ATOM     69  C   UNL A   1      41.279  34.628  35.587  1.00  0.00     0.009 A 
ATOM     70  C   UNL A   1      42.602  35.610  33.818  1.00  0.00     0.009 A 
ATOM     71  C   UNL A   1      41.484  35.766  36.370  1.00  0.00     0.001 A 
ATOM     72  C   UNL A   1      42.832  36.734  34.615  1.00  0.00     0.001 A 
ATOM     73  C   UNL A   1      42.265  36.814  35.886  1.00  0.00     0.000 A 
ENDBRANCH  54  68
BRANCH  55  74
ATOM     74  C   UNL A   1      40.186  26.800  28.188  1.00  0.00    -0.014 A 
ATOM     75  C   UNL A   1      39.510  25.647  28.616  1.00  0.00     0.009 A 
ATOM     76  C   UNL A   1      40.657  26.858  26.867  1.00  0.00     0.009 A 
ATOM     77  C   UNL A   1      39.338  24.564  27.749  1.00  0.00     0.001 A 
ATOM     78  C   UNL A   1      40.455  25.788  25.994  1.00  0.00     0.001 A 
ATOM     79  C   UNL A   1      39.807  24.638  26.439  1.00  0.00     0.000 A 
ENDBRANCH  55  74
BRANCH  67  80
ATOM     80  C   UNL A   1      45.311  28.466  32.602  1.00  0.00    -0.014 A 
ATOM     81  C   UNL A   1      46.516  28.748  31.940  1.00  0.00     0.009 A 
ATOM     82  C   UNL A   1      45.317  27.553  33.670  1.00  0.00     0.009 A 
ATOM     83  C   UNL A   1      47.696  28.107  32.321  1.00  0.00     0.001 A 
ATOM     84  C   UNL A   1      46.504  26.940  34.069  1.00  0.00     0.001 A 
ATOM     85  C   UNL A   1      47.690  27.210  33.389  1.00  0.00     0.000 A 
ENDBRANCH  67  80
ENDBRANCH  41  42
ENDBRANCH  33  36
ENDBRANCH  31  32
ENDBRANCH  30  31
ENDBRANCH  29  30
ENDBRANCH  28  29
ENDBRANCH   1  28
TORSDOF 19
ENDMDL
