MODEL 1
REMARK VINA RESULT:     -11.0      0.000      0.000
REMARK SMILES CC(C)(O)C[C@]1(C(=O)NCCCCCCNC(=O)c2ccc(-c3c4nc(c(-c5ccccc5)c5ccc([nH]5)c(-c5ccccc5)c5nc(c(-c6ccccc6)c6ccc3[nH]6)C=C5)C=C4)cc2)CCc2ccccc2C1
REMARK SMILES IDX 12 1 11 2 10 3 9 4 7 5 8 6 6 8 67 9 75 10 68 11 74 12 69 13
REMARK SMILES IDX 73 14 70 15 72 16 71 17 5 18 2 19 1 20 3 21 4 22 13 24 14 25
REMARK SMILES IDX 15 26 16 27 17 28 18 30 19 31 20 32 66 33 21 34 65 35 22 36
REMARK SMILES IDX 23 37 24 38 59 39 25 40 64 41 58 42 60 43 26 44 63 45 57 46
REMARK SMILES IDX 56 47 27 49 49 50 34 51 48 52 35 53 38 54 47 55 61 56 36 57
REMARK SMILES IDX 37 58 46 60 62 61 39 62 28 63 29 64 33 65 30 66 32 67 31 68
REMARK SMILES IDX 50 69 51 70 55 71 52 72 54 73 53 74 40 75 41 76 45 77 42 78
REMARK SMILES IDX 44 79 43 80
REMARK H PARENT 9 7 4 23 16 29 60 48 38 59
REMARK Flexibility Score: inf
ROOT
ATOM      1  C   UNL A   1      37.026  21.884  24.353  1.00  0.00     0.002 C 
ENDROOT
BRANCH   1   2
ATOM      2  C   UNL A   1      36.800  22.969  25.407  1.00  0.00     0.021 C 
BRANCH   2   3
ATOM      3  C   UNL A   1      35.688  23.949  25.038  1.00  0.00     0.116 C 
BRANCH   3   4
ATOM      4  N   UNL A   1      35.213  23.714  23.697  1.00  0.00    -0.356 N 
ATOM      5  C   UNL A   1      34.090  23.247  23.118  1.00  0.00     0.226 C 
ATOM      6  O   UNL A   1      34.163  23.325  21.881  1.00  0.00    -0.274 OA
ATOM      7  H   UNL A   1      35.889  23.961  23.026  1.00  0.00     0.163 HD
BRANCH   5   8
ATOM      8  C   UNL A   1      32.809  22.652  23.811  1.00  0.00     0.056 C 
ATOM      9  C   UNL A   1      31.722  22.226  22.815  1.00  0.00     0.022 C 
ATOM     10  C   UNL A   1      33.167  21.489  24.772  1.00  0.00     0.052 C 
ATOM     11  C   UNL A   1      31.927  20.903  22.098  1.00  0.00     0.037 C 
ATOM     12  C   UNL A   1      33.026  20.078  24.232  1.00  0.00    -0.044 A 
ATOM     13  C   UNL A   1      32.416  19.802  22.996  1.00  0.00    -0.045 A 
ATOM     14  C   UNL A   1      33.580  19.018  24.970  1.00  0.00     0.004 A 
ATOM     15  C   UNL A   1      32.389  18.481  22.516  1.00  0.00     0.004 A 
ATOM     16  C   UNL A   1      33.559  17.712  24.477  1.00  0.00     0.000 A 
ATOM     17  C   UNL A   1      32.963  17.443  23.249  1.00  0.00     0.000 A 
BRANCH   8  18
ATOM     18  C   UNL A   1      32.269  23.894  24.662  1.00  0.00     0.052 C 
BRANCH  18  19
ATOM     19  C   UNL A   1      31.668  23.794  26.089  1.00  0.00     0.060 C 
ATOM     20  C   UNL A   1      30.561  22.735  26.225  1.00  0.00     0.042 C 
ATOM     21  C   UNL A   1      31.040  25.160  26.428  1.00  0.00     0.042 C 
BRANCH  19  22
ATOM     22  O   UNL A   1      32.688  23.529  27.041  1.00  0.00    -0.390 OA
ATOM     23  H   UNL A   1      32.462  22.731  27.544  1.00  0.00     0.211 HD
ENDBRANCH  19  22
ENDBRANCH  18  19
ENDBRANCH   8  18
ENDBRANCH   5   8
ENDBRANCH   3   4
ENDBRANCH   2   3
ENDBRANCH   1   2
BRANCH   1  24
ATOM     24  C   UNL A   1      36.779  20.452  24.843  1.00  0.00     0.002 C 
BRANCH  24  25
ATOM     25  C   UNL A   1      38.023  19.564  24.934  1.00  0.00     0.021 C 
BRANCH  25  26
ATOM     26  C   UNL A   1      39.079  20.036  25.930  1.00  0.00     0.116 C 
BRANCH  26  27
ATOM     27  N   UNL A   1      40.295  19.245  25.850  1.00  0.00    -0.352 N 
ATOM     28  C   UNL A   1      41.605  19.617  26.003  1.00  0.00     0.251 C 
ATOM     29  H   UNL A   1      40.156  18.289  25.656  1.00  0.00     0.163 HD
ATOM     30  O   UNL A   1      42.504  18.847  25.684  1.00  0.00    -0.269 OA
BRANCH  28  31
ATOM     31  C   UNL A   1      41.940  20.949  26.547  1.00  0.00     0.039 A 
ATOM     32  C   UNL A   1      42.301  21.965  25.658  1.00  0.00     0.014 A 
ATOM     33  C   UNL A   1      41.946  21.186  27.924  1.00  0.00     0.014 A 
ATOM     34  C   UNL A   1      42.620  23.233  26.147  1.00  0.00     0.010 A 
ATOM     35  C   UNL A   1      42.202  22.466  28.408  1.00  0.00     0.010 A 
ATOM     36  C   UNL A   1      42.548  23.499  27.524  1.00  0.00    -0.014 A 
BRANCH  36  37
ATOM     37  C   UNL A   1      42.830  24.856  28.053  1.00  0.00     0.031 A 
ATOM     38  C   UNL A   1      44.227  25.239  28.453  1.00  0.00     0.074 A 
ATOM     39  C   UNL A   1      41.815  25.725  28.221  1.00  0.00     0.049 A 
ATOM     40  N   UNL A   1      44.657  26.362  28.971  1.00  0.00    -0.248 NA
ATOM     41  C   UNL A   1      45.273  24.221  28.271  1.00  0.00     0.031 C 
ATOM     42  C   UNL A   1      40.410  25.459  27.904  1.00  0.00     0.029 A 
ATOM     43  N   UNL A   1      41.812  27.008  28.705  1.00  0.00    -0.354 N 
ATOM     44  C   UNL A   1      46.017  26.180  29.188  1.00  0.00     0.074 A 
ATOM     45  C   UNL A   1      46.333  24.826  28.790  1.00  0.00     0.031 C 
ATOM     46  C   UNL A   1      39.685  26.555  28.178  1.00  0.00     0.029 A 
ATOM     47  C   UNL A   1      40.565  27.584  28.721  1.00  0.00     0.049 A 
ATOM     48  H   UNL A   1      42.623  27.472  29.012  1.00  0.00     0.167 HD
ATOM     49  C   UNL A   1      46.925  27.066  29.661  1.00  0.00     0.031 A 
ATOM     50  C   UNL A   1      40.173  28.805  29.130  1.00  0.00     0.031 A 
ATOM     51  C   UNL A   1      46.614  28.416  30.050  1.00  0.00     0.049 A 
ATOM     52  C   UNL A   1      41.199  29.767  29.659  1.00  0.00     0.074 A 
ATOM     53  C   UNL A   1      47.474  29.408  30.487  1.00  0.00     0.029 A 
ATOM     54  N   UNL A   1      45.341  28.964  30.046  1.00  0.00    -0.354 N 
ATOM     55  N   UNL A   1      42.492  29.602  29.796  1.00  0.00    -0.248 NA
ATOM     56  C   UNL A   1      40.711  31.089  30.077  1.00  0.00     0.031 C 
ATOM     57  C   UNL A   1      46.714  30.542  30.793  1.00  0.00     0.029 A 
ATOM     58  C   UNL A   1      45.388  30.272  30.497  1.00  0.00     0.049 A 
ATOM     59  H   UNL A   1      44.524  28.492  29.765  1.00  0.00     0.167 HD
ATOM     60  C   UNL A   1      42.976  30.804  30.295  1.00  0.00     0.074 A 
ATOM     61  C   UNL A   1      41.839  31.694  30.418  1.00  0.00     0.031 C 
ATOM     62  C   UNL A   1      44.247  31.141  30.619  1.00  0.00     0.031 A 
BRANCH  49  63
ATOM     63  C   UNL A   1      48.346  26.595  29.793  1.00  0.00    -0.014 A 
ATOM     64  C   UNL A   1      49.279  26.805  28.764  1.00  0.00     0.009 A 
ATOM     65  C   UNL A   1      48.768  25.965  30.973  1.00  0.00     0.009 A 
ATOM     66  C   UNL A   1      50.596  26.359  28.901  1.00  0.00     0.001 A 
ATOM     67  C   UNL A   1      50.093  25.544  31.117  1.00  0.00     0.001 A 
ATOM     68  C   UNL A   1      51.002  25.734  30.079  1.00  0.00     0.000 A 
ENDBRANCH  49  63
BRANCH  50  69
ATOM     69  C   UNL A   1      38.743  29.196  29.037  1.00  0.00    -0.014 A 
ATOM     70  C   UNL A   1      37.901  29.075  30.152  1.00  0.00     0.009 A 
ATOM     71  C   UNL A   1      38.215  29.690  27.835  1.00  0.00     0.009 A 
ATOM     72  C   UNL A   1      36.551  29.420  30.058  1.00  0.00     0.001 A 
ATOM     73  C   UNL A   1      36.871  30.060  27.752  1.00  0.00     0.001 A 
ATOM     74  C   UNL A   1      36.038  29.917  28.860  1.00  0.00     0.000 A 
ENDBRANCH  50  69
BRANCH  62  75
ATOM     75  C   UNL A   1      44.478  32.541  31.114  1.00  0.00    -0.014 A 
ATOM     76  C   UNL A   1      44.436  32.843  32.484  1.00  0.00     0.009 A 
ATOM     77  C   UNL A   1      44.774  33.562  30.198  1.00  0.00     0.009 A 
ATOM     78  C   UNL A   1      44.655  34.150  32.923  1.00  0.00     0.001 A 
ATOM     79  C   UNL A   1      45.018  34.862  30.643  1.00  0.00     0.001 A 
ATOM     80  C   UNL A   1      44.950  35.156  32.004  1.00  0.00     0.000 A 
ENDBRANCH  62  75
ENDBRANCH  36  37
ENDBRANCH  28  31
ENDBRANCH  26  27
ENDBRANCH  25  26
ENDBRANCH  24  25
ENDBRANCH   1  24
TORSDOF 16
ENDMDL
MODEL 2
REMARK VINA RESULT:     -11.0      2.655      7.645
REMARK SMILES CC(C)(O)C[C@]1(C(=O)NCCCCCCNC(=O)c2ccc(-c3c4nc(c(-c5ccccc5)c5ccc([nH]5)c(-c5ccccc5)c5nc(c(-c6ccccc6)c6ccc3[nH]6)C=C5)C=C4)cc2)CCc2ccccc2C1
REMARK SMILES IDX 12 1 11 2 10 3 9 4 7 5 8 6 6 8 67 9 75 10 68 11 74 12 69 13
REMARK SMILES IDX 73 14 70 15 72 16 71 17 5 18 2 19 1 20 3 21 4 22 13 24 14 25
REMARK SMILES IDX 15 26 16 27 17 28 18 30 19 31 20 32 66 33 21 34 65 35 22 36
REMARK SMILES IDX 23 37 24 38 59 39 25 40 64 41 58 42 60 43 26 44 63 45 57 46
REMARK SMILES IDX 56 47 27 49 49 50 34 51 48 52 35 53 38 54 47 55 61 56 36 57
REMARK SMILES IDX 37 58 46 60 62 61 39 62 28 63 29 64 33 65 30 66 32 67 31 68
REMARK SMILES IDX 50 69 51 70 55 71 52 72 54 73 53 74 40 75 41 76 45 77 42 78
REMARK SMILES IDX 44 79 43 80
REMARK H PARENT 9 7 4 23 16 29 60 48 38 59
REMARK Flexibility Score: inf
ROOT
ATOM      1  C   UNL A   1      34.867  22.707  23.591  1.00  0.00     0.002 C 
ENDROOT
BRANCH   1   2
ATOM      2  C   UNL A   1      33.622  23.385  23.016  1.00  0.00     0.021 C 
BRANCH   2   3
ATOM      3  C   UNL A   1      33.656  24.908  23.130  1.00  0.00     0.116 C 
BRANCH   3   4
ATOM      4  N   UNL A   1      32.325  25.461  23.088  1.00  0.00    -0.356 N 
ATOM      5  C   UNL A   1      31.412  25.898  23.976  1.00  0.00     0.226 C 
ATOM      6  O   UNL A   1      30.419  26.368  23.398  1.00  0.00    -0.274 OA
ATOM      7  H   UNL A   1      31.995  25.540  22.164  1.00  0.00     0.163 HD
BRANCH   5   8
ATOM      8  C   UNL A   1      31.482  25.858  25.548  1.00  0.00     0.056 C 
ATOM      9  C   UNL A   1      32.850  25.415  26.084  1.00  0.00     0.022 C 
ATOM     10  C   UNL A   1      31.051  27.210  26.174  1.00  0.00     0.052 C 
ATOM     11  C   UNL A   1      33.959  26.453  26.080  1.00  0.00     0.037 C 
ATOM     12  C   UNL A   1      32.157  28.175  26.560  1.00  0.00    -0.044 A 
ATOM     13  C   UNL A   1      33.514  27.811  26.548  1.00  0.00    -0.045 A 
ATOM     14  C   UNL A   1      31.809  29.498  26.885  1.00  0.00     0.004 A 
ATOM     15  C   UNL A   1      34.494  28.776  26.840  1.00  0.00     0.004 A 
ATOM     16  C   UNL A   1      32.792  30.451  27.160  1.00  0.00     0.000 A 
ATOM     17  C   UNL A   1      34.135  30.089  27.138  1.00  0.00     0.000 A 
BRANCH   8  18
ATOM     18  C   UNL A   1      30.399  24.738  25.913  1.00  0.00     0.052 C 
BRANCH  18  19
ATOM     19  C   UNL A   1      30.725  23.381  26.590  1.00  0.00     0.060 C 
ATOM     20  C   UNL A   1      31.234  22.305  25.616  1.00  0.00     0.042 C 
ATOM     21  C   UNL A   1      29.423  22.850  27.221  1.00  0.00     0.042 C 
BRANCH  19  22
ATOM     22  O   UNL A   1      31.677  23.559  27.629  1.00  0.00    -0.390 OA
ATOM     23  H   UNL A   1      32.174  24.378  27.476  1.00  0.00     0.211 HD
ENDBRANCH  19  22
ENDBRANCH  18  19
ENDBRANCH   8  18
ENDBRANCH   5   8
ENDBRANCH   3   4
ENDBRANCH   2   3
ENDBRANCH   1   2
BRANCH   1  24
ATOM     24  C   UNL A   1      34.827  22.469  25.105  1.00  0.00     0.002 C 
BRANCH  24  25
ATOM     25  C   UNL A   1      35.782  23.333  25.933  1.00  0.00     0.021 C 
BRANCH  25  26
ATOM     26  C   UNL A   1      37.094  23.688  25.237  1.00  0.00     0.116 C 
BRANCH  26  27
ATOM     27  N   UNL A   1      38.150  22.737  25.546  1.00  0.00    -0.352 N 
ATOM     28  C   UNL A   1      39.374  22.933  26.129  1.00  0.00     0.251 C 
ATOM     29  H   UNL A   1      37.954  21.805  25.296  1.00  0.00     0.163 HD
ATOM     30  O   UNL A   1      40.215  22.041  26.107  1.00  0.00    -0.269 OA
BRANCH  28  31
ATOM     31  C   UNL A   1      39.690  24.221  26.781  1.00  0.00     0.039 A 
ATOM     32  C   UNL A   1      39.232  24.443  28.082  1.00  0.00     0.014 A 
ATOM     33  C   UNL A   1      40.390  25.222  26.102  1.00  0.00     0.014 A 
ATOM     34  C   UNL A   1      39.519  25.650  28.721  1.00  0.00     0.010 A 
ATOM     35  C   UNL A   1      40.731  26.400  26.761  1.00  0.00     0.010 A 
ATOM     36  C   UNL A   1      40.292  26.627  28.074  1.00  0.00    -0.014 A 
BRANCH  36  37
ATOM     37  C   UNL A   1      40.652  27.892  28.760  1.00  0.00     0.031 A 
ATOM     38  C   UNL A   1      39.640  28.993  28.902  1.00  0.00     0.074 A 
ATOM     39  C   UNL A   1      41.909  28.067  29.208  1.00  0.00     0.049 A 
ATOM     40  N   UNL A   1      39.782  30.181  29.435  1.00  0.00    -0.248 NA
ATOM     41  C   UNL A   1      38.298  28.737  28.354  1.00  0.00     0.031 C 
ATOM     42  C   UNL A   1      42.993  27.087  29.097  1.00  0.00     0.029 A 
ATOM     43  N   UNL A   1      42.488  29.134  29.846  1.00  0.00    -0.354 N 
ATOM     44  C   UNL A   1      38.558  30.816  29.273  1.00  0.00     0.074 A 
ATOM     45  C   UNL A   1      37.697  29.902  28.555  1.00  0.00     0.031 C 
ATOM     46  C   UNL A   1      44.098  27.590  29.671  1.00  0.00     0.029 A 
ATOM     47  C   UNL A   1      43.811  28.936  30.156  1.00  0.00     0.049 A 
ATOM     48  H   UNL A   1      42.004  29.963  30.059  1.00  0.00     0.167 HD
ATOM     49  C   UNL A   1      38.177  32.044  29.700  1.00  0.00     0.031 A 
ATOM     50  C   UNL A   1      44.697  29.749  30.762  1.00  0.00     0.031 A 
ATOM     51  C   UNL A   1      39.029  32.950  30.423  1.00  0.00     0.049 A 
ATOM     52  C   UNL A   1      44.253  31.109  31.219  1.00  0.00     0.074 A 
ATOM     53  C   UNL A   1      38.720  34.193  30.948  1.00  0.00     0.029 A 
ATOM     54  N   UNL A   1      40.361  32.710  30.723  1.00  0.00    -0.354 N 
ATOM     55  N   UNL A   1      43.072  31.669  31.117  1.00  0.00    -0.248 NA
ATOM     56  C   UNL A   1      45.262  31.944  31.886  1.00  0.00     0.031 C 
ATOM     57  C   UNL A   1      39.878  34.724  31.526  1.00  0.00     0.029 A 
ATOM     58  C   UNL A   1      40.894  33.791  31.404  1.00  0.00     0.049 A 
ATOM     59  H   UNL A   1      40.855  31.892  30.486  1.00  0.00     0.167 HD
ATOM     60  C   UNL A   1      43.189  32.911  31.726  1.00  0.00     0.074 A 
ATOM     61  C   UNL A   1      44.551  33.014  32.209  1.00  0.00     0.031 C 
ATOM     62  C   UNL A   1      42.253  33.879  31.874  1.00  0.00     0.031 A 
BRANCH  49  63
ATOM     63  C   UNL A   1      36.774  32.481  29.386  1.00  0.00    -0.014 A 
ATOM     64  C   UNL A   1      35.713  32.205  30.263  1.00  0.00     0.009 A 
ATOM     65  C   UNL A   1      36.514  33.207  28.214  1.00  0.00     0.009 A 
ATOM     66  C   UNL A   1      34.415  32.616  29.956  1.00  0.00     0.001 A 
ATOM     67  C   UNL A   1      35.218  33.640  27.922  1.00  0.00     0.001 A 
ATOM     68  C   UNL A   1      34.170  33.337  28.787  1.00  0.00     0.000 A 
ENDBRANCH  49  63
BRANCH  50  69
ATOM     69  C   UNL A   1      46.091  29.289  30.991  1.00  0.00    -0.014 A 
ATOM     70  C   UNL A   1      47.082  29.524  30.027  1.00  0.00     0.009 A 
ATOM     71  C   UNL A   1      46.435  28.614  32.172  1.00  0.00     0.009 A 
ATOM     72  C   UNL A   1      48.388  29.072  30.232  1.00  0.00     0.001 A 
ATOM     73  C   UNL A   1      47.747  28.187  32.385  1.00  0.00     0.001 A 
ATOM     74  C   UNL A   1      48.720  28.408  31.412  1.00  0.00     0.000 A 
ENDBRANCH  50  69
BRANCH  62  75
ATOM     75  C   UNL A   1      42.664  35.122  32.610  1.00  0.00    -0.014 A 
ATOM     76  C   UNL A   1      42.360  35.296  33.969  1.00  0.00     0.009 A 
ATOM     77  C   UNL A   1      43.394  36.116  31.941  1.00  0.00     0.009 A 
ATOM     78  C   UNL A   1      42.754  36.458  34.635  1.00  0.00     0.001 A 
ATOM     79  C   UNL A   1      43.809  37.264  32.617  1.00  0.00     0.001 A 
ATOM     80  C   UNL A   1      43.480  37.439  33.960  1.00  0.00     0.000 A 
ENDBRANCH  62  75
ENDBRANCH  36  37
ENDBRANCH  28  31
ENDBRANCH  26  27
ENDBRANCH  25  26
ENDBRANCH  24  25
ENDBRANCH   1  24
TORSDOF 16
ENDMDL
MODEL 3
REMARK VINA RESULT:     -11.0      4.087      9.253
REMARK SMILES CC(C)(O)C[C@]1(C(=O)NCCCCCCNC(=O)c2ccc(-c3c4nc(c(-c5ccccc5)c5ccc([nH]5)c(-c5ccccc5)c5nc(c(-c6ccccc6)c6ccc3[nH]6)C=C5)C=C4)cc2)CCc2ccccc2C1
REMARK SMILES IDX 12 1 11 2 10 3 9 4 7 5 8 6 6 8 67 9 75 10 68 11 74 12 69 13
REMARK SMILES IDX 73 14 70 15 72 16 71 17 5 18 2 19 1 20 3 21 4 22 13 24 14 25
REMARK SMILES IDX 15 26 16 27 17 28 18 30 19 31 20 32 66 33 21 34 65 35 22 36
REMARK SMILES IDX 23 37 24 38 59 39 25 40 64 41 58 42 60 43 26 44 63 45 57 46
REMARK SMILES IDX 56 47 27 49 49 50 34 51 48 52 35 53 38 54 47 55 61 56 36 57
REMARK SMILES IDX 37 58 46 60 62 61 39 62 28 63 29 64 33 65 30 66 32 67 31 68
REMARK SMILES IDX 50 69 51 70 55 71 52 72 54 73 53 74 40 75 41 76 45 77 42 78
REMARK SMILES IDX 44 79 43 80
REMARK H PARENT 9 7 4 23 16 29 60 48 38 59
REMARK Flexibility Score: inf
ROOT
ATOM      1  C   UNL A   1      32.338  29.653  26.951  1.00  0.00     0.002 C 
ENDROOT
BRANCH   1   2
ATOM      2  C   UNL A   1      33.512  28.990  26.229  1.00  0.00     0.021 C 
BRANCH   2   3
ATOM      3  C   UNL A   1      33.516  27.467  26.354  1.00  0.00     0.116 C 
BRANCH   3   4
ATOM      4  N   UNL A   1      32.193  26.965  26.628  1.00  0.00    -0.356 N 
ATOM      5  C   UNL A   1      31.168  26.452  25.919  1.00  0.00     0.226 C 
ATOM      6  O   UNL A   1      30.248  26.087  26.669  1.00  0.00    -0.274 OA
ATOM      7  H   UNL A   1      31.981  27.009  27.588  1.00  0.00     0.163 HD
BRANCH   5   8
ATOM      8  C   UNL A   1      31.040  26.300  24.358  1.00  0.00     0.056 C 
ATOM      9  C   UNL A   1      29.738  25.615  23.920  1.00  0.00     0.022 C 
ATOM     10  C   UNL A   1      31.225  27.658  23.634  1.00  0.00     0.052 C 
ATOM     11  C   UNL A   1      28.481  26.466  23.921  1.00  0.00     0.037 C 
ATOM     12  C   UNL A   1      29.966  28.412  23.250  1.00  0.00    -0.044 A 
ATOM     13  C   UNL A   1      28.685  27.843  23.353  1.00  0.00    -0.045 A 
ATOM     14  C   UNL A   1      30.085  29.749  22.831  1.00  0.00     0.004 A 
ATOM     15  C   UNL A   1      27.553  28.623  23.056  1.00  0.00     0.004 A 
ATOM     16  C   UNL A   1      28.954  30.517  22.553  1.00  0.00     0.000 A 
ATOM     17  C   UNL A   1      27.687  29.954  22.665  1.00  0.00     0.000 A 
BRANCH   8  18
ATOM     18  C   UNL A   1      32.270  25.340  24.004  1.00  0.00     0.052 C 
BRANCH  18  19
ATOM     19  C   UNL A   1      32.256  24.259  22.891  1.00  0.00     0.060 C 
ATOM     20  C   UNL A   1      31.410  23.022  23.235  1.00  0.00     0.042 C 
ATOM     21  C   UNL A   1      33.708  23.779  22.689  1.00  0.00     0.042 C 
BRANCH  19  22
ATOM     22  O   UNL A   1      31.800  24.812  21.666  1.00  0.00    -0.390 OA
ATOM     23  H   UNL A   1      30.848  24.648  21.571  1.00  0.00     0.211 HD
ENDBRANCH  19  22
ENDBRANCH  18  19
ENDBRANCH   8  18
ENDBRANCH   5   8
ENDBRANCH   3   4
ENDBRANCH   2   3
ENDBRANCH   1   2
BRANCH   1  24
ATOM     24  C   UNL A   1      31.475  30.565  26.070  1.00  0.00     0.002 C 
BRANCH  24  25
ATOM     25  C   UNL A   1      31.423  32.034  26.496  1.00  0.00     0.021 C 
BRANCH  25  26
ATOM     26  C   UNL A   1      32.683  32.549  27.186  1.00  0.00     0.116 C 
BRANCH  26  27
ATOM     27  N   UNL A   1      32.504  33.888  27.721  1.00  0.00    -0.352 N 
ATOM     28  C   UNL A   1      33.201  34.553  28.696  1.00  0.00     0.251 C 
ATOM     29  H   UNL A   1      31.763  34.399  27.320  1.00  0.00     0.163 HD
ATOM     30  O   UNL A   1      32.761  35.598  29.161  1.00  0.00    -0.269 OA
BRANCH  28  31
ATOM     31  C   UNL A   1      34.482  34.011  29.194  1.00  0.00     0.039 A 
ATOM     32  C   UNL A   1      34.466  33.171  30.311  1.00  0.00     0.014 A 
ATOM     33  C   UNL A   1      35.695  34.363  28.597  1.00  0.00     0.014 A 
ATOM     34  C   UNL A   1      35.662  32.644  30.799  1.00  0.00     0.010 A 
ATOM     35  C   UNL A   1      36.882  33.788  29.044  1.00  0.00     0.010 A 
ATOM     36  C   UNL A   1      36.876  32.929  30.153  1.00  0.00    -0.014 A 
BRANCH  36  37
ATOM     37  C   UNL A   1      38.149  32.332  30.627  1.00  0.00     0.031 A 
ATOM     38  C   UNL A   1      38.657  31.052  30.028  1.00  0.00     0.074 A 
ATOM     39  C   UNL A   1      38.819  32.920  31.636  1.00  0.00     0.049 A 
ATOM     40  N   UNL A   1      39.726  30.362  30.340  1.00  0.00    -0.248 NA
ATOM     41  C   UNL A   1      37.848  30.454  28.954  1.00  0.00     0.031 C 
ATOM     42  C   UNL A   1      38.410  34.146  32.326  1.00  0.00     0.029 A 
ATOM     43  N   UNL A   1      39.987  32.561  32.260  1.00  0.00    -0.354 N 
ATOM     44  C   UNL A   1      39.709  29.246  29.513  1.00  0.00     0.074 A 
ATOM     45  C   UNL A   1      38.503  29.325  28.718  1.00  0.00     0.031 C 
ATOM     46  C   UNL A   1      39.326  34.450  33.259  1.00  0.00     0.029 A 
ATOM     47  C   UNL A   1      40.364  33.425  33.258  1.00  0.00     0.049 A 
ATOM     48  H   UNL A   1      40.504  31.760  32.016  1.00  0.00     0.167 HD
ATOM     49  C   UNL A   1      40.623  28.253  29.412  1.00  0.00     0.031 A 
ATOM     50  C   UNL A   1      41.428  33.395  34.083  1.00  0.00     0.031 A 
ATOM     51  C   UNL A   1      41.828  28.178  30.196  1.00  0.00     0.049 A 
ATOM     52  C   UNL A   1      42.424  32.277  33.956  1.00  0.00     0.074 A 
ATOM     53  C   UNL A   1      42.845  27.241  30.128  1.00  0.00     0.029 A 
ATOM     54  N   UNL A   1      42.177  29.075  31.193  1.00  0.00    -0.354 N 
ATOM     55  N   UNL A   1      42.427  31.265  33.124  1.00  0.00    -0.248 NA
ATOM     56  C   UNL A   1      43.569  32.307  34.877  1.00  0.00     0.031 C 
ATOM     57  C   UNL A   1      43.787  27.547  31.116  1.00  0.00     0.029 A 
ATOM     58  C   UNL A   1      43.381  28.702  31.764  1.00  0.00     0.049 A 
ATOM     59  H   UNL A   1      41.646  29.862  31.456  1.00  0.00     0.167 HD
ATOM     60  C   UNL A   1      43.584  30.550  33.404  1.00  0.00     0.074 A 
ATOM     61  C   UNL A   1      44.265  31.255  34.471  1.00  0.00     0.031 C 
ATOM     62  C   UNL A   1      44.042  29.413  32.828  1.00  0.00     0.031 A 
BRANCH  49  63
ATOM     63  C   UNL A   1      40.349  27.159  28.419  1.00  0.00    -0.014 A 
ATOM     64  C   UNL A   1      40.883  27.204  27.121  1.00  0.00     0.009 A 
ATOM     65  C   UNL A   1      39.575  26.051  28.796  1.00  0.00     0.009 A 
ATOM     66  C   UNL A   1      40.616  26.181  26.210  1.00  0.00     0.001 A 
ATOM     67  C   UNL A   1      39.332  25.015  27.890  1.00  0.00     0.001 A 
ATOM     68  C   UNL A   1      39.845  25.085  26.596  1.00  0.00     0.000 A 
ENDBRANCH  49  63
BRANCH  50  69
ATOM     69  C   UNL A   1      41.616  34.470  35.090  1.00  0.00    -0.014 A 
ATOM     70  C   UNL A   1      41.079  34.336  36.379  1.00  0.00     0.009 A 
ATOM     71  C   UNL A   1      42.333  35.632  34.768  1.00  0.00     0.009 A 
ATOM     72  C   UNL A   1      41.237  35.356  37.319  1.00  0.00     0.001 A 
ATOM     73  C   UNL A   1      42.512  36.639  35.719  1.00  0.00     0.001 A 
ATOM     74  C   UNL A   1      41.956  36.505  36.990  1.00  0.00     0.000 A 
ENDBRANCH  50  69
BRANCH  62  75
ATOM     75  C   UNL A   1      45.355  28.876  33.323  1.00  0.00    -0.014 A 
ATOM     76  C   UNL A   1      46.568  29.267  32.735  1.00  0.00     0.009 A 
ATOM     77  C   UNL A   1      45.378  27.994  34.414  1.00  0.00     0.009 A 
ATOM     78  C   UNL A   1      47.778  28.758  33.212  1.00  0.00     0.001 A 
ATOM     79  C   UNL A   1      46.590  27.508  34.905  1.00  0.00     0.001 A 
ATOM     80  C   UNL A   1      47.788  27.883  34.298  1.00  0.00     0.000 A 
ENDBRANCH  62  75
ENDBRANCH  36  37
ENDBRANCH  28  31
ENDBRANCH  26  27
ENDBRANCH  25  26
ENDBRANCH  24  25
ENDBRANCH   1  24
TORSDOF 16
ENDMDL
