MODEL 1
REMARK VINA RESULT:     -10.9      0.000      0.000
REMARK SMILES COC(=O)c1ccccc1-c1ccc(/C=C(\C#N)C(=O)NCCCCCCNC(=O)c2ccc(-c3c4nc(c(-c5ccccc5)c5ccc([nH]5)c(-c5ccccc5)c5nc(c(-c6ccccc6)c6ccc3[nH]6)C=C5)C=C4)cc2)o1
REMARK SMILES IDX 23 1 22 2 21 3 19 4 20 5 16 7 15 8 14 9 11 10 12 11 79 12
REMARK SMILES IDX 13 13 10 14 5 15 6 16 7 17 9 18 8 19 3 20 4 21 2 22 1 23
REMARK SMILES IDX 17 24 18 25 24 26 25 27 26 28 27 29 28 30 29 31 30 33 31 34
REMARK SMILES IDX 32 35 78 36 33 37 77 38 34 39 35 40 36 41 71 42 37 43 76 44
REMARK SMILES IDX 70 45 72 46 38 47 75 48 69 49 68 50 39 52 61 53 46 54 60 55
REMARK SMILES IDX 47 56 50 57 59 58 73 59 48 60 49 61 58 63 74 64 51 65 40 66
REMARK SMILES IDX 41 67 45 68 42 69 44 70 43 71 62 72 63 73 67 74 64 75 66 76
REMARK SMILES IDX 65 77 52 78 53 79 57 80 54 81 56 82 55 83
REMARK H PARENT 21 6 28 32 72 51 50 62
REMARK Flexibility Score: inf
ROOT
ATOM      1  C   UNL A   1      35.416  22.368  24.547  1.00  0.00     0.021 C 
ENDROOT
BRANCH   1   2
ATOM      2  C   UNL A   1      34.778  21.768  25.798  1.00  0.00     0.116 C 
BRANCH   2   3
ATOM      3  N   UNL A   1      33.732  20.829  25.442  1.00  0.00    -0.351 N 
ATOM      4  C   UNL A   1      32.393  20.946  25.260  1.00  0.00     0.262 C 
ATOM      5  O   UNL A   1      31.791  19.901  24.994  1.00  0.00    -0.268 OA
ATOM      6  H   UNL A   1      34.065  19.912  25.302  1.00  0.00     0.163 HD
BRANCH   4   7
ATOM      7  C   UNL A   1      31.651  22.241  25.337  1.00  0.00     0.120 C 
ATOM      8  C   UNL A   1      31.843  23.094  24.306  1.00  0.00     0.072 C 
BRANCH   8   9
ATOM      9  C   UNL A   1      31.276  24.398  24.216  1.00  0.00     0.129 A 
ATOM     10  C   UNL A   1      30.941  26.565  24.621  1.00  0.00     0.135 A 
ATOM     11  C   UNL A   1      29.991  26.202  23.697  1.00  0.00     0.051 A 
ATOM     12  O   UNL A   1      31.726  25.495  24.911  1.00  0.00    -0.457 OA
ATOM     13  C   UNL A   1      30.203  24.824  23.439  1.00  0.00     0.051 A 
BRANCH  10  14
ATOM     14  C   UNL A   1      31.258  27.786  25.349  1.00  0.00     0.032 A 
ATOM     15  C   UNL A   1      31.189  29.064  24.766  1.00  0.00     0.071 A 
ATOM     16  C   UNL A   1      31.577  30.202  25.493  1.00  0.00     0.016 A 
ATOM     17  C   UNL A   1      32.007  30.078  26.814  1.00  0.00     0.001 A 
ATOM     18  C   UNL A   1      31.678  27.687  26.687  1.00  0.00     0.013 A 
ATOM     19  C   UNL A   1      32.050  28.822  27.412  1.00  0.00     0.001 A 
BRANCH  15  20
ATOM     20  C   UNL A   1      30.719  29.291  23.384  1.00  0.00     0.338 C 
ATOM     21  O   UNL A   1      31.463  29.315  22.413  1.00  0.00    -0.246 OA
BRANCH  20  22
ATOM     22  O   UNL A   1      29.386  29.524  23.383  1.00  0.00    -0.465 OA
ATOM     23  C   UNL A   1      29.030  30.902  23.488  1.00  0.00     0.282 C 
ENDBRANCH  20  22
ENDBRANCH  15  20
ENDBRANCH  10  14
ENDBRANCH   8   9
BRANCH   7  24
ATOM     24  C   UNL A   1      30.783  22.629  26.524  1.00  0.00     0.105 C 
ATOM     25  N   UNL A   1      30.064  22.950  27.509  1.00  0.00    -0.192 NA
ENDBRANCH   7  24
ENDBRANCH   4   7
ENDBRANCH   2   3
ENDBRANCH   1   2
BRANCH   1  26
ATOM     26  C   UNL A   1      36.858  21.893  24.324  1.00  0.00     0.002 C 
BRANCH  26  27
ATOM     27  C   UNL A   1      37.266  20.660  25.144  1.00  0.00     0.002 C 
BRANCH  27  28
ATOM     28  C   UNL A   1      38.707  20.188  24.932  1.00  0.00     0.021 C 
BRANCH  28  29
ATOM     29  C   UNL A   1      39.408  19.714  26.202  1.00  0.00     0.116 C 
BRANCH  29  30
ATOM     30  N   UNL A   1      40.682  19.083  25.903  1.00  0.00    -0.352 N 
ATOM     31  C   UNL A   1      41.938  19.630  25.854  1.00  0.00     0.251 C 
ATOM     32  H   UNL A   1      40.638  18.119  25.707  1.00  0.00     0.163 HD
ATOM     33  O   UNL A   1      42.864  18.998  25.355  1.00  0.00    -0.269 OA
BRANCH  31  34
ATOM     34  C   UNL A   1      42.181  20.981  26.399  1.00  0.00     0.039 A 
ATOM     35  C   UNL A   1      42.073  21.180  27.778  1.00  0.00     0.014 A 
ATOM     36  C   UNL A   1      42.464  22.059  25.553  1.00  0.00     0.014 A 
ATOM     37  C   UNL A   1      42.287  22.450  28.313  1.00  0.00     0.010 A 
ATOM     38  C   UNL A   1      42.734  23.313  26.093  1.00  0.00     0.010 A 
ATOM     39  C   UNL A   1      42.636  23.522  27.477  1.00  0.00    -0.014 A 
BRANCH  39  40
ATOM     40  C   UNL A   1      42.890  24.873  28.034  1.00  0.00     0.031 A 
ATOM     41  C   UNL A   1      44.272  25.258  28.484  1.00  0.00     0.074 A 
ATOM     42  C   UNL A   1      41.865  25.733  28.184  1.00  0.00     0.049 A 
ATOM     43  N   UNL A   1      44.679  26.377  29.031  1.00  0.00    -0.248 NA
ATOM     44  C   UNL A   1      45.330  24.249  28.321  1.00  0.00     0.031 C 
ATOM     45  C   UNL A   1      40.471  25.461  27.827  1.00  0.00     0.029 A 
ATOM     46  N   UNL A   1      41.838  27.010  28.685  1.00  0.00    -0.354 N 
ATOM     47  C   UNL A   1      46.030  26.196  29.296  1.00  0.00     0.074 A 
ATOM     48  C   UNL A   1      46.367  24.850  28.886  1.00  0.00     0.031 C 
ATOM     49  C   UNL A   1      39.729  26.545  28.105  1.00  0.00     0.029 A 
ATOM     50  C   UNL A   1      40.586  27.574  28.683  1.00  0.00     0.049 A 
ATOM     51  H   UNL A   1      42.640  27.476  29.016  1.00  0.00     0.167 HD
ATOM     52  C   UNL A   1      46.915  27.077  29.821  1.00  0.00     0.031 A 
ATOM     53  C   UNL A   1      40.175  28.785  29.103  1.00  0.00     0.031 A 
ATOM     54  C   UNL A   1      46.586  28.422  30.209  1.00  0.00     0.049 A 
ATOM     55  C   UNL A   1      41.181  29.750  29.663  1.00  0.00     0.074 A 
ATOM     56  C   UNL A   1      47.427  29.412  30.686  1.00  0.00     0.029 A 
ATOM     57  N   UNL A   1      45.312  28.965  30.167  1.00  0.00    -0.354 N 
ATOM     58  N   UNL A   1      42.470  29.591  29.837  1.00  0.00    -0.248 NA
ATOM     59  C   UNL A   1      40.675  31.068  30.072  1.00  0.00     0.031 C 
ATOM     60  C   UNL A   1      46.654  30.543  30.970  1.00  0.00     0.029 A 
ATOM     61  C   UNL A   1      45.340  30.270  30.627  1.00  0.00     0.049 A 
ATOM     62  H   UNL A   1      44.507  28.492  29.855  1.00  0.00     0.167 HD
ATOM     63  C   UNL A   1      42.933  30.793  30.353  1.00  0.00     0.074 A 
ATOM     64  C   UNL A   1      41.791  31.678  30.447  1.00  0.00     0.031 C 
ATOM     65  C   UNL A   1      44.194  31.135  30.715  1.00  0.00     0.031 A 
BRANCH  52  66
ATOM     66  C   UNL A   1      48.330  26.608  30.008  1.00  0.00    -0.014 A 
ATOM     67  C   UNL A   1      49.297  26.798  29.008  1.00  0.00     0.009 A 
ATOM     68  C   UNL A   1      48.710  26.005  31.217  1.00  0.00     0.009 A 
ATOM     69  C   UNL A   1      50.609  26.363  29.204  1.00  0.00     0.001 A 
ATOM     70  C   UNL A   1      50.029  25.593  31.418  1.00  0.00     0.001 A 
ATOM     71  C   UNL A   1      50.975  25.766  30.409  1.00  0.00     0.000 A 
ENDBRANCH  52  66
BRANCH  53  72
ATOM     72  C   UNL A   1      38.744  29.162  28.991  1.00  0.00    -0.014 A 
ATOM     73  C   UNL A   1      37.888  29.041  30.096  1.00  0.00     0.009 A 
ATOM     74  C   UNL A   1      38.227  29.644  27.778  1.00  0.00     0.009 A 
ATOM     75  C   UNL A   1      36.535  29.370  29.980  1.00  0.00     0.001 A 
ATOM     76  C   UNL A   1      36.880  29.995  27.674  1.00  0.00     0.001 A 
ATOM     77  C   UNL A   1      36.033  29.850  28.772  1.00  0.00     0.000 A 
ENDBRANCH  53  72
BRANCH  65  78
ATOM     78  C   UNL A   1      44.404  32.533  31.221  1.00  0.00    -0.014 A 
ATOM     79  C   UNL A   1      44.322  32.830  32.590  1.00  0.00     0.009 A 
ATOM     80  C   UNL A   1      44.720  33.559  30.316  1.00  0.00     0.009 A 
ATOM     81  C   UNL A   1      44.523  34.136  33.040  1.00  0.00     0.001 A 
ATOM     82  C   UNL A   1      44.945  34.858  30.773  1.00  0.00     0.001 A 
ATOM     83  C   UNL A   1      44.838  35.146  32.132  1.00  0.00     0.000 A 
ENDBRANCH  65  78
ENDBRANCH  39  40
ENDBRANCH  31  34
ENDBRANCH  29  30
ENDBRANCH  28  29
ENDBRANCH  27  28
ENDBRANCH  26  27
ENDBRANCH   1  26
TORSDOF 18
ENDMDL
MODEL 2
REMARK VINA RESULT:     -10.6      3.665      9.222
REMARK SMILES COC(=O)c1ccccc1-c1ccc(/C=C(\C#N)C(=O)NCCCCCCNC(=O)c2ccc(-c3c4nc(c(-c5ccccc5)c5ccc([nH]5)c(-c5ccccc5)c5nc(c(-c6ccccc6)c6ccc3[nH]6)C=C5)C=C4)cc2)o1
REMARK SMILES IDX 23 1 22 2 21 3 19 4 20 5 16 7 15 8 14 9 11 10 12 11 79 12
REMARK SMILES IDX 13 13 10 14 5 15 6 16 7 17 9 18 8 19 3 20 4 21 2 22 1 23
REMARK SMILES IDX 17 24 18 25 24 26 25 27 26 28 27 29 28 30 29 31 30 33 31 34
REMARK SMILES IDX 32 35 78 36 33 37 77 38 34 39 35 40 36 41 71 42 37 43 76 44
REMARK SMILES IDX 70 45 72 46 38 47 75 48 69 49 68 50 39 52 61 53 46 54 60 55
REMARK SMILES IDX 47 56 50 57 59 58 73 59 48 60 49 61 58 63 74 64 51 65 40 66
REMARK SMILES IDX 41 67 45 68 42 69 44 70 43 71 62 72 63 73 67 74 64 75 66 76
REMARK SMILES IDX 65 77 52 78 53 79 57 80 54 81 56 82 55 83
REMARK H PARENT 21 6 28 32 72 51 50 62
REMARK Flexibility Score: inf
ROOT
ATOM      1  C   UNL A   1      33.392  30.193  27.226  1.00  0.00     0.021 C 
ENDROOT
BRANCH   1   2
ATOM      2  C   UNL A   1      33.333  29.306  25.984  1.00  0.00     0.116 C 
BRANCH   2   3
ATOM      3  N   UNL A   1      32.067  29.470  25.295  1.00  0.00    -0.351 N 
ATOM      4  C   UNL A   1      31.430  28.758  24.331  1.00  0.00     0.262 C 
ATOM      5  O   UNL A   1      30.353  29.224  23.941  1.00  0.00    -0.268 OA
ATOM      6  H   UNL A   1      31.564  30.263  25.590  1.00  0.00     0.163 HD
BRANCH   4   7
ATOM      7  C   UNL A   1      31.941  27.473  23.767  1.00  0.00     0.120 C 
ATOM      8  C   UNL A   1      31.530  26.348  24.393  1.00  0.00     0.072 C 
BRANCH   8   9
ATOM      9  C   UNL A   1      31.947  25.029  24.049  1.00  0.00     0.129 A 
ATOM     10  C   UNL A   1      33.243  23.223  23.886  1.00  0.00     0.135 A 
ATOM     11  C   UNL A   1      32.082  22.917  23.218  1.00  0.00     0.051 A 
ATOM     12  O   UNL A   1      33.152  24.474  24.406  1.00  0.00    -0.457 OA
ATOM     13  C   UNL A   1      31.257  24.066  23.320  1.00  0.00     0.051 A 
BRANCH  10  14
ATOM     14  C   UNL A   1      34.507  22.539  24.123  1.00  0.00     0.032 A 
ATOM     15  C   UNL A   1      34.659  21.523  25.084  1.00  0.00     0.071 A 
ATOM     16  C   UNL A   1      35.919  20.949  25.323  1.00  0.00     0.016 A 
ATOM     17  C   UNL A   1      37.029  21.361  24.585  1.00  0.00     0.001 A 
ATOM     18  C   UNL A   1      35.636  22.926  23.380  1.00  0.00     0.013 A 
ATOM     19  C   UNL A   1      36.885  22.343  23.609  1.00  0.00     0.001 A 
BRANCH  15  20
ATOM     20  C   UNL A   1      33.534  21.007  25.890  1.00  0.00     0.338 C 
ATOM     21  O   UNL A   1      32.616  20.346  25.423  1.00  0.00    -0.246 OA
BRANCH  20  22
ATOM     22  O   UNL A   1      33.652  21.429  27.171  1.00  0.00    -0.465 OA
ATOM     23  C   UNL A   1      32.857  22.571  27.488  1.00  0.00     0.282 C 
ENDBRANCH  20  22
ENDBRANCH  15  20
ENDBRANCH  10  14
ENDBRANCH   8   9
BRANCH   7  24
ATOM     24  C   UNL A   1      32.920  27.410  22.605  1.00  0.00     0.105 C 
ATOM     25  N   UNL A   1      33.731  27.358  21.641  1.00  0.00    -0.192 NA
ENDBRANCH   7  24
ENDBRANCH   4   7
ENDBRANCH   2   3
ENDBRANCH   1   2
BRANCH   1  26
ATOM     26  C   UNL A   1      34.825  30.572  27.623  1.00  0.00     0.002 C 
BRANCH  26  27
ATOM     27  C   UNL A   1      35.028  32.054  27.972  1.00  0.00     0.002 C 
BRANCH  27  28
ATOM     28  C   UNL A   1      33.743  32.884  28.047  1.00  0.00     0.021 C 
BRANCH  28  29
ATOM     29  C   UNL A   1      33.971  34.384  28.209  1.00  0.00     0.116 C 
BRANCH  29  30
ATOM     30  N   UNL A   1      33.428  34.872  29.465  1.00  0.00    -0.352 N 
ATOM     31  C   UNL A   1      33.764  34.539  30.751  1.00  0.00     0.251 C 
ATOM     32  H   UNL A   1      32.712  35.544  29.381  1.00  0.00     0.163 HD
ATOM     33  O   UNL A   1      33.040  34.876  31.683  1.00  0.00    -0.269 OA
BRANCH  31  34
ATOM     34  C   UNL A   1      34.998  33.772  31.021  1.00  0.00     0.039 A 
ATOM     35  C   UNL A   1      34.898  32.553  31.698  1.00  0.00     0.014 A 
ATOM     36  C   UNL A   1      36.252  34.272  30.655  1.00  0.00     0.014 A 
ATOM     37  C   UNL A   1      36.051  31.818  31.975  1.00  0.00     0.010 A 
ATOM     38  C   UNL A   1      37.396  33.511  30.880  1.00  0.00     0.010 A 
ATOM     39  C   UNL A   1      37.306  32.283  31.552  1.00  0.00    -0.014 A 
BRANCH  39  40
ATOM     40  C   UNL A   1      38.538  31.501  31.817  1.00  0.00     0.031 A 
ATOM     41  C   UNL A   1      39.396  31.820  33.009  1.00  0.00     0.074 A 
ATOM     42  C   UNL A   1      38.911  30.538  30.952  1.00  0.00     0.049 A 
ATOM     43  N   UNL A   1      40.527  31.273  33.381  1.00  0.00    -0.248 NA
ATOM     44  C   UNL A   1      38.939  32.910  33.884  1.00  0.00     0.031 C 
ATOM     45  C   UNL A   1      38.187  30.165  29.735  1.00  0.00     0.029 A 
ATOM     46  N   UNL A   1      40.000  29.704  30.962  1.00  0.00    -0.354 N 
ATOM     47  C   UNL A   1      40.924  31.966  34.517  1.00  0.00     0.074 A 
ATOM     48  C   UNL A   1      39.937  32.996  34.753  1.00  0.00     0.031 C 
ATOM     49  C   UNL A   1      38.843  29.164  29.126  1.00  0.00     0.029 A 
ATOM     50  C   UNL A   1      40.043  28.845  29.891  1.00  0.00     0.049 A 
ATOM     51  H   UNL A   1      40.685  29.720  31.670  1.00  0.00     0.167 HD
ATOM     52  C   UNL A   1      42.007  31.753  35.303  1.00  0.00     0.031 A 
ATOM     53  C   UNL A   1      40.952  27.909  29.562  1.00  0.00     0.031 A 
ATOM     54  C   UNL A   1      42.978  30.716  35.081  1.00  0.00     0.049 A 
ATOM     55  C   UNL A   1      42.134  27.681  30.461  1.00  0.00     0.074 A 
ATOM     56  C   UNL A   1      44.071  30.378  35.860  1.00  0.00     0.029 A 
ATOM     57  N   UNL A   1      42.972  29.850  34.000  1.00  0.00    -0.354 N 
ATOM     58  N   UNL A   1      42.455  28.294  31.573  1.00  0.00    -0.248 NA
ATOM     59  C   UNL A   1      43.070  26.620  30.064  1.00  0.00     0.031 C 
ATOM     60  C   UNL A   1      44.751  29.330  35.228  1.00  0.00     0.029 A 
ATOM     61  C   UNL A   1      44.054  28.989  34.079  1.00  0.00     0.049 A 
ATOM     62  H   UNL A   1      42.299  29.847  33.282  1.00  0.00     0.167 HD
ATOM     63  C   UNL A   1      43.616  27.680  32.022  1.00  0.00     0.074 A 
ATOM     64  C   UNL A   1      43.933  26.635  31.070  1.00  0.00     0.031 C 
ATOM     65  C   UNL A   1      44.355  27.957  33.124  1.00  0.00     0.031 A 
BRANCH  52  66
ATOM     66  C   UNL A   1      42.200  32.669  36.478  1.00  0.00    -0.014 A 
ATOM     67  C   UNL A   1      41.658  32.361  37.736  1.00  0.00     0.009 A 
ATOM     68  C   UNL A   1      42.967  33.836  36.334  1.00  0.00     0.009 A 
ATOM     69  C   UNL A   1      41.855  33.220  38.819  1.00  0.00     0.001 A 
ATOM     70  C   UNL A   1      43.182  34.680  37.425  1.00  0.00     0.001 A 
ATOM     71  C   UNL A   1      42.619  34.375  38.664  1.00  0.00     0.000 A 
ENDBRANCH  52  66
BRANCH  53  72
ATOM     72  C   UNL A   1      40.769  27.098  28.331  1.00  0.00    -0.014 A 
ATOM     73  C   UNL A   1      39.999  25.926  28.358  1.00  0.00     0.009 A 
ATOM     74  C   UNL A   1      41.367  27.492  27.124  1.00  0.00     0.009 A 
ATOM     75  C   UNL A   1      39.852  25.150  27.206  1.00  0.00     0.001 A 
ATOM     76  C   UNL A   1      41.198  26.727  25.969  1.00  0.00     0.001 A 
ATOM     77  C   UNL A   1      40.448  25.553  26.012  1.00  0.00     0.000 A 
ENDBRANCH  53  72
BRANCH  65  78
ATOM     78  C   UNL A   1      45.560  27.097  33.372  1.00  0.00    -0.014 A 
ATOM     79  C   UNL A   1      46.827  27.469  32.897  1.00  0.00     0.009 A 
ATOM     80  C   UNL A   1      45.430  25.916  34.119  1.00  0.00     0.009 A 
ATOM     81  C   UNL A   1      47.937  26.657  33.141  1.00  0.00     0.001 A 
ATOM     82  C   UNL A   1      46.545  25.120  34.382  1.00  0.00     0.001 A 
ATOM     83  C   UNL A   1      47.794  25.487  33.886  1.00  0.00     0.000 A 
ENDBRANCH  65  78
ENDBRANCH  39  40
ENDBRANCH  31  34
ENDBRANCH  29  30
ENDBRANCH  28  29
ENDBRANCH  27  28
ENDBRANCH  26  27
ENDBRANCH   1  26
TORSDOF 18
ENDMDL
MODEL 3
REMARK VINA RESULT:     -10.5      3.052      8.952
REMARK SMILES COC(=O)c1ccccc1-c1ccc(/C=C(\C#N)C(=O)NCCCCCCNC(=O)c2ccc(-c3c4nc(c(-c5ccccc5)c5ccc([nH]5)c(-c5ccccc5)c5nc(c(-c6ccccc6)c6ccc3[nH]6)C=C5)C=C4)cc2)o1
REMARK SMILES IDX 23 1 22 2 21 3 19 4 20 5 16 7 15 8 14 9 11 10 12 11 79 12
REMARK SMILES IDX 13 13 10 14 5 15 6 16 7 17 9 18 8 19 3 20 4 21 2 22 1 23
REMARK SMILES IDX 17 24 18 25 24 26 25 27 26 28 27 29 28 30 29 31 30 33 31 34
REMARK SMILES IDX 32 35 78 36 33 37 77 38 34 39 35 40 36 41 71 42 37 43 76 44
REMARK SMILES IDX 70 45 72 46 38 47 75 48 69 49 68 50 39 52 61 53 46 54 60 55
REMARK SMILES IDX 47 56 50 57 59 58 73 59 48 60 49 61 58 63 74 64 51 65 40 66
REMARK SMILES IDX 41 67 45 68 42 69 44 70 43 71 62 72 63 73 67 74 64 75 66 76
REMARK SMILES IDX 65 77 52 78 53 79 57 80 54 81 56 82 55 83
REMARK H PARENT 21 6 28 32 72 51 50 62
REMARK Flexibility Score: inf
ROOT
ATOM      1  C   UNL A   1      31.395  29.351  24.343  1.00  0.00     0.021 C 
ENDROOT
BRANCH   1   2
ATOM      2  C   UNL A   1      32.543  28.929  23.427  1.00  0.00     0.116 C 
BRANCH   2   3
ATOM      3  N   UNL A   1      32.048  28.156  22.305  1.00  0.00    -0.351 N 
ATOM      4  C   UNL A   1      31.921  26.825  22.072  1.00  0.00     0.262 C 
ATOM      5  O   UNL A   1      31.485  26.512  20.958  1.00  0.00    -0.268 OA
ATOM      6  H   UNL A   1      31.739  28.713  21.555  1.00  0.00     0.163 HD
BRANCH   4   7
ATOM      7  C   UNL A   1      32.245  25.767  23.076  1.00  0.00     0.120 C 
ATOM      8  C   UNL A   1      33.452  25.872  23.676  1.00  0.00     0.072 C 
BRANCH   8   9
ATOM      9  C   UNL A   1      33.974  24.938  24.617  1.00  0.00     0.129 A 
ATOM     10  C   UNL A   1      35.122  23.206  25.426  1.00  0.00     0.135 A 
ATOM     11  C   UNL A   1      34.451  23.749  26.496  1.00  0.00     0.051 A 
ATOM     12  O   UNL A   1      34.859  23.932  24.309  1.00  0.00    -0.457 OA
ATOM     13  C   UNL A   1      33.720  24.850  25.982  1.00  0.00     0.051 A 
BRANCH  10  14
ATOM     14  C   UNL A   1      35.991  22.054  25.231  1.00  0.00     0.032 A 
ATOM     15  C   UNL A   1      35.501  20.753  25.016  1.00  0.00     0.071 A 
ATOM     16  C   UNL A   1      36.384  19.667  24.909  1.00  0.00     0.016 A 
ATOM     17  C   UNL A   1      37.762  19.872  24.984  1.00  0.00     0.001 A 
ATOM     18  C   UNL A   1      37.383  22.240  25.287  1.00  0.00     0.013 A 
ATOM     19  C   UNL A   1      38.260  21.158  25.166  1.00  0.00     0.001 A 
BRANCH  15  20
ATOM     20  C   UNL A   1      34.060  20.449  24.894  1.00  0.00     0.338 C 
ATOM     21  O   UNL A   1      33.425  19.841  25.745  1.00  0.00    -0.246 OA
BRANCH  20  22
ATOM     22  O   UNL A   1      33.597  20.882  23.699  1.00  0.00    -0.465 OA
ATOM     23  C   UNL A   1      32.260  20.479  23.406  1.00  0.00     0.282 C 
ENDBRANCH  20  22
ENDBRANCH  15  20
ENDBRANCH  10  14
ENDBRANCH   8   9
BRANCH   7  24
ATOM     24  C   UNL A   1      31.322  24.595  23.372  1.00  0.00     0.105 C 
ATOM     25  N   UNL A   1      30.556  23.624  23.616  1.00  0.00    -0.192 NA
ENDBRANCH   7  24
ENDBRANCH   4   7
ENDBRANCH   2   3
ENDBRANCH   1   2
BRANCH   1  26
ATOM     26  C   UNL A   1      31.426  28.646  25.705  1.00  0.00     0.002 C 
BRANCH  26  27
ATOM     27  C   UNL A   1      31.928  29.513  26.869  1.00  0.00     0.002 C 
BRANCH  27  28
ATOM     28  C   UNL A   1      31.511  30.985  26.808  1.00  0.00     0.021 C 
BRANCH  28  29
ATOM     29  C   UNL A   1      32.667  31.960  26.603  1.00  0.00     0.116 C 
BRANCH  29  30
ATOM     30  N   UNL A   1      32.396  33.245  27.224  1.00  0.00    -0.352 N 
ATOM     31  C   UNL A   1      33.057  33.881  28.242  1.00  0.00     0.251 C 
ATOM     32  H   UNL A   1      31.621  33.733  26.859  1.00  0.00     0.163 HD
ATOM     33  O   UNL A   1      32.547  34.851  28.795  1.00  0.00    -0.269 OA
BRANCH  31  34
ATOM     34  C   UNL A   1      34.384  33.402  28.679  1.00  0.00     0.039 A 
ATOM     35  C   UNL A   1      34.468  32.596  29.818  1.00  0.00     0.014 A 
ATOM     36  C   UNL A   1      35.547  33.785  28.002  1.00  0.00     0.014 A 
ATOM     37  C   UNL A   1      35.713  32.143  30.256  1.00  0.00     0.010 A 
ATOM     38  C   UNL A   1      36.782  33.285  28.405  1.00  0.00     0.010 A 
ATOM     39  C   UNL A   1      36.877  32.470  29.542  1.00  0.00    -0.014 A 
BRANCH  39  40
ATOM     40  C   UNL A   1      38.204  31.974  29.981  1.00  0.00     0.031 A 
ATOM     41  C   UNL A   1      38.731  30.664  29.466  1.00  0.00     0.074 A 
ATOM     42  C   UNL A   1      38.909  32.680  30.886  1.00  0.00     0.049 A 
ATOM     43  N   UNL A   1      39.850  30.051  29.764  1.00  0.00    -0.248 NA
ATOM     44  C   UNL A   1      37.884  29.936  28.509  1.00  0.00     0.031 C 
ATOM     45  C   UNL A   1      38.485  33.942  31.494  1.00  0.00     0.029 A 
ATOM     46  N   UNL A   1      40.131  32.427  31.457  1.00  0.00    -0.354 N 
ATOM     47  C   UNL A   1      39.828  28.860  29.051  1.00  0.00     0.074 A 
ATOM     48  C   UNL A   1      38.572  28.817  28.335  1.00  0.00     0.031 C 
ATOM     49  C   UNL A   1      39.440  34.362  32.340  1.00  0.00     0.029 A 
ATOM     50  C   UNL A   1      40.526  33.389  32.355  1.00  0.00     0.049 A 
ATOM     51  H   UNL A   1      40.672  31.633  31.244  1.00  0.00     0.167 HD
ATOM     52  C   UNL A   1      40.776  27.894  28.986  1.00  0.00     0.031 A 
ATOM     53  C   UNL A   1      41.638  33.473  33.107  1.00  0.00     0.031 A 
ATOM     54  C   UNL A   1      42.034  27.945  29.681  1.00  0.00     0.049 A 
ATOM     55  C   UNL A   1      42.683  32.398  33.002  1.00  0.00     0.074 A 
ATOM     56  C   UNL A   1      43.087  27.049  29.625  1.00  0.00     0.029 A 
ATOM     57  N   UNL A   1      42.407  28.949  30.560  1.00  0.00    -0.354 N 
ATOM     58  N   UNL A   1      42.680  31.314  32.265  1.00  0.00    -0.248 NA
ATOM     59  C   UNL A   1      43.889  32.567  33.824  1.00  0.00     0.031 C 
ATOM     60  C   UNL A   1      44.083  27.491  30.502  1.00  0.00     0.029 A 
ATOM     61  C   UNL A   1      43.668  28.684  31.069  1.00  0.00     0.049 A 
ATOM     62  H   UNL A   1      41.858  29.733  30.789  1.00  0.00     0.167 HD
ATOM     63  C   UNL A   1      43.891  30.685  32.515  1.00  0.00     0.074 A 
ATOM     64  C   UNL A   1      44.610  31.515  33.459  1.00  0.00     0.031 C 
ATOM     65  C   UNL A   1      44.367  29.521  32.007  1.00  0.00     0.031 A 
BRANCH  52  66
ATOM     66  C   UNL A   1      40.482  26.693  28.133  1.00  0.00    -0.014 A 
ATOM     67  C   UNL A   1      39.665  25.651  28.601  1.00  0.00     0.009 A 
ATOM     68  C   UNL A   1      40.997  26.621  26.829  1.00  0.00     0.009 A 
ATOM     69  C   UNL A   1      39.397  24.546  27.790  1.00  0.00     0.001 A 
ATOM     70  C   UNL A   1      40.706  25.526  26.013  1.00  0.00     0.001 A 
ATOM     71  C   UNL A   1      39.913  24.487  26.497  1.00  0.00     0.000 A 
ENDBRANCH  52  66
BRANCH  53  72
ATOM     72  C   UNL A   1      41.834  34.632  34.015  1.00  0.00    -0.014 A 
ATOM     73  C   UNL A   1      42.463  35.798  33.555  1.00  0.00     0.009 A 
ATOM     74  C   UNL A   1      41.393  34.575  35.347  1.00  0.00     0.009 A 
ATOM     75  C   UNL A   1      42.672  36.876  34.419  1.00  0.00     0.001 A 
ATOM     76  C   UNL A   1      41.582  35.664  36.200  1.00  0.00     0.001 A 
ATOM     77  C   UNL A   1      42.228  36.809  35.738  1.00  0.00     0.000 A 
ENDBRANCH  53  72
BRANCH  65  78
ATOM     78  C   UNL A   1      45.739  29.096  32.444  1.00  0.00    -0.014 A 
ATOM     79  C   UNL A   1      45.921  28.270  33.563  1.00  0.00     0.009 A 
ATOM     80  C   UNL A   1      46.860  29.501  31.703  1.00  0.00     0.009 A 
ATOM     81  C   UNL A   1      47.206  27.883  33.951  1.00  0.00     0.001 A 
ATOM     82  C   UNL A   1      48.140  29.092  32.079  1.00  0.00     0.001 A 
ATOM     83  C   UNL A   1      48.312  28.291  33.207  1.00  0.00     0.000 A 
ENDBRANCH  65  78
ENDBRANCH  39  40
ENDBRANCH  31  34
ENDBRANCH  29  30
ENDBRANCH  28  29
ENDBRANCH  27  28
ENDBRANCH  26  27
ENDBRANCH   1  26
TORSDOF 18
ENDMDL
