MODEL 1
REMARK VINA RESULT:     -12.5      0.000      0.000
REMARK SMILES Cc1ccccc1OC1(C(=O)NCCCCCCNC(=O)c2ccc(-c3c4nc(c(-c5ccccc5)c5ccc([nH]5)c(-c5ccccc5)c5nc(c(-c6ccccc6)c6ccc3[nH]6)C=C5)C=C4)cc2)CCN(C(=O)[C@H]2CCCCO2)CC1
REMARK SMILES IDX 15 1 14 2 13 3 12 4 10 5 11 6 9 8 70 9 82 10 71 11 81 12
REMARK SMILES IDX 72 13 73 14 74 15 8 16 7 17 1 18 2 19 3 20 4 21 6 22 5 23
REMARK SMILES IDX 75 24 76 25 80 26 77 27 79 28 78 29 16 30 17 31 18 32 19 33
REMARK SMILES IDX 20 34 21 36 22 37 23 38 69 39 24 40 68 41 25 42 26 43 27 44
REMARK SMILES IDX 62 45 28 46 67 47 61 48 63 49 29 50 66 51 60 52 59 53 30 55
REMARK SMILES IDX 52 56 37 57 51 58 38 59 41 60 50 61 64 62 39 63 40 64 49 66
REMARK SMILES IDX 65 67 42 68 31 69 32 70 36 71 33 72 35 73 34 74 53 75 54 76
REMARK SMILES IDX 58 77 55 78 57 79 56 80 43 81 44 82 48 83 45 84 47 85 46 86
REMARK H PARENT 12 7 19 35 63 54 41 65
REMARK Flexibility Score: inf
ROOT
ATOM      1  C   UNL A   1      32.840  27.242  26.553  1.00  0.00     0.002 C 
ENDROOT
BRANCH   1   2
ATOM      2  C   UNL A   1      32.105  26.057  25.912  1.00  0.00     0.021 C 
BRANCH   2   3
ATOM      3  C   UNL A   1      32.403  24.689  26.529  1.00  0.00     0.116 C 
BRANCH   3   4
ATOM      4  N   UNL A   1      31.325  23.740  26.354  1.00  0.00    -0.353 N 
ATOM      5  C   UNL A   1      31.309  22.412  26.029  1.00  0.00     0.264 C 
ATOM      6  O   UNL A   1      30.194  21.883  26.126  1.00  0.00    -0.270 OA
ATOM      7  H   UNL A   1      30.430  24.125  26.495  1.00  0.00     0.163 HD
BRANCH   5   8
ATOM      8  C   UNL A   1      32.594  21.608  25.564  1.00  0.00     0.190 C 
ATOM      9  C   UNL A   1      33.093  22.240  24.268  1.00  0.00     0.080 C 
ATOM     10  C   UNL A   1      33.541  21.490  26.761  1.00  0.00     0.080 C 
ATOM     11  C   UNL A   1      34.399  23.013  24.355  1.00  0.00     0.124 C 
ATOM     12  C   UNL A   1      34.940  22.088  26.633  1.00  0.00     0.124 C 
ATOM     13  N   UNL A   1      35.381  22.500  25.308  1.00  0.00    -0.340 N 
ATOM     14  C   UNL A   1      36.733  22.680  24.970  1.00  0.00     0.251 C 
ATOM     15  O   UNL A   1      37.043  23.228  23.907  1.00  0.00    -0.272 OA
BRANCH   8  16
ATOM     16  O   UNL A   1      31.990  20.314  25.269  1.00  0.00    -0.477 OA
BRANCH  16  17
ATOM     17  C   UNL A   1      32.444  19.167  24.698  1.00  0.00     0.123 A 
ATOM     18  C   UNL A   1      32.152  19.470  22.138  1.00  0.00     0.048 C 
ATOM     19  C   UNL A   1      32.555  18.738  23.370  1.00  0.00    -0.009 A 
ATOM     20  C   UNL A   1      33.024  17.427  23.095  1.00  0.00     0.007 A 
ATOM     21  C   UNL A   1      33.384  16.546  24.106  1.00  0.00     0.001 A 
ATOM     22  C   UNL A   1      32.816  18.250  25.704  1.00  0.00     0.047 A 
ATOM     23  C   UNL A   1      33.280  16.961  25.419  1.00  0.00     0.004 A 
ENDBRANCH  16  17
ENDBRANCH   8  16
BRANCH  14  24
ATOM     24  C   UNL A   1      37.828  22.153  25.937  1.00  0.00     0.207 C 
ATOM     25  C   UNL A   1      38.480  20.902  25.331  1.00  0.00     0.042 C 
ATOM     26  O   UNL A   1      38.796  23.194  26.127  1.00  0.00    -0.368 OA
ATOM     27  C   UNL A   1      39.749  20.485  26.066  1.00  0.00     0.006 C 
ATOM     28  C   UNL A   1      39.914  22.811  26.918  1.00  0.00     0.161 C 
ATOM     29  C   UNL A   1      40.674  21.678  26.249  1.00  0.00     0.029 C 
ENDBRANCH  14  24
ENDBRANCH   5   8
ENDBRANCH   3   4
ENDBRANCH   2   3
ENDBRANCH   1   2
BRANCH   1  30
ATOM     30  C   UNL A   1      31.985  28.233  27.363  1.00  0.00     0.002 C 
BRANCH  30  31
ATOM     31  C   UNL A   1      32.213  29.721  27.085  1.00  0.00     0.021 C 
BRANCH  31  32
ATOM     32  C   UNL A   1      33.677  30.128  26.990  1.00  0.00     0.116 C 
BRANCH  32  33
ATOM     33  N   UNL A   1      34.070  31.171  27.931  1.00  0.00    -0.352 N 
ATOM     34  C   UNL A   1      35.193  31.246  28.740  1.00  0.00     0.251 C 
ATOM     35  H   UNL A   1      33.447  31.930  28.002  1.00  0.00     0.163 HD
ATOM     36  O   UNL A   1      35.349  32.191  29.492  1.00  0.00    -0.269 OA
BRANCH  34  37
ATOM     37  C   UNL A   1      36.267  30.233  28.581  1.00  0.00     0.039 A 
ATOM     38  C   UNL A   1      36.468  29.329  29.631  1.00  0.00     0.014 A 
ATOM     39  C   UNL A   1      37.182  30.307  27.536  1.00  0.00     0.014 A 
ATOM     40  C   UNL A   1      37.703  28.702  29.763  1.00  0.00     0.010 A 
ATOM     41  C   UNL A   1      38.439  29.765  27.712  1.00  0.00     0.010 A 
ATOM     42  C   UNL A   1      38.719  29.025  28.863  1.00  0.00    -0.014 A 
BRANCH  42  43
ATOM     43  C   UNL A   1      40.122  28.719  29.103  1.00  0.00     0.031 A 
ATOM     44  C   UNL A   1      40.724  27.499  28.544  1.00  0.00     0.074 A 
ATOM     45  C   UNL A   1      40.880  29.586  29.809  1.00  0.00     0.049 A 
ATOM     46  N   UNL A   1      41.784  26.937  29.014  1.00  0.00    -0.248 NA
ATOM     47  C   UNL A   1      40.131  26.777  27.425  1.00  0.00     0.031 C 
ATOM     48  C   UNL A   1      42.331  29.593  29.962  1.00  0.00     0.029 A 
ATOM     49  N   UNL A   1      40.428  30.516  30.741  1.00  0.00    -0.354 N 
ATOM     50  C   UNL A   1      42.162  25.957  28.128  1.00  0.00     0.074 A 
ATOM     51  C   UNL A   1      41.065  25.850  27.194  1.00  0.00     0.031 C 
ATOM     52  C   UNL A   1      42.642  30.272  31.079  1.00  0.00     0.029 A 
ATOM     53  C   UNL A   1      41.398  30.590  31.759  1.00  0.00     0.049 A 
ATOM     54  H   UNL A   1      39.589  31.027  30.698  1.00  0.00     0.167 HD
ATOM     55  C   UNL A   1      43.411  25.422  28.218  1.00  0.00     0.031 A 
ATOM     56  C   UNL A   1      41.077  30.208  33.031  1.00  0.00     0.031 A 
ATOM     57  C   UNL A   1      44.147  25.926  29.376  1.00  0.00     0.049 A 
ATOM     58  C   UNL A   1      41.829  28.985  33.524  1.00  0.00     0.074 A 
ATOM     59  C   UNL A   1      45.142  26.872  29.558  1.00  0.00     0.029 A 
ATOM     60  N   UNL A   1      43.657  25.639  30.639  1.00  0.00    -0.354 N 
ATOM     61  N   UNL A   1      42.667  28.289  32.806  1.00  0.00    -0.248 NA
ATOM     62  C   UNL A   1      41.611  28.395  34.848  1.00  0.00     0.031 C 
ATOM     63  C   UNL A   1      45.228  27.163  30.951  1.00  0.00     0.029 A 
ATOM     64  C   UNL A   1      44.300  26.379  31.612  1.00  0.00     0.049 A 
ATOM     65  H   UNL A   1      42.941  24.989  30.821  1.00  0.00     0.167 HD
ATOM     66  C   UNL A   1      43.058  27.183  33.509  1.00  0.00     0.074 A 
ATOM     67  C   UNL A   1      42.375  27.291  34.783  1.00  0.00     0.031 C 
ATOM     68  C   UNL A   1      43.881  26.228  32.993  1.00  0.00     0.031 A 
BRANCH  55  69
ATOM     69  C   UNL A   1      44.039  24.595  27.124  1.00  0.00    -0.014 A 
ATOM     70  C   UNL A   1      44.775  25.232  26.109  1.00  0.00     0.009 A 
ATOM     71  C   UNL A   1      43.916  23.200  27.014  1.00  0.00     0.009 A 
ATOM     72  C   UNL A   1      45.273  24.531  25.002  1.00  0.00     0.001 A 
ATOM     73  C   UNL A   1      44.373  22.498  25.889  1.00  0.00     0.001 A 
ATOM     74  C   UNL A   1      45.045  23.168  24.877  1.00  0.00     0.000 A 
ENDBRANCH  55  69
BRANCH  56  75
ATOM     75  C   UNL A   1      39.670  30.548  33.396  1.00  0.00    -0.014 A 
ATOM     76  C   UNL A   1      39.352  31.904  33.617  1.00  0.00     0.009 A 
ATOM     77  C   UNL A   1      38.626  29.645  33.158  1.00  0.00     0.009 A 
ATOM     78  C   UNL A   1      38.042  32.366  33.464  1.00  0.00     0.001 A 
ATOM     79  C   UNL A   1      37.311  30.109  33.029  1.00  0.00     0.001 A 
ATOM     80  C   UNL A   1      37.027  31.470  33.137  1.00  0.00     0.000 A 
ENDBRANCH  56  75
BRANCH  68  81
ATOM     81  C   UNL A   1      44.340  25.035  33.777  1.00  0.00    -0.014 A 
ATOM     82  C   UNL A   1      45.698  24.716  33.911  1.00  0.00     0.009 A 
ATOM     83  C   UNL A   1      43.403  24.122  34.297  1.00  0.00     0.009 A 
ATOM     84  C   UNL A   1      46.104  23.558  34.585  1.00  0.00     0.001 A 
ATOM     85  C   UNL A   1      43.804  22.955  34.950  1.00  0.00     0.001 A 
ATOM     86  C   UNL A   1      45.157  22.678  35.104  1.00  0.00     0.000 A 
ENDBRANCH  68  81
ENDBRANCH  42  43
ENDBRANCH  34  37
ENDBRANCH  32  33
ENDBRANCH  31  32
ENDBRANCH  30  31
ENDBRANCH   1  30
TORSDOF 16
ENDMDL
MODEL 2
REMARK VINA RESULT:     -11.9      3.639      9.345
REMARK SMILES Cc1ccccc1OC1(C(=O)NCCCCCCNC(=O)c2ccc(-c3c4nc(c(-c5ccccc5)c5ccc([nH]5)c(-c5ccccc5)c5nc(c(-c6ccccc6)c6ccc3[nH]6)C=C5)C=C4)cc2)CCN(C(=O)[C@H]2CCCCO2)CC1
REMARK SMILES IDX 15 1 14 2 13 3 12 4 10 5 11 6 9 8 70 9 82 10 71 11 81 12
REMARK SMILES IDX 72 13 73 14 74 15 8 16 7 17 1 18 2 19 3 20 4 21 6 22 5 23
REMARK SMILES IDX 75 24 76 25 80 26 77 27 79 28 78 29 16 30 17 31 18 32 19 33
REMARK SMILES IDX 20 34 21 36 22 37 23 38 69 39 24 40 68 41 25 42 26 43 27 44
REMARK SMILES IDX 62 45 28 46 67 47 61 48 63 49 29 50 66 51 60 52 59 53 30 55
REMARK SMILES IDX 52 56 37 57 51 58 38 59 41 60 50 61 64 62 39 63 40 64 49 66
REMARK SMILES IDX 65 67 42 68 31 69 32 70 36 71 33 72 35 73 34 74 53 75 54 76
REMARK SMILES IDX 58 77 55 78 57 79 56 80 43 81 44 82 48 83 45 84 47 85 46 86
REMARK H PARENT 12 7 19 35 63 54 41 65
REMARK Flexibility Score: inf
ROOT
ATOM      1  C   UNL A   1      34.302  22.970  24.808  1.00  0.00     0.002 C 
ENDROOT
BRANCH   1   2
ATOM      2  C   UNL A   1      34.115  23.585  23.414  1.00  0.00     0.021 C 
BRANCH   2   3
ATOM      3  C   UNL A   1      33.473  24.973  23.390  1.00  0.00     0.116 C 
BRANCH   3   4
ATOM      4  N   UNL A   1      32.630  25.190  22.235  1.00  0.00    -0.353 N 
ATOM      5  C   UNL A   1      31.824  26.230  21.862  1.00  0.00     0.264 C 
ATOM      6  O   UNL A   1      31.372  26.130  20.714  1.00  0.00    -0.270 OA
ATOM      7  H   UNL A   1      32.638  24.443  21.593  1.00  0.00     0.163 HD
BRANCH   5   8
ATOM      8  C   UNL A   1      31.487  27.459  22.806  1.00  0.00     0.190 C 
ATOM      9  C   UNL A   1      30.956  26.900  24.123  1.00  0.00     0.080 C 
ATOM     10  C   UNL A   1      32.696  28.398  22.815  1.00  0.00     0.080 C 
ATOM     11  C   UNL A   1      31.866  27.048  25.332  1.00  0.00     0.124 C 
ATOM     12  C   UNL A   1      33.378  28.679  24.152  1.00  0.00     0.124 C 
ATOM     13  N   UNL A   1      32.692  28.252  25.364  1.00  0.00    -0.340 N 
ATOM     14  C   UNL A   1      32.980  28.780  26.635  1.00  0.00     0.251 C 
ATOM     15  O   UNL A   1      32.526  28.243  27.650  1.00  0.00    -0.272 OA
BRANCH   8  16
ATOM     16  O   UNL A   1      30.389  28.058  22.058  1.00  0.00    -0.477 OA
BRANCH  16  17
ATOM     17  C   UNL A   1      29.424  28.967  22.360  1.00  0.00     0.123 A 
ATOM     18  C   UNL A   1      27.540  27.648  23.560  1.00  0.00     0.048 C 
ATOM     19  C   UNL A   1      28.187  28.870  23.010  1.00  0.00    -0.009 A 
ATOM     20  C   UNL A   1      27.362  30.020  23.118  1.00  0.00     0.007 A 
ATOM     21  C   UNL A   1      27.742  31.250  22.602  1.00  0.00     0.001 A 
ATOM     22  C   UNL A   1      29.783  30.231  21.845  1.00  0.00     0.047 A 
ATOM     23  C   UNL A   1      28.961  31.357  21.962  1.00  0.00     0.004 A 
ENDBRANCH  16  17
ENDBRANCH   8  16
BRANCH  14  24
ATOM     24  C   UNL A   1      33.850  30.063  26.739  1.00  0.00     0.207 C 
ATOM     25  C   UNL A   1      33.061  31.151  27.482  1.00  0.00     0.042 C 
ATOM     26  O   UNL A   1      35.053  29.731  27.444  1.00  0.00    -0.368 OA
ATOM     27  C   UNL A   1      33.930  32.337  27.882  1.00  0.00     0.006 C 
ATOM     28  C   UNL A   1      35.903  30.842  27.699  1.00  0.00     0.161 C 
ATOM     29  C   UNL A   1      35.196  31.860  28.576  1.00  0.00     0.029 C 
ENDBRANCH  14  24
ENDBRANCH   5   8
ENDBRANCH   3   4
ENDBRANCH   2   3
ENDBRANCH   1   2
BRANCH   1  30
ATOM     30  C   UNL A   1      35.276  23.690  25.759  1.00  0.00     0.002 C 
BRANCH  30  31
ATOM     31  C   UNL A   1      36.552  22.932  26.134  1.00  0.00     0.021 C 
BRANCH  31  32
ATOM     32  C   UNL A   1      37.828  23.514  25.542  1.00  0.00     0.116 C 
BRANCH  32  33
ATOM     33  N   UNL A   1      39.054  22.993  26.136  1.00  0.00    -0.352 N 
ATOM     34  C   UNL A   1      39.967  23.627  26.965  1.00  0.00     0.251 C 
ATOM     35  H   UNL A   1      39.263  22.057  25.917  1.00  0.00     0.163 HD
ATOM     36  O   UNL A   1      40.961  23.038  27.352  1.00  0.00    -0.269 OA
BRANCH  34  37
ATOM     37  C   UNL A   1      39.654  24.983  27.482  1.00  0.00     0.039 A 
ATOM     38  C   UNL A   1      40.084  26.082  26.730  1.00  0.00     0.014 A 
ATOM     39  C   UNL A   1      39.148  25.167  28.765  1.00  0.00     0.014 A 
ATOM     40  C   UNL A   1      40.253  27.312  27.357  1.00  0.00     0.010 A 
ATOM     41  C   UNL A   1      39.402  26.357  29.417  1.00  0.00     0.010 A 
ATOM     42  C   UNL A   1      40.023  27.403  28.730  1.00  0.00    -0.014 A 
BRANCH  42  43
ATOM     43  C   UNL A   1      40.496  28.513  29.545  1.00  0.00     0.031 A 
ATOM     44  C   UNL A   1      39.553  29.528  30.040  1.00  0.00     0.074 A 
ATOM     45  C   UNL A   1      41.803  28.582  29.879  1.00  0.00     0.049 A 
ATOM     46  N   UNL A   1      39.895  30.719  30.394  1.00  0.00    -0.248 NA
ATOM     47  C   UNL A   1      38.118  29.287  30.121  1.00  0.00     0.031 C 
ATOM     48  C   UNL A   1      42.435  29.458  30.860  1.00  0.00     0.029 A 
ATOM     49  N   UNL A   1      42.868  28.008  29.191  1.00  0.00    -0.354 N 
ATOM     50  C   UNL A   1      38.804  31.305  30.986  1.00  0.00     0.074 A 
ATOM     51  C   UNL A   1      37.705  30.402  30.730  1.00  0.00     0.031 C 
ATOM     52  C   UNL A   1      43.739  29.570  30.561  1.00  0.00     0.029 A 
ATOM     53  C   UNL A   1      43.956  28.895  29.292  1.00  0.00     0.049 A 
ATOM     54  H   UNL A   1      42.862  27.144  28.721  1.00  0.00     0.167 HD
ATOM     55  C   UNL A   1      38.972  32.437  31.724  1.00  0.00     0.031 A 
ATOM     56  C   UNL A   1      44.460  29.482  28.166  1.00  0.00     0.031 A 
ATOM     57  C   UNL A   1      40.346  32.933  31.671  1.00  0.00     0.049 A 
ATOM     58  C   UNL A   1      44.285  30.989  28.114  1.00  0.00     0.074 A 
ATOM     59  C   UNL A   1      41.434  32.877  32.527  1.00  0.00     0.029 A 
ATOM     60  N   UNL A   1      40.844  33.351  30.448  1.00  0.00    -0.354 N 
ATOM     61  N   UNL A   1      43.654  31.694  29.012  1.00  0.00    -0.248 NA
ATOM     62  C   UNL A   1      44.728  31.805  26.981  1.00  0.00     0.031 C 
ATOM     63  C   UNL A   1      42.597  33.251  31.792  1.00  0.00     0.029 A 
ATOM     64  C   UNL A   1      42.210  33.551  30.499  1.00  0.00     0.049 A 
ATOM     65  H   UNL A   1      40.294  33.489  29.643  1.00  0.00     0.167 HD
ATOM     66  C   UNL A   1      43.565  32.992  28.591  1.00  0.00     0.074 A 
ATOM     67  C   UNL A   1      44.254  33.017  27.315  1.00  0.00     0.031 C 
ATOM     68  C   UNL A   1      42.900  33.955  29.288  1.00  0.00     0.031 A 
BRANCH  55  69
ATOM     69  C   UNL A   1      37.927  32.975  32.669  1.00  0.00    -0.014 A 
ATOM     70  C   UNL A   1      37.148  34.082  32.285  1.00  0.00     0.009 A 
ATOM     71  C   UNL A   1      37.684  32.468  33.957  1.00  0.00     0.009 A 
ATOM     72  C   UNL A   1      36.252  34.701  33.167  1.00  0.00     0.001 A 
ATOM     73  C   UNL A   1      36.823  33.107  34.860  1.00  0.00     0.001 A 
ATOM     74  C   UNL A   1      36.113  34.232  34.466  1.00  0.00     0.000 A 
ENDBRANCH  55  69
BRANCH  56  75
ATOM     75  C   UNL A   1      44.419  28.579  26.978  1.00  0.00    -0.014 A 
ATOM     76  C   UNL A   1      45.240  27.431  26.989  1.00  0.00     0.009 A 
ATOM     77  C   UNL A   1      43.354  28.631  26.070  1.00  0.00     0.009 A 
ATOM     78  C   UNL A   1      44.919  26.314  26.213  1.00  0.00     0.001 A 
ATOM     79  C   UNL A   1      43.050  27.517  25.277  1.00  0.00     0.001 A 
ATOM     80  C   UNL A   1      43.803  26.348  25.381  1.00  0.00     0.000 A 
ENDBRANCH  56  75
BRANCH  68  81
ATOM     81  C   UNL A   1      42.836  35.386  28.845  1.00  0.00    -0.014 A 
ATOM     82  C   UNL A   1      42.069  35.785  27.742  1.00  0.00     0.009 A 
ATOM     83  C   UNL A   1      43.652  36.357  29.454  1.00  0.00     0.009 A 
ATOM     84  C   UNL A   1      42.078  37.114  27.300  1.00  0.00     0.001 A 
ATOM     85  C   UNL A   1      43.682  37.678  29.002  1.00  0.00     0.001 A 
ATOM     86  C   UNL A   1      42.885  38.058  27.929  1.00  0.00     0.000 A 
ENDBRANCH  68  81
ENDBRANCH  42  43
ENDBRANCH  34  37
ENDBRANCH  32  33
ENDBRANCH  31  32
ENDBRANCH  30  31
ENDBRANCH   1  30
TORSDOF 16
ENDMDL
MODEL 3
REMARK VINA RESULT:     -11.8      2.339      4.635
REMARK SMILES Cc1ccccc1OC1(C(=O)NCCCCCCNC(=O)c2ccc(-c3c4nc(c(-c5ccccc5)c5ccc([nH]5)c(-c5ccccc5)c5nc(c(-c6ccccc6)c6ccc3[nH]6)C=C5)C=C4)cc2)CCN(C(=O)[C@H]2CCCCO2)CC1
REMARK SMILES IDX 15 1 14 2 13 3 12 4 10 5 11 6 9 8 70 9 82 10 71 11 81 12
REMARK SMILES IDX 72 13 73 14 74 15 8 16 7 17 1 18 2 19 3 20 4 21 6 22 5 23
REMARK SMILES IDX 75 24 76 25 80 26 77 27 79 28 78 29 16 30 17 31 18 32 19 33
REMARK SMILES IDX 20 34 21 36 22 37 23 38 69 39 24 40 68 41 25 42 26 43 27 44
REMARK SMILES IDX 62 45 28 46 67 47 61 48 63 49 29 50 66 51 60 52 59 53 30 55
REMARK SMILES IDX 52 56 37 57 51 58 38 59 41 60 50 61 64 62 39 63 40 64 49 66
REMARK SMILES IDX 65 67 42 68 31 69 32 70 36 71 33 72 35 73 34 74 53 75 54 76
REMARK SMILES IDX 58 77 55 78 57 79 56 80 43 81 44 82 48 83 45 84 47 85 46 86
REMARK H PARENT 12 7 19 35 63 54 41 65
REMARK Flexibility Score: inf
ROOT
ATOM      1  C   UNL A   1      32.721  31.561  27.250  1.00  0.00     0.002 C 
ENDROOT
BRANCH   1   2
ATOM      2  C   UNL A   1      32.379  30.144  26.770  1.00  0.00     0.021 C 
BRANCH   2   3
ATOM      3  C   UNL A   1      33.580  29.257  26.435  1.00  0.00     0.116 C 
BRANCH   3   4
ATOM      4  N   UNL A   1      33.964  29.321  25.043  1.00  0.00    -0.353 N 
ATOM      5  C   UNL A   1      33.568  28.611  23.943  1.00  0.00     0.264 C 
ATOM      6  O   UNL A   1      34.002  29.056  22.872  1.00  0.00    -0.270 OA
ATOM      7  H   UNL A   1      34.641  30.008  24.849  1.00  0.00     0.163 HD
BRANCH   5   8
ATOM      8  C   UNL A   1      32.639  27.328  24.015  1.00  0.00     0.190 C 
ATOM      9  C   UNL A   1      32.434  26.822  22.590  1.00  0.00     0.080 C 
ATOM     10  C   UNL A   1      33.211  26.386  25.078  1.00  0.00     0.080 C 
ATOM     11  C   UNL A   1      33.121  25.513  22.235  1.00  0.00     0.124 C 
ATOM     12  C   UNL A   1      33.632  24.984  24.644  1.00  0.00     0.124 C 
ATOM     13  N   UNL A   1      33.229  24.537  23.317  1.00  0.00    -0.340 N 
ATOM     14  C   UNL A   1      33.186  23.183  22.943  1.00  0.00     0.251 C 
ATOM     15  O   UNL A   1      33.043  22.867  21.758  1.00  0.00    -0.272 OA
BRANCH   8  16
ATOM     16  O   UNL A   1      31.404  27.937  24.494  1.00  0.00    -0.477 OA
BRANCH  16  17
ATOM     17  C   UNL A   1      30.239  28.307  23.896  1.00  0.00     0.123 A 
ATOM     18  C   UNL A   1      28.704  26.216  23.956  1.00  0.00     0.048 C 
ATOM     19  C   UNL A   1      29.039  27.631  23.640  1.00  0.00    -0.009 A 
ATOM     20  C   UNL A   1      28.006  28.290  22.924  1.00  0.00     0.007 A 
ATOM     21  C   UNL A   1      28.141  29.594  22.468  1.00  0.00     0.001 A 
ATOM     22  C   UNL A   1      30.348  29.630  23.419  1.00  0.00     0.047 A 
ATOM     23  C   UNL A   1      29.320  30.268  22.718  1.00  0.00     0.004 A 
ENDBRANCH  16  17
ENDBRANCH   8  16
BRANCH  14  24
ATOM     24  C   UNL A   1      33.290  22.093  24.046  1.00  0.00     0.207 C 
ATOM     25  C   UNL A   1      32.441  20.879  23.640  1.00  0.00     0.042 C 
ATOM     26  O   UNL A   1      34.670  21.729  24.186  1.00  0.00    -0.368 OA
ATOM     27  C   UNL A   1      32.707  19.658  24.512  1.00  0.00     0.006 C 
ATOM     28  C   UNL A   1      34.900  20.663  25.098  1.00  0.00     0.161 C 
ATOM     29  C   UNL A   1      34.201  19.400  24.625  1.00  0.00     0.029 C 
ENDBRANCH  14  24
ENDBRANCH   5   8
ENDBRANCH   3   4
ENDBRANCH   2   3
ENDBRANCH   1   2
BRANCH   1  30
ATOM     30  C   UNL A   1      34.124  31.771  27.850  1.00  0.00     0.002 C 
BRANCH  30  31
ATOM     31  C   UNL A   1      34.589  33.220  28.013  1.00  0.00     0.021 C 
BRANCH  31  32
ATOM     32  C   UNL A   1      35.763  33.403  28.964  1.00  0.00     0.116 C 
BRANCH  32  33
ATOM     33  N   UNL A   1      35.491  32.987  30.336  1.00  0.00    -0.352 N 
ATOM     34  C   UNL A   1      35.868  31.826  30.992  1.00  0.00     0.251 C 
ATOM     35  H   UNL A   1      34.965  33.623  30.872  1.00  0.00     0.163 HD
ATOM     36  O   UNL A   1      35.527  31.632  32.145  1.00  0.00    -0.269 OA
BRANCH  34  37
ATOM     37  C   UNL A   1      36.799  30.886  30.321  1.00  0.00     0.039 A 
ATOM     38  C   UNL A   1      36.918  29.596  30.852  1.00  0.00     0.014 A 
ATOM     39  C   UNL A   1      37.684  31.322  29.339  1.00  0.00     0.014 A 
ATOM     40  C   UNL A   1      38.068  28.857  30.595  1.00  0.00     0.010 A 
ATOM     41  C   UNL A   1      38.868  30.636  29.156  1.00  0.00     0.010 A 
ATOM     42  C   UNL A   1      39.087  29.440  29.844  1.00  0.00    -0.014 A 
BRANCH  42  43
ATOM     43  C   UNL A   1      40.448  28.923  29.809  1.00  0.00     0.031 A 
ATOM     44  C   UNL A   1      40.750  27.670  29.097  1.00  0.00     0.074 A 
ATOM     45  C   UNL A   1      41.440  29.622  30.401  1.00  0.00     0.049 A 
ATOM     46  N   UNL A   1      41.778  26.932  29.341  1.00  0.00    -0.248 NA
ATOM     47  C   UNL A   1      39.867  27.120  28.077  1.00  0.00     0.031 C 
ATOM     48  C   UNL A   1      42.880  29.412  30.286  1.00  0.00     0.029 A 
ATOM     49  N   UNL A   1      41.306  30.540  31.439  1.00  0.00    -0.354 N 
ATOM     50  C   UNL A   1      41.842  25.973  28.360  1.00  0.00     0.074 A 
ATOM     51  C   UNL A   1      40.595  26.088  27.638  1.00  0.00     0.031 C 
ATOM     52  C   UNL A   1      43.481  29.960  31.355  1.00  0.00     0.029 A 
ATOM     53  C   UNL A   1      42.438  30.404  32.264  1.00  0.00     0.049 A 
ATOM     54  H   UNL A   1      40.559  31.166  31.572  1.00  0.00     0.167 HD
ATOM     55  C   UNL A   1      42.991  25.261  28.196  1.00  0.00     0.031 A 
ATOM     56  C   UNL A   1      42.290  29.984  33.556  1.00  0.00     0.031 A 
ATOM     57  C   UNL A   1      43.986  25.574  29.220  1.00  0.00     0.049 A 
ATOM     58  C   UNL A   1      42.922  28.635  33.850  1.00  0.00     0.074 A 
ATOM     59  C   UNL A   1      45.130  26.354  29.257  1.00  0.00     0.029 A 
ATOM     60  N   UNL A   1      43.687  25.272  30.538  1.00  0.00    -0.354 N 
ATOM     61  N   UNL A   1      43.505  27.879  32.962  1.00  0.00    -0.248 NA
ATOM     62  C   UNL A   1      42.851  27.992  35.165  1.00  0.00     0.031 C 
ATOM     63  C   UNL A   1      45.501  26.532  30.623  1.00  0.00     0.029 A 
ATOM     64  C   UNL A   1      44.595  25.844  31.408  1.00  0.00     0.049 A 
ATOM     65  H   UNL A   1      42.922  24.719  30.821  1.00  0.00     0.167 HD
ATOM     66  C   UNL A   1      43.840  26.682  33.533  1.00  0.00     0.074 A 
ATOM     67  C   UNL A   1      43.415  26.798  34.915  1.00  0.00     0.031 C 
ATOM     68  C   UNL A   1      44.405  25.658  32.834  1.00  0.00     0.031 A 
BRANCH  55  69
ATOM     69  C   UNL A   1      43.285  24.431  26.972  1.00  0.00    -0.014 A 
ATOM     70  C   UNL A   1      44.281  24.851  26.072  1.00  0.00     0.009 A 
ATOM     71  C   UNL A   1      42.599  23.255  26.626  1.00  0.00     0.009 A 
ATOM     72  C   UNL A   1      44.511  24.191  24.858  1.00  0.00     0.001 A 
ATOM     73  C   UNL A   1      42.792  22.614  25.394  1.00  0.00     0.001 A 
ATOM     74  C   UNL A   1      43.744  23.090  24.505  1.00  0.00     0.000 A 
ENDBRANCH  55  69
BRANCH  56  75
ATOM     75  C   UNL A   1      41.037  30.493  34.187  1.00  0.00    -0.014 A 
ATOM     76  C   UNL A   1      41.032  31.817  34.676  1.00  0.00     0.009 A 
ATOM     77  C   UNL A   1      39.810  29.855  33.969  1.00  0.00     0.009 A 
ATOM     78  C   UNL A   1      39.836  32.527  34.806  1.00  0.00     0.001 A 
ATOM     79  C   UNL A   1      38.611  30.564  34.124  1.00  0.00     0.001 A 
ATOM     80  C   UNL A   1      38.627  31.908  34.499  1.00  0.00     0.000 A 
ENDBRANCH  56  75
BRANCH  68  81
ATOM     81  C   UNL A   1      44.807  24.360  33.469  1.00  0.00    -0.014 A 
ATOM     82  C   UNL A   1      43.877  23.344  33.728  1.00  0.00     0.009 A 
ATOM     83  C   UNL A   1      46.119  24.176  33.943  1.00  0.00     0.009 A 
ATOM     84  C   UNL A   1      44.257  22.169  34.387  1.00  0.00     0.001 A 
ATOM     85  C   UNL A   1      46.497  23.016  34.621  1.00  0.00     0.001 A 
ATOM     86  C   UNL A   1      45.566  22.006  34.833  1.00  0.00     0.000 A 
ENDBRANCH  68  81
ENDBRANCH  42  43
ENDBRANCH  34  37
ENDBRANCH  32  33
ENDBRANCH  31  32
ENDBRANCH  30  31
ENDBRANCH   1  30
TORSDOF 16
ENDMDL
