MODEL 1
REMARK VINA RESULT:     -12.2      0.000      0.000
REMARK SMILES Cc1ccc(-c2cc(Cl)ccc2Cl)c(C(=O)NCCCCCCNC(=O)c2ccc(-c3c4nc(c(-c5ccccc5)c5ccc([nH]5)c(-c5ccccc5)c5nc(c(-c6ccccc6)c6ccc3[nH]6)C=C5)C=C4)cc2)c1
REMARK SMILES IDX 21 1 20 2 19 3 18 4 17 5 15 6 16 7 14 9 1 10 2 11 3 12 75 13
REMARK SMILES IDX 4 14 5 15 6 16 7 17 12 18 8 19 11 20 13 21 9 22 10 23 22 24
REMARK SMILES IDX 23 25 24 26 25 27 26 29 27 30 28 31 74 32 29 33 73 34 30 35
REMARK SMILES IDX 31 36 32 37 67 38 33 39 72 40 66 41 68 42 34 43 71 44 65 45
REMARK SMILES IDX 64 46 35 48 57 49 42 50 56 51 43 52 46 53 55 54 69 55 44 56
REMARK SMILES IDX 45 57 54 59 70 60 47 61 36 62 37 63 41 64 38 65 40 66 39 67
REMARK SMILES IDX 58 68 59 69 63 70 60 71 62 72 61 73 48 74 49 75 53 76 50 77
REMARK SMILES IDX 52 78 51 79
REMARK H PARENT 17 8 24 28 68 47 46 58
REMARK Flexibility Score: inf
ROOT
ATOM      1  C   UNL A   1      34.761  31.313  27.431  1.00  0.00     0.002 C 
ENDROOT
BRANCH   1   2
ATOM      2  C   UNL A   1      34.868  29.788  27.606  1.00  0.00     0.002 C 
BRANCH   2   3
ATOM      3  C   UNL A   1      33.949  28.930  26.717  1.00  0.00     0.021 C 
BRANCH   3   4
ATOM      4  C   UNL A   1      33.001  29.731  25.819  1.00  0.00     0.116 C 
BRANCH   4   5
ATOM      5  N   UNL A   1      33.261  29.456  24.422  1.00  0.00    -0.352 N 
ATOM      6  C   UNL A   1      32.532  28.994  23.357  1.00  0.00     0.251 C 
ATOM      7  O   UNL A   1      33.178  28.946  22.309  1.00  0.00    -0.269 OA
ATOM      8  H   UNL A   1      34.194  29.647  24.176  1.00  0.00     0.163 HD
BRANCH   6   9
ATOM      9  C   UNL A   1      31.072  28.607  23.395  1.00  0.00     0.047 A 
ATOM     10  C   UNL A   1      27.674  30.134  22.491  1.00  0.00     0.044 C 
ATOM     11  C   UNL A   1      28.714  29.151  22.945  1.00  0.00    -0.050 A 
ATOM     12  C   UNL A   1      28.348  27.843  23.242  1.00  0.00     0.004 A 
ATOM     13  C   UNL A   1      30.059  29.532  23.081  1.00  0.00     0.018 A 
ATOM     14  C   UNL A   1      29.312  26.936  23.673  1.00  0.00     0.010 A 
ATOM     15  C   UNL A   1      30.680  27.286  23.756  1.00  0.00    -0.004 A 
BRANCH  15  16
ATOM     16  C   UNL A   1      31.603  26.252  24.276  1.00  0.00     0.003 A 
ATOM     17  C   UNL A   1      32.299  25.438  23.356  1.00  0.00     0.030 A 
ATOM     18  C   UNL A   1      31.836  26.038  25.648  1.00  0.00     0.049 A 
ATOM     19  C   UNL A   1      33.137  24.413  23.792  1.00  0.00     0.041 A 
ATOM     20  C   UNL A   1      32.708  25.029  26.079  1.00  0.00     0.023 A 
ATOM     21  Cl  UNL A   1      31.062  26.989  26.870  1.00  0.00    -0.084 Cl
ATOM     22  Cl  UNL A   1      33.902  23.386  22.642  1.00  0.00    -0.084 Cl
ATOM     23  C   UNL A   1      33.349  24.208  25.151  1.00  0.00     0.022 A 
ENDBRANCH  15  16
ENDBRANCH   6   9
ENDBRANCH   4   5
ENDBRANCH   3   4
ENDBRANCH   2   3
ENDBRANCH   1   2
BRANCH   1  24
ATOM     24  C   UNL A   1      33.985  32.064  28.517  1.00  0.00     0.021 C 
BRANCH  24  25
ATOM     25  C   UNL A   1      34.380  33.528  28.656  1.00  0.00     0.116 C 
BRANCH  25  26
ATOM     26  N   UNL A   1      33.532  34.277  29.579  1.00  0.00    -0.352 N 
ATOM     27  C   UNL A   1      33.682  34.466  30.944  1.00  0.00     0.251 C 
ATOM     28  H   UNL A   1      32.744  34.707  29.175  1.00  0.00     0.163 HD
ATOM     29  O   UNL A   1      32.887  35.137  31.572  1.00  0.00    -0.269 OA
BRANCH  27  30
ATOM     30  C   UNL A   1      34.908  33.947  31.598  1.00  0.00     0.039 A 
ATOM     31  C   UNL A   1      36.045  34.759  31.567  1.00  0.00     0.014 A 
ATOM     32  C   UNL A   1      34.997  32.616  32.001  1.00  0.00     0.014 A 
ATOM     33  C   UNL A   1      37.299  34.168  31.681  1.00  0.00     0.010 A 
ATOM     34  C   UNL A   1      36.240  32.014  32.035  1.00  0.00     0.010 A 
ATOM     35  C   UNL A   1      37.384  32.777  31.787  1.00  0.00    -0.014 A 
BRANCH  35  36
ATOM     36  C   UNL A   1      38.613  32.053  31.488  1.00  0.00     0.031 A 
ATOM     37  C   UNL A   1      38.570  30.776  30.744  1.00  0.00     0.074 A 
ATOM     38  C   UNL A   1      39.809  32.522  31.921  1.00  0.00     0.049 A 
ATOM     39  N   UNL A   1      39.400  29.806  30.950  1.00  0.00    -0.248 NA
ATOM     40  C   UNL A   1      37.571  30.475  29.723  1.00  0.00     0.031 C 
ATOM     41  C   UNL A   1      41.127  31.977  31.587  1.00  0.00     0.029 A 
ATOM     42  N   UNL A   1      40.112  33.480  32.888  1.00  0.00    -0.354 N 
ATOM     43  C   UNL A   1      39.249  28.916  29.917  1.00  0.00     0.074 A 
ATOM     44  C   UNL A   1      38.040  29.321  29.234  1.00  0.00     0.031 C 
ATOM     45  C   UNL A   1      41.992  32.340  32.548  1.00  0.00     0.029 A 
ATOM     46  C   UNL A   1      41.225  32.997  33.589  1.00  0.00     0.049 A 
ATOM     47  H   UNL A   1      39.637  34.328  33.047  1.00  0.00     0.167 HD
ATOM     48  C   UNL A   1      40.231  28.016  29.641  1.00  0.00     0.031 A 
ATOM     49  C   UNL A   1      41.233  32.647  34.909  1.00  0.00     0.031 A 
ATOM     50  C   UNL A   1      41.379  28.128  30.536  1.00  0.00     0.049 A 
ATOM     51  C   UNL A   1      41.691  31.216  35.176  1.00  0.00     0.074 A 
ATOM     52  C   UNL A   1      42.655  28.653  30.401  1.00  0.00     0.029 A 
ATOM     53  N   UNL A   1      41.203  27.901  31.891  1.00  0.00    -0.354 N 
ATOM     54  N   UNL A   1      41.966  30.342  34.248  1.00  0.00    -0.248 NA
ATOM     55  C   UNL A   1      41.747  30.622  36.513  1.00  0.00     0.031 C 
ATOM     56  C   UNL A   1      43.254  28.711  31.691  1.00  0.00     0.029 A 
ATOM     57  C   UNL A   1      42.345  28.215  32.604  1.00  0.00     0.049 A 
ATOM     58  H   UNL A   1      40.372  27.562  32.295  1.00  0.00     0.167 HD
ATOM     59  C   UNL A   1      42.160  29.102  34.810  1.00  0.00     0.074 A 
ATOM     60  C   UNL A   1      42.017  29.334  36.236  1.00  0.00     0.031 C 
ATOM     61  C   UNL A   1      42.363  27.988  34.043  1.00  0.00     0.031 A 
BRANCH  48  62
ATOM     62  C   UNL A   1      40.233  27.218  28.365  1.00  0.00    -0.014 A 
ATOM     63  C   UNL A   1      39.577  25.976  28.309  1.00  0.00     0.009 A 
ATOM     64  C   UNL A   1      40.898  27.631  27.198  1.00  0.00     0.009 A 
ATOM     65  C   UNL A   1      39.673  25.141  27.189  1.00  0.00     0.001 A 
ATOM     66  C   UNL A   1      41.032  26.784  26.090  1.00  0.00     0.001 A 
ATOM     67  C   UNL A   1      40.429  25.531  26.092  1.00  0.00     0.000 A 
ENDBRANCH  48  62
BRANCH  49  68
ATOM     68  C   UNL A   1      40.242  33.368  35.751  1.00  0.00    -0.014 A 
ATOM     69  C   UNL A   1      38.952  32.823  35.891  1.00  0.00     0.009 A 
ATOM     70  C   UNL A   1      40.646  34.373  36.639  1.00  0.00     0.009 A 
ATOM     71  C   UNL A   1      38.135  33.189  36.965  1.00  0.00     0.001 A 
ATOM     72  C   UNL A   1      39.820  34.746  37.705  1.00  0.00     0.001 A 
ATOM     73  C   UNL A   1      38.583  34.129  37.888  1.00  0.00     0.000 A 
ENDBRANCH  49  68
BRANCH  61  74
ATOM     74  C   UNL A   1      42.550  26.564  34.531  1.00  0.00    -0.014 A 
ATOM     75  C   UNL A   1      41.677  25.890  35.391  1.00  0.00     0.009 A 
ATOM     76  C   UNL A   1      43.724  25.859  34.166  1.00  0.00     0.009 A 
ATOM     77  C   UNL A   1      41.915  24.563  35.787  1.00  0.00     0.001 A 
ATOM     78  C   UNL A   1      43.977  24.546  34.571  1.00  0.00     0.001 A 
ATOM     79  C   UNL A   1      43.058  23.888  35.370  1.00  0.00     0.000 A 
ENDBRANCH  61  74
ENDBRANCH  35  36
ENDBRANCH  27  30
ENDBRANCH  25  26
ENDBRANCH  24  25
ENDBRANCH   1  24
TORSDOF 14
ENDMDL
MODEL 2
REMARK VINA RESULT:     -12.1      5.125     10.426
REMARK SMILES Cc1ccc(-c2cc(Cl)ccc2Cl)c(C(=O)NCCCCCCNC(=O)c2ccc(-c3c4nc(c(-c5ccccc5)c5ccc([nH]5)c(-c5ccccc5)c5nc(c(-c6ccccc6)c6ccc3[nH]6)C=C5)C=C4)cc2)c1
REMARK SMILES IDX 21 1 20 2 19 3 18 4 17 5 15 6 16 7 14 9 1 10 2 11 3 12 75 13
REMARK SMILES IDX 4 14 5 15 6 16 7 17 12 18 8 19 11 20 13 21 9 22 10 23 22 24
REMARK SMILES IDX 23 25 24 26 25 27 26 29 27 30 28 31 74 32 29 33 73 34 30 35
REMARK SMILES IDX 31 36 32 37 67 38 33 39 72 40 66 41 68 42 34 43 71 44 65 45
REMARK SMILES IDX 64 46 35 48 57 49 42 50 56 51 43 52 46 53 55 54 69 55 44 56
REMARK SMILES IDX 45 57 54 59 70 60 47 61 36 62 37 63 41 64 38 65 40 66 39 67
REMARK SMILES IDX 58 68 59 69 63 70 60 71 62 72 61 73 48 74 49 75 53 76 50 77
REMARK SMILES IDX 52 78 51 79
REMARK H PARENT 17 8 24 28 68 47 46 58
REMARK Flexibility Score: inf
ROOT
ATOM      1  C   UNL A   1      40.344  22.053  27.229  1.00  0.00     0.002 C 
ENDROOT
BRANCH   1   2
ATOM      2  C   UNL A   1      39.149  22.572  26.410  1.00  0.00     0.002 C 
BRANCH   2   3
ATOM      3  C   UNL A   1      38.274  21.507  25.723  1.00  0.00     0.021 C 
BRANCH   3   4
ATOM      4  C   UNL A   1      36.926  22.023  25.210  1.00  0.00     0.116 C 
BRANCH   4   5
ATOM      5  N   UNL A   1      35.902  21.881  26.223  1.00  0.00    -0.352 N 
ATOM      6  C   UNL A   1      34.643  21.343  26.283  1.00  0.00     0.251 C 
ATOM      7  O   UNL A   1      34.133  21.421  27.402  1.00  0.00    -0.269 OA
ATOM      8  H   UNL A   1      36.180  22.268  27.084  1.00  0.00     0.163 HD
BRANCH   6   9
ATOM      9  C   UNL A   1      33.920  20.672  25.138  1.00  0.00     0.047 A 
ATOM     10  C   UNL A   1      33.527  17.159  23.657  1.00  0.00     0.044 C 
ATOM     11  C   UNL A   1      33.354  18.633  23.881  1.00  0.00    -0.050 A 
ATOM     12  C   UNL A   1      32.412  19.341  23.143  1.00  0.00     0.004 A 
ATOM     13  C   UNL A   1      34.136  19.318  24.827  1.00  0.00     0.018 A 
ATOM     14  C   UNL A   1      32.262  20.710  23.345  1.00  0.00     0.010 A 
ATOM     15  C   UNL A   1      32.997  21.402  24.336  1.00  0.00    -0.004 A 
BRANCH  15  16
ATOM     16  C   UNL A   1      32.787  22.865  24.422  1.00  0.00     0.003 A 
ATOM     17  C   UNL A   1      31.696  23.352  25.176  1.00  0.00     0.030 A 
ATOM     18  C   UNL A   1      33.626  23.808  23.798  1.00  0.00     0.049 A 
ATOM     19  C   UNL A   1      31.421  24.716  25.244  1.00  0.00     0.041 A 
ATOM     20  C   UNL A   1      33.363  25.181  23.900  1.00  0.00     0.023 A 
ATOM     21  Cl  UNL A   1      35.009  23.335  22.870  1.00  0.00    -0.084 Cl
ATOM     22  Cl  UNL A   1      30.033  25.267  26.100  1.00  0.00    -0.084 Cl
ATOM     23  C   UNL A   1      32.253  25.634  24.613  1.00  0.00     0.022 A 
ENDBRANCH  15  16
ENDBRANCH   6   9
ENDBRANCH   4   5
ENDBRANCH   3   4
ENDBRANCH   2   3
ENDBRANCH   1   2
BRANCH   1  24
ATOM     24  C   UNL A   1      40.828  20.639  26.892  1.00  0.00     0.021 C 
BRANCH  24  25
ATOM     25  C   UNL A   1      42.302  20.404  27.196  1.00  0.00     0.116 C 
BRANCH  25  26
ATOM     26  N   UNL A   1      43.043  19.824  26.079  1.00  0.00    -0.352 N 
ATOM     27  C   UNL A   1      43.886  20.448  25.174  1.00  0.00     0.251 C 
ATOM     28  H   UNL A   1      42.926  18.855  25.952  1.00  0.00     0.163 HD
ATOM     29  O   UNL A   1      44.445  19.813  24.301  1.00  0.00    -0.269 OA
BRANCH  27  30
ATOM     30  C   UNL A   1      44.201  21.883  25.376  1.00  0.00     0.039 A 
ATOM     31  C   UNL A   1      45.229  22.195  26.270  1.00  0.00     0.014 A 
ATOM     32  C   UNL A   1      43.352  22.878  24.897  1.00  0.00     0.014 A 
ATOM     33  C   UNL A   1      45.236  23.445  26.882  1.00  0.00     0.010 A 
ATOM     34  C   UNL A   1      43.307  24.090  25.559  1.00  0.00     0.010 A 
ATOM     35  C   UNL A   1      44.194  24.335  26.611  1.00  0.00    -0.014 A 
BRANCH  35  36
ATOM     36  C   UNL A   1      43.885  25.454  27.492  1.00  0.00     0.031 A 
ATOM     37  C   UNL A   1      42.571  26.129  27.417  1.00  0.00     0.074 A 
ATOM     38  C   UNL A   1      44.812  25.916  28.366  1.00  0.00     0.049 A 
ATOM     39  N   UNL A   1      42.408  27.392  27.641  1.00  0.00    -0.248 NA
ATOM     40  C   UNL A   1      41.335  25.440  27.058  1.00  0.00     0.031 C 
ATOM     41  C   UNL A   1      44.603  26.937  29.395  1.00  0.00     0.029 A 
ATOM     42  N   UNL A   1      46.190  25.705  28.423  1.00  0.00    -0.354 N 
ATOM     43  C   UNL A   1      41.059  27.612  27.759  1.00  0.00     0.074 A 
ATOM     44  C   UNL A   1      40.428  26.395  27.297  1.00  0.00     0.031 C 
ATOM     45  C   UNL A   1      45.791  27.484  29.700  1.00  0.00     0.029 A 
ATOM     46  C   UNL A   1      46.764  26.934  28.776  1.00  0.00     0.049 A 
ATOM     47  H   UNL A   1      46.665  24.860  28.250  1.00  0.00     0.167 HD
ATOM     48  C   UNL A   1      40.601  28.736  28.376  1.00  0.00     0.031 A 
ATOM     49  C   UNL A   1      47.596  27.671  27.981  1.00  0.00     0.031 A 
ATOM     50  C   UNL A   1      41.673  29.604  28.854  1.00  0.00     0.049 A 
ATOM     51  C   UNL A   1      47.118  29.098  27.726  1.00  0.00     0.074 A 
ATOM     52  C   UNL A   1      42.213  29.866  30.104  1.00  0.00     0.029 A 
ATOM     53  N   UNL A   1      42.552  30.159  27.937  1.00  0.00    -0.354 N 
ATOM     54  N   UNL A   1      45.975  29.579  28.132  1.00  0.00    -0.248 NA
ATOM     55  C   UNL A   1      47.837  30.051  26.879  1.00  0.00     0.031 C 
ATOM     56  C   UNL A   1      43.412  30.611  29.927  1.00  0.00     0.029 A 
ATOM     57  C   UNL A   1      43.594  30.807  28.572  1.00  0.00     0.049 A 
ATOM     58  H   UNL A   1      42.447  30.098  26.960  1.00  0.00     0.167 HD
ATOM     59  C   UNL A   1      45.763  30.820  27.580  1.00  0.00     0.074 A 
ATOM     60  C   UNL A   1      46.965  31.073  26.806  1.00  0.00     0.031 C 
ATOM     61  C   UNL A   1      44.590  31.499  27.766  1.00  0.00     0.031 A 
BRANCH  48  62
ATOM     62  C   UNL A   1      39.157  28.884  28.772  1.00  0.00    -0.014 A 
ATOM     63  C   UNL A   1      38.220  29.378  27.848  1.00  0.00     0.009 A 
ATOM     64  C   UNL A   1      38.675  28.585  30.057  1.00  0.00     0.009 A 
ATOM     65  C   UNL A   1      36.900  29.663  28.217  1.00  0.00     0.001 A 
ATOM     66  C   UNL A   1      37.367  28.905  30.445  1.00  0.00     0.001 A 
ATOM     67  C   UNL A   1      36.483  29.458  29.525  1.00  0.00     0.000 A 
ENDBRANCH  48  62
BRANCH  49  68
ATOM     68  C   UNL A   1      48.389  26.879  27.005  1.00  0.00    -0.014 A 
ATOM     69  C   UNL A   1      47.866  26.678  25.715  1.00  0.00     0.009 A 
ATOM     70  C   UNL A   1      49.746  26.611  27.229  1.00  0.00     0.009 A 
ATOM     71  C   UNL A   1      48.704  26.333  24.651  1.00  0.00     0.001 A 
ATOM     72  C   UNL A   1      50.579  26.253  26.163  1.00  0.00     0.001 A 
ATOM     73  C   UNL A   1      50.066  26.151  24.871  1.00  0.00     0.000 A 
ENDBRANCH  49  68
BRANCH  61  74
ATOM     74  C   UNL A   1      44.215  32.850  27.185  1.00  0.00    -0.014 A 
ATOM     75  C   UNL A   1      44.134  33.140  25.819  1.00  0.00     0.009 A 
ATOM     76  C   UNL A   1      43.993  33.940  28.062  1.00  0.00     0.009 A 
ATOM     77  C   UNL A   1      43.765  34.417  25.361  1.00  0.00     0.001 A 
ATOM     78  C   UNL A   1      43.643  35.216  27.614  1.00  0.00     0.001 A 
ATOM     79  C   UNL A   1      43.510  35.450  26.256  1.00  0.00     0.000 A 
ENDBRANCH  61  74
ENDBRANCH  35  36
ENDBRANCH  27  30
ENDBRANCH  25  26
ENDBRANCH  24  25
ENDBRANCH   1  24
TORSDOF 14
ENDMDL
MODEL 3
REMARK VINA RESULT:     -12.0      2.339      3.770
REMARK SMILES Cc1ccc(-c2cc(Cl)ccc2Cl)c(C(=O)NCCCCCCNC(=O)c2ccc(-c3c4nc(c(-c5ccccc5)c5ccc([nH]5)c(-c5ccccc5)c5nc(c(-c6ccccc6)c6ccc3[nH]6)C=C5)C=C4)cc2)c1
REMARK SMILES IDX 21 1 20 2 19 3 18 4 17 5 15 6 16 7 14 9 1 10 2 11 3 12 75 13
REMARK SMILES IDX 4 14 5 15 6 16 7 17 12 18 8 19 11 20 13 21 9 22 10 23 22 24
REMARK SMILES IDX 23 25 24 26 25 27 26 29 27 30 28 31 74 32 29 33 73 34 30 35
REMARK SMILES IDX 31 36 32 37 67 38 33 39 72 40 66 41 68 42 34 43 71 44 65 45
REMARK SMILES IDX 64 46 35 48 57 49 42 50 56 51 43 52 46 53 55 54 69 55 44 56
REMARK SMILES IDX 45 57 54 59 70 60 47 61 36 62 37 63 41 64 38 65 40 66 39 67
REMARK SMILES IDX 58 68 59 69 63 70 60 71 62 72 61 73 48 74 49 75 53 76 50 77
REMARK SMILES IDX 52 78 51 79
REMARK H PARENT 17 8 24 28 68 47 46 58
REMARK Flexibility Score: inf
ROOT
ATOM      1  C   UNL A   1      32.023  29.941  26.156  1.00  0.00     0.002 C 
ENDROOT
BRANCH   1   2
ATOM      2  C   UNL A   1      32.315  28.467  26.490  1.00  0.00     0.002 C 
BRANCH   2   3
ATOM      3  C   UNL A   1      33.719  27.947  26.129  1.00  0.00     0.021 C 
BRANCH   3   4
ATOM      4  C   UNL A   1      33.741  26.541  25.522  1.00  0.00     0.116 C 
BRANCH   4   5
ATOM      5  N   UNL A   1      33.886  26.604  24.083  1.00  0.00    -0.352 N 
ATOM      6  C   UNL A   1      33.076  26.918  23.023  1.00  0.00     0.251 C 
ATOM      7  O   UNL A   1      33.653  26.866  21.937  1.00  0.00    -0.269 OA
ATOM      8  H   UNL A   1      34.795  26.360  23.794  1.00  0.00     0.163 HD
BRANCH   6   9
ATOM      9  C   UNL A   1      31.626  27.334  23.121  1.00  0.00     0.047 A 
ATOM     10  C   UNL A   1      29.452  30.383  22.299  1.00  0.00     0.044 C 
ATOM     11  C   UNL A   1      29.861  29.007  22.740  1.00  0.00    -0.050 A 
ATOM     12  C   UNL A   1      28.890  28.072  23.080  1.00  0.00     0.004 A 
ATOM     13  C   UNL A   1      31.216  28.645  22.820  1.00  0.00     0.018 A 
ATOM     14  C   UNL A   1      29.272  26.800  23.499  1.00  0.00     0.010 A 
ATOM     15  C   UNL A   1      30.629  26.401  23.527  1.00  0.00    -0.004 A 
BRANCH  15  16
ATOM     16  C   UNL A   1      30.914  25.041  24.039  1.00  0.00     0.003 A 
ATOM     17  C   UNL A   1      31.390  24.062  23.139  1.00  0.00     0.030 A 
ATOM     18  C   UNL A   1      30.747  24.667  25.386  1.00  0.00     0.049 A 
ATOM     19  C   UNL A   1      31.621  22.753  23.557  1.00  0.00     0.041 A 
ATOM     20  C   UNL A   1      31.015  23.358  25.806  1.00  0.00     0.023 A 
ATOM     21  Cl  UNL A   1      30.196  25.786  26.587  1.00  0.00    -0.084 Cl
ATOM     22  Cl  UNL A   1      32.117  21.565  22.414  1.00  0.00    -0.084 Cl
ATOM     23  C   UNL A   1      31.440  22.397  24.889  1.00  0.00     0.022 A 
ENDBRANCH  15  16
ENDBRANCH   6   9
ENDBRANCH   4   5
ENDBRANCH   3   4
ENDBRANCH   2   3
ENDBRANCH   1   2
BRANCH   1  24
ATOM     24  C   UNL A   1      32.517  30.973  27.174  1.00  0.00     0.021 C 
BRANCH  24  25
ATOM     25  C   UNL A   1      34.022  30.943  27.403  1.00  0.00     0.116 C 
BRANCH  25  26
ATOM     26  N   UNL A   1      34.442  31.624  28.624  1.00  0.00    -0.352 N 
ATOM     27  C   UNL A   1      35.493  31.321  29.475  1.00  0.00     0.251 C 
ATOM     28  H   UNL A   1      33.902  32.407  28.879  1.00  0.00     0.163 HD
ATOM     29  O   UNL A   1      35.721  32.005  30.454  1.00  0.00    -0.269 OA
BRANCH  27  30
ATOM     30  C   UNL A   1      36.419  30.228  29.091  1.00  0.00     0.039 A 
ATOM     31  C   UNL A   1      36.713  29.265  30.061  1.00  0.00     0.014 A 
ATOM     32  C   UNL A   1      37.156  30.293  27.911  1.00  0.00     0.014 A 
ATOM     33  C   UNL A   1      37.904  28.551  29.964  1.00  0.00     0.010 A 
ATOM     34  C   UNL A   1      38.375  29.647  27.851  1.00  0.00     0.010 A 
ATOM     35  C   UNL A   1      38.785  28.846  28.920  1.00  0.00    -0.014 A 
BRANCH  35  36
ATOM     36  C   UNL A   1      40.194  28.477  28.972  1.00  0.00     0.031 A 
ATOM     37  C   UNL A   1      40.654  27.188  28.411  1.00  0.00     0.074 A 
ATOM     38  C   UNL A   1      41.096  29.294  29.569  1.00  0.00     0.049 A 
ATOM     39  N   UNL A   1      41.637  26.509  28.906  1.00  0.00    -0.248 NA
ATOM     40  C   UNL A   1      40.027  26.545  27.260  1.00  0.00     0.031 C 
ATOM     41  C   UNL A   1      42.550  29.119  29.581  1.00  0.00     0.029 A 
ATOM     42  N   UNL A   1      40.912  30.366  30.441  1.00  0.00    -0.354 N 
ATOM     43  C   UNL A   1      41.961  25.540  27.991  1.00  0.00     0.074 A 
ATOM     44  C   UNL A   1      40.878  25.537  27.032  1.00  0.00     0.031 C 
ATOM     45  C   UNL A   1      43.049  29.780  30.638  1.00  0.00     0.029 A 
ATOM     46  C   UNL A   1      41.921  30.268  31.408  1.00  0.00     0.049 A 
ATOM     47  H   UNL A   1      40.211  31.056  30.388  1.00  0.00     0.167 HD
ATOM     48  C   UNL A   1      43.179  24.934  28.039  1.00  0.00     0.031 A 
ATOM     49  C   UNL A   1      41.717  30.033  32.738  1.00  0.00     0.031 A 
ATOM     50  C   UNL A   1      44.023  25.430  29.122  1.00  0.00     0.049 A 
ATOM     51  C   UNL A   1      42.456  28.812  33.279  1.00  0.00     0.074 A 
ATOM     52  C   UNL A   1      45.115  26.281  29.177  1.00  0.00     0.029 A 
ATOM     53  N   UNL A   1      43.606  25.263  30.433  1.00  0.00    -0.354 N 
ATOM     54  N   UNL A   1      43.152  27.984  32.549  1.00  0.00    -0.248 NA
ATOM     55  C   UNL A   1      42.356  28.357  34.667  1.00  0.00     0.031 C 
ATOM     56  C   UNL A   1      45.367  26.600  30.541  1.00  0.00     0.029 A 
ATOM     57  C   UNL A   1      44.434  25.936  31.311  1.00  0.00     0.049 A 
ATOM     58  H   UNL A   1      42.821  24.733  30.704  1.00  0.00     0.167 HD
ATOM     59  C   UNL A   1      43.526  26.895  33.298  1.00  0.00     0.074 A 
ATOM     60  C   UNL A   1      43.006  27.180  34.623  1.00  0.00     0.031 C 
ATOM     61  C   UNL A   1      44.180  25.830  32.742  1.00  0.00     0.031 A 
BRANCH  48  62
ATOM     62  C   UNL A   1      43.679  24.078  26.907  1.00  0.00    -0.014 A 
ATOM     63  C   UNL A   1      44.334  24.669  25.813  1.00  0.00     0.009 A 
ATOM     64  C   UNL A   1      43.497  22.686  26.854  1.00  0.00     0.009 A 
ATOM     65  C   UNL A   1      44.689  23.929  24.679  1.00  0.00     0.001 A 
ATOM     66  C   UNL A   1      43.813  21.946  25.706  1.00  0.00     0.001 A 
ATOM     67  C   UNL A   1      44.397  22.573  24.612  1.00  0.00     0.000 A 
ENDBRANCH  48  62
BRANCH  49  68
ATOM     68  C   UNL A   1      40.408  30.505  33.261  1.00  0.00    -0.014 A 
ATOM     69  C   UNL A   1      40.211  31.887  33.438  1.00  0.00     0.009 A 
ATOM     70  C   UNL A   1      39.291  29.660  33.276  1.00  0.00     0.009 A 
ATOM     71  C   UNL A   1      38.921  32.420  33.508  1.00  0.00     0.001 A 
ATOM     72  C   UNL A   1      38.001  30.197  33.359  1.00  0.00     0.001 A 
ATOM     73  C   UNL A   1      37.816  31.577  33.438  1.00  0.00     0.000 A 
ENDBRANCH  49  68
BRANCH  61  74
ATOM     74  C   UNL A   1      44.612  24.555  33.443  1.00  0.00    -0.014 A 
ATOM     75  C   UNL A   1      43.749  23.538  33.862  1.00  0.00     0.009 A 
ATOM     76  C   UNL A   1      45.978  24.383  33.779  1.00  0.00     0.009 A 
ATOM     77  C   UNL A   1      44.231  22.379  34.494  1.00  0.00     0.001 A 
ATOM     78  C   UNL A   1      46.463  23.242  34.424  1.00  0.00     0.001 A 
ATOM     79  C   UNL A   1      45.586  22.227  34.765  1.00  0.00     0.000 A 
ENDBRANCH  61  74
ENDBRANCH  35  36
ENDBRANCH  27  30
ENDBRANCH  25  26
ENDBRANCH  24  25
ENDBRANCH   1  24
TORSDOF 14
ENDMDL
