MODEL 1
REMARK VINA RESULT:     -11.2      0.000      0.000
REMARK SMILES Cc1cc(C)c2c(OCCCC(=O)NCCCCCCNC(=O)c3ccc(-c4c5nc(c(-c6ccccc6)c6ccc([nH]6)c(-c6ccccc6)c6nc(c(-c7ccccc7)c7ccc4[nH]7)C=C6)C=C5)cc3)nsc2n1
REMARK SMILES IDX 16 1 15 2 14 3 12 4 13 5 11 7 10 8 9 9 8 10 7 11 1 12 2 13
REMARK SMILES IDX 3 14 75 15 4 16 74 17 5 18 6 19 73 20 72 21 17 22 18 23
REMARK SMILES IDX 19 24 20 25 21 26 22 27 23 29 24 30 25 31 71 32 26 33 70 34
REMARK SMILES IDX 27 35 28 36 29 37 64 38 30 39 69 40 63 41 65 42 31 43 68 44
REMARK SMILES IDX 62 45 61 46 32 48 54 49 39 50 53 51 40 52 43 53 52 54 66 55
REMARK SMILES IDX 41 56 42 57 51 59 67 60 44 61 33 62 34 63 38 64 35 65 37 66
REMARK SMILES IDX 36 67 55 68 56 69 60 70 57 71 59 72 58 73 45 74 46 75 50 76
REMARK SMILES IDX 47 77 49 78 48 79
REMARK H PARENT 14 6 21 28 65 47 43 58
REMARK Flexibility Score: inf
ROOT
ATOM      1  C   UNL A   1      33.538  28.990  24.157  1.00  0.00     0.021 C 
ENDROOT
BRANCH   1   2
ATOM      2  C   UNL A   1      33.175  28.829  22.643  1.00  0.00     0.116 C 
BRANCH   2   3
ATOM      3  N   UNL A   1      31.675  28.836  22.333  1.00  0.00    -0.356 N 
ATOM      4  C   UNL A   1      30.393  28.404  22.532  1.00  0.00     0.220 C 
ATOM      5  O   UNL A   1      29.626  29.057  21.790  1.00  0.00    -0.275 OA
ATOM      6  H   UNL A   1      31.589  29.499  21.610  1.00  0.00     0.163 HD
BRANCH   4   7
ATOM      7  C   UNL A   1      29.634  27.416  23.564  1.00  0.00     0.103 C 
BRANCH   7   8
ATOM      8  C   UNL A   1      30.021  26.022  24.250  1.00  0.00     0.051 C 
BRANCH   8   9
ATOM      9  C   UNL A   1      30.141  25.573  25.764  1.00  0.00     0.232 C 
BRANCH   9  10
ATOM     10  O   UNL A   1      31.377  25.433  26.484  1.00  0.00    -0.477 OA
BRANCH  10  11
ATOM     11  C   UNL A   1      32.076  24.270  26.542  1.00  0.00     0.235 A 
ATOM     12  C   UNL A   1      37.447  23.784  25.895  1.00  0.00     0.067 C 
ATOM     13  C   UNL A   1      35.960  23.598  25.754  1.00  0.00     0.039 A 
ATOM     14  C   UNL A   1      35.278  24.254  24.733  1.00  0.00     0.027 A 
ATOM     15  N   UNL A   1      35.333  22.842  26.679  1.00  0.00    -0.240 NA
ATOM     16  C   UNL A   1      33.871  24.287  24.707  1.00  0.00    -0.034 A 
ATOM     17  C   UNL A   1      34.003  23.062  26.719  1.00  0.00     0.147 A 
ATOM     18  C   UNL A   1      32.979  24.711  23.601  1.00  0.00     0.045 C 
ATOM     19  C   UNL A   1      33.276  23.900  25.892  1.00  0.00     0.078 A 
ATOM     20  S   UNL A   1      32.894  22.338  27.790  1.00  0.00    -0.012 S 
ATOM     21  N   UNL A   1      31.649  23.421  27.478  1.00  0.00    -0.153 NA
ENDBRANCH  10  11
ENDBRANCH   9  10
ENDBRANCH   8   9
ENDBRANCH   7   8
ENDBRANCH   4   7
ENDBRANCH   2   3
ENDBRANCH   1   2
BRANCH   1  22
ATOM     22  C   UNL A   1      33.374  27.734  25.044  1.00  0.00     0.002 C 
BRANCH  22  23
ATOM     23  C   UNL A   1      33.771  27.795  26.533  1.00  0.00     0.002 C 
BRANCH  23  24
ATOM     24  C   UNL A   1      33.955  29.164  27.216  1.00  0.00     0.021 C 
BRANCH  24  25
ATOM     25  C   UNL A   1      35.369  29.526  27.655  1.00  0.00     0.116 C 
BRANCH  25  26
ATOM     26  N   UNL A   1      35.489  29.887  29.067  1.00  0.00    -0.352 N 
ATOM     27  C   UNL A   1      36.486  29.566  29.980  1.00  0.00     0.251 C 
ATOM     28  H   UNL A   1      34.755  30.438  29.422  1.00  0.00     0.163 HD
ATOM     29  O   UNL A   1      36.302  29.680  31.170  1.00  0.00    -0.269 OA
BRANCH  27  30
ATOM     30  C   UNL A   1      37.787  29.074  29.474  1.00  0.00     0.039 A 
ATOM     31  C   UNL A   1      38.405  29.666  28.368  1.00  0.00     0.014 A 
ATOM     32  C   UNL A   1      38.390  28.003  30.123  1.00  0.00     0.014 A 
ATOM     33  C   UNL A   1      39.668  29.219  27.984  1.00  0.00     0.010 A 
ATOM     34  C   UNL A   1      39.698  27.688  29.863  1.00  0.00     0.010 A 
ATOM     35  C   UNL A   1      40.318  28.241  28.753  1.00  0.00    -0.014 A 
BRANCH  35  36
ATOM     36  C   UNL A   1      41.679  27.828  28.446  1.00  0.00     0.031 A 
ATOM     37  C   UNL A   1      41.799  26.538  27.720  1.00  0.00     0.074 A 
ATOM     38  C   UNL A   1      42.759  28.613  28.639  1.00  0.00     0.049 A 
ATOM     39  N   UNL A   1      42.258  25.424  28.183  1.00  0.00    -0.248 NA
ATOM     40  C   UNL A   1      41.241  26.441  26.363  1.00  0.00     0.031 C 
ATOM     41  C   UNL A   1      42.820  30.021  29.055  1.00  0.00     0.029 A 
ATOM     42  N   UNL A   1      44.063  28.321  28.394  1.00  0.00    -0.354 N 
ATOM     43  C   UNL A   1      42.217  24.519  27.130  1.00  0.00     0.074 A 
ATOM     44  C   UNL A   1      41.446  25.150  26.086  1.00  0.00     0.031 C 
ATOM     45  C   UNL A   1      44.054  30.515  28.806  1.00  0.00     0.029 A 
ATOM     46  C   UNL A   1      44.913  29.418  28.404  1.00  0.00     0.049 A 
ATOM     47  H   UNL A   1      44.381  27.405  28.222  1.00  0.00     0.167 HD
ATOM     48  C   UNL A   1      43.005  23.409  27.120  1.00  0.00     0.031 A 
ATOM     49  C   UNL A   1      46.230  29.417  28.095  1.00  0.00     0.031 A 
ATOM     50  C   UNL A   1      43.581  23.154  28.416  1.00  0.00     0.049 A 
ATOM     51  C   UNL A   1      46.713  28.029  28.258  1.00  0.00     0.074 A 
ATOM     52  C   UNL A   1      43.072  22.879  29.670  1.00  0.00     0.029 A 
ATOM     53  N   UNL A   1      44.876  23.569  28.618  1.00  0.00    -0.354 N 
ATOM     54  N   UNL A   1      46.775  27.424  29.409  1.00  0.00    -0.248 NA
ATOM     55  C   UNL A   1      46.715  27.159  27.095  1.00  0.00     0.031 C 
ATOM     56  C   UNL A   1      43.911  23.604  30.570  1.00  0.00     0.029 A 
ATOM     57  C   UNL A   1      44.917  24.220  29.823  1.00  0.00     0.049 A 
ATOM     58  H   UNL A   1      45.635  23.424  28.007  1.00  0.00     0.167 HD
ATOM     59  C   UNL A   1      46.379  26.122  29.146  1.00  0.00     0.074 A 
ATOM     60  C   UNL A   1      46.465  25.990  27.692  1.00  0.00     0.031 C 
ATOM     61  C   UNL A   1      45.756  25.367  30.098  1.00  0.00     0.031 A 
BRANCH  48  62
ATOM     62  C   UNL A   1      43.572  22.791  25.867  1.00  0.00    -0.014 A 
ATOM     63  C   UNL A   1      43.729  21.394  25.814  1.00  0.00     0.009 A 
ATOM     64  C   UNL A   1      44.212  23.539  24.861  1.00  0.00     0.009 A 
ATOM     65  C   UNL A   1      44.543  20.788  24.849  1.00  0.00     0.001 A 
ATOM     66  C   UNL A   1      44.991  22.933  23.871  1.00  0.00     0.001 A 
ATOM     67  C   UNL A   1      45.180  21.559  23.883  1.00  0.00     0.000 A 
ENDBRANCH  48  62
BRANCH  49  68
ATOM     68  C   UNL A   1      47.023  30.454  27.405  1.00  0.00    -0.014 A 
ATOM     69  C   UNL A   1      46.398  31.605  26.899  1.00  0.00     0.009 A 
ATOM     70  C   UNL A   1      48.425  30.460  27.512  1.00  0.00     0.009 A 
ATOM     71  C   UNL A   1      47.147  32.743  26.570  1.00  0.00     0.001 A 
ATOM     72  C   UNL A   1      49.173  31.596  27.182  1.00  0.00     0.001 A 
ATOM     73  C   UNL A   1      48.530  32.745  26.730  1.00  0.00     0.000 A 
ENDBRANCH  49  68
BRANCH  61  74
ATOM     74  C   UNL A   1      45.710  25.903  31.511  1.00  0.00    -0.014 A 
ATOM     75  C   UNL A   1      44.546  26.435  32.094  1.00  0.00     0.009 A 
ATOM     76  C   UNL A   1      46.833  25.713  32.330  1.00  0.00     0.009 A 
ATOM     77  C   UNL A   1      44.516  26.783  33.450  1.00  0.00     0.001 A 
ATOM     78  C   UNL A   1      46.797  26.041  33.687  1.00  0.00     0.001 A 
ATOM     79  C   UNL A   1      45.640  26.578  34.247  1.00  0.00     0.000 A 
ENDBRANCH  61  74
ENDBRANCH  35  36
ENDBRANCH  27  30
ENDBRANCH  25  26
ENDBRANCH  24  25
ENDBRANCH  23  24
ENDBRANCH  22  23
ENDBRANCH   1  22
TORSDOF 17
ENDMDL
MODEL 2
REMARK VINA RESULT:     -11.0      2.941      7.741
REMARK SMILES Cc1cc(C)c2c(OCCCC(=O)NCCCCCCNC(=O)c3ccc(-c4c5nc(c(-c6ccccc6)c6ccc([nH]6)c(-c6ccccc6)c6nc(c(-c7ccccc7)c7ccc4[nH]7)C=C6)C=C5)cc3)nsc2n1
REMARK SMILES IDX 16 1 15 2 14 3 12 4 13 5 11 7 10 8 9 9 8 10 7 11 1 12 2 13
REMARK SMILES IDX 3 14 75 15 4 16 74 17 5 18 6 19 73 20 72 21 17 22 18 23
REMARK SMILES IDX 19 24 20 25 21 26 22 27 23 29 24 30 25 31 71 32 26 33 70 34
REMARK SMILES IDX 27 35 28 36 29 37 64 38 30 39 69 40 63 41 65 42 31 43 68 44
REMARK SMILES IDX 62 45 61 46 32 48 54 49 39 50 53 51 40 52 43 53 52 54 66 55
REMARK SMILES IDX 41 56 42 57 51 59 67 60 44 61 33 62 34 63 38 64 35 65 37 66
REMARK SMILES IDX 36 67 55 68 56 69 60 70 57 71 59 72 58 73 45 74 46 75 50 76
REMARK SMILES IDX 47 77 49 78 48 79
REMARK H PARENT 14 6 21 28 65 47 43 58
REMARK Flexibility Score: inf
ROOT
ATOM      1  C   UNL A   1      39.549  21.972  26.699  1.00  0.00     0.021 C 
ENDROOT
BRANCH   1   2
ATOM      2  C   UNL A   1      38.415  22.297  25.670  1.00  0.00     0.116 C 
BRANCH   2   3
ATOM      3  N   UNL A   1      37.496  21.121  25.325  1.00  0.00    -0.356 N 
ATOM      4  C   UNL A   1      36.265  20.567  25.105  1.00  0.00     0.220 C 
ATOM      5  O   UNL A   1      36.415  19.373  24.760  1.00  0.00    -0.275 OA
ATOM      6  H   UNL A   1      38.118  20.368  25.194  1.00  0.00     0.163 HD
BRANCH   4   7
ATOM      7  C   UNL A   1      34.739  21.095  25.024  1.00  0.00     0.103 C 
BRANCH   7   8
ATOM      8  C   UNL A   1      34.016  22.272  24.215  1.00  0.00     0.051 C 
BRANCH   8   9
ATOM      9  C   UNL A   1      34.569  23.417  23.270  1.00  0.00     0.232 C 
BRANCH   9  10
ATOM     10  O   UNL A   1      33.814  24.057  22.228  1.00  0.00    -0.477 OA
BRANCH  10  11
ATOM     11  C   UNL A   1      33.242  25.282  22.370  1.00  0.00     0.235 A 
ATOM     12  C   UNL A   1      31.594  27.466  27.062  1.00  0.00     0.067 C 
ATOM     13  C   UNL A   1      31.627  26.967  25.642  1.00  0.00     0.039 A 
ATOM     14  C   UNL A   1      31.122  25.704  25.345  1.00  0.00     0.027 A 
ATOM     15  N   UNL A   1      32.213  27.752  24.715  1.00  0.00    -0.240 NA
ATOM     16  C   UNL A   1      31.340  25.115  24.085  1.00  0.00    -0.034 A 
ATOM     17  C   UNL A   1      32.559  27.077  23.600  1.00  0.00     0.147 A 
ATOM     18  C   UNL A   1      30.692  23.915  23.503  1.00  0.00     0.045 C 
ATOM     19  C   UNL A   1      32.312  25.742  23.330  1.00  0.00     0.078 A 
ATOM     20  S   UNL A   1      33.365  27.716  22.244  1.00  0.00    -0.012 S 
ATOM     21  N   UNL A   1      33.765  26.225  21.585  1.00  0.00    -0.153 NA
ENDBRANCH  10  11
ENDBRANCH   9  10
ENDBRANCH   8   9
ENDBRANCH   7   8
ENDBRANCH   4   7
ENDBRANCH   2   3
ENDBRANCH   1   2
BRANCH   1  22
ATOM     22  C   UNL A   1      40.845  21.354  26.126  1.00  0.00     0.002 C 
BRANCH  22  23
ATOM     23  C   UNL A   1      41.438  20.087  26.775  1.00  0.00     0.002 C 
BRANCH  23  24
ATOM     24  C   UNL A   1      42.018  18.974  25.880  1.00  0.00     0.021 C 
BRANCH  24  25
ATOM     25  C   UNL A   1      43.506  18.680  26.030  1.00  0.00     0.116 C 
BRANCH  25  26
ATOM     26  N   UNL A   1      44.259  18.723  24.777  1.00  0.00    -0.352 N 
ATOM     27  C   UNL A   1      44.642  19.819  24.013  1.00  0.00     0.251 C 
ATOM     28  H   UNL A   1      44.534  17.847  24.423  1.00  0.00     0.163 HD
ATOM     29  O   UNL A   1      44.995  19.684  22.863  1.00  0.00    -0.269 OA
BRANCH  27  30
ATOM     30  C   UNL A   1      44.610  21.165  24.627  1.00  0.00     0.039 A 
ATOM     31  C   UNL A   1      43.738  22.153  24.159  1.00  0.00     0.014 A 
ATOM     32  C   UNL A   1      45.468  21.433  25.686  1.00  0.00     0.014 A 
ATOM     33  C   UNL A   1      43.687  23.376  24.826  1.00  0.00     0.010 A 
ATOM     34  C   UNL A   1      45.291  22.557  26.449  1.00  0.00     0.010 A 
ATOM     35  C   UNL A   1      44.454  23.561  25.987  1.00  0.00    -0.014 A 
BRANCH  35  36
ATOM     36  C   UNL A   1      44.347  24.784  26.769  1.00  0.00     0.031 A 
ATOM     37  C   UNL A   1      45.452  25.757  26.577  1.00  0.00     0.074 A 
ATOM     38  C   UNL A   1      43.256  25.115  27.491  1.00  0.00     0.049 A 
ATOM     39  N   UNL A   1      46.373  26.066  27.426  1.00  0.00    -0.248 NA
ATOM     40  C   UNL A   1      45.624  26.372  25.252  1.00  0.00     0.031 C 
ATOM     41  C   UNL A   1      41.953  24.441  27.564  1.00  0.00     0.029 A 
ATOM     42  N   UNL A   1      43.060  26.220  28.256  1.00  0.00    -0.354 N 
ATOM     43  C   UNL A   1      47.148  27.047  26.819  1.00  0.00     0.074 A 
ATOM     44  C   UNL A   1      46.738  27.087  25.437  1.00  0.00     0.031 C 
ATOM     45  C   UNL A   1      41.045  25.266  28.131  1.00  0.00     0.029 A 
ATOM     46  C   UNL A   1      41.742  26.435  28.633  1.00  0.00     0.049 A 
ATOM     47  H   UNL A   1      43.792  26.821  28.521  1.00  0.00     0.167 HD
ATOM     48  C   UNL A   1      47.914  27.899  27.555  1.00  0.00     0.031 A 
ATOM     49  C   UNL A   1      41.263  27.506  29.307  1.00  0.00     0.031 A 
ATOM     50  C   UNL A   1      48.060  27.444  28.914  1.00  0.00     0.049 A 
ATOM     51  C   UNL A   1      42.409  28.123  30.011  1.00  0.00     0.074 A 
ATOM     52  C   UNL A   1      48.595  26.320  29.513  1.00  0.00     0.029 A 
ATOM     53  N   UNL A   1      47.242  28.019  29.858  1.00  0.00    -0.354 N 
ATOM     54  N   UNL A   1      43.047  27.540  30.985  1.00  0.00    -0.248 NA
ATOM     55  C   UNL A   1      43.126  29.198  29.349  1.00  0.00     0.031 C 
ATOM     56  C   UNL A   1      47.702  26.018  30.584  1.00  0.00     0.029 A 
ATOM     57  C   UNL A   1      46.717  27.008  30.620  1.00  0.00     0.049 A 
ATOM     58  H   UNL A   1      47.065  28.982  29.966  1.00  0.00     0.167 HD
ATOM     59  C   UNL A   1      44.379  27.859  30.774  1.00  0.00     0.074 A 
ATOM     60  C   UNL A   1      44.354  28.970  29.823  1.00  0.00     0.031 C 
ATOM     61  C   UNL A   1      45.379  27.015  31.169  1.00  0.00     0.031 A 
BRANCH  48  62
ATOM     62  C   UNL A   1      48.193  29.329  27.165  1.00  0.00    -0.014 A 
ATOM     63  C   UNL A   1      49.527  29.775  27.146  1.00  0.00     0.009 A 
ATOM     64  C   UNL A   1      47.194  30.316  27.091  1.00  0.00     0.009 A 
ATOM     65  C   UNL A   1      49.838  31.140  27.128  1.00  0.00     0.001 A 
ATOM     66  C   UNL A   1      47.503  31.679  27.032  1.00  0.00     0.001 A 
ATOM     67  C   UNL A   1      48.826  32.092  27.079  1.00  0.00     0.000 A 
ENDBRANCH  48  62
BRANCH  49  68
ATOM     68  C   UNL A   1      39.963  28.192  29.160  1.00  0.00    -0.014 A 
ATOM     69  C   UNL A   1      39.258  28.626  30.293  1.00  0.00     0.009 A 
ATOM     70  C   UNL A   1      39.564  28.688  27.906  1.00  0.00     0.009 A 
ATOM     71  C   UNL A   1      38.231  29.571  30.181  1.00  0.00     0.001 A 
ATOM     72  C   UNL A   1      38.536  29.631  27.794  1.00  0.00     0.001 A 
ATOM     73  C   UNL A   1      37.883  30.087  28.935  1.00  0.00     0.000 A 
ENDBRANCH  49  68
BRANCH  61  74
ATOM     74  C   UNL A   1      45.008  25.837  32.042  1.00  0.00    -0.014 A 
ATOM     75  C   UNL A   1      44.498  24.631  31.528  1.00  0.00     0.009 A 
ATOM     76  C   UNL A   1      45.340  25.890  33.403  1.00  0.00     0.009 A 
ATOM     77  C   UNL A   1      44.309  23.519  32.359  1.00  0.00     0.001 A 
ATOM     78  C   UNL A   1      45.170  24.775  34.228  1.00  0.00     0.001 A 
ATOM     79  C   UNL A   1      44.653  23.591  33.707  1.00  0.00     0.000 A 
ENDBRANCH  61  74
ENDBRANCH  35  36
ENDBRANCH  27  30
ENDBRANCH  25  26
ENDBRANCH  24  25
ENDBRANCH  23  24
ENDBRANCH  22  23
ENDBRANCH   1  22
TORSDOF 17
ENDMDL
MODEL 3
REMARK VINA RESULT:     -11.0      3.173      7.701
REMARK SMILES Cc1cc(C)c2c(OCCCC(=O)NCCCCCCNC(=O)c3ccc(-c4c5nc(c(-c6ccccc6)c6ccc([nH]6)c(-c6ccccc6)c6nc(c(-c7ccccc7)c7ccc4[nH]7)C=C6)C=C5)cc3)nsc2n1
REMARK SMILES IDX 16 1 15 2 14 3 12 4 13 5 11 7 10 8 9 9 8 10 7 11 1 12 2 13
REMARK SMILES IDX 3 14 75 15 4 16 74 17 5 18 6 19 73 20 72 21 17 22 18 23
REMARK SMILES IDX 19 24 20 25 21 26 22 27 23 29 24 30 25 31 71 32 26 33 70 34
REMARK SMILES IDX 27 35 28 36 29 37 64 38 30 39 69 40 63 41 65 42 31 43 68 44
REMARK SMILES IDX 62 45 61 46 32 48 54 49 39 50 53 51 40 52 43 53 52 54 66 55
REMARK SMILES IDX 41 56 42 57 51 59 67 60 44 61 33 62 34 63 38 64 35 65 37 66
REMARK SMILES IDX 36 67 55 68 56 69 60 70 57 71 59 72 58 73 45 74 46 75 50 76
REMARK SMILES IDX 47 77 49 78 48 79
REMARK H PARENT 14 6 21 28 65 47 43 58
REMARK Flexibility Score: inf
ROOT
ATOM      1  C   UNL A   1      34.809  23.244  26.163  1.00  0.00     0.021 C 
ENDROOT
BRANCH   1   2
ATOM      2  C   UNL A   1      34.737  21.860  26.890  1.00  0.00     0.116 C 
BRANCH   2   3
ATOM      3  N   UNL A   1      34.192  20.709  26.039  1.00  0.00    -0.356 N 
ATOM      4  C   UNL A   1      33.513  20.215  24.959  1.00  0.00     0.220 C 
ATOM      5  O   UNL A   1      33.589  18.965  24.972  1.00  0.00    -0.275 OA
ATOM      6  H   UNL A   1      34.482  19.902  26.522  1.00  0.00     0.163 HD
BRANCH   4   7
ATOM      7  C   UNL A   1      32.805  20.822  23.638  1.00  0.00     0.103 C 
BRANCH   7   8
ATOM      8  C   UNL A   1      32.430  22.305  23.166  1.00  0.00     0.051 C 
BRANCH   8   9
ATOM      9  C   UNL A   1      33.212  23.385  22.311  1.00  0.00     0.232 C 
BRANCH   9  10
ATOM     10  O   UNL A   1      34.037  24.426  22.858  1.00  0.00    -0.477 OA
BRANCH  10  11
ATOM     11  C   UNL A   1      33.641  25.723  22.941  1.00  0.00     0.235 A 
ATOM     12  C   UNL A   1      34.549  29.033  27.150  1.00  0.00     0.067 C 
ATOM     13  C   UNL A   1      33.872  28.255  26.054  1.00  0.00     0.039 A 
ATOM     14  C   UNL A   1      33.252  27.045  26.350  1.00  0.00     0.027 A 
ATOM     15  N   UNL A   1      33.953  28.742  24.798  1.00  0.00    -0.240 NA
ATOM     16  C   UNL A   1      32.812  26.186  25.325  1.00  0.00    -0.034 A 
ATOM     17  C   UNL A   1      33.693  27.811  23.858  1.00  0.00     0.147 A 
ATOM     18  C   UNL A   1      31.930  24.999  25.432  1.00  0.00     0.045 C 
ATOM     19  C   UNL A   1      33.310  26.499  24.075  1.00  0.00     0.078 A 
ATOM     20  S   UNL A   1      33.754  28.036  22.172  1.00  0.00    -0.012 S 
ATOM     21  N   UNL A   1      33.740  26.400  21.796  1.00  0.00    -0.153 NA
ENDBRANCH  10  11
ENDBRANCH   9  10
ENDBRANCH   8   9
ENDBRANCH   7   8
ENDBRANCH   4   7
ENDBRANCH   2   3
ENDBRANCH   1   2
BRANCH   1  22
ATOM     22  C   UNL A   1      36.145  23.590  25.466  1.00  0.00     0.002 C 
BRANCH  22  23
ATOM     23  C   UNL A   1      36.760  22.595  24.459  1.00  0.00     0.002 C 
BRANCH  23  24
ATOM     24  C   UNL A   1      37.831  21.595  24.936  1.00  0.00     0.021 C 
BRANCH  24  25
ATOM     25  C   UNL A   1      38.763  22.066  26.046  1.00  0.00     0.116 C 
BRANCH  25  26
ATOM     26  N   UNL A   1      40.169  21.724  25.840  1.00  0.00    -0.352 N 
ATOM     27  C   UNL A   1      41.304  22.506  26.015  1.00  0.00     0.251 C 
ATOM     28  H   UNL A   1      40.335  20.805  25.531  1.00  0.00     0.163 HD
ATOM     29  O   UNL A   1      42.363  22.187  25.524  1.00  0.00    -0.269 OA
BRANCH  27  30
ATOM     30  C   UNL A   1      41.201  23.747  26.814  1.00  0.00     0.039 A 
ATOM     31  C   UNL A   1      42.054  23.986  27.895  1.00  0.00     0.014 A 
ATOM     32  C   UNL A   1      40.233  24.682  26.466  1.00  0.00     0.014 A 
ATOM     33  C   UNL A   1      41.971  25.207  28.562  1.00  0.00     0.010 A 
ATOM     34  C   UNL A   1      40.271  25.944  26.997  1.00  0.00     0.010 A 
ATOM     35  C   UNL A   1      41.088  26.192  28.090  1.00  0.00    -0.014 A 
BRANCH  35  36
ATOM     36  C   UNL A   1      41.050  27.516  28.693  1.00  0.00     0.031 A 
ATOM     37  C   UNL A   1      41.985  28.507  28.103  1.00  0.00     0.074 A 
ATOM     38  C   UNL A   1      40.129  27.894  29.604  1.00  0.00     0.049 A 
ATOM     39  N   UNL A   1      43.044  28.999  28.650  1.00  0.00    -0.248 NA
ATOM     40  C   UNL A   1      41.788  28.911  26.703  1.00  0.00     0.031 C 
ATOM     41  C   UNL A   1      38.948  27.168  30.086  1.00  0.00     0.029 A 
ATOM     42  N   UNL A   1      40.013  29.095  30.229  1.00  0.00    -0.354 N 
ATOM     43  C   UNL A   1      43.562  29.914  27.741  1.00  0.00     0.074 A 
ATOM     44  C   UNL A   1      42.842  29.708  26.508  1.00  0.00     0.031 C 
ATOM     45  C   UNL A   1      38.122  28.020  30.734  1.00  0.00     0.029 A 
ATOM     46  C   UNL A   1      38.804  29.292  30.881  1.00  0.00     0.049 A 
ATOM     47  H   UNL A   1      40.728  29.772  30.221  1.00  0.00     0.167 HD
ATOM     48  C   UNL A   1      44.394  30.915  28.140  1.00  0.00     0.031 A 
ATOM     49  C   UNL A   1      38.396  30.428  31.492  1.00  0.00     0.031 A 
ATOM     50  C   UNL A   1      44.893  30.692  29.474  1.00  0.00     0.049 A 
ATOM     51  C   UNL A   1      39.610  31.214  31.803  1.00  0.00     0.074 A 
ATOM     52  C   UNL A   1      45.654  29.711  30.077  1.00  0.00     0.029 A 
ATOM     53  N   UNL A   1      44.265  31.363  30.496  1.00  0.00    -0.354 N 
ATOM     54  N   UNL A   1      40.508  30.832  32.665  1.00  0.00    -0.248 NA
ATOM     55  C   UNL A   1      40.051  32.209  30.840  1.00  0.00     0.031 C 
ATOM     56  C   UNL A   1      45.066  29.534  31.365  1.00  0.00     0.029 A 
ATOM     57  C   UNL A   1      44.028  30.459  31.498  1.00  0.00     0.049 A 
ATOM     58  H   UNL A   1      44.029  32.320  30.506  1.00  0.00     0.167 HD
ATOM     59  C   UNL A   1      41.719  31.188  32.093  1.00  0.00     0.074 A 
ATOM     60  C   UNL A   1      41.371  32.130  31.030  1.00  0.00     0.031 C 
ATOM     61  C   UNL A   1      42.858  30.478  32.349  1.00  0.00     0.031 A 
BRANCH  48  62
ATOM     62  C   UNL A   1      44.440  32.277  27.496  1.00  0.00    -0.014 A 
ATOM     63  C   UNL A   1      45.417  32.527  26.514  1.00  0.00     0.009 A 
ATOM     64  C   UNL A   1      43.756  33.395  28.006  1.00  0.00     0.009 A 
ATOM     65  C   UNL A   1      45.740  33.832  26.123  1.00  0.00     0.001 A 
ATOM     66  C   UNL A   1      44.048  34.697  27.587  1.00  0.00     0.001 A 
ATOM     67  C   UNL A   1      45.061  34.917  26.666  1.00  0.00     0.000 A 
ENDBRANCH  48  62
BRANCH  49  68
ATOM     68  C   UNL A   1      37.039  31.006  31.569  1.00  0.00    -0.014 A 
ATOM     69  C   UNL A   1      36.561  31.534  32.779  1.00  0.00     0.009 A 
ATOM     70  C   UNL A   1      36.334  31.315  30.392  1.00  0.00     0.009 A 
ATOM     71  C   UNL A   1      35.452  32.390  32.800  1.00  0.00     0.001 A 
ATOM     72  C   UNL A   1      35.226  32.168  30.414  1.00  0.00     0.001 A 
ATOM     73  C   UNL A   1      34.797  32.722  31.617  1.00  0.00     0.000 A 
ENDBRANCH  49  68
BRANCH  61  74
ATOM     74  C   UNL A   1      42.811  29.435  33.444  1.00  0.00    -0.014 A 
ATOM     75  C   UNL A   1      42.361  28.119  33.233  1.00  0.00     0.009 A 
ATOM     76  C   UNL A   1      43.394  29.745  34.681  1.00  0.00     0.009 A 
ATOM     77  C   UNL A   1      42.474  27.151  34.239  1.00  0.00     0.001 A 
ATOM     78  C   UNL A   1      43.526  28.775  35.677  1.00  0.00     0.001 A 
ATOM     79  C   UNL A   1      43.064  27.479  35.457  1.00  0.00     0.000 A 
ENDBRANCH  61  74
ENDBRANCH  35  36
ENDBRANCH  27  30
ENDBRANCH  25  26
ENDBRANCH  24  25
ENDBRANCH  23  24
ENDBRANCH  22  23
ENDBRANCH   1  22
TORSDOF 17
ENDMDL
