MODEL 1
REMARK VINA RESULT:     -10.6      0.000      0.000
REMARK SMILES CCN(CC(C)(C)O)C(=O)Nc1ccc(C(=O)NCCCCCCNC(=O)c2ccc(-c3c4nc(c(-c5ccccc5)c5ccc([nH]5)c(-c5ccccc5)c5nc(c(-c6ccccc6)c6ccc3[nH]6)C=C5)C=C4)cc2)c(O)c1
REMARK SMILES IDX 20 1 19 2 18 3 16 4 17 5 15 7 12 8 13 9 78 10 14 11 76 12
REMARK SMILES IDX 11 13 9 14 10 15 3 17 2 18 1 19 4 20 5 21 6 22 7 23 8 24
REMARK SMILES IDX 77 26 21 28 22 29 23 30 24 31 25 32 26 33 27 35 28 36 29 37
REMARK SMILES IDX 75 38 30 39 74 40 31 41 32 42 33 43 68 44 34 45 73 46 67 47
REMARK SMILES IDX 69 48 35 49 72 50 66 51 65 52 36 54 58 55 43 56 57 57 44 58
REMARK SMILES IDX 47 59 56 60 70 61 45 62 46 63 55 65 71 66 48 67 37 68 38 69
REMARK SMILES IDX 42 70 39 71 41 72 40 73 59 74 60 75 64 76 61 77 63 78 62 79
REMARK SMILES IDX 49 80 50 81 54 82 51 83 53 84 52 85
REMARK H PARENT 18 6 11 16 8 25 77 27 25 34 69 53 47 64
REMARK Flexibility Score: inf
ROOT
ATOM      1  C   UNL A   1      34.284  21.171  24.342  1.00  0.00     0.021 C 
ENDROOT
BRANCH   1   2
ATOM      2  C   UNL A   1      32.928  21.286  25.014  1.00  0.00     0.116 C 
BRANCH   2   3
ATOM      3  N   UNL A   1      32.974  21.438  26.449  1.00  0.00    -0.352 N 
ATOM      4  C   UNL A   1      32.643  22.544  27.184  1.00  0.00     0.255 C 
ATOM      5  O   UNL A   1      32.628  22.475  28.410  1.00  0.00    -0.269 OA
ATOM      6  H   UNL A   1      33.278  20.652  26.958  1.00  0.00     0.163 HD
BRANCH   4   7
ATOM      7  C   UNL A   1      32.475  23.852  26.516  1.00  0.00     0.081 A 
ATOM      8  C   UNL A   1      31.858  26.512  25.825  1.00  0.00     0.046 A 
ATOM      9  C   UNL A   1      30.901  25.557  26.033  1.00  0.00     0.027 A 
ATOM     10  C   UNL A   1      33.173  26.062  25.741  1.00  0.00     0.073 A 
ATOM     11  C   UNL A   1      31.164  24.266  26.442  1.00  0.00     0.020 A 
ATOM     12  C   UNL A   1      33.467  24.716  26.035  1.00  0.00     0.130 A 
BRANCH   8  13
ATOM     13  N   UNL A   1      31.502  27.843  25.588  1.00  0.00    -0.308 N 
ATOM     14  C   UNL A   1      31.243  28.656  24.531  1.00  0.00     0.321 C 
ATOM     15  O   UNL A   1      31.286  29.859  24.837  1.00  0.00    -0.248 OA
ATOM     16  H   UNL A   1      31.414  28.336  26.435  1.00  0.00     0.171 HD
BRANCH  14  17
ATOM     17  N   UNL A   1      30.854  28.284  23.258  1.00  0.00    -0.322 N 
BRANCH  17  18
ATOM     18  C   UNL A   1      30.465  29.408  22.382  1.00  0.00     0.118 C 
ATOM     19  C   UNL A   1      28.946  29.606  22.318  1.00  0.00     0.027 C 
ENDBRANCH  17  18
BRANCH  17  20
ATOM     20  C   UNL A   1      30.605  26.963  22.630  1.00  0.00     0.155 C 
BRANCH  20  21
ATOM     21  C   UNL A   1      31.855  26.223  21.966  1.00  0.00     0.077 C 
ATOM     22  C   UNL A   1      33.248  26.898  22.046  1.00  0.00     0.043 C 
ATOM     23  C   UNL A   1      31.942  24.791  22.540  1.00  0.00     0.043 C 
BRANCH  21  24
ATOM     24  O   UNL A   1      31.588  26.086  20.557  1.00  0.00    -0.389 OA
ATOM     25  H   UNL A   1      30.671  25.797  20.429  1.00  0.00     0.211 HD
ENDBRANCH  21  24
ENDBRANCH  20  21
ENDBRANCH  17  20
ENDBRANCH  14  17
ENDBRANCH   8  13
BRANCH  12  26
ATOM     26  O   UNL A   1      34.746  24.304  25.783  1.00  0.00    -0.507 OA
ATOM     27  H   UNL A   1      34.899  23.558  25.238  1.00  0.00     0.293 HD
ENDBRANCH  12  26
ENDBRANCH   4   7
ENDBRANCH   2   3
ENDBRANCH   1   2
BRANCH   1  28
ATOM     28  C   UNL A   1      35.486  20.924  25.256  1.00  0.00     0.002 C 
BRANCH  28  29
ATOM     29  C   UNL A   1      36.889  21.121  24.671  1.00  0.00     0.002 C 
BRANCH  29  30
ATOM     30  C   UNL A   1      37.913  20.014  24.911  1.00  0.00     0.021 C 
BRANCH  30  31
ATOM     31  C   UNL A   1      39.078  20.384  25.811  1.00  0.00     0.116 C 
BRANCH  31  32
ATOM     32  N   UNL A   1      40.104  19.359  25.839  1.00  0.00    -0.352 N 
ATOM     33  C   UNL A   1      41.443  19.489  26.117  1.00  0.00     0.251 C 
ATOM     34  H   UNL A   1      39.800  18.447  25.630  1.00  0.00     0.163 HD
ATOM     35  O   UNL A   1      42.210  18.557  25.939  1.00  0.00    -0.269 OA
BRANCH  33  36
ATOM     36  C   UNL A   1      41.950  20.790  26.608  1.00  0.00     0.039 A 
ATOM     37  C   UNL A   1      42.513  21.679  25.693  1.00  0.00     0.014 A 
ATOM     38  C   UNL A   1      41.848  21.133  27.960  1.00  0.00     0.014 A 
ATOM     39  C   UNL A   1      42.930  22.939  26.125  1.00  0.00     0.010 A 
ATOM     40  C   UNL A   1      42.186  22.417  28.372  1.00  0.00     0.010 A 
ATOM     41  C   UNL A   1      42.741  23.328  27.461  1.00  0.00    -0.014 A 
BRANCH  41  42
ATOM     42  C   UNL A   1      43.141  24.678  27.932  1.00  0.00     0.031 A 
ATOM     43  C   UNL A   1      42.091  25.727  28.177  1.00  0.00     0.074 A 
ATOM     44  C   UNL A   1      44.446  24.972  28.097  1.00  0.00     0.049 A 
ATOM     45  N   UNL A   1      42.241  26.979  28.529  1.00  0.00    -0.248 NA
ATOM     46  C   UNL A   1      40.687  25.323  27.984  1.00  0.00     0.031 C 
ATOM     47  C   UNL A   1      45.561  24.048  27.873  1.00  0.00     0.029 A 
ATOM     48  N   UNL A   1      45.056  26.136  28.493  1.00  0.00    -0.354 N 
ATOM     49  C   UNL A   1      40.958  27.508  28.592  1.00  0.00     0.074 A 
ATOM     50  C   UNL A   1      40.046  26.464  28.183  1.00  0.00     0.031 C 
ATOM     51  C   UNL A   1      46.714  24.672  28.164  1.00  0.00     0.029 A 
ATOM     52  C   UNL A   1      46.426  26.050  28.548  1.00  0.00     0.049 A 
ATOM     53  H   UNL A   1      44.558  26.955  28.717  1.00  0.00     0.167 HD
ATOM     54  C   UNL A   1      40.570  28.745  28.983  1.00  0.00     0.031 A 
ATOM     55  C   UNL A   1      47.346  26.982  28.863  1.00  0.00     0.031 A 
ATOM     56  C   UNL A   1      41.476  29.784  29.393  1.00  0.00     0.049 A 
ATOM     57  C   UNL A   1      46.887  28.366  29.235  1.00  0.00     0.074 A 
ATOM     58  C   UNL A   1      41.179  31.063  29.828  1.00  0.00     0.029 A 
ATOM     59  N   UNL A   1      42.856  29.660  29.421  1.00  0.00    -0.354 N 
ATOM     60  N   UNL A   1      45.667  28.834  29.339  1.00  0.00    -0.248 NA
ATOM     61  C   UNL A   1      47.936  29.348  29.545  1.00  0.00     0.031 C 
ATOM     62  C   UNL A   1      42.383  31.731  30.070  1.00  0.00     0.029 A 
ATOM     63  C   UNL A   1      43.425  30.846  29.849  1.00  0.00     0.049 A 
ATOM     64  H   UNL A   1      43.356  28.849  29.173  1.00  0.00     0.167 HD
ATOM     65  C   UNL A   1      45.801  30.149  29.766  1.00  0.00     0.074 A 
ATOM     66  C   UNL A   1      47.219  30.399  29.917  1.00  0.00     0.031 C 
ATOM     67  C   UNL A   1      44.838  31.070  30.012  1.00  0.00     0.031 A 
BRANCH  54  68
ATOM     68  C   UNL A   1      39.096  29.040  28.995  1.00  0.00    -0.014 A 
ATOM     69  C   UNL A   1      38.328  28.841  30.153  1.00  0.00     0.009 A 
ATOM     70  C   UNL A   1      38.477  29.573  27.853  1.00  0.00     0.009 A 
ATOM     71  C   UNL A   1      36.964  29.143  30.159  1.00  0.00     0.001 A 
ATOM     72  C   UNL A   1      37.121  29.903  27.871  1.00  0.00     0.001 A 
ATOM     73  C   UNL A   1      36.364  29.680  29.022  1.00  0.00     0.000 A 
ENDBRANCH  54  68
BRANCH  55  74
ATOM     74  C   UNL A   1      48.798  26.653  28.843  1.00  0.00    -0.014 A 
ATOM     75  C   UNL A   1      49.455  26.256  30.018  1.00  0.00     0.009 A 
ATOM     76  C   UNL A   1      49.546  26.785  27.663  1.00  0.00     0.009 A 
ATOM     77  C   UNL A   1      50.836  26.045  30.023  1.00  0.00     0.001 A 
ATOM     78  C   UNL A   1      50.920  26.538  27.662  1.00  0.00     0.001 A 
ATOM     79  C   UNL A   1      51.567  26.185  28.845  1.00  0.00     0.000 A 
ENDBRANCH  55  74
BRANCH  67  80
ATOM     80  C   UNL A   1      45.279  32.411  30.529  1.00  0.00    -0.014 A 
ATOM     81  C   UNL A   1      45.470  32.643  31.899  1.00  0.00     0.009 A 
ATOM     82  C   UNL A   1      45.551  33.444  29.619  1.00  0.00     0.009 A 
ATOM     83  C   UNL A   1      45.891  33.897  32.349  1.00  0.00     0.001 A 
ATOM     84  C   UNL A   1      46.004  34.685  30.068  1.00  0.00     0.001 A 
ATOM     85  C   UNL A   1      46.164  34.914  31.434  1.00  0.00     0.000 A 
ENDBRANCH  67  80
ENDBRANCH  41  42
ENDBRANCH  33  36
ENDBRANCH  31  32
ENDBRANCH  30  31
ENDBRANCH  29  30
ENDBRANCH  28  29
ENDBRANCH   1  28
TORSDOF 20
ENDMDL
MODEL 2
REMARK VINA RESULT:     -10.1      1.071      5.981
REMARK SMILES CCN(CC(C)(C)O)C(=O)Nc1ccc(C(=O)NCCCCCCNC(=O)c2ccc(-c3c4nc(c(-c5ccccc5)c5ccc([nH]5)c(-c5ccccc5)c5nc(c(-c6ccccc6)c6ccc3[nH]6)C=C5)C=C4)cc2)c(O)c1
REMARK SMILES IDX 20 1 19 2 18 3 16 4 17 5 15 7 12 8 13 9 78 10 14 11 76 12
REMARK SMILES IDX 11 13 9 14 10 15 3 17 2 18 1 19 4 20 5 21 6 22 7 23 8 24
REMARK SMILES IDX 77 26 21 28 22 29 23 30 24 31 25 32 26 33 27 35 28 36 29 37
REMARK SMILES IDX 75 38 30 39 74 40 31 41 32 42 33 43 68 44 34 45 73 46 67 47
REMARK SMILES IDX 69 48 35 49 72 50 66 51 65 52 36 54 58 55 43 56 57 57 44 58
REMARK SMILES IDX 47 59 56 60 70 61 45 62 46 63 55 65 71 66 48 67 37 68 38 69
REMARK SMILES IDX 42 70 39 71 41 72 40 73 59 74 60 75 64 76 61 77 63 78 62 79
REMARK SMILES IDX 49 80 50 81 54 82 51 83 53 84 52 85
REMARK H PARENT 18 6 11 16 8 25 77 27 25 34 69 53 47 64
REMARK Flexibility Score: inf
ROOT
ATOM      1  C   UNL A   1      34.664  22.232  24.075  1.00  0.00     0.021 C 
ENDROOT
BRANCH   1   2
ATOM      2  C   UNL A   1      33.313  22.083  24.749  1.00  0.00     0.116 C 
BRANCH   2   3
ATOM      3  N   UNL A   1      33.366  21.879  26.177  1.00  0.00    -0.352 N 
ATOM      4  C   UNL A   1      32.657  22.539  27.143  1.00  0.00     0.255 C 
ATOM      5  O   UNL A   1      32.733  22.168  28.312  1.00  0.00    -0.269 OA
ATOM      6  H   UNL A   1      33.985  21.182  26.491  1.00  0.00     0.163 HD
BRANCH   4   7
ATOM      7  C   UNL A   1      31.945  23.791  26.812  1.00  0.00     0.081 A 
ATOM      8  C   UNL A   1      31.040  26.208  25.683  1.00  0.00     0.046 A 
ATOM      9  C   UNL A   1      32.259  26.082  26.290  1.00  0.00     0.027 A 
ATOM     10  C   UNL A   1      30.155  25.146  25.847  1.00  0.00     0.073 A 
ATOM     11  C   UNL A   1      32.764  24.899  26.788  1.00  0.00     0.020 A 
ATOM     12  C   UNL A   1      30.599  23.960  26.463  1.00  0.00     0.130 A 
BRANCH   8  13
ATOM     13  N   UNL A   1      30.677  27.397  25.043  1.00  0.00    -0.308 N 
ATOM     14  C   UNL A   1      31.267  28.395  24.335  1.00  0.00     0.321 C 
ATOM     15  O   UNL A   1      30.552  29.407  24.256  1.00  0.00    -0.248 OA
ATOM     16  H   UNL A   1      29.711  27.558  25.131  1.00  0.00     0.171 HD
BRANCH  14  17
ATOM     17  N   UNL A   1      32.467  28.344  23.649  1.00  0.00    -0.322 N 
BRANCH  17  18
ATOM     18  C   UNL A   1      33.592  29.016  24.332  1.00  0.00     0.118 C 
ATOM     19  C   UNL A   1      33.376  29.135  25.845  1.00  0.00     0.027 C 
ENDBRANCH  17  18
BRANCH  17  20
ATOM     20  C   UNL A   1      32.826  27.879  22.287  1.00  0.00     0.155 C 
BRANCH  20  21
ATOM     21  C   UNL A   1      32.912  26.301  22.055  1.00  0.00     0.077 C 
ATOM     22  C   UNL A   1      33.837  25.462  22.973  1.00  0.00     0.043 C 
ATOM     23  C   UNL A   1      31.482  25.719  22.093  1.00  0.00     0.043 C 
BRANCH  21  24
ATOM     24  O   UNL A   1      33.411  26.079  20.721  1.00  0.00    -0.389 OA
ATOM     25  H   UNL A   1      33.561  26.933  20.286  1.00  0.00     0.211 HD
ENDBRANCH  21  24
ENDBRANCH  20  21
ENDBRANCH  17  20
ENDBRANCH  14  17
ENDBRANCH   8  13
BRANCH  12  26
ATOM     26  O   UNL A   1      29.644  23.020  26.733  1.00  0.00    -0.507 OA
ATOM     27  H   UNL A   1      29.765  22.420  27.443  1.00  0.00     0.293 HD
ENDBRANCH  12  26
ENDBRANCH   4   7
ENDBRANCH   2   3
ENDBRANCH   1   2
BRANCH   1  28
ATOM     28  C   UNL A   1      35.897  21.950  24.937  1.00  0.00     0.002 C 
BRANCH  28  29
ATOM     29  C   UNL A   1      37.182  21.501  24.233  1.00  0.00     0.002 C 
BRANCH  29  30
ATOM     30  C   UNL A   1      37.808  20.183  24.684  1.00  0.00     0.021 C 
BRANCH  30  31
ATOM     31  C   UNL A   1      38.718  20.271  25.895  1.00  0.00     0.116 C 
BRANCH  31  32
ATOM     32  N   UNL A   1      39.829  19.341  25.823  1.00  0.00    -0.352 N 
ATOM     33  C   UNL A   1      41.163  19.575  26.047  1.00  0.00     0.251 C 
ATOM     34  H   UNL A   1      39.594  18.416  25.580  1.00  0.00     0.163 HD
ATOM     35  O   UNL A   1      41.999  18.725  25.786  1.00  0.00    -0.269 OA
BRANCH  33  36
ATOM     36  C   UNL A   1      41.580  20.890  26.583  1.00  0.00     0.039 A 
ATOM     37  C   UNL A   1      42.040  21.862  25.695  1.00  0.00     0.014 A 
ATOM     38  C   UNL A   1      41.495  21.164  27.952  1.00  0.00     0.014 A 
ATOM     39  C   UNL A   1      42.368  23.131  26.172  1.00  0.00     0.010 A 
ATOM     40  C   UNL A   1      41.742  22.453  28.413  1.00  0.00     0.010 A 
ATOM     41  C   UNL A   1      42.192  23.445  27.530  1.00  0.00    -0.014 A 
BRANCH  41  42
ATOM     42  C   UNL A   1      42.497  24.801  28.051  1.00  0.00     0.031 A 
ATOM     43  C   UNL A   1      43.906  25.150  28.450  1.00  0.00     0.074 A 
ATOM     44  C   UNL A   1      41.506  25.701  28.205  1.00  0.00     0.049 A 
ATOM     45  N   UNL A   1      44.364  26.254  28.983  1.00  0.00    -0.248 NA
ATOM     46  C   UNL A   1      44.933  24.114  28.240  1.00  0.00     0.031 C 
ATOM     47  C   UNL A   1      40.096  25.478  27.874  1.00  0.00     0.029 A 
ATOM     48  N   UNL A   1      41.534  26.988  28.682  1.00  0.00    -0.354 N 
ATOM     49  C   UNL A   1      45.724  26.043  29.175  1.00  0.00     0.074 A 
ATOM     50  C   UNL A   1      46.007  24.687  28.763  1.00  0.00     0.031 C 
ATOM     51  C   UNL A   1      39.403  26.600  28.129  1.00  0.00     0.029 A 
ATOM     52  C   UNL A   1      40.306  27.602  28.685  1.00  0.00     0.049 A 
ATOM     53  H   UNL A   1      42.358  27.428  28.992  1.00  0.00     0.167 HD
ATOM     54  C   UNL A   1      46.659  26.910  29.629  1.00  0.00     0.031 A 
ATOM     55  C   UNL A   1      39.947  28.832  29.100  1.00  0.00     0.031 A 
ATOM     56  C   UNL A   1      46.380  28.260  30.037  1.00  0.00     0.049 A 
ATOM     57  C   UNL A   1      41.000  29.752  29.656  1.00  0.00     0.074 A 
ATOM     58  C   UNL A   1      47.263  29.223  30.491  1.00  0.00     0.029 A 
ATOM     59  N   UNL A   1      45.120  28.837  30.038  1.00  0.00    -0.354 N 
ATOM     60  N   UNL A   1      42.289  29.554  29.783  1.00  0.00    -0.248 NA
ATOM     61  C   UNL A   1      40.547  31.073  30.115  1.00  0.00     0.031 C 
ATOM     62  C   UNL A   1      46.530  30.368  30.814  1.00  0.00     0.029 A 
ATOM     63  C   UNL A   1      45.201  30.139  30.501  1.00  0.00     0.049 A 
ATOM     64  H   UNL A   1      44.292  28.388  29.752  1.00  0.00     0.167 HD
ATOM     65  C   UNL A   1      42.806  30.737  30.297  1.00  0.00     0.074 A 
ATOM     66  C   UNL A   1      41.693  31.652  30.442  1.00  0.00     0.031 C 
ATOM     67  C   UNL A   1      44.086  31.041  30.620  1.00  0.00     0.031 A 
BRANCH  54  68
ATOM     68  C   UNL A   1      48.081  26.424  29.699  1.00  0.00    -0.014 A 
ATOM     69  C   UNL A   1      48.954  26.583  28.611  1.00  0.00     0.009 A 
ATOM     70  C   UNL A   1      48.569  25.850  30.884  1.00  0.00     0.009 A 
ATOM     71  C   UNL A   1      50.279  26.151  28.698  1.00  0.00     0.001 A 
ATOM     72  C   UNL A   1      49.903  25.448  30.978  1.00  0.00     0.001 A 
ATOM     73  C   UNL A   1      50.754  25.591  29.882  1.00  0.00     0.000 A 
ENDBRANCH  54  68
BRANCH  55  74
ATOM     74  C   UNL A   1      38.529  29.280  29.012  1.00  0.00    -0.014 A 
ATOM     75  C   UNL A   1      38.023  29.812  27.816  1.00  0.00     0.009 A 
ATOM     76  C   UNL A   1      37.692  29.227  30.137  1.00  0.00     0.009 A 
ATOM     77  C   UNL A   1      36.724  30.326  27.762  1.00  0.00     0.001 A 
ATOM     78  C   UNL A   1      36.382  29.708  30.070  1.00  0.00     0.001 A 
ATOM     79  C   UNL A   1      35.905  30.272  28.888  1.00  0.00     0.000 A 
ENDBRANCH  55  74
BRANCH  67  80
ATOM     80  C   UNL A   1      44.364  32.438  31.103  1.00  0.00    -0.014 A 
ATOM     81  C   UNL A   1      44.342  32.761  32.467  1.00  0.00     0.009 A 
ATOM     82  C   UNL A   1      44.699  33.434  30.172  1.00  0.00     0.009 A 
ATOM     83  C   UNL A   1      44.614  34.065  32.887  1.00  0.00     0.001 A 
ATOM     84  C   UNL A   1      45.004  34.728  30.596  1.00  0.00     0.001 A 
ATOM     85  C   UNL A   1      44.952  35.045  31.952  1.00  0.00     0.000 A 
ENDBRANCH  67  80
ENDBRANCH  41  42
ENDBRANCH  33  36
ENDBRANCH  31  32
ENDBRANCH  30  31
ENDBRANCH  29  30
ENDBRANCH  28  29
ENDBRANCH   1  28
TORSDOF 20
ENDMDL
MODEL 3
REMARK VINA RESULT:     -10.0      2.509      4.904
REMARK SMILES CCN(CC(C)(C)O)C(=O)Nc1ccc(C(=O)NCCCCCCNC(=O)c2ccc(-c3c4nc(c(-c5ccccc5)c5ccc([nH]5)c(-c5ccccc5)c5nc(c(-c6ccccc6)c6ccc3[nH]6)C=C5)C=C4)cc2)c(O)c1
REMARK SMILES IDX 20 1 19 2 18 3 16 4 17 5 15 7 12 8 13 9 78 10 14 11 76 12
REMARK SMILES IDX 11 13 9 14 10 15 3 17 2 18 1 19 4 20 5 21 6 22 7 23 8 24
REMARK SMILES IDX 77 26 21 28 22 29 23 30 24 31 25 32 26 33 27 35 28 36 29 37
REMARK SMILES IDX 75 38 30 39 74 40 31 41 32 42 33 43 68 44 34 45 73 46 67 47
REMARK SMILES IDX 69 48 35 49 72 50 66 51 65 52 36 54 58 55 43 56 57 57 44 58
REMARK SMILES IDX 47 59 56 60 70 61 45 62 46 63 55 65 71 66 48 67 37 68 38 69
REMARK SMILES IDX 42 70 39 71 41 72 40 73 59 74 60 75 64 76 61 77 63 78 62 79
REMARK SMILES IDX 49 80 50 81 54 82 51 83 53 84 52 85
REMARK H PARENT 18 6 11 16 8 25 77 27 25 34 69 53 47 64
REMARK Flexibility Score: inf
ROOT
ATOM      1  C   UNL A   1      33.983  26.390  23.015  1.00  0.00     0.021 C 
ENDROOT
BRANCH   1   2
ATOM      2  C   UNL A   1      33.930  27.816  23.531  1.00  0.00     0.116 C 
BRANCH   2   3
ATOM      3  N   UNL A   1      32.879  28.627  22.965  1.00  0.00    -0.352 N 
ATOM      4  C   UNL A   1      31.587  28.745  23.400  1.00  0.00     0.255 C 
ATOM      5  O   UNL A   1      30.842  29.568  22.874  1.00  0.00    -0.269 OA
ATOM      6  H   UNL A   1      33.121  29.158  22.172  1.00  0.00     0.163 HD
BRANCH   4   7
ATOM      7  C   UNL A   1      31.043  27.774  24.374  1.00  0.00     0.081 A 
ATOM      8  C   UNL A   1      30.255  25.473  25.794  1.00  0.00     0.046 A 
ATOM      9  C   UNL A   1      29.730  25.812  24.578  1.00  0.00     0.027 A 
ATOM     10  C   UNL A   1      31.038  26.439  26.421  1.00  0.00     0.073 A 
ATOM     11  C   UNL A   1      30.143  26.890  23.823  1.00  0.00     0.020 A 
ATOM     12  C   UNL A   1      31.383  27.613  25.723  1.00  0.00     0.130 A 
BRANCH   8  13
ATOM     13  N   UNL A   1      29.912  24.267  26.413  1.00  0.00    -0.308 N 
ATOM     14  C   UNL A   1      30.383  22.996  26.501  1.00  0.00     0.321 C 
ATOM     15  O   UNL A   1      29.528  22.202  26.924  1.00  0.00    -0.248 OA
ATOM     16  H   UNL A   1      29.087  24.369  26.940  1.00  0.00     0.171 HD
BRANCH  14  17
ATOM     17  N   UNL A   1      31.676  22.561  26.278  1.00  0.00    -0.322 N 
BRANCH  17  18
ATOM     18  C   UNL A   1      32.527  22.524  27.486  1.00  0.00     0.118 C 
ATOM     19  C   UNL A   1      33.918  23.122  27.245  1.00  0.00     0.027 C 
ENDBRANCH  17  18
BRANCH  17  20
ATOM     20  C   UNL A   1      32.436  22.261  25.040  1.00  0.00     0.155 C 
BRANCH  20  21
ATOM     21  C   UNL A   1      32.718  20.723  24.712  1.00  0.00     0.077 C 
ATOM     22  C   UNL A   1      32.173  20.132  23.387  1.00  0.00     0.043 C 
ATOM     23  C   UNL A   1      34.240  20.471  24.801  1.00  0.00     0.043 C 
BRANCH  21  24
ATOM     24  O   UNL A   1      32.108  19.933  25.751  1.00  0.00    -0.389 OA
ATOM     25  H   UNL A   1      32.011  20.472  26.552  1.00  0.00     0.211 HD
ENDBRANCH  21  24
ENDBRANCH  20  21
ENDBRANCH  17  20
ENDBRANCH  14  17
ENDBRANCH   8  13
BRANCH  12  26
ATOM     26  O   UNL A   1      32.018  28.586  26.445  1.00  0.00    -0.507 OA
ATOM     27  H   UNL A   1      32.157  29.433  26.068  1.00  0.00     0.293 HD
ENDBRANCH  12  26
ENDBRANCH   4   7
ENDBRANCH   2   3
ENDBRANCH   1   2
BRANCH   1  28
ATOM     28  C   UNL A   1      34.362  25.306  24.026  1.00  0.00     0.002 C 
BRANCH  28  29
ATOM     29  C   UNL A   1      34.777  23.931  23.490  1.00  0.00     0.002 C 
BRANCH  29  30
ATOM     30  C   UNL A   1      36.230  23.507  23.689  1.00  0.00     0.021 C 
BRANCH  30  31
ATOM     31  C   UNL A   1      36.783  23.701  25.090  1.00  0.00     0.116 C 
BRANCH  31  32
ATOM     32  N   UNL A   1      37.740  22.675  25.455  1.00  0.00    -0.352 N 
ATOM     33  C   UNL A   1      38.931  22.809  26.127  1.00  0.00     0.251 C 
ATOM     34  H   UNL A   1      37.504  21.758  25.185  1.00  0.00     0.163 HD
ATOM     35  O   UNL A   1      39.706  21.871  26.215  1.00  0.00    -0.269 OA
BRANCH  33  36
ATOM     36  C   UNL A   1      39.277  24.121  26.717  1.00  0.00     0.039 A 
ATOM     37  C   UNL A   1      38.902  24.383  28.035  1.00  0.00     0.014 A 
ATOM     38  C   UNL A   1      39.986  25.073  25.979  1.00  0.00     0.014 A 
ATOM     39  C   UNL A   1      39.282  25.585  28.633  1.00  0.00     0.010 A 
ATOM     40  C   UNL A   1      40.436  26.232  26.602  1.00  0.00     0.010 A 
ATOM     41  C   UNL A   1      40.079  26.505  27.931  1.00  0.00    -0.014 A 
BRANCH  41  42
ATOM     42  C   UNL A   1      40.528  27.771  28.561  1.00  0.00     0.031 A 
ATOM     43  C   UNL A   1      39.556  28.908  28.732  1.00  0.00     0.074 A 
ATOM     44  C   UNL A   1      41.813  27.914  28.941  1.00  0.00     0.049 A 
ATOM     45  N   UNL A   1      39.769  30.112  29.200  1.00  0.00    -0.248 NA
ATOM     46  C   UNL A   1      38.168  28.668  28.301  1.00  0.00     0.031 C 
ATOM     47  C   UNL A   1      42.857  26.894  28.811  1.00  0.00     0.029 A 
ATOM     48  N   UNL A   1      42.462  28.979  29.514  1.00  0.00    -0.354 N 
ATOM     49  C   UNL A   1      38.547  30.769  29.115  1.00  0.00     0.074 A 
ATOM     50  C   UNL A   1      37.615  29.855  28.494  1.00  0.00     0.031 C 
ATOM     51  C   UNL A   1      44.005  27.372  29.318  1.00  0.00     0.029 A 
ATOM     52  C   UNL A   1      43.792  28.746  29.764  1.00  0.00     0.049 A 
ATOM     53  H   UNL A   1      42.015  29.830  29.726  1.00  0.00     0.167 HD
ATOM     54  C   UNL A   1      38.222  32.011  29.542  1.00  0.00     0.031 A 
ATOM     55  C   UNL A   1      44.736  29.552  30.284  1.00  0.00     0.031 A 
ATOM     56  C   UNL A   1      39.148  32.920  30.162  1.00  0.00     0.049 A 
ATOM     57  C   UNL A   1      44.359  30.950  30.693  1.00  0.00     0.074 A 
ATOM     58  C   UNL A   1      38.910  34.193  30.649  1.00  0.00     0.029 A 
ATOM     59  N   UNL A   1      40.489  32.649  30.384  1.00  0.00    -0.354 N 
ATOM     60  N   UNL A   1      43.188  31.538  30.653  1.00  0.00    -0.248 NA
ATOM     61  C   UNL A   1      45.435  31.794  31.233  1.00  0.00     0.031 C 
ATOM     62  C   UNL A   1      40.120  34.713  31.119  1.00  0.00     0.029 A 
ATOM     63  C   UNL A   1      41.095  33.739  30.984  1.00  0.00     0.049 A 
ATOM     64  H   UNL A   1      40.942  31.807  30.148  1.00  0.00     0.167 HD
ATOM     65  C   UNL A   1      43.378  32.801  31.198  1.00  0.00     0.074 A 
ATOM     66  C   UNL A   1      44.773  32.889  31.576  1.00  0.00     0.031 C 
ATOM     67  C   UNL A   1      42.480  33.801  31.372  1.00  0.00     0.031 A 
BRANCH  54  68
ATOM     68  C   UNL A   1      36.798  32.460  29.359  1.00  0.00    -0.014 A 
ATOM     69  C   UNL A   1      36.384  33.080  28.169  1.00  0.00     0.009 A 
ATOM     70  C   UNL A   1      35.849  32.212  30.363  1.00  0.00     0.009 A 
ATOM     71  C   UNL A   1      35.053  33.469  28.001  1.00  0.00     0.001 A 
ATOM     72  C   UNL A   1      34.514  32.574  30.178  1.00  0.00     0.001 A 
ATOM     73  C   UNL A   1      34.118  33.209  29.001  1.00  0.00     0.000 A 
ENDBRANCH  54  68
BRANCH  55  74
ATOM     74  C   UNL A   1      46.136  29.073  30.453  1.00  0.00    -0.014 A 
ATOM     75  C   UNL A   1      46.578  28.588  31.694  1.00  0.00     0.009 A 
ATOM     76  C   UNL A   1      47.051  29.149  29.392  1.00  0.00     0.009 A 
ATOM     77  C   UNL A   1      47.917  28.233  31.881  1.00  0.00     0.001 A 
ATOM     78  C   UNL A   1      48.380  28.759  29.572  1.00  0.00     0.001 A 
ATOM     79  C   UNL A   1      48.816  28.318  30.820  1.00  0.00     0.000 A 
ENDBRANCH  55  74
BRANCH  67  80
ATOM     80  C   UNL A   1      42.961  35.051  32.054  1.00  0.00    -0.014 A 
ATOM     81  C   UNL A   1      43.575  36.089  31.337  1.00  0.00     0.009 A 
ATOM     82  C   UNL A   1      42.750  35.208  33.433  1.00  0.00     0.009 A 
ATOM     83  C   UNL A   1      44.002  37.244  31.996  1.00  0.00     0.001 A 
ATOM     84  C   UNL A   1      43.147  36.377  34.083  1.00  0.00     0.001 A 
ATOM     85  C   UNL A   1      43.782  37.390  33.367  1.00  0.00     0.000 A 
ENDBRANCH  67  80
ENDBRANCH  41  42
ENDBRANCH  33  36
ENDBRANCH  31  32
ENDBRANCH  30  31
ENDBRANCH  29  30
ENDBRANCH  28  29
ENDBRANCH   1  28
TORSDOF 20
ENDMDL
