MODEL 1
REMARK VINA RESULT:     -13.3      0.000      0.000
REMARK SMILES C[C@]1(C(=O)NCCCCCCNC(=O)c2ccc(-c3c4nc(c(-c5ccccc5)c5ccc([nH]5)c(-c5ccccc5)c5nc(c(-c6ccccc6)c6ccc3[nH]6)C=C5)C=C4)cc2)[NH2+]C2(C(=O)c3ccccc3C2=O)[C@@H]2C(=O)N(c3ccccc3)C(=O)[C@H]21
REMARK SMILES IDX 9 1 8 2 7 3 6 4 5 5 3 6 4 7 2 9 1 10 63 11 87 12 64 13 75 16
REMARK SMILES IDX 85 17 65 18 73 19 76 20 78 21 86 22 66 23 67 24 72 25 74 26
REMARK SMILES IDX 77 27 68 28 71 29 69 30 70 31 79 32 80 33 84 34 81 35 83 36
REMARK SMILES IDX 82 37 10 38 11 39 12 40 13 41 14 43 15 44 16 45 62 46 17 47
REMARK SMILES IDX 61 48 18 49 19 50 20 51 55 52 21 53 60 54 54 55 56 56 22 57
REMARK SMILES IDX 59 58 53 59 52 60 23 62 45 63 30 64 44 65 31 66 34 67 43 68
REMARK SMILES IDX 57 69 32 70 33 71 42 73 58 74 35 75 24 76 25 77 29 78 26 79
REMARK SMILES IDX 28 80 27 81 46 82 47 83 51 84 48 85 50 86 49 87 36 88 37 89
REMARK SMILES IDX 41 90 38 91 40 92 39 93
REMARK H PARENT 5 8 63 14 63 15 12 42 56 61 34 72
REMARK Flexibility Score: inf
ROOT
ATOM      1  C   UNL A   1      34.798  33.957  29.165  1.00  0.00     0.002 C 
ENDROOT
BRANCH   1   2
ATOM      2  C   UNL A   1      35.000  32.693  28.321  1.00  0.00     0.002 C 
BRANCH   2   3
ATOM      3  C   UNL A   1      33.751  32.013  27.769  1.00  0.00     0.021 C 
BRANCH   3   4
ATOM      4  C   UNL A   1      33.901  30.566  27.319  1.00  0.00     0.116 C 
BRANCH   4   5
ATOM      5  N   UNL A   1      32.999  29.596  27.868  1.00  0.00    -0.351 N 
ATOM      6  C   UNL A   1      32.652  28.353  27.425  1.00  0.00     0.281 C 
ATOM      7  O   UNL A   1      31.798  27.799  28.135  1.00  0.00    -0.268 OA
ATOM      8  H   UNL A   1      32.558  29.872  28.703  1.00  0.00     0.163 HD
BRANCH   6   9
ATOM      9  C   UNL A   1      33.230  27.595  26.143  1.00  0.00     0.186 C 
ATOM     10  C   UNL A   1      34.649  28.188  25.922  1.00  0.00     0.091 C 
ATOM     11  N   UNL A   1      33.362  26.088  26.320  1.00  0.00    -0.314 N 
ATOM     12  C   UNL A   1      32.494  27.680  24.833  1.00  0.00     0.170 C 
ATOM     13  C   UNL A   1      32.458  25.383  25.307  1.00  0.00     0.236 C 
ATOM     14  H   UNL A   1      33.081  25.829  27.266  1.00  0.00     0.348 HD
ATOM     15  H   UNL A   1      34.331  25.807  26.169  1.00  0.00     0.348 HD
ATOM     16  C   UNL A   1      31.567  26.487  24.822  1.00  0.00     0.177 C 
ATOM     17  C   UNL A   1      31.573  28.759  24.395  1.00  0.00     0.244 C 
ATOM     18  C   UNL A   1      33.235  24.629  24.222  1.00  0.00     0.232 C 
ATOM     19  C   UNL A   1      31.726  24.233  26.028  1.00  0.00     0.232 C 
ATOM     20  C   UNL A   1      30.856  26.730  23.534  1.00  0.00     0.245 C 
ATOM     21  N   UNL A   1      30.726  28.121  23.485  1.00  0.00    -0.250 N 
ATOM     22  O   UNL A   1      31.614  29.917  24.754  1.00  0.00    -0.273 OA
ATOM     23  O   UNL A   1      34.012  25.112  23.418  1.00  0.00    -0.286 OA
ATOM     24  C   UNL A   1      32.932  23.190  24.334  1.00  0.00     0.036 A 
ATOM     25  C   UNL A   1      32.088  22.974  25.410  1.00  0.00     0.036 A 
ATOM     26  O   UNL A   1      30.941  24.254  26.958  1.00  0.00    -0.286 OA
ATOM     27  O   UNL A   1      30.365  25.859  22.837  1.00  0.00    -0.273 OA
ATOM     28  C   UNL A   1      33.360  22.124  23.566  1.00  0.00     0.013 A 
ATOM     29  C   UNL A   1      31.658  21.716  25.798  1.00  0.00     0.013 A 
ATOM     30  C   UNL A   1      32.922  20.837  23.925  1.00  0.00     0.001 A 
ATOM     31  C   UNL A   1      32.085  20.633  25.038  1.00  0.00     0.001 A 
BRANCH  21  32
ATOM     32  C   UNL A   1      29.709  28.827  22.818  1.00  0.00     0.052 A 
ATOM     33  C   UNL A   1      30.038  29.821  21.888  1.00  0.00     0.027 A 
ATOM     34  C   UNL A   1      28.374  28.652  23.198  1.00  0.00     0.027 A 
ATOM     35  C   UNL A   1      29.042  30.627  21.337  1.00  0.00     0.002 A 
ATOM     36  C   UNL A   1      27.387  29.499  22.687  1.00  0.00     0.002 A 
ATOM     37  C   UNL A   1      27.720  30.480  21.753  1.00  0.00     0.000 A 
ENDBRANCH  21  32
ENDBRANCH   6   9
ENDBRANCH   4   5
ENDBRANCH   3   4
ENDBRANCH   2   3
ENDBRANCH   1   2
BRANCH   1  38
ATOM     38  C   UNL A   1      33.463  34.698  29.040  1.00  0.00     0.021 C 
BRANCH  38  39
ATOM     39  C   UNL A   1      33.376  36.081  29.679  1.00  0.00     0.116 C 
BRANCH  39  40
ATOM     40  N   UNL A   1      32.405  36.166  30.760  1.00  0.00    -0.352 N 
ATOM     41  C   UNL A   1      32.466  35.718  32.057  1.00  0.00     0.251 C 
ATOM     42  H   UNL A   1      31.563  36.618  30.521  1.00  0.00     0.163 HD
ATOM     43  O   UNL A   1      31.485  35.817  32.788  1.00  0.00    -0.269 OA
BRANCH  41  44
ATOM     44  C   UNL A   1      33.694  35.073  32.571  1.00  0.00     0.039 A 
ATOM     45  C   UNL A   1      34.900  35.770  32.654  1.00  0.00     0.014 A 
ATOM     46  C   UNL A   1      33.633  33.733  32.970  1.00  0.00     0.014 A 
ATOM     47  C   UNL A   1      36.075  35.083  32.955  1.00  0.00     0.010 A 
ATOM     48  C   UNL A   1      34.800  33.065  33.349  1.00  0.00     0.010 A 
ATOM     49  C   UNL A   1      36.040  33.719  33.286  1.00  0.00    -0.014 A 
BRANCH  49  50
ATOM     50  C   UNL A   1      37.308  32.980  33.526  1.00  0.00     0.031 A 
ATOM     51  C   UNL A   1      38.076  33.179  34.807  1.00  0.00     0.074 A 
ATOM     52  C   UNL A   1      37.747  32.092  32.613  1.00  0.00     0.049 A 
ATOM     53  N   UNL A   1      39.199  32.625  35.187  1.00  0.00    -0.248 NA
ATOM     54  C   UNL A   1      37.512  34.120  35.789  1.00  0.00     0.031 C 
ATOM     55  C   UNL A   1      37.077  31.786  31.348  1.00  0.00     0.029 A 
ATOM     56  N   UNL A   1      38.847  31.270  32.617  1.00  0.00    -0.354 N 
ATOM     57  C   UNL A   1      39.482  33.159  36.440  1.00  0.00     0.074 A 
ATOM     58  C   UNL A   1      38.432  34.105  36.743  1.00  0.00     0.031 C 
ATOM     59  C   UNL A   1      37.755  30.814  30.719  1.00  0.00     0.029 A 
ATOM     60  C   UNL A   1      38.941  30.474  31.501  1.00  0.00     0.049 A 
ATOM     61  H   UNL A   1      39.504  31.252  33.350  1.00  0.00     0.167 HD
ATOM     62  C   UNL A   1      40.515  32.875  37.267  1.00  0.00     0.031 A 
ATOM     63  C   UNL A   1      39.882  29.584  31.132  1.00  0.00     0.031 A 
ATOM     64  C   UNL A   1      41.554  31.925  36.968  1.00  0.00     0.049 A 
ATOM     65  C   UNL A   1      41.054  29.334  32.037  1.00  0.00     0.074 A 
ATOM     66  C   UNL A   1      42.635  31.563  37.753  1.00  0.00     0.029 A 
ATOM     67  N   UNL A   1      41.641  31.188  35.799  1.00  0.00    -0.354 N 
ATOM     68  N   UNL A   1      41.302  29.844  33.219  1.00  0.00    -0.248 NA
ATOM     69  C   UNL A   1      42.074  28.388  31.564  1.00  0.00     0.031 C 
ATOM     70  C   UNL A   1      43.410  30.653  37.033  1.00  0.00     0.029 A 
ATOM     71  C   UNL A   1      42.774  30.391  35.830  1.00  0.00     0.049 A 
ATOM     72  H   UNL A   1      40.995  31.223  35.056  1.00  0.00     0.167 HD
ATOM     73  C   UNL A   1      42.496  29.271  33.637  1.00  0.00     0.074 A 
ATOM     74  C   UNL A   1      42.914  28.361  32.591  1.00  0.00     0.031 C 
ATOM     75  C   UNL A   1      43.180  29.485  34.786  1.00  0.00     0.031 A 
BRANCH  62  76
ATOM     76  C   UNL A   1      40.594  33.602  38.583  1.00  0.00    -0.014 A 
ATOM     77  C   UNL A   1      41.358  34.776  38.685  1.00  0.00     0.009 A 
ATOM     78  C   UNL A   1      40.001  33.076  39.741  1.00  0.00     0.009 A 
ATOM     79  C   UNL A   1      41.542  35.398  39.921  1.00  0.00     0.001 A 
ATOM     80  C   UNL A   1      40.161  33.718  40.971  1.00  0.00     0.001 A 
ATOM     81  C   UNL A   1      40.940  34.871  41.062  1.00  0.00     0.000 A 
ENDBRANCH  62  76
BRANCH  63  82
ATOM     82  C   UNL A   1      39.735  28.870  29.835  1.00  0.00    -0.014 A 
ATOM     83  C   UNL A   1      39.238  27.556  29.799  1.00  0.00     0.009 A 
ATOM     84  C   UNL A   1      40.153  29.468  28.638  1.00  0.00     0.009 A 
ATOM     85  C   UNL A   1      39.197  26.844  28.599  1.00  0.00     0.001 A 
ATOM     86  C   UNL A   1      40.080  28.764  27.433  1.00  0.00     0.001 A 
ATOM     87  C   UNL A   1      39.615  27.450  27.416  1.00  0.00     0.000 A 
ENDBRANCH  63  82
BRANCH  75  88
ATOM     88  C   UNL A   1      44.454  28.718  35.008  1.00  0.00    -0.014 A 
ATOM     89  C   UNL A   1      44.405  27.444  35.599  1.00  0.00     0.009 A 
ATOM     90  C   UNL A   1      45.705  29.305  34.759  1.00  0.00     0.009 A 
ATOM     91  C   UNL A   1      45.580  26.784  35.959  1.00  0.00     0.001 A 
ATOM     92  C   UNL A   1      46.879  28.629  35.094  1.00  0.00     0.001 A 
ATOM     93  C   UNL A   1      46.816  27.375  35.705  1.00  0.00     0.000 A 
ENDBRANCH  75  88
ENDBRANCH  49  50
ENDBRANCH  41  44
ENDBRANCH  39  40
ENDBRANCH  38  39
ENDBRANCH   1  38
TORSDOF 14
ENDMDL
MODEL 2
REMARK VINA RESULT:     -13.0      4.092      7.629
REMARK SMILES C[C@]1(C(=O)NCCCCCCNC(=O)c2ccc(-c3c4nc(c(-c5ccccc5)c5ccc([nH]5)c(-c5ccccc5)c5nc(c(-c6ccccc6)c6ccc3[nH]6)C=C5)C=C4)cc2)[NH2+]C2(C(=O)c3ccccc3C2=O)[C@@H]2C(=O)N(c3ccccc3)C(=O)[C@H]21
REMARK SMILES IDX 9 1 8 2 7 3 6 4 5 5 3 6 4 7 2 9 1 10 63 11 87 12 64 13 75 16
REMARK SMILES IDX 85 17 65 18 73 19 76 20 78 21 86 22 66 23 67 24 72 25 74 26
REMARK SMILES IDX 77 27 68 28 71 29 69 30 70 31 79 32 80 33 84 34 81 35 83 36
REMARK SMILES IDX 82 37 10 38 11 39 12 40 13 41 14 43 15 44 16 45 62 46 17 47
REMARK SMILES IDX 61 48 18 49 19 50 20 51 55 52 21 53 60 54 54 55 56 56 22 57
REMARK SMILES IDX 59 58 53 59 52 60 23 62 45 63 30 64 44 65 31 66 34 67 43 68
REMARK SMILES IDX 57 69 32 70 33 71 42 73 58 74 35 75 24 76 25 77 29 78 26 79
REMARK SMILES IDX 28 80 27 81 46 82 47 83 51 84 48 85 50 86 49 87 36 88 37 89
REMARK SMILES IDX 41 90 38 91 40 92 39 93
REMARK H PARENT 5 8 63 14 63 15 12 42 56 61 34 72
REMARK Flexibility Score: inf
ROOT
ATOM      1  C   UNL A   1      34.129  34.112  29.209  1.00  0.00     0.002 C 
ENDROOT
BRANCH   1   2
ATOM      2  C   UNL A   1      34.520  32.853  28.424  1.00  0.00     0.002 C 
BRANCH   2   3
ATOM      3  C   UNL A   1      33.409  32.117  27.683  1.00  0.00     0.021 C 
BRANCH   3   4
ATOM      4  C   UNL A   1      33.682  30.668  27.304  1.00  0.00     0.116 C 
BRANCH   4   5
ATOM      5  N   UNL A   1      32.850  29.654  27.882  1.00  0.00    -0.351 N 
ATOM      6  C   UNL A   1      32.573  28.385  27.465  1.00  0.00     0.281 C 
ATOM      7  O   UNL A   1      31.765  27.792  28.197  1.00  0.00    -0.268 OA
ATOM      8  H   UNL A   1      32.404  29.917  28.719  1.00  0.00     0.163 HD
BRANCH   6   9
ATOM      9  C   UNL A   1      33.178  27.642  26.187  1.00  0.00     0.186 C 
ATOM     10  C   UNL A   1      34.596  28.247  25.993  1.00  0.00     0.091 C 
ATOM     11  N   UNL A   1      33.318  26.134  26.354  1.00  0.00    -0.314 N 
ATOM     12  C   UNL A   1      32.462  27.731  24.866  1.00  0.00     0.170 C 
ATOM     13  C   UNL A   1      32.437  25.431  25.321  1.00  0.00     0.236 C 
ATOM     14  H   UNL A   1      33.025  25.866  27.293  1.00  0.00     0.348 HD
ATOM     15  H   UNL A   1      34.292  25.862  26.217  1.00  0.00     0.348 HD
ATOM     16  C   UNL A   1      31.545  26.531  24.830  1.00  0.00     0.177 C 
ATOM     17  C   UNL A   1      31.540  28.807  24.421  1.00  0.00     0.244 C 
ATOM     18  C   UNL A   1      33.238  24.691  24.243  1.00  0.00     0.232 C 
ATOM     19  C   UNL A   1      31.702  24.269  26.021  1.00  0.00     0.232 C 
ATOM     20  C   UNL A   1      30.853  26.779  23.533  1.00  0.00     0.245 C 
ATOM     21  N   UNL A   1      30.713  28.169  23.492  1.00  0.00    -0.250 N 
ATOM     22  O   UNL A   1      31.565  29.962  24.789  1.00  0.00    -0.273 OA
ATOM     23  O   UNL A   1      34.023  25.186  23.455  1.00  0.00    -0.286 OA
ATOM     24  C   UNL A   1      32.944  23.249  24.338  1.00  0.00     0.036 A 
ATOM     25  C   UNL A   1      32.084  23.018  25.399  1.00  0.00     0.036 A 
ATOM     26  O   UNL A   1      30.902  24.277  26.938  1.00  0.00    -0.286 OA
ATOM     27  O   UNL A   1      30.380  25.909  22.821  1.00  0.00    -0.273 OA
ATOM     28  C   UNL A   1      33.393  22.193  23.570  1.00  0.00     0.013 A 
ATOM     29  C   UNL A   1      31.659  21.753  25.770  1.00  0.00     0.013 A 
ATOM     30  C   UNL A   1      32.959  20.899  23.911  1.00  0.00     0.001 A 
ATOM     31  C   UNL A   1      32.106  20.680  25.008  1.00  0.00     0.001 A 
BRANCH  21  32
ATOM     32  C   UNL A   1      29.701  28.872  22.815  1.00  0.00     0.052 A 
ATOM     33  C   UNL A   1      30.037  29.864  21.885  1.00  0.00     0.027 A 
ATOM     34  C   UNL A   1      28.363  28.697  23.183  1.00  0.00     0.027 A 
ATOM     35  C   UNL A   1      29.045  30.668  21.323  1.00  0.00     0.002 A 
ATOM     36  C   UNL A   1      27.380  29.542  22.662  1.00  0.00     0.002 A 
ATOM     37  C   UNL A   1      27.720  30.521  21.728  1.00  0.00     0.000 A 
ENDBRANCH  21  32
ENDBRANCH   6   9
ENDBRANCH   4   5
ENDBRANCH   3   4
ENDBRANCH   2   3
ENDBRANCH   1   2
BRANCH   1  38
ATOM     38  C   UNL A   1      34.401  34.131  30.716  1.00  0.00     0.021 C 
BRANCH  38  39
ATOM     39  C   UNL A   1      34.555  32.780  31.410  1.00  0.00     0.116 C 
BRANCH  39  40
ATOM     40  N   UNL A   1      35.101  32.871  32.755  1.00  0.00    -0.352 N 
ATOM     41  C   UNL A   1      36.273  32.384  33.281  1.00  0.00     0.251 C 
ATOM     42  H   UNL A   1      34.537  33.363  33.395  1.00  0.00     0.163 HD
ATOM     43  O   UNL A   1      36.502  32.501  34.482  1.00  0.00    -0.269 OA
BRANCH  41  44
ATOM     44  C   UNL A   1      37.246  31.676  32.420  1.00  0.00     0.039 A 
ATOM     45  C   UNL A   1      38.118  30.720  32.942  1.00  0.00     0.014 A 
ATOM     46  C   UNL A   1      37.288  31.990  31.057  1.00  0.00     0.014 A 
ATOM     47  C   UNL A   1      39.147  30.218  32.149  1.00  0.00     0.010 A 
ATOM     48  C   UNL A   1      38.272  31.424  30.243  1.00  0.00     0.010 A 
ATOM     49  C   UNL A   1      39.248  30.580  30.795  1.00  0.00    -0.014 A 
BRANCH  49  50
ATOM     50  C   UNL A   1      40.396  30.101  29.982  1.00  0.00     0.031 A 
ATOM     51  C   UNL A   1      40.348  28.751  29.315  1.00  0.00     0.074 A 
ATOM     52  C   UNL A   1      41.466  30.899  29.801  1.00  0.00     0.049 A 
ATOM     53  N   UNL A   1      41.254  28.167  28.572  1.00  0.00    -0.248 NA
ATOM     54  C   UNL A   1      39.125  27.952  29.504  1.00  0.00     0.031 C 
ATOM     55  C   UNL A   1      41.620  32.240  30.367  1.00  0.00     0.029 A 
ATOM     56  N   UNL A   1      42.615  30.708  29.075  1.00  0.00    -0.354 N 
ATOM     57  C   UNL A   1      40.719  26.933  28.219  1.00  0.00     0.074 A 
ATOM     58  C   UNL A   1      39.425  26.835  28.855  1.00  0.00     0.031 C 
ATOM     59  C   UNL A   1      42.774  32.768  29.932  1.00  0.00     0.029 A 
ATOM     60  C   UNL A   1      43.473  31.782  29.112  1.00  0.00     0.049 A 
ATOM     61  H   UNL A   1      42.807  29.883  28.574  1.00  0.00     0.167 HD
ATOM     62  C   UNL A   1      41.254  25.975  27.426  1.00  0.00     0.031 A 
ATOM     63  C   UNL A   1      44.692  31.953  28.568  1.00  0.00     0.031 A 
ATOM     64  C   UNL A   1      42.539  26.078  26.786  1.00  0.00     0.049 A 
ATOM     65  C   UNL A   1      45.294  30.850  27.746  1.00  0.00     0.074 A 
ATOM     66  C   UNL A   1      43.156  25.161  25.953  1.00  0.00     0.029 A 
ATOM     67  N   UNL A   1      43.398  27.158  26.903  1.00  0.00    -0.354 N 
ATOM     68  N   UNL A   1      44.773  29.692  27.420  1.00  0.00    -0.248 NA
ATOM     69  C   UNL A   1      46.646  31.071  27.215  1.00  0.00     0.031 C 
ATOM     70  C   UNL A   1      44.416  25.658  25.617  1.00  0.00     0.029 A 
ATOM     71  C   UNL A   1      44.553  26.918  26.178  1.00  0.00     0.049 A 
ATOM     72  H   UNL A   1      43.215  27.974  27.422  1.00  0.00     0.167 HD
ATOM     73  C   UNL A   1      45.723  29.054  26.634  1.00  0.00     0.074 A 
ATOM     74  C   UNL A   1      46.847  29.960  26.518  1.00  0.00     0.031 C 
ATOM     75  C   UNL A   1      45.666  27.827  26.064  1.00  0.00     0.031 A 
BRANCH  62  76
ATOM     76  C   UNL A   1      40.463  24.713  27.202  1.00  0.00    -0.014 A 
ATOM     77  C   UNL A   1      40.967  23.485  27.660  1.00  0.00     0.009 A 
ATOM     78  C   UNL A   1      39.276  24.723  26.453  1.00  0.00     0.009 A 
ATOM     79  C   UNL A   1      40.310  22.291  27.358  1.00  0.00     0.001 A 
ATOM     80  C   UNL A   1      38.605  23.530  26.179  1.00  0.00     0.001 A 
ATOM     81  C   UNL A   1      39.127  22.315  26.621  1.00  0.00     0.000 A 
ENDBRANCH  62  76
BRANCH  63  82
ATOM     82  C   UNL A   1      45.414  33.234  28.795  1.00  0.00    -0.014 A 
ATOM     83  C   UNL A   1      45.309  34.284  27.867  1.00  0.00     0.009 A 
ATOM     84  C   UNL A   1      46.263  33.391  29.901  1.00  0.00     0.009 A 
ATOM     85  C   UNL A   1      46.066  35.447  28.021  1.00  0.00     0.001 A 
ATOM     86  C   UNL A   1      46.995  34.569  30.069  1.00  0.00     0.001 A 
ATOM     87  C   UNL A   1      46.906  35.590  29.123  1.00  0.00     0.000 A 
ENDBRANCH  63  82
BRANCH  75  88
ATOM     88  C   UNL A   1      46.837  27.371  25.239  1.00  0.00    -0.014 A 
ATOM     89  C   UNL A   1      47.879  26.652  25.849  1.00  0.00     0.009 A 
ATOM     90  C   UNL A   1      46.975  27.765  23.899  1.00  0.00     0.009 A 
ATOM     91  C   UNL A   1      49.046  26.359  25.142  1.00  0.00     0.001 A 
ATOM     92  C   UNL A   1      48.132  27.444  23.186  1.00  0.00     0.001 A 
ATOM     93  C   UNL A   1      49.171  26.753  23.811  1.00  0.00     0.000 A 
ENDBRANCH  75  88
ENDBRANCH  49  50
ENDBRANCH  41  44
ENDBRANCH  39  40
ENDBRANCH  38  39
ENDBRANCH   1  38
TORSDOF 14
ENDMDL
MODEL 3
REMARK VINA RESULT:     -13.0      0.405      5.519
REMARK SMILES C[C@]1(C(=O)NCCCCCCNC(=O)c2ccc(-c3c4nc(c(-c5ccccc5)c5ccc([nH]5)c(-c5ccccc5)c5nc(c(-c6ccccc6)c6ccc3[nH]6)C=C5)C=C4)cc2)[NH2+]C2(C(=O)c3ccccc3C2=O)[C@@H]2C(=O)N(c3ccccc3)C(=O)[C@H]21
REMARK SMILES IDX 9 1 8 2 7 3 6 4 5 5 3 6 4 7 2 9 1 10 63 11 87 12 64 13 75 16
REMARK SMILES IDX 85 17 65 18 73 19 76 20 78 21 86 22 66 23 67 24 72 25 74 26
REMARK SMILES IDX 77 27 68 28 71 29 69 30 70 31 79 32 80 33 84 34 81 35 83 36
REMARK SMILES IDX 82 37 10 38 11 39 12 40 13 41 14 43 15 44 16 45 62 46 17 47
REMARK SMILES IDX 61 48 18 49 19 50 20 51 55 52 21 53 60 54 54 55 56 56 22 57
REMARK SMILES IDX 59 58 53 59 52 60 23 62 45 63 30 64 44 65 31 66 34 67 43 68
REMARK SMILES IDX 57 69 32 70 33 71 42 73 58 74 35 75 24 76 25 77 29 78 26 79
REMARK SMILES IDX 28 80 27 81 46 82 47 83 51 84 48 85 50 86 49 87 36 88 37 89
REMARK SMILES IDX 41 90 38 91 40 92 39 93
REMARK H PARENT 5 8 63 14 63 15 12 42 56 61 34 72
REMARK Flexibility Score: inf
ROOT
ATOM      1  C   UNL A   1      35.393  33.596  28.897  1.00  0.00     0.002 C 
ENDROOT
BRANCH   1   2
ATOM      2  C   UNL A   1      34.809  32.194  29.112  1.00  0.00     0.002 C 
BRANCH   2   3
ATOM      3  C   UNL A   1      34.965  31.188  27.976  1.00  0.00     0.021 C 
BRANCH   3   4
ATOM      4  C   UNL A   1      33.695  30.781  27.242  1.00  0.00     0.116 C 
BRANCH   4   5
ATOM      5  N   UNL A   1      32.877  29.763  27.832  1.00  0.00    -0.351 N 
ATOM      6  C   UNL A   1      32.603  28.491  27.420  1.00  0.00     0.281 C 
ATOM      7  O   UNL A   1      31.807  27.894  28.163  1.00  0.00    -0.268 OA
ATOM      8  H   UNL A   1      32.440  30.024  28.675  1.00  0.00     0.163 HD
BRANCH   6   9
ATOM      9  C   UNL A   1      33.195  27.750  26.135  1.00  0.00     0.186 C 
ATOM     10  C   UNL A   1      34.609  28.360  25.926  1.00  0.00     0.091 C 
ATOM     11  N   UNL A   1      33.342  26.243  26.300  1.00  0.00    -0.314 N 
ATOM     12  C   UNL A   1      32.465  27.838  24.822  1.00  0.00     0.170 C 
ATOM     13  C   UNL A   1      32.451  25.537  25.276  1.00  0.00     0.236 C 
ATOM     14  H   UNL A   1      33.060  25.973  27.242  1.00  0.00     0.348 HD
ATOM     15  H   UNL A   1      34.315  25.974  26.152  1.00  0.00     0.348 HD
ATOM     16  C   UNL A   1      31.551  26.635  24.796  1.00  0.00     0.177 C 
ATOM     17  C   UNL A   1      31.535  28.911  24.388  1.00  0.00     0.244 C 
ATOM     18  C   UNL A   1      33.242  24.800  24.189  1.00  0.00     0.232 C 
ATOM     19  C   UNL A   1      31.728  24.373  25.984  1.00  0.00     0.232 C 
ATOM     20  C   UNL A   1      30.844  26.881  23.507  1.00  0.00     0.245 C 
ATOM     21  N   UNL A   1      30.699  28.271  23.468  1.00  0.00    -0.250 N 
ATOM     22  O   UNL A   1      31.560  30.066  24.756  1.00  0.00    -0.273 OA
ATOM     23  O   UNL A   1      34.017  25.298  23.394  1.00  0.00    -0.286 OA
ATOM     24  C   UNL A   1      32.954  23.357  24.288  1.00  0.00     0.036 A 
ATOM     25  C   UNL A   1      32.106  23.123  25.357  1.00  0.00     0.036 A 
ATOM     26  O   UNL A   1      30.938  24.378  26.910  1.00  0.00    -0.286 OA
ATOM     27  O   UNL A   1      30.365  26.011  22.800  1.00  0.00    -0.273 OA
ATOM     28  C   UNL A   1      33.397  22.302  23.513  1.00  0.00     0.013 A 
ATOM     29  C   UNL A   1      31.689  21.857  25.733  1.00  0.00     0.013 A 
ATOM     30  C   UNL A   1      32.971  21.007  23.859  1.00  0.00     0.001 A 
ATOM     31  C   UNL A   1      32.131  20.785  24.966  1.00  0.00     0.001 A 
BRANCH  21  32
ATOM     32  C   UNL A   1      29.678  28.971  22.802  1.00  0.00     0.052 A 
ATOM     33  C   UNL A   1      30.000  29.937  21.840  1.00  0.00     0.027 A 
ATOM     34  C   UNL A   1      28.348  28.822  23.211  1.00  0.00     0.027 A 
ATOM     35  C   UNL A   1      29.003  30.741  21.287  1.00  0.00     0.002 A 
ATOM     36  C   UNL A   1      27.361  29.668  22.697  1.00  0.00     0.002 A 
ATOM     37  C   UNL A   1      27.688  30.621  21.731  1.00  0.00     0.000 A 
ENDBRANCH  21  32
ENDBRANCH   6   9
ENDBRANCH   4   5
ENDBRANCH   3   4
ENDBRANCH   2   3
ENDBRANCH   1   2
BRANCH   1  38
ATOM     38  C   UNL A   1      34.484  34.800  29.160  1.00  0.00     0.021 C 
BRANCH  38  39
ATOM     39  C   UNL A   1      33.034  34.504  29.536  1.00  0.00     0.116 C 
BRANCH  39  40
ATOM     40  N   UNL A   1      32.483  35.431  30.513  1.00  0.00    -0.352 N 
ATOM     41  C   UNL A   1      32.862  35.700  31.806  1.00  0.00     0.251 C 
ATOM     42  H   UNL A   1      31.709  35.951  30.195  1.00  0.00     0.163 HD
ATOM     43  O   UNL A   1      32.195  36.467  32.494  1.00  0.00    -0.269 OA
BRANCH  41  44
ATOM     44  C   UNL A   1      34.046  35.036  32.395  1.00  0.00     0.039 A 
ATOM     45  C   UNL A   1      35.277  35.688  32.479  1.00  0.00     0.014 A 
ATOM     46  C   UNL A   1      33.917  33.725  32.865  1.00  0.00     0.014 A 
ATOM     47  C   UNL A   1      36.412  34.973  32.855  1.00  0.00     0.010 A 
ATOM     48  C   UNL A   1      35.042  33.033  33.318  1.00  0.00     0.010 A 
ATOM     49  C   UNL A   1      36.310  33.632  33.260  1.00  0.00    -0.014 A 
BRANCH  49  50
ATOM     50  C   UNL A   1      37.538  32.858  33.582  1.00  0.00     0.031 A 
ATOM     51  C   UNL A   1      38.082  31.849  32.604  1.00  0.00     0.074 A 
ATOM     52  C   UNL A   1      38.194  33.095  34.734  1.00  0.00     0.049 A 
ATOM     53  N   UNL A   1      39.137  31.081  32.715  1.00  0.00    -0.248 NA
ATOM     54  C   UNL A   1      37.350  31.680  31.337  1.00  0.00     0.031 C 
ATOM     55  C   UNL A   1      37.787  34.068  35.749  1.00  0.00     0.029 A 
ATOM     56  N   UNL A   1      39.351  32.552  35.236  1.00  0.00    -0.354 N 
ATOM     57  C   UNL A   1      39.186  30.331  31.545  1.00  0.00     0.074 A 
ATOM     58  C   UNL A   1      38.038  30.710  30.751  1.00  0.00     0.031 C 
ATOM     59  C   UNL A   1      38.702  34.085  36.730  1.00  0.00     0.029 A 
ATOM     60  C   UNL A   1      39.724  33.079  36.449  1.00  0.00     0.049 A 
ATOM     61  H   UNL A   1      39.865  31.852  34.772  1.00  0.00     0.167 HD
ATOM     62  C   UNL A   1      40.111  29.420  31.162  1.00  0.00     0.031 A 
ATOM     63  C   UNL A   1      40.757  32.779  37.259  1.00  0.00     0.031 A 
ATOM     64  C   UNL A   1      41.258  29.052  31.950  1.00  0.00     0.049 A 
ATOM     65  C   UNL A   1      41.735  31.718  36.843  1.00  0.00     0.074 A 
ATOM     66  C   UNL A   1      42.257  28.146  31.635  1.00  0.00     0.029 A 
ATOM     67  N   UNL A   1      41.561  29.568  33.199  1.00  0.00    -0.354 N 
ATOM     68  N   UNL A   1      41.768  31.022  35.732  1.00  0.00    -0.248 NA
ATOM     69  C   UNL A   1      42.817  31.398  37.785  1.00  0.00     0.031 C 
ATOM     70  C   UNL A   1      43.129  28.068  32.721  1.00  0.00     0.029 A 
ATOM     71  C   UNL A   1      42.718  28.979  33.681  1.00  0.00     0.049 A 
ATOM     72  H   UNL A   1      41.033  30.251  33.673  1.00  0.00     0.167 HD
ATOM     73  C   UNL A   1      42.879  30.196  35.833  1.00  0.00     0.074 A 
ATOM     74  C   UNL A   1      43.505  30.488  37.106  1.00  0.00     0.031 C 
ATOM     75  C   UNL A   1      43.335  29.278  34.948  1.00  0.00     0.031 A 
BRANCH  62  76
ATOM     76  C   UNL A   1      39.930  28.738  29.832  1.00  0.00    -0.014 A 
ATOM     77  C   UNL A   1      39.363  27.455  29.779  1.00  0.00     0.009 A 
ATOM     78  C   UNL A   1      40.412  29.316  28.648  1.00  0.00     0.009 A 
ATOM     79  C   UNL A   1      39.297  26.757  28.572  1.00  0.00     0.001 A 
ATOM     80  C   UNL A   1      40.317  28.628  27.437  1.00  0.00     0.001 A 
ATOM     81  C   UNL A   1      39.770  27.346  27.401  1.00  0.00     0.000 A 
ENDBRANCH  62  76
BRANCH  63  82
ATOM     82  C   UNL A   1      40.904  33.509  38.546  1.00  0.00    -0.014 A 
ATOM     83  C   UNL A   1      41.716  34.654  38.627  1.00  0.00     0.009 A 
ATOM     84  C   UNL A   1      40.294  33.030  39.715  1.00  0.00     0.009 A 
ATOM     85  C   UNL A   1      41.942  35.281  39.853  1.00  0.00     0.001 A 
ATOM     86  C   UNL A   1      40.496  33.679  40.936  1.00  0.00     0.001 A 
ATOM     87  C   UNL A   1      41.329  34.795  41.006  1.00  0.00     0.000 A 
ENDBRANCH  63  82
BRANCH  75  88
ATOM     88  C   UNL A   1      44.584  28.516  35.294  1.00  0.00    -0.014 A 
ATOM     89  C   UNL A   1      44.489  27.328  36.039  1.00  0.00     0.009 A 
ATOM     90  C   UNL A   1      45.854  29.038  35.004  1.00  0.00     0.009 A 
ATOM     91  C   UNL A   1      45.640  26.692  36.507  1.00  0.00     0.001 A 
ATOM     92  C   UNL A   1      47.004  28.383  35.449  1.00  0.00     0.001 A 
ATOM     93  C   UNL A   1      46.895  27.218  36.211  1.00  0.00     0.000 A 
ENDBRANCH  75  88
ENDBRANCH  49  50
ENDBRANCH  41  44
ENDBRANCH  39  40
ENDBRANCH  38  39
ENDBRANCH   1  38
TORSDOF 14
ENDMDL
