MODEL 1
REMARK VINA RESULT:     -11.0      0.000      0.000
REMARK SMILES CC(C)CN(C)c1cc2c(cc1Cl)C=C(C(=O)NCCCCCCNC(=O)c1ccc(-c3c4nc(c(-c5ccccc5)c5ccc([nH]5)c(-c5ccccc5)c5nc(c(-c6ccccc6)c6ccc3[nH]6)C=C5)C=C4)cc1)[C@@H](C(F)(F)F)O2
REMARK SMILES IDX 21 1 20 2 19 3 18 4 16 5 17 6 15 8 7 9 8 10 12 11 9 12 11 13
REMARK SMILES IDX 13 14 10 15 81 16 14 17 76 18 5 19 6 20 4 21 2 22 1 23 3 24
REMARK SMILES IDX 77 25 78 26 79 27 80 28 22 29 23 30 24 31 25 32 26 33 27 35
REMARK SMILES IDX 28 36 29 37 75 38 30 39 74 40 31 41 32 42 33 43 68 44 34 45
REMARK SMILES IDX 73 46 67 47 69 48 35 49 72 50 66 51 65 52 36 54 58 55 43 56
REMARK SMILES IDX 57 57 44 58 47 59 56 60 70 61 45 62 46 63 55 65 71 66 48 67
REMARK SMILES IDX 37 68 38 69 42 70 39 71 41 72 40 73 59 74 60 75 64 76 61 77
REMARK SMILES IDX 63 78 62 79 49 80 50 81 54 82 51 83 53 84 52 85
REMARK H PARENT 18 7 25 34 69 53 47 64
REMARK Flexibility Score: inf
ROOT
ATOM      1  C   UNL A   1      34.551  32.107  28.797  1.00  0.00     0.002 C 
ENDROOT
BRANCH   1   2
ATOM      2  C   UNL A   1      35.334  31.165  27.878  1.00  0.00     0.021 C 
BRANCH   2   3
ATOM      3  C   UNL A   1      34.568  29.907  27.487  1.00  0.00     0.116 C 
BRANCH   3   4
ATOM      4  N   UNL A   1      33.643  30.176  26.403  1.00  0.00    -0.352 N 
ATOM      5  C   UNL A   1      32.812  29.463  25.611  1.00  0.00     0.251 C 
ATOM      6  O   UNL A   1      32.173  30.126  24.790  1.00  0.00    -0.270 OA
ATOM      7  H   UNL A   1      33.610  31.136  26.186  1.00  0.00     0.163 HD
BRANCH   5   8
ATOM      8  C   UNL A   1      32.624  27.986  25.671  1.00  0.00     0.067 C 
ATOM      9  C   UNL A   1      33.342  22.992  25.728  1.00  0.00     0.059 A 
ATOM     10  C   UNL A   1      32.362  23.849  26.253  1.00  0.00     0.074 A 
ATOM     11  C   UNL A   1      34.410  23.584  25.013  1.00  0.00     0.065 A 
ATOM     12  C   UNL A   1      32.471  25.228  26.101  1.00  0.00     0.130 A 
ATOM     13  C   UNL A   1      34.570  24.974  24.963  1.00  0.00     0.034 A 
ATOM     14  Cl  UNL A   1      35.553  22.645  24.114  1.00  0.00    -0.082 Cl
ATOM     15  C   UNL A   1      33.603  25.799  25.522  1.00  0.00     0.019 A 
ATOM     16  O   UNL A   1      31.430  25.998  26.544  1.00  0.00    -0.475 OA
ATOM     17  C   UNL A   1      33.738  27.250  25.511  1.00  0.00     0.025 C 
ATOM     18  C   UNL A   1      31.309  27.282  25.857  1.00  0.00     0.314 C 
BRANCH   9  19
ATOM     19  N   UNL A   1      33.258  21.606  25.941  1.00  0.00    -0.373 N 
ATOM     20  C   UNL A   1      34.537  20.919  26.113  1.00  0.00     0.143 C 
BRANCH  19  21
ATOM     21  C   UNL A   1      32.230  20.883  25.157  1.00  0.00     0.119 C 
BRANCH  21  22
ATOM     22  C   UNL A   1      32.727  20.459  23.759  1.00  0.00     0.002 C 
ATOM     23  C   UNL A   1      32.414  18.990  23.454  1.00  0.00     0.009 C 
ATOM     24  C   UNL A   1      32.117  21.333  22.660  1.00  0.00     0.009 C 
ENDBRANCH  21  22
ENDBRANCH  19  21
ENDBRANCH   9  19
BRANCH  18  25
ATOM     25  C   UNL A   1      30.547  27.122  24.522  1.00  0.00     0.429 C 
ATOM     26  F   UNL A   1      29.830  28.239  24.244  1.00  0.00    -0.167 F 
ATOM     27  F   UNL A   1      31.387  26.940  23.473  1.00  0.00    -0.167 F 
ATOM     28  F   UNL A   1      29.690  26.078  24.518  1.00  0.00    -0.167 F 
ENDBRANCH  18  25
ENDBRANCH   5   8
ENDBRANCH   3   4
ENDBRANCH   2   3
ENDBRANCH   1   2
BRANCH   1  29
ATOM     29  C   UNL A   1      34.532  33.578  28.365  1.00  0.00     0.002 C 
BRANCH  29  30
ATOM     30  C   UNL A   1      33.322  34.384  28.840  1.00  0.00     0.021 C 
BRANCH  30  31
ATOM     31  C   UNL A   1      33.667  35.700  29.525  1.00  0.00     0.116 C 
BRANCH  31  32
ATOM     32  N   UNL A   1      32.706  36.060  30.556  1.00  0.00    -0.352 N 
ATOM     33  C   UNL A   1      32.700  35.725  31.888  1.00  0.00     0.251 C 
ATOM     34  H   UNL A   1      31.955  36.622  30.257  1.00  0.00     0.163 HD
ATOM     35  O   UNL A   1      31.729  35.977  32.592  1.00  0.00    -0.269 OA
BRANCH  33  36
ATOM     36  C   UNL A   1      33.868  35.023  32.459  1.00  0.00     0.039 A 
ATOM     37  C   UNL A   1      35.111  35.658  32.522  1.00  0.00     0.014 A 
ATOM     38  C   UNL A   1      33.724  33.704  32.895  1.00  0.00     0.014 A 
ATOM     39  C   UNL A   1      36.239  34.920  32.859  1.00  0.00     0.010 A 
ATOM     40  C   UNL A   1      34.847  32.992  33.321  1.00  0.00     0.010 A 
ATOM     41  C   UNL A   1      36.121  33.579  33.258  1.00  0.00    -0.014 A 
BRANCH  41  42
ATOM     42  C   UNL A   1      37.343  32.810  33.601  1.00  0.00     0.031 A 
ATOM     43  C   UNL A   1      37.926  31.817  32.634  1.00  0.00     0.074 A 
ATOM     44  C   UNL A   1      37.968  33.061  34.768  1.00  0.00     0.049 A 
ATOM     45  N   UNL A   1      39.007  31.087  32.757  1.00  0.00    -0.248 NA
ATOM     46  C   UNL A   1      37.209  31.615  31.365  1.00  0.00     0.031 C 
ATOM     47  C   UNL A   1      37.517  34.029  35.770  1.00  0.00     0.029 A 
ATOM     48  N   UNL A   1      39.132  32.556  35.291  1.00  0.00    -0.354 N 
ATOM     49  C   UNL A   1      39.094  30.337  31.590  1.00  0.00     0.074 A 
ATOM     50  C   UNL A   1      37.937  30.669  30.788  1.00  0.00     0.031 C 
ATOM     51  C   UNL A   1      38.428  34.099  36.750  1.00  0.00     0.029 A 
ATOM     52  C   UNL A   1      39.487  33.130  36.486  1.00  0.00     0.049 A 
ATOM     53  H   UNL A   1      39.660  31.851  34.851  1.00  0.00     0.167 HD
ATOM     54  C   UNL A   1      40.060  29.465  31.215  1.00  0.00     0.031 A 
ATOM     55  C   UNL A   1      40.542  32.902  37.291  1.00  0.00     0.031 A 
ATOM     56  C   UNL A   1      41.205  29.133  32.021  1.00  0.00     0.049 A 
ATOM     57  C   UNL A   1      41.556  31.870  36.893  1.00  0.00     0.074 A 
ATOM     58  C   UNL A   1      42.232  28.250  31.732  1.00  0.00     0.029 A 
ATOM     59  N   UNL A   1      41.478  29.668  33.271  1.00  0.00    -0.354 N 
ATOM     60  N   UNL A   1      41.615  31.158  35.794  1.00  0.00    -0.248 NA
ATOM     61  C   UNL A   1      42.643  31.605  37.845  1.00  0.00     0.031 C 
ATOM     62  C   UNL A   1      43.093  28.206  32.832  1.00  0.00     0.029 A 
ATOM     63  C   UNL A   1      42.644  29.116  33.776  1.00  0.00     0.049 A 
ATOM     64  H   UNL A   1      40.925  30.340  33.731  1.00  0.00     0.167 HD
ATOM     65  C   UNL A   1      42.750  30.368  35.915  1.00  0.00     0.074 A 
ATOM     66  C   UNL A   1      43.360  30.704  37.185  1.00  0.00     0.031 C 
ATOM     67  C   UNL A   1      43.238  29.448  35.047  1.00  0.00     0.031 A 
BRANCH  54  68
ATOM     68  C   UNL A   1      39.917  28.792  29.876  1.00  0.00    -0.014 A 
ATOM     69  C   UNL A   1      40.324  29.459  28.709  1.00  0.00     0.009 A 
ATOM     70  C   UNL A   1      39.312  27.532  29.758  1.00  0.00     0.009 A 
ATOM     71  C   UNL A   1      40.122  28.882  27.453  1.00  0.00     0.001 A 
ATOM     72  C   UNL A   1      39.141  26.941  28.503  1.00  0.00     0.001 A 
ATOM     73  C   UNL A   1      39.538  27.621  27.352  1.00  0.00     0.000 A 
ENDBRANCH  54  68
BRANCH  55  74
ATOM     74  C   UNL A   1      40.682  33.695  38.540  1.00  0.00    -0.014 A 
ATOM     75  C   UNL A   1      40.065  33.272  39.730  1.00  0.00     0.009 A 
ATOM     76  C   UNL A   1      41.355  34.925  38.527  1.00  0.00     0.009 A 
ATOM     77  C   UNL A   1      40.085  34.082  40.867  1.00  0.00     0.001 A 
ATOM     78  C   UNL A   1      41.399  35.720  39.675  1.00  0.00     0.001 A 
ATOM     79  C   UNL A   1      40.752  35.304  40.838  1.00  0.00     0.000 A 
ENDBRANCH  55  74
BRANCH  67  80
ATOM     80  C   UNL A   1      44.504  28.730  35.424  1.00  0.00    -0.014 A 
ATOM     81  C   UNL A   1      45.742  29.221  34.979  1.00  0.00     0.009 A 
ATOM     82  C   UNL A   1      44.466  27.515  36.123  1.00  0.00     0.009 A 
ATOM     83  C   UNL A   1      46.915  28.501  35.207  1.00  0.00     0.001 A 
ATOM     84  C   UNL A   1      45.645  26.811  36.377  1.00  0.00     0.001 A 
ATOM     85  C   UNL A   1      46.866  27.297  35.909  1.00  0.00     0.000 A 
ENDBRANCH  67  80
ENDBRANCH  41  42
ENDBRANCH  33  36
ENDBRANCH  31  32
ENDBRANCH  30  31
ENDBRANCH  29  30
ENDBRANCH   1  29
TORSDOF 17
ENDMDL
MODEL 2
REMARK VINA RESULT:     -10.9      2.041      6.253
REMARK SMILES CC(C)CN(C)c1cc2c(cc1Cl)C=C(C(=O)NCCCCCCNC(=O)c1ccc(-c3c4nc(c(-c5ccccc5)c5ccc([nH]5)c(-c5ccccc5)c5nc(c(-c6ccccc6)c6ccc3[nH]6)C=C5)C=C4)cc1)[C@@H](C(F)(F)F)O2
REMARK SMILES IDX 21 1 20 2 19 3 18 4 16 5 17 6 15 8 7 9 8 10 12 11 9 12 11 13
REMARK SMILES IDX 13 14 10 15 81 16 14 17 76 18 5 19 6 20 4 21 2 22 1 23 3 24
REMARK SMILES IDX 77 25 78 26 79 27 80 28 22 29 23 30 24 31 25 32 26 33 27 35
REMARK SMILES IDX 28 36 29 37 75 38 30 39 74 40 31 41 32 42 33 43 68 44 34 45
REMARK SMILES IDX 73 46 67 47 69 48 35 49 72 50 66 51 65 52 36 54 58 55 43 56
REMARK SMILES IDX 57 57 44 58 47 59 56 60 70 61 45 62 46 63 55 65 71 66 48 67
REMARK SMILES IDX 37 68 38 69 42 70 39 71 41 72 40 73 59 74 60 75 64 76 61 77
REMARK SMILES IDX 63 78 62 79 49 80 50 81 54 82 51 83 53 84 52 85
REMARK H PARENT 18 7 25 34 69 53 47 64
REMARK Flexibility Score: inf
ROOT
ATOM      1  C   UNL A   1      31.620  29.272  27.106  1.00  0.00     0.002 C 
ENDROOT
BRANCH   1   2
ATOM      2  C   UNL A   1      31.600  28.132  26.083  1.00  0.00     0.021 C 
BRANCH   2   3
ATOM      3  C   UNL A   1      31.158  28.562  24.689  1.00  0.00     0.116 C 
BRANCH   3   4
ATOM      4  N   UNL A   1      29.919  27.910  24.311  1.00  0.00    -0.352 N 
ATOM      5  C   UNL A   1      29.511  26.655  24.020  1.00  0.00     0.251 C 
ATOM      6  O   UNL A   1      28.312  26.544  23.749  1.00  0.00    -0.270 OA
ATOM      7  H   UNL A   1      29.176  28.553  24.251  1.00  0.00     0.163 HD
BRANCH   5   8
ATOM      8  C   UNL A   1      30.382  25.447  24.012  1.00  0.00     0.067 C 
ATOM      9  C   UNL A   1      33.023  21.348  25.314  1.00  0.00     0.059 A 
ATOM     10  C   UNL A   1      32.429  21.797  24.123  1.00  0.00     0.074 A 
ATOM     11  C   UNL A   1      32.888  22.169  26.457  1.00  0.00     0.065 A 
ATOM     12  C   UNL A   1      31.708  22.988  24.095  1.00  0.00     0.130 A 
ATOM     13  C   UNL A   1      32.069  23.304  26.447  1.00  0.00     0.034 A 
ATOM     14  Cl  UNL A   1      33.761  21.864  27.922  1.00  0.00    -0.082 Cl
ATOM     15  C   UNL A   1      31.465  23.707  25.263  1.00  0.00     0.019 A 
ATOM     16  O   UNL A   1      31.248  23.419  22.880  1.00  0.00    -0.475 OA
ATOM     17  C   UNL A   1      30.588  24.869  25.209  1.00  0.00     0.025 C 
ATOM     18  C   UNL A   1      31.056  24.865  22.800  1.00  0.00     0.314 C 
BRANCH   9  19
ATOM     19  N   UNL A   1      33.694  20.115  25.348  1.00  0.00    -0.373 N 
ATOM     20  C   UNL A   1      35.077  20.141  24.875  1.00  0.00     0.143 C 
BRANCH  19  21
ATOM     21  C   UNL A   1      32.898  18.924  24.972  1.00  0.00     0.119 C 
BRANCH  21  22
ATOM     22  C   UNL A   1      33.461  18.189  23.738  1.00  0.00     0.002 C 
ATOM     23  C   UNL A   1      34.031  16.812  24.094  1.00  0.00     0.009 C 
ATOM     24  C   UNL A   1      32.393  18.017  22.654  1.00  0.00     0.009 C 
ENDBRANCH  21  22
ENDBRANCH  19  21
ENDBRANCH   9  19
BRANCH  18  25
ATOM     25  C   UNL A   1      32.388  25.581  22.484  1.00  0.00     0.429 C 
ATOM     26  F   UNL A   1      32.987  26.004  23.625  1.00  0.00    -0.167 F 
ATOM     27  F   UNL A   1      33.277  24.761  21.869  1.00  0.00    -0.167 F 
ATOM     28  F   UNL A   1      32.238  26.659  21.683  1.00  0.00    -0.167 F 
ENDBRANCH  18  25
ENDBRANCH   5   8
ENDBRANCH   3   4
ENDBRANCH   2   3
ENDBRANCH   1   2
BRANCH   1  29
ATOM     29  C   UNL A   1      32.614  30.401  26.807  1.00  0.00     0.002 C 
BRANCH  29  30
ATOM     30  C   UNL A   1      32.090  31.816  27.058  1.00  0.00     0.021 C 
BRANCH  30  31
ATOM     31  C   UNL A   1      33.172  32.882  27.171  1.00  0.00     0.116 C 
BRANCH  31  32
ATOM     32  N   UNL A   1      32.668  34.132  27.717  1.00  0.00    -0.352 N 
ATOM     33  C   UNL A   1      33.104  34.834  28.813  1.00  0.00     0.251 C 
ATOM     34  H   UNL A   1      31.908  34.530  27.233  1.00  0.00     0.163 HD
ATOM     35  O   UNL A   1      32.466  35.792  29.237  1.00  0.00    -0.269 OA
BRANCH  33  36
ATOM     36  C   UNL A   1      34.336  34.401  29.503  1.00  0.00     0.039 A 
ATOM     37  C   UNL A   1      35.589  34.670  28.945  1.00  0.00     0.014 A 
ATOM     38  C   UNL A   1      34.232  33.682  30.696  1.00  0.00     0.014 A 
ATOM     39  C   UNL A   1      36.721  34.076  29.488  1.00  0.00     0.010 A 
ATOM     40  C   UNL A   1      35.384  33.162  31.290  1.00  0.00     0.010 A 
ATOM     41  C   UNL A   1      36.632  33.312  30.664  1.00  0.00    -0.014 A 
BRANCH  41  42
ATOM     42  C   UNL A   1      37.855  32.678  31.215  1.00  0.00     0.031 A 
ATOM     43  C   UNL A   1      38.463  33.168  32.501  1.00  0.00     0.074 A 
ATOM     44  C   UNL A   1      38.381  31.610  30.584  1.00  0.00     0.049 A 
ATOM     45  N   UNL A   1      39.508  32.706  33.144  1.00  0.00    -0.248 NA
ATOM     46  C   UNL A   1      37.819  34.319  33.154  1.00  0.00     0.031 C 
ATOM     47  C   UNL A   1      37.856  31.024  29.350  1.00  0.00     0.029 A 
ATOM     48  N   UNL A   1      39.444  30.808  30.911  1.00  0.00    -0.354 N 
ATOM     49  C   UNL A   1      39.650  33.513  34.266  1.00  0.00     0.074 A 
ATOM     50  C   UNL A   1      38.611  34.517  34.199  1.00  0.00     0.031 C 
ATOM     51  C   UNL A   1      38.552  29.916  29.063  1.00  0.00     0.029 A 
ATOM     52  C   UNL A   1      39.618  29.755  30.047  1.00  0.00     0.049 A 
ATOM     53  H   UNL A   1      40.024  30.970  31.690  1.00  0.00     0.167 HD
ATOM     54  C   UNL A   1      40.554  33.415  35.270  1.00  0.00     0.031 A 
ATOM     55  C   UNL A   1      40.537  28.770  30.036  1.00  0.00     0.031 A 
ATOM     56  C   UNL A   1      41.591  32.418  35.328  1.00  0.00     0.049 A 
ATOM     57  C   UNL A   1      41.580  28.731  31.114  1.00  0.00     0.074 A 
ATOM     58  C   UNL A   1      42.563  32.245  36.299  1.00  0.00     0.029 A 
ATOM     59  N   UNL A   1      41.792  31.426  34.380  1.00  0.00    -0.354 N 
ATOM     60  N   UNL A   1      41.710  29.511  32.160  1.00  0.00    -0.248 NA
ATOM     61  C   UNL A   1      42.604  27.683  31.009  1.00  0.00     0.031 C 
ATOM     62  C   UNL A   1      43.388  31.187  35.907  1.00  0.00     0.029 A 
ATOM     63  C   UNL A   1      42.886  30.653  34.731  1.00  0.00     0.049 A 
ATOM     64  H   UNL A   1      41.239  31.291  33.577  1.00  0.00     0.167 HD
ATOM     65  C   UNL A   1      42.822  29.043  32.845  1.00  0.00     0.074 A 
ATOM     66  C   UNL A   1      43.318  27.899  32.107  1.00  0.00     0.031 C 
ATOM     67  C   UNL A   1      43.380  29.523  33.984  1.00  0.00     0.031 A 
BRANCH  54  68
ATOM     68  C   UNL A   1      40.475  34.420  36.387  1.00  0.00    -0.014 A 
ATOM     69  C   UNL A   1      41.173  35.635  36.288  1.00  0.00     0.009 A 
ATOM     70  C   UNL A   1      39.773  34.139  37.569  1.00  0.00     0.009 A 
ATOM     71  C   UNL A   1      41.177  36.542  37.349  1.00  0.00     0.001 A 
ATOM     72  C   UNL A   1      39.750  35.063  38.617  1.00  0.00     0.001 A 
ATOM     73  C   UNL A   1      40.459  36.259  38.510  1.00  0.00     0.000 A 
ENDBRANCH  54  68
BRANCH  55  74
ATOM     74  C   UNL A   1      40.476  27.739  28.968  1.00  0.00    -0.014 A 
ATOM     75  C   UNL A   1      41.147  27.930  27.749  1.00  0.00     0.009 A 
ATOM     76  C   UNL A   1      39.672  26.601  29.127  1.00  0.00     0.009 A 
ATOM     77  C   UNL A   1      40.983  27.026  26.698  1.00  0.00     0.001 A 
ATOM     78  C   UNL A   1      39.534  25.682  28.084  1.00  0.00     0.001 A 
ATOM     79  C   UNL A   1      40.177  25.903  26.866  1.00  0.00     0.000 A 
ENDBRANCH  55  74
BRANCH  67  80
ATOM     80  C   UNL A   1      44.591  28.816  34.524  1.00  0.00    -0.014 A 
ATOM     81  C   UNL A   1      45.871  29.191  34.083  1.00  0.00     0.009 A 
ATOM     82  C   UNL A   1      44.464  27.713  35.380  1.00  0.00     0.009 A 
ATOM     83  C   UNL A   1      46.997  28.464  34.472  1.00  0.00     0.001 A 
ATOM     84  C   UNL A   1      45.595  27.006  35.792  1.00  0.00     0.001 A 
ATOM     85  C   UNL A   1      46.859  27.374  35.329  1.00  0.00     0.000 A 
ENDBRANCH  67  80
ENDBRANCH  41  42
ENDBRANCH  33  36
ENDBRANCH  31  32
ENDBRANCH  30  31
ENDBRANCH  29  30
ENDBRANCH   1  29
TORSDOF 17
ENDMDL
MODEL 3
REMARK VINA RESULT:     -10.9      5.183      7.021
REMARK SMILES CC(C)CN(C)c1cc2c(cc1Cl)C=C(C(=O)NCCCCCCNC(=O)c1ccc(-c3c4nc(c(-c5ccccc5)c5ccc([nH]5)c(-c5ccccc5)c5nc(c(-c6ccccc6)c6ccc3[nH]6)C=C5)C=C4)cc1)[C@@H](C(F)(F)F)O2
REMARK SMILES IDX 21 1 20 2 19 3 18 4 16 5 17 6 15 8 7 9 8 10 12 11 9 12 11 13
REMARK SMILES IDX 13 14 10 15 81 16 14 17 76 18 5 19 6 20 4 21 2 22 1 23 3 24
REMARK SMILES IDX 77 25 78 26 79 27 80 28 22 29 23 30 24 31 25 32 26 33 27 35
REMARK SMILES IDX 28 36 29 37 75 38 30 39 74 40 31 41 32 42 33 43 68 44 34 45
REMARK SMILES IDX 73 46 67 47 69 48 35 49 72 50 66 51 65 52 36 54 58 55 43 56
REMARK SMILES IDX 57 57 44 58 47 59 56 60 70 61 45 62 46 63 55 65 71 66 48 67
REMARK SMILES IDX 37 68 38 69 42 70 39 71 41 72 40 73 59 74 60 75 64 76 61 77
REMARK SMILES IDX 63 78 62 79 49 80 50 81 54 82 51 83 53 84 52 85
REMARK H PARENT 18 7 25 34 69 53 47 64
REMARK Flexibility Score: inf
ROOT
ATOM      1  C   UNL A   1      31.990  28.938  26.945  1.00  0.00     0.002 C 
ENDROOT
BRANCH   1   2
ATOM      2  C   UNL A   1      31.694  29.861  25.759  1.00  0.00     0.021 C 
BRANCH   2   3
ATOM      3  C   UNL A   1      31.799  29.174  24.402  1.00  0.00     0.116 C 
BRANCH   3   4
ATOM      4  N   UNL A   1      30.540  28.557  24.032  1.00  0.00    -0.352 N 
ATOM      5  C   UNL A   1      30.080  27.306  23.807  1.00  0.00     0.251 C 
ATOM      6  O   UNL A   1      28.883  27.233  23.512  1.00  0.00    -0.270 OA
ATOM      7  H   UNL A   1      29.830  29.228  23.914  1.00  0.00     0.163 HD
BRANCH   5   8
ATOM      8  C   UNL A   1      30.893  26.062  23.895  1.00  0.00     0.067 C 
ATOM      9  C   UNL A   1      33.175  21.845  25.471  1.00  0.00     0.059 A 
ATOM     10  C   UNL A   1      32.753  22.325  24.220  1.00  0.00     0.074 A 
ATOM     11  C   UNL A   1      32.934  22.666  26.598  1.00  0.00     0.065 A 
ATOM     12  C   UNL A   1      32.093  23.546  24.116  1.00  0.00     0.130 A 
ATOM     13  C   UNL A   1      32.172  23.835  26.498  1.00  0.00     0.034 A 
ATOM     14  Cl  UNL A   1      33.604  22.316  28.156  1.00  0.00    -0.082 Cl
ATOM     15  C   UNL A   1      31.737  24.270  25.252  1.00  0.00     0.019 A 
ATOM     16  O   UNL A   1      31.805  24.003  22.858  1.00  0.00    -0.475 OA
ATOM     17  C   UNL A   1      30.924  25.469  25.102  1.00  0.00     0.025 C 
ATOM     18  C   UNL A   1      31.686  25.457  22.770  1.00  0.00     0.314 C 
BRANCH   9  19
ATOM     19  N   UNL A   1      33.783  20.584  25.576  1.00  0.00    -0.373 N 
ATOM     20  C   UNL A   1      35.128  20.488  25.011  1.00  0.00     0.143 C 
BRANCH  19  21
ATOM     21  C   UNL A   1      32.902  19.411  25.366  1.00  0.00     0.119 C 
BRANCH  21  22
ATOM     22  C   UNL A   1      33.476  18.402  24.351  1.00  0.00     0.002 C 
ATOM     23  C   UNL A   1      33.663  17.008  24.960  1.00  0.00     0.009 C 
ATOM     24  C   UNL A   1      32.582  18.285  23.113  1.00  0.00     0.009 C 
ENDBRANCH  21  22
ENDBRANCH  19  21
ENDBRANCH   9  19
BRANCH  18  25
ATOM     25  C   UNL A   1      33.077  26.116  22.628  1.00  0.00     0.429 C 
ATOM     26  F   UNL A   1      33.937  25.285  21.988  1.00  0.00    -0.167 F 
ATOM     27  F   UNL A   1      33.031  27.255  21.894  1.00  0.00    -0.167 F 
ATOM     28  F   UNL A   1      33.637  26.442  23.814  1.00  0.00    -0.167 F 
ENDBRANCH  18  25
ENDBRANCH   5   8
ENDBRANCH   3   4
ENDBRANCH   2   3
ENDBRANCH   1   2
BRANCH   1  29
ATOM     29  C   UNL A   1      33.374  28.277  26.931  1.00  0.00     0.002 C 
BRANCH  29  30
ATOM     30  C   UNL A   1      34.433  28.959  27.800  1.00  0.00     0.021 C 
BRANCH  30  31
ATOM     31  C   UNL A   1      34.507  30.471  27.639  1.00  0.00     0.116 C 
BRANCH  31  32
ATOM     32  N   UNL A   1      34.536  31.167  28.916  1.00  0.00    -0.352 N 
ATOM     33  C   UNL A   1      35.503  31.145  29.890  1.00  0.00     0.251 C 
ATOM     34  H   UNL A   1      33.753  31.733  29.108  1.00  0.00     0.163 HD
ATOM     35  O   UNL A   1      35.301  31.663  30.983  1.00  0.00    -0.269 OA
BRANCH  33  36
ATOM     36  C   UNL A   1      36.781  30.455  29.622  1.00  0.00     0.039 A 
ATOM     37  C   UNL A   1      37.398  29.698  30.621  1.00  0.00     0.014 A 
ATOM     38  C   UNL A   1      37.388  30.605  28.372  1.00  0.00     0.014 A 
ATOM     39  C   UNL A   1      38.693  29.236  30.428  1.00  0.00     0.010 A 
ATOM     40  C   UNL A   1      38.654  30.060  28.151  1.00  0.00     0.010 A 
ATOM     41  C   UNL A   1      39.338  29.415  29.193  1.00  0.00    -0.014 A 
BRANCH  41  42
ATOM     42  C   UNL A   1      40.727  28.922  29.017  1.00  0.00     0.031 A 
ATOM     43  C   UNL A   1      40.994  27.496  28.620  1.00  0.00     0.074 A 
ATOM     44  C   UNL A   1      41.750  29.787  29.154  1.00  0.00     0.049 A 
ATOM     45  N   UNL A   1      42.142  26.909  28.388  1.00  0.00    -0.248 NA
ATOM     46  C   UNL A   1      39.827  26.614  28.459  1.00  0.00     0.031 C 
ATOM     47  C   UNL A   1      41.612  31.202  29.501  1.00  0.00     0.029 A 
ATOM     48  N   UNL A   1      43.100  29.615  28.979  1.00  0.00    -0.354 N 
ATOM     49  C   UNL A   1      41.837  25.593  28.063  1.00  0.00     0.074 A 
ATOM     50  C   UNL A   1      40.401  25.455  28.166  1.00  0.00     0.031 C 
ATOM     51  C   UNL A   1      42.817  31.786  29.445  1.00  0.00     0.029 A 
ATOM     52  C   UNL A   1      43.821  30.774  29.133  1.00  0.00     0.049 A 
ATOM     53  H   UNL A   1      43.511  28.747  28.765  1.00  0.00     0.167 HD
ATOM     54  C   UNL A   1      42.676  24.595  27.696  1.00  0.00     0.031 A 
ATOM     55  C   UNL A   1      45.146  31.003  29.042  1.00  0.00     0.031 A 
ATOM     56  C   UNL A   1      44.106  24.736  27.604  1.00  0.00     0.049 A 
ATOM     57  C   UNL A   1      46.064  29.862  28.716  1.00  0.00     0.074 A 
ATOM     58  C   UNL A   1      45.042  23.779  27.252  1.00  0.00     0.029 A 
ATOM     59  N   UNL A   1      44.806  25.905  27.862  1.00  0.00    -0.354 N 
ATOM     60  N   UNL A   1      45.761  28.620  28.427  1.00  0.00    -0.248 NA
ATOM     61  C   UNL A   1      47.505  30.151  28.708  1.00  0.00     0.031 C 
ATOM     62  C   UNL A   1      46.313  24.352  27.356  1.00  0.00     0.029 A 
ATOM     63  C   UNL A   1      46.164  25.686  27.700  1.00  0.00     0.049 A 
ATOM     64  H   UNL A   1      44.399  26.763  28.120  1.00  0.00     0.167 HD
ATOM     65  C   UNL A   1      46.970  27.980  28.192  1.00  0.00     0.074 A 
ATOM     66  C   UNL A   1      48.009  28.977  28.351  1.00  0.00     0.031 C 
ATOM     67  C   UNL A   1      47.193  26.682  27.872  1.00  0.00     0.031 A 
BRANCH  54  68
ATOM     68  C   UNL A   1      42.075  23.253  27.379  1.00  0.00    -0.014 A 
ATOM     69  C   UNL A   1      42.012  22.260  28.371  1.00  0.00     0.009 A 
ATOM     70  C   UNL A   1      41.638  22.940  26.083  1.00  0.00     0.009 A 
ATOM     71  C   UNL A   1      41.533  20.984  28.071  1.00  0.00     0.001 A 
ATOM     72  C   UNL A   1      41.128  21.672  25.792  1.00  0.00     0.001 A 
ATOM     73  C   UNL A   1      41.084  20.693  26.783  1.00  0.00     0.000 A 
ENDBRANCH  54  68
BRANCH  55  74
ATOM     74  C   UNL A   1      45.654  32.384  29.248  1.00  0.00    -0.014 A 
ATOM     75  C   UNL A   1      45.850  33.245  28.154  1.00  0.00     0.009 A 
ATOM     76  C   UNL A   1      46.032  32.817  30.526  1.00  0.00     0.009 A 
ATOM     77  C   UNL A   1      46.451  34.492  28.332  1.00  0.00     0.001 A 
ATOM     78  C   UNL A   1      46.605  34.078  30.705  1.00  0.00     0.001 A 
ATOM     79  C   UNL A   1      46.827  34.908  29.606  1.00  0.00     0.000 A 
ENDBRANCH  55  74
BRANCH  67  80
ATOM     80  C   UNL A   1      48.616  26.245  27.662  1.00  0.00    -0.014 A 
ATOM     81  C   UNL A   1      49.175  26.289  26.374  1.00  0.00     0.009 A 
ATOM     82  C   UNL A   1      49.365  25.691  28.710  1.00  0.00     0.009 A 
ATOM     83  C   UNL A   1      50.447  25.768  26.135  1.00  0.00     0.001 A 
ATOM     84  C   UNL A   1      50.651  25.198  28.474  1.00  0.00     0.001 A 
ATOM     85  C   UNL A   1      51.185  25.226  27.186  1.00  0.00     0.000 A 
ENDBRANCH  67  80
ENDBRANCH  41  42
ENDBRANCH  33  36
ENDBRANCH  31  32
ENDBRANCH  30  31
ENDBRANCH  29  30
ENDBRANCH   1  29
TORSDOF 17
ENDMDL
