MODEL 1
REMARK VINA RESULT:     -11.0      0.000      0.000
REMARK SMILES CC(C)c1cc(OCC(=O)NCCCCCCNC(=O)c2ccc(-c3c4nc(c(-c5ccccc5)c5ccc([nH]5)c(-c5ccccc5)c5nc(c(-c6ccccc6)c6ccc3[nH]6)C=C5)C=C4)cc2)nc(Nc2ccc(F)cc2F)n1
REMARK SMILES IDX 13 1 12 2 11 3 9 4 10 5 8 7 7 8 6 9 4 10 5 11 80 12 70 13
REMARK SMILES IDX 69 14 2 15 1 16 3 17 71 18 72 20 73 21 78 22 74 23 77 24
REMARK SMILES IDX 79 25 75 26 76 27 14 28 15 29 16 30 17 31 18 32 19 33 20 35
REMARK SMILES IDX 21 36 22 37 68 38 23 39 67 40 24 41 25 42 26 43 61 44 27 45
REMARK SMILES IDX 66 46 60 47 62 48 28 49 65 50 59 51 58 52 29 54 51 55 36 56
REMARK SMILES IDX 50 57 37 58 40 59 49 60 63 61 38 62 39 63 48 65 64 66 41 67
REMARK SMILES IDX 30 68 31 69 35 70 32 71 34 72 33 73 52 74 53 75 57 76 54 77
REMARK SMILES IDX 56 78 55 79 42 80 43 81 47 82 44 83 46 84 45 85
REMARK H PARENT 11 6 71 19 18 34 62 53 40 64
REMARK Flexibility Score: inf
ROOT
ATOM      1  C   UNL A   1      34.793  31.485  28.377  1.00  0.00     0.021 C 
ENDROOT
BRANCH   1   2
ATOM      2  C   UNL A   1      33.653  31.198  27.401  1.00  0.00     0.116 C 
BRANCH   2   3
ATOM      3  N   UNL A   1      32.965  29.964  27.725  1.00  0.00    -0.353 N 
ATOM      4  C   UNL A   1      33.048  28.758  27.099  1.00  0.00     0.258 C 
ATOM      5  O   UNL A   1      32.367  27.820  27.519  1.00  0.00    -0.271 OA
ATOM      6  H   UNL A   1      32.359  30.003  28.499  1.00  0.00     0.163 HD
BRANCH   4   7
ATOM      7  C   UNL A   1      33.998  28.580  25.909  1.00  0.00     0.331 C 
BRANCH   7   8
ATOM      8  O   UNL A   1      33.580  29.097  24.659  1.00  0.00    -0.467 OA
BRANCH   8   9
ATOM      9  C   UNL A   1      32.689  28.371  23.921  1.00  0.00     0.218 A 
ATOM     10  C   UNL A   1      31.930  26.591  22.606  1.00  0.00     0.052 A 
ATOM     11  C   UNL A   1      32.981  27.210  23.245  1.00  0.00     0.092 A 
ATOM     12  N   UNL A   1      30.699  27.126  22.601  1.00  0.00    -0.217 NA
ATOM     13  C   UNL A   1      30.495  28.271  23.266  1.00  0.00     0.230 A 
ATOM     14  N   UNL A   1      31.461  28.921  23.925  1.00  0.00    -0.177 NA
BRANCH  10  15
ATOM     15  C   UNL A   1      32.147  25.310  21.830  1.00  0.00     0.032 C 
ATOM     16  C   UNL A   1      32.525  25.584  20.370  1.00  0.00     0.014 C 
ATOM     17  C   UNL A   1      33.218  24.462  22.514  1.00  0.00     0.014 C 
ENDBRANCH  10  15
BRANCH  13  18
ATOM     18  N   UNL A   1      29.248  28.886  23.193  1.00  0.00    -0.322 N 
ATOM     19  H   UNL A   1      28.503  28.416  23.632  1.00  0.00     0.170 HD
BRANCH  18  20
ATOM     20  C   UNL A   1      28.933  30.096  22.564  1.00  0.00     0.077 A 
ATOM     21  C   UNL A   1      28.474  30.085  21.239  1.00  0.00     0.032 A 
ATOM     22  C   UNL A   1      28.935  31.325  23.251  1.00  0.00     0.149 A 
ATOM     23  C   UNL A   1      28.018  31.261  20.636  1.00  0.00     0.041 A 
ATOM     24  C   UNL A   1      28.498  32.502  22.653  1.00  0.00     0.080 A 
ATOM     25  F   UNL A   1      29.414  31.398  24.504  1.00  0.00    -0.205 F 
ATOM     26  C   UNL A   1      28.031  32.455  21.350  1.00  0.00     0.126 A 
ATOM     27  F   UNL A   1      27.584  33.575  20.769  1.00  0.00    -0.207 F 
ENDBRANCH  18  20
ENDBRANCH  13  18
ENDBRANCH   8   9
ENDBRANCH   7   8
ENDBRANCH   4   7
ENDBRANCH   2   3
ENDBRANCH   1   2
BRANCH   1  28
ATOM     28  C   UNL A   1      34.478  32.549  29.437  1.00  0.00     0.002 C 
BRANCH  28  29
ATOM     29  C   UNL A   1      34.633  34.004  28.982  1.00  0.00     0.002 C 
BRANCH  29  30
ATOM     30  C   UNL A   1      33.340  34.820  28.948  1.00  0.00     0.021 C 
BRANCH  30  31
ATOM     31  C   UNL A   1      33.430  36.191  29.611  1.00  0.00     0.116 C 
BRANCH  31  32
ATOM     32  N   UNL A   1      32.499  36.332  30.719  1.00  0.00    -0.352 N 
ATOM     33  C   UNL A   1      32.551  35.783  31.975  1.00  0.00     0.251 C 
ATOM     34  H   UNL A   1      31.718  36.906  30.542  1.00  0.00     0.163 HD
ATOM     35  O   UNL A   1      31.582  35.869  32.728  1.00  0.00    -0.269 OA
BRANCH  33  36
ATOM     36  C   UNL A   1      33.764  35.065  32.421  1.00  0.00     0.039 A 
ATOM     37  C   UNL A   1      33.642  33.745  32.864  1.00  0.00     0.014 A 
ATOM     38  C   UNL A   1      35.015  35.687  32.408  1.00  0.00     0.014 A 
ATOM     39  C   UNL A   1      34.784  33.030  33.233  1.00  0.00     0.010 A 
ATOM     40  C   UNL A   1      36.159  34.951  32.703  1.00  0.00     0.010 A 
ATOM     41  C   UNL A   1      36.056  33.616  33.121  1.00  0.00    -0.014 A 
BRANCH  41  42
ATOM     42  C   UNL A   1      37.287  32.845  33.430  1.00  0.00     0.031 A 
ATOM     43  C   UNL A   1      38.050  33.106  34.700  1.00  0.00     0.074 A 
ATOM     44  C   UNL A   1      37.755  31.949  32.537  1.00  0.00     0.049 A 
ATOM     45  N   UNL A   1      39.169  32.570  35.117  1.00  0.00    -0.248 NA
ATOM     46  C   UNL A   1      37.494  34.119  35.612  1.00  0.00     0.031 C 
ATOM     47  C   UNL A   1      37.132  31.627  31.252  1.00  0.00     0.029 A 
ATOM     48  N   UNL A   1      38.871  31.149  32.574  1.00  0.00    -0.354 N 
ATOM     49  C   UNL A   1      39.459  33.192  36.325  1.00  0.00     0.074 A 
ATOM     50  C   UNL A   1      38.426  34.178  36.551  1.00  0.00     0.031 C 
ATOM     51  C   UNL A   1      37.854  30.676  30.639  1.00  0.00     0.029 A 
ATOM     52  C   UNL A   1      39.014  30.354  31.462  1.00  0.00     0.049 A 
ATOM     53  H   UNL A   1      39.505  31.145  33.326  1.00  0.00     0.167 HD
ATOM     54  C   UNL A   1      40.484  32.952  37.178  1.00  0.00     0.031 A 
ATOM     55  C   UNL A   1      39.977  29.470  31.139  1.00  0.00     0.031 A 
ATOM     56  C   UNL A   1      41.507  31.965  36.958  1.00  0.00     0.049 A 
ATOM     57  C   UNL A   1      41.117  29.242  32.092  1.00  0.00     0.074 A 
ATOM     58  C   UNL A   1      42.552  31.607  37.792  1.00  0.00     0.029 A 
ATOM     59  N   UNL A   1      41.619  31.184  35.818  1.00  0.00    -0.354 N 
ATOM     60  N   UNL A   1      41.335  29.785  33.265  1.00  0.00    -0.248 NA
ATOM     61  C   UNL A   1      42.138  28.269  31.679  1.00  0.00     0.031 C 
ATOM     62  C   UNL A   1      43.330  30.651  37.132  1.00  0.00     0.029 A 
ATOM     63  C   UNL A   1      42.733  30.367  35.915  1.00  0.00     0.049 A 
ATOM     64  H   UNL A   1      40.998  31.207  35.054  1.00  0.00     0.167 HD
ATOM     65  C   UNL A   1      42.499  29.196  33.744  1.00  0.00     0.074 A 
ATOM     66  C   UNL A   1      42.931  28.244  32.741  1.00  0.00     0.031 C 
ATOM     67  C   UNL A   1      43.151  29.424  34.910  1.00  0.00     0.031 A 
BRANCH  54  68
ATOM     68  C   UNL A   1      40.555  33.784  38.429  1.00  0.00    -0.014 A 
ATOM     69  C   UNL A   1      41.195  35.034  38.442  1.00  0.00     0.009 A 
ATOM     70  C   UNL A   1      39.938  33.328  39.605  1.00  0.00     0.009 A 
ATOM     71  C   UNL A   1      41.246  35.793  39.614  1.00  0.00     0.001 A 
ATOM     72  C   UNL A   1      39.964  34.102  40.767  1.00  0.00     0.001 A 
ATOM     73  C   UNL A   1      40.626  35.327  40.773  1.00  0.00     0.000 A 
ENDBRANCH  54  68
BRANCH  55  74
ATOM     74  C   UNL A   1      39.904  28.722  29.855  1.00  0.00    -0.014 A 
ATOM     75  C   UNL A   1      40.366  29.304  28.665  1.00  0.00     0.009 A 
ATOM     76  C   UNL A   1      39.356  27.430  29.809  1.00  0.00     0.009 A 
ATOM     77  C   UNL A   1      40.252  28.622  27.451  1.00  0.00     0.001 A 
ATOM     78  C   UNL A   1      39.272  26.738  28.599  1.00  0.00     0.001 A 
ATOM     79  C   UNL A   1      39.709  27.339  27.420  1.00  0.00     0.000 A 
ENDBRANCH  55  74
BRANCH  67  80
ATOM     80  C   UNL A   1      44.378  28.599  35.186  1.00  0.00    -0.014 A 
ATOM     81  C   UNL A   1      44.293  27.351  35.825  1.00  0.00     0.009 A 
ATOM     82  C   UNL A   1      45.634  29.063  34.766  1.00  0.00     0.009 A 
ATOM     83  C   UNL A   1      45.447  26.603  36.066  1.00  0.00     0.001 A 
ATOM     84  C   UNL A   1      46.781  28.298  34.980  1.00  0.00     0.001 A 
ATOM     85  C   UNL A   1      46.688  27.074  35.638  1.00  0.00     0.000 A 
ENDBRANCH  67  80
ENDBRANCH  41  42
ENDBRANCH  33  36
ENDBRANCH  31  32
ENDBRANCH  30  31
ENDBRANCH  29  30
ENDBRANCH  28  29
ENDBRANCH   1  28
TORSDOF 18
ENDMDL
MODEL 2
REMARK VINA RESULT:     -10.7      6.925     11.913
REMARK SMILES CC(C)c1cc(OCC(=O)NCCCCCCNC(=O)c2ccc(-c3c4nc(c(-c5ccccc5)c5ccc([nH]5)c(-c5ccccc5)c5nc(c(-c6ccccc6)c6ccc3[nH]6)C=C5)C=C4)cc2)nc(Nc2ccc(F)cc2F)n1
REMARK SMILES IDX 13 1 12 2 11 3 9 4 10 5 8 7 7 8 6 9 4 10 5 11 80 12 70 13
REMARK SMILES IDX 69 14 2 15 1 16 3 17 71 18 72 20 73 21 78 22 74 23 77 24
REMARK SMILES IDX 79 25 75 26 76 27 14 28 15 29 16 30 17 31 18 32 19 33 20 35
REMARK SMILES IDX 21 36 22 37 68 38 23 39 67 40 24 41 25 42 26 43 61 44 27 45
REMARK SMILES IDX 66 46 60 47 62 48 28 49 65 50 59 51 58 52 29 54 51 55 36 56
REMARK SMILES IDX 50 57 37 58 40 59 49 60 63 61 38 62 39 63 48 65 64 66 41 67
REMARK SMILES IDX 30 68 31 69 35 70 32 71 34 72 33 73 52 74 53 75 57 76 54 77
REMARK SMILES IDX 56 78 55 79 42 80 43 81 47 82 44 83 46 84 45 85
REMARK H PARENT 11 6 71 19 18 34 62 53 40 64
REMARK Flexibility Score: inf
ROOT
ATOM      1  C   UNL A   1      40.396  22.560  27.120  1.00  0.00     0.021 C 
ENDROOT
BRANCH   1   2
ATOM      2  C   UNL A   1      39.289  22.028  26.211  1.00  0.00     0.116 C 
BRANCH   2   3
ATOM      3  N   UNL A   1      38.416  23.088  25.749  1.00  0.00    -0.353 N 
ATOM      4  C   UNL A   1      37.078  23.037  25.498  1.00  0.00     0.258 C 
ATOM      5  O   UNL A   1      36.507  24.052  25.094  1.00  0.00    -0.271 OA
ATOM      6  H   UNL A   1      38.846  23.961  25.598  1.00  0.00     0.163 HD
BRANCH   4   7
ATOM      7  C   UNL A   1      36.305  21.736  25.745  1.00  0.00     0.331 C 
BRANCH   7   8
ATOM      8  O   UNL A   1      34.910  21.838  25.962  1.00  0.00    -0.467 OA
BRANCH   8   9
ATOM      9  C   UNL A   1      34.067  21.358  25.000  1.00  0.00     0.218 A 
ATOM     10  C   UNL A   1      32.882  19.746  23.788  1.00  0.00     0.052 A 
ATOM     11  C   UNL A   1      33.809  20.027  24.765  1.00  0.00     0.092 A 
ATOM     12  N   UNL A   1      32.304  20.719  23.068  1.00  0.00    -0.217 NA
ATOM     13  C   UNL A   1      32.620  21.993  23.341  1.00  0.00     0.230 A 
ATOM     14  N   UNL A   1      33.497  22.346  24.286  1.00  0.00    -0.177 NA
BRANCH  10  15
ATOM     15  C   UNL A   1      32.530  18.312  23.450  1.00  0.00     0.032 C 
ATOM     16  C   UNL A   1      32.198  18.142  21.964  1.00  0.00     0.014 C 
ATOM     17  C   UNL A   1      33.675  17.386  23.857  1.00  0.00     0.014 C 
ENDBRANCH  10  15
BRANCH  13  18
ATOM     18  N   UNL A   1      32.101  23.008  22.541  1.00  0.00    -0.322 N 
ATOM     19  H   UNL A   1      32.022  22.808  21.580  1.00  0.00     0.170 HD
BRANCH  18  20
ATOM     20  C   UNL A   1      31.679  24.278  22.948  1.00  0.00     0.077 A 
ATOM     21  C   UNL A   1      30.465  24.413  23.636  1.00  0.00     0.032 A 
ATOM     22  C   UNL A   1      32.488  25.421  22.807  1.00  0.00     0.149 A 
ATOM     23  C   UNL A   1      30.089  25.647  24.177  1.00  0.00     0.041 A 
ATOM     24  C   UNL A   1      32.115  26.655  23.329  1.00  0.00     0.080 A 
ATOM     25  F   UNL A   1      33.635  25.355  22.111  1.00  0.00    -0.205 F 
ATOM     26  C   UNL A   1      30.919  26.753  24.021  1.00  0.00     0.126 A 
ATOM     27  F   UNL A   1      30.558  27.928  24.550  1.00  0.00    -0.207 F 
ENDBRANCH  18  20
ENDBRANCH  13  18
ENDBRANCH   8   9
ENDBRANCH   7   8
ENDBRANCH   4   7
ENDBRANCH   2   3
ENDBRANCH   1   2
BRANCH   1  28
ATOM     28  C   UNL A   1      41.744  21.841  26.976  1.00  0.00     0.002 C 
BRANCH  28  29
ATOM     29  C   UNL A   1      41.872  20.515  27.733  1.00  0.00     0.002 C 
BRANCH  29  30
ATOM     30  C   UNL A   1      42.396  19.339  26.908  1.00  0.00     0.021 C 
BRANCH  30  31
ATOM     31  C   UNL A   1      42.409  19.569  25.400  1.00  0.00     0.116 C 
BRANCH  31  32
ATOM     32  N   UNL A   1      43.599  19.023  24.767  1.00  0.00    -0.352 N 
ATOM     33  C   UNL A   1      44.762  19.656  24.408  1.00  0.00     0.251 C 
ATOM     34  H   UNL A   1      43.566  18.059  24.569  1.00  0.00     0.163 HD
ATOM     35  O   UNL A   1      45.596  19.070  23.720  1.00  0.00    -0.269 OA
BRANCH  33  36
ATOM     36  C   UNL A   1      45.005  21.053  24.825  1.00  0.00     0.039 A 
ATOM     37  C   UNL A   1      44.746  22.084  23.919  1.00  0.00     0.014 A 
ATOM     38  C   UNL A   1      45.493  21.348  26.101  1.00  0.00     0.014 A 
ATOM     39  C   UNL A   1      44.913  23.413  24.314  1.00  0.00     0.010 A 
ATOM     40  C   UNL A   1      45.586  22.674  26.518  1.00  0.00     0.010 A 
ATOM     41  C   UNL A   1      45.300  23.720  25.628  1.00  0.00    -0.014 A 
BRANCH  41  42
ATOM     42  C   UNL A   1      45.403  25.128  26.091  1.00  0.00     0.031 A 
ATOM     43  C   UNL A   1      46.727  25.841  26.065  1.00  0.00     0.074 A 
ATOM     44  C   UNL A   1      44.315  25.746  26.593  1.00  0.00     0.049 A 
ATOM     45  N   UNL A   1      47.022  27.050  26.473  1.00  0.00    -0.248 NA
ATOM     46  C   UNL A   1      47.875  25.091  25.531  1.00  0.00     0.031 C 
ATOM     47  C   UNL A   1      42.981  25.156  26.708  1.00  0.00     0.029 A 
ATOM     48  N   UNL A   1      44.164  27.010  27.106  1.00  0.00    -0.354 N 
ATOM     49  C   UNL A   1      48.388  27.196  26.264  1.00  0.00     0.074 A 
ATOM     50  C   UNL A   1      48.872  25.939  25.738  1.00  0.00     0.031 C 
ATOM     51  C   UNL A   1      42.141  26.065  27.227  1.00  0.00     0.029 A 
ATOM     52  C   UNL A   1      42.883  27.285  27.523  1.00  0.00     0.049 A 
ATOM     53  H   UNL A   1      44.902  27.659  27.168  1.00  0.00     0.167 HD
ATOM     54  C   UNL A   1      49.166  28.285  26.473  1.00  0.00     0.031 A 
ATOM     55  C   UNL A   1      42.366  28.393  28.088  1.00  0.00     0.031 A 
ATOM     56  C   UNL A   1      48.684  29.539  26.988  1.00  0.00     0.049 A 
ATOM     57  C   UNL A   1      43.258  29.578  28.334  1.00  0.00     0.074 A 
ATOM     58  C   UNL A   1      49.383  30.718  27.179  1.00  0.00     0.029 A 
ATOM     59  N   UNL A   1      47.382  29.774  27.401  1.00  0.00    -0.354 N 
ATOM     60  N   UNL A   1      44.532  29.725  28.060  1.00  0.00    -0.248 NA
ATOM     61  C   UNL A   1      42.636  30.754  28.958  1.00  0.00     0.031 C 
ATOM     62  C   UNL A   1      48.519  31.649  27.763  1.00  0.00     0.029 A 
ATOM     63  C   UNL A   1      47.265  31.070  27.875  1.00  0.00     0.049 A 
ATOM     64  H   UNL A   1      46.649  29.117  27.364  1.00  0.00     0.167 HD
ATOM     65  C   UNL A   1      44.855  31.020  28.447  1.00  0.00     0.074 A 
ATOM     66  C   UNL A   1      43.640  31.619  28.961  1.00  0.00     0.031 C 
ATOM     67  C   UNL A   1      46.050  31.654  28.383  1.00  0.00     0.031 A 
BRANCH  54  68
ATOM     68  C   UNL A   1      50.631  28.164  26.155  1.00  0.00    -0.014 A 
ATOM     69  C   UNL A   1      51.130  28.466  24.878  1.00  0.00     0.009 A 
ATOM     70  C   UNL A   1      51.533  27.779  27.160  1.00  0.00     0.009 A 
ATOM     71  C   UNL A   1      52.495  28.351  24.604  1.00  0.00     0.001 A 
ATOM     72  C   UNL A   1      52.901  27.694  26.893  1.00  0.00     0.001 A 
ATOM     73  C   UNL A   1      53.379  27.969  25.613  1.00  0.00     0.000 A 
ENDBRANCH  54  68
BRANCH  55  74
ATOM     74  C   UNL A   1      40.925  28.443  28.454  1.00  0.00    -0.014 A 
ATOM     75  C   UNL A   1      39.988  29.011  27.578  1.00  0.00     0.009 A 
ATOM     76  C   UNL A   1      40.481  27.940  29.687  1.00  0.00     0.009 A 
ATOM     77  C   UNL A   1      38.643  29.103  27.941  1.00  0.00     0.001 A 
ATOM     78  C   UNL A   1      39.131  28.005  30.035  1.00  0.00     0.001 A 
ATOM     79  C   UNL A   1      38.215  28.597  29.166  1.00  0.00     0.000 A 
ENDBRANCH  55  74
BRANCH  67  80
ATOM     80  C   UNL A   1      46.096  33.087  28.840  1.00  0.00    -0.014 A 
ATOM     81  C   UNL A   1      45.847  34.147  27.953  1.00  0.00     0.009 A 
ATOM     82  C   UNL A   1      46.355  33.376  30.189  1.00  0.00     0.009 A 
ATOM     83  C   UNL A   1      45.891  35.468  28.403  1.00  0.00     0.001 A 
ATOM     84  C   UNL A   1      46.366  34.695  30.642  1.00  0.00     0.001 A 
ATOM     85  C   UNL A   1      46.145  35.740  29.747  1.00  0.00     0.000 A 
ENDBRANCH  67  80
ENDBRANCH  41  42
ENDBRANCH  33  36
ENDBRANCH  31  32
ENDBRANCH  30  31
ENDBRANCH  29  30
ENDBRANCH  28  29
ENDBRANCH   1  28
TORSDOF 18
ENDMDL
MODEL 3
REMARK VINA RESULT:     -10.4      3.520      8.040
REMARK SMILES CC(C)c1cc(OCC(=O)NCCCCCCNC(=O)c2ccc(-c3c4nc(c(-c5ccccc5)c5ccc([nH]5)c(-c5ccccc5)c5nc(c(-c6ccccc6)c6ccc3[nH]6)C=C5)C=C4)cc2)nc(Nc2ccc(F)cc2F)n1
REMARK SMILES IDX 13 1 12 2 11 3 9 4 10 5 8 7 7 8 6 9 4 10 5 11 80 12 70 13
REMARK SMILES IDX 69 14 2 15 1 16 3 17 71 18 72 20 73 21 78 22 74 23 77 24
REMARK SMILES IDX 79 25 75 26 76 27 14 28 15 29 16 30 17 31 18 32 19 33 20 35
REMARK SMILES IDX 21 36 22 37 68 38 23 39 67 40 24 41 25 42 26 43 61 44 27 45
REMARK SMILES IDX 66 46 60 47 62 48 28 49 65 50 59 51 58 52 29 54 51 55 36 56
REMARK SMILES IDX 50 57 37 58 40 59 49 60 63 61 38 62 39 63 48 65 64 66 41 67
REMARK SMILES IDX 30 68 31 69 35 70 32 71 34 72 33 73 52 74 53 75 57 76 54 77
REMARK SMILES IDX 56 78 55 79 42 80 43 81 47 82 44 83 46 84 45 85
REMARK H PARENT 11 6 71 19 18 34 62 53 40 64
REMARK Flexibility Score: inf
ROOT
ATOM      1  C   UNL A   1      33.952  26.237  24.164  1.00  0.00     0.021 C 
ENDROOT
BRANCH   1   2
ATOM      2  C   UNL A   1      34.134  27.097  25.414  1.00  0.00     0.116 C 
BRANCH   2   3
ATOM      3  N   UNL A   1      33.389  28.337  25.327  1.00  0.00    -0.353 N 
ATOM      4  C   UNL A   1      32.425  28.808  26.166  1.00  0.00     0.258 C 
ATOM      5  O   UNL A   1      31.893  29.891  25.914  1.00  0.00    -0.271 OA
ATOM      6  H   UNL A   1      33.610  28.915  24.562  1.00  0.00     0.163 HD
BRANCH   4   7
ATOM      7  C   UNL A   1      32.040  28.004  27.413  1.00  0.00     0.331 C 
BRANCH   7   8
ATOM      8  O   UNL A   1      30.912  27.152  27.316  1.00  0.00    -0.467 OA
BRANCH   8   9
ATOM      9  C   UNL A   1      30.789  26.362  26.209  1.00  0.00     0.218 A 
ATOM     10  C   UNL A   1      30.782  24.375  24.974  1.00  0.00     0.052 A 
ATOM     11  C   UNL A   1      31.019  25.006  26.175  1.00  0.00     0.092 A 
ATOM     12  N   UNL A   1      30.401  25.059  23.885  1.00  0.00    -0.217 NA
ATOM     13  C   UNL A   1      30.216  26.382  23.990  1.00  0.00     0.230 A 
ATOM     14  N   UNL A   1      30.408  27.063  25.126  1.00  0.00    -0.177 NA
BRANCH  10  15
ATOM     15  C   UNL A   1      31.009  22.885  24.831  1.00  0.00     0.032 C 
ATOM     16  C   UNL A   1      31.882  22.556  23.616  1.00  0.00     0.014 C 
ATOM     17  C   UNL A   1      31.631  22.327  26.110  1.00  0.00     0.014 C 
ENDBRANCH  10  15
BRANCH  13  18
ATOM     18  N   UNL A   1      29.912  27.119  22.849  1.00  0.00    -0.322 N 
ATOM     19  H   UNL A   1      30.127  26.695  21.987  1.00  0.00     0.170 HD
BRANCH  18  20
ATOM     20  C   UNL A   1      29.337  28.393  22.787  1.00  0.00     0.077 A 
ATOM     21  C   UNL A   1      30.093  29.466  22.293  1.00  0.00     0.032 A 
ATOM     22  C   UNL A   1      27.981  28.622  23.083  1.00  0.00     0.149 A 
ATOM     23  C   UNL A   1      29.500  30.716  22.088  1.00  0.00     0.041 A 
ATOM     24  C   UNL A   1      27.388  29.866  22.896  1.00  0.00     0.080 A 
ATOM     25  F   UNL A   1      27.228  27.641  23.607  1.00  0.00    -0.205 F 
ATOM     26  C   UNL A   1      28.154  30.901  22.387  1.00  0.00     0.126 A 
ATOM     27  F   UNL A   1      27.592  32.098  22.178  1.00  0.00    -0.207 F 
ENDBRANCH  18  20
ENDBRANCH  13  18
ENDBRANCH   8   9
ENDBRANCH   7   8
ENDBRANCH   4   7
ENDBRANCH   2   3
ENDBRANCH   1   2
BRANCH   1  28
ATOM     28  C   UNL A   1      34.539  24.823  24.267  1.00  0.00     0.002 C 
BRANCH  28  29
ATOM     29  C   UNL A   1      34.501  24.191  25.663  1.00  0.00     0.002 C 
BRANCH  29  30
ATOM     30  C   UNL A   1      35.859  23.772  26.228  1.00  0.00     0.021 C 
BRANCH  30  31
ATOM     31  C   UNL A   1      37.016  23.847  25.238  1.00  0.00     0.116 C 
BRANCH  31  32
ATOM     32  N   UNL A   1      37.979  22.774  25.430  1.00  0.00    -0.352 N 
ATOM     33  C   UNL A   1      39.218  22.812  26.019  1.00  0.00     0.251 C 
ATOM     34  H   UNL A   1      37.702  21.893  25.089  1.00  0.00     0.163 HD
ATOM     35  O   UNL A   1      39.971  21.844  25.935  1.00  0.00    -0.269 OA
BRANCH  33  36
ATOM     36  C   UNL A   1      39.661  24.027  26.735  1.00  0.00     0.039 A 
ATOM     37  C   UNL A   1      40.423  24.975  26.048  1.00  0.00     0.014 A 
ATOM     38  C   UNL A   1      39.334  24.230  28.079  1.00  0.00     0.014 A 
ATOM     39  C   UNL A   1      40.802  26.157  26.690  1.00  0.00     0.010 A 
ATOM     40  C   UNL A   1      39.646  25.440  28.693  1.00  0.00     0.010 A 
ATOM     41  C   UNL A   1      40.385  26.415  28.006  1.00  0.00    -0.014 A 
BRANCH  41  42
ATOM     42  C   UNL A   1      40.708  27.701  28.677  1.00  0.00     0.031 A 
ATOM     43  C   UNL A   1      42.057  27.912  29.308  1.00  0.00     0.074 A 
ATOM     44  C   UNL A   1      39.764  28.659  28.771  1.00  0.00     0.049 A 
ATOM     45  N   UNL A   1      42.502  28.944  29.979  1.00  0.00    -0.248 NA
ATOM     46  C   UNL A   1      43.025  26.810  29.190  1.00  0.00     0.031 C 
ATOM     47  C   UNL A   1      38.405  28.567  28.235  1.00  0.00     0.029 A 
ATOM     48  N   UNL A   1      39.804  29.898  29.361  1.00  0.00    -0.354 N 
ATOM     49  C   UNL A   1      43.790  28.608  30.378  1.00  0.00     0.074 A 
ATOM     50  C   UNL A   1      44.038  27.261  29.916  1.00  0.00     0.031 C 
ATOM     51  C   UNL A   1      37.753  29.712  28.490  1.00  0.00     0.029 A 
ATOM     52  C   UNL A   1      38.628  30.600  29.247  1.00  0.00     0.049 A 
ATOM     53  H   UNL A   1      40.600  30.251  29.819  1.00  0.00     0.167 HD
ATOM     54  C   UNL A   1      44.693  29.361  31.052  1.00  0.00     0.031 A 
ATOM     55  C   UNL A   1      38.289  31.819  29.708  1.00  0.00     0.031 A 
ATOM     56  C   UNL A   1      44.451  30.705  31.504  1.00  0.00     0.049 A 
ATOM     57  C   UNL A   1      39.302  32.622  30.476  1.00  0.00     0.074 A 
ATOM     58  C   UNL A   1      45.323  31.569  32.142  1.00  0.00     0.029 A 
ATOM     59  N   UNL A   1      43.246  31.377  31.372  1.00  0.00    -0.354 N 
ATOM     60  N   UNL A   1      40.541  32.319  30.779  1.00  0.00    -0.248 NA
ATOM     61  C   UNL A   1      38.870  33.942  30.957  1.00  0.00     0.031 C 
ATOM     62  C   UNL A   1      44.629  32.743  32.450  1.00  0.00     0.029 A 
ATOM     63  C   UNL A   1      43.343  32.634  31.945  1.00  0.00     0.049 A 
ATOM     64  H   UNL A   1      42.440  31.015  30.937  1.00  0.00     0.167 HD
ATOM     65  C   UNL A   1      41.046  33.423  31.456  1.00  0.00     0.074 A 
ATOM     66  C   UNL A   1      39.984  34.406  31.505  1.00  0.00     0.031 C 
ATOM     67  C   UNL A   1      42.279  33.604  31.987  1.00  0.00     0.031 A 
BRANCH  54  68
ATOM     68  C   UNL A   1      46.029  28.739  31.353  1.00  0.00    -0.014 A 
ATOM     69  C   UNL A   1      46.249  28.014  32.536  1.00  0.00     0.009 A 
ATOM     70  C   UNL A   1      47.073  28.845  30.421  1.00  0.00     0.009 A 
ATOM     71  C   UNL A   1      47.496  27.441  32.794  1.00  0.00     0.001 A 
ATOM     72  C   UNL A   1      48.310  28.245  30.667  1.00  0.00     0.001 A 
ATOM     73  C   UNL A   1      48.523  27.553  31.857  1.00  0.00     0.000 A 
ENDBRANCH  54  68
BRANCH  55  74
ATOM     74  C   UNL A   1      36.930  32.366  29.449  1.00  0.00    -0.014 A 
ATOM     75  C   UNL A   1      35.879  32.113  30.344  1.00  0.00     0.009 A 
ATOM     76  C   UNL A   1      36.671  33.126  28.297  1.00  0.00     0.009 A 
ATOM     77  C   UNL A   1      34.592  32.584  30.076  1.00  0.00     0.001 A 
ATOM     78  C   UNL A   1      35.390  33.621  28.048  1.00  0.00     0.001 A 
ATOM     79  C   UNL A   1      34.349  33.340  28.931  1.00  0.00     0.000 A 
ENDBRANCH  55  74
BRANCH  67  80
ATOM     80  C   UNL A   1      42.563  34.933  32.632  1.00  0.00    -0.014 A 
ATOM     81  C   UNL A   1      42.153  35.212  33.946  1.00  0.00     0.009 A 
ATOM     82  C   UNL A   1      43.285  35.906  31.925  1.00  0.00     0.009 A 
ATOM     83  C   UNL A   1      42.433  36.452  34.523  1.00  0.00     0.001 A 
ATOM     84  C   UNL A   1      43.592  37.132  32.516  1.00  0.00     0.001 A 
ATOM     85  C   UNL A   1      43.157  37.407  33.810  1.00  0.00     0.000 A 
ENDBRANCH  67  80
ENDBRANCH  41  42
ENDBRANCH  33  36
ENDBRANCH  31  32
ENDBRANCH  30  31
ENDBRANCH  29  30
ENDBRANCH  28  29
ENDBRANCH   1  28
TORSDOF 18
ENDMDL
