MODEL 1
REMARK VINA RESULT:     -12.6      0.000      0.000
REMARK SMILES Cc1cnn(C2(C(=O)NCCCCCCNC(=O)c3ccc(-c4c5nc(c(-c6ccccc6)c6ccc([nH]6)c(-c6ccccc6)c6nc(c(-c7ccccc7)c7ccc4[nH]7)C=C6)C=C5)cc3)CCN(C(=O)c3cc4ccccc4[nH]3)CC2)c1
REMARK SMILES IDX 13 1 12 2 11 3 10 4 9 5 7 6 8 7 6 9 67 10 82 11 68 12 81 13
REMARK SMILES IDX 69 14 70 15 71 16 5 17 1 18 2 19 3 20 83 21 4 22 72 23 73 24
REMARK SMILES IDX 80 25 74 26 79 27 75 29 78 30 76 31 77 32 14 33 15 34 16 35
REMARK SMILES IDX 17 36 18 38 19 39 20 40 66 41 21 42 65 43 22 44 23 45 24 46
REMARK SMILES IDX 59 47 25 48 64 49 58 50 60 51 26 52 63 53 57 54 56 55 27 57
REMARK SMILES IDX 49 58 34 59 48 60 35 61 38 62 47 63 61 64 36 65 37 66 46 68
REMARK SMILES IDX 62 69 39 70 28 71 29 72 33 73 30 74 32 75 31 76 50 77 51 78
REMARK SMILES IDX 55 79 52 80 54 81 53 82 40 83 41 84 45 85 42 86 44 87 43 88
REMARK H PARENT 9 8 80 28 16 37 60 56 38 67
REMARK Flexibility Score: inf
ROOT
ATOM      1  C   UNL A   1      33.312  28.974  24.835  1.00  0.00     0.002 C 
ENDROOT
BRANCH   1   2
ATOM      2  C   UNL A   1      32.081  28.722  23.950  1.00  0.00     0.002 C 
BRANCH   2   3
ATOM      3  C   UNL A   1      32.243  27.648  22.868  1.00  0.00     0.021 C 
BRANCH   3   4
ATOM      4  C   UNL A   1      33.442  26.722  23.072  1.00  0.00     0.116 C 
BRANCH   4   5
ATOM      5  N   UNL A   1      33.336  25.539  22.234  1.00  0.00    -0.354 N 
ATOM      6  C   UNL A   1      33.466  24.194  22.479  1.00  0.00     0.248 C 
ATOM      7  O   UNL A   1      33.447  23.519  21.449  1.00  0.00    -0.272 OA
ATOM      8  H   UNL A   1      33.126  25.746  21.293  1.00  0.00     0.163 HD
BRANCH   6   9
ATOM      9  C   UNL A   1      33.619  23.641  23.938  1.00  0.00     0.144 C 
ATOM     10  C   UNL A   1      33.915  22.119  23.815  1.00  0.00     0.062 C 
ATOM     11  C   UNL A   1      34.732  24.487  24.613  1.00  0.00     0.062 C 
ATOM     12  C   UNL A   1      34.815  21.536  24.895  1.00  0.00     0.123 C 
ATOM     13  C   UNL A   1      35.502  23.772  25.712  1.00  0.00     0.123 C 
ATOM     14  N   UNL A   1      35.890  22.428  25.297  1.00  0.00    -0.337 N 
ATOM     15  C   UNL A   1      37.197  21.951  25.322  1.00  0.00     0.270 C 
ATOM     16  O   UNL A   1      37.536  20.954  24.674  1.00  0.00    -0.267 OA
BRANCH   9  17
ATOM     17  N   UNL A   1      32.393  23.792  24.789  1.00  0.00    -0.257 N 
ATOM     18  C   UNL A   1      29.685  22.671  26.990  1.00  0.00     0.048 C 
ATOM     19  C   UNL A   1      30.684  23.353  26.141  1.00  0.00    -0.013 A 
ATOM     20  C   UNL A   1      30.811  24.724  25.861  1.00  0.00     0.138 A 
ATOM     21  C   UNL A   1      31.718  22.781  25.436  1.00  0.00     0.113 A 
ATOM     22  N   UNL A   1      31.856  24.989  25.080  1.00  0.00    -0.180 NA
ENDBRANCH   9  17
BRANCH  15  23
ATOM     23  C   UNL A   1      38.158  22.692  26.098  1.00  0.00     0.105 A 
ATOM     24  C   UNL A   1      38.196  24.038  26.428  1.00  0.00     0.042 A 
ATOM     25  N   UNL A   1      39.239  22.106  26.710  1.00  0.00    -0.351 N 
ATOM     26  C   UNL A   1      39.375  24.277  27.183  1.00  0.00     0.000 A 
ATOM     27  C   UNL A   1      40.037  23.055  27.301  1.00  0.00     0.046 A 
ATOM     28  H   UNL A   1      39.416  21.138  26.724  1.00  0.00     0.167 HD
ATOM     29  C   UNL A   1      39.948  25.420  27.773  1.00  0.00     0.010 A 
ATOM     30  C   UNL A   1      41.275  22.925  27.940  1.00  0.00     0.026 A 
ATOM     31  C   UNL A   1      41.176  25.303  28.434  1.00  0.00     0.001 A 
ATOM     32  C   UNL A   1      41.834  24.076  28.503  1.00  0.00     0.002 A 
ENDBRANCH  15  23
ENDBRANCH   6   9
ENDBRANCH   4   5
ENDBRANCH   3   4
ENDBRANCH   2   3
ENDBRANCH   1   2
BRANCH   1  33
ATOM     33  C   UNL A   1      33.331  28.266  26.197  1.00  0.00     0.021 C 
BRANCH  33  34
ATOM     34  C   UNL A   1      34.363  28.819  27.165  1.00  0.00     0.116 C 
BRANCH  34  35
ATOM     35  N   UNL A   1      34.062  30.183  27.602  1.00  0.00    -0.352 N 
ATOM     36  C   UNL A   1      34.844  31.020  28.380  1.00  0.00     0.251 C 
ATOM     37  H   UNL A   1      33.196  30.550  27.308  1.00  0.00     0.163 HD
ATOM     38  O   UNL A   1      34.363  31.962  28.990  1.00  0.00    -0.269 OA
BRANCH  36  39
ATOM     39  C   UNL A   1      36.291  30.754  28.436  1.00  0.00     0.039 A 
ATOM     40  C   UNL A   1      37.207  31.679  28.947  1.00  0.00     0.014 A 
ATOM     41  C   UNL A   1      36.710  29.504  27.996  1.00  0.00     0.014 A 
ATOM     42  C   UNL A   1      38.541  31.295  29.072  1.00  0.00     0.010 A 
ATOM     43  C   UNL A   1      37.957  29.059  28.324  1.00  0.00     0.010 A 
ATOM     44  C   UNL A   1      38.902  29.973  28.767  1.00  0.00    -0.014 A 
BRANCH  44  45
ATOM     45  C   UNL A   1      40.246  29.461  28.997  1.00  0.00     0.031 A 
ATOM     46  C   UNL A   1      40.523  29.112  30.413  1.00  0.00     0.074 A 
ATOM     47  C   UNL A   1      41.054  29.092  27.975  1.00  0.00     0.049 A 
ATOM     48  N   UNL A   1      41.328  29.709  31.228  1.00  0.00    -0.248 NA
ATOM     49  C   UNL A   1      39.688  28.078  31.052  1.00  0.00     0.031 C 
ATOM     50  C   UNL A   1      40.747  29.089  26.534  1.00  0.00     0.029 A 
ATOM     51  N   UNL A   1      42.280  28.507  28.008  1.00  0.00    -0.354 N 
ATOM     52  C   UNL A   1      41.281  28.975  32.409  1.00  0.00     0.074 A 
ATOM     53  C   UNL A   1      40.114  28.138  32.316  1.00  0.00     0.031 C 
ATOM     54  C   UNL A   1      41.631  28.309  25.877  1.00  0.00     0.029 A 
ATOM     55  C   UNL A   1      42.673  27.919  26.807  1.00  0.00     0.049 A 
ATOM     56  H   UNL A   1      42.846  28.500  28.814  1.00  0.00     0.167 HD
ATOM     57  C   UNL A   1      42.380  28.880  33.210  1.00  0.00     0.031 A 
ATOM     58  C   UNL A   1      43.772  27.155  26.596  1.00  0.00     0.031 A 
ATOM     59  C   UNL A   1      43.370  29.865  32.846  1.00  0.00     0.049 A 
ATOM     60  C   UNL A   1      44.713  27.451  27.694  1.00  0.00     0.074 A 
ATOM     61  C   UNL A   1      43.450  31.241  32.829  1.00  0.00     0.029 A 
ATOM     62  N   UNL A   1      44.363  29.404  32.017  1.00  0.00    -0.354 N 
ATOM     63  N   UNL A   1      45.274  28.613  27.863  1.00  0.00    -0.248 NA
ATOM     64  C   UNL A   1      44.711  26.581  28.858  1.00  0.00     0.031 C 
ATOM     65  C   UNL A   1      44.240  31.556  31.681  1.00  0.00     0.029 A 
ATOM     66  C   UNL A   1      44.666  30.363  31.091  1.00  0.00     0.049 A 
ATOM     67  H   UNL A   1      44.790  28.520  32.079  1.00  0.00     0.167 HD
ATOM     68  C   UNL A   1      45.277  28.802  29.236  1.00  0.00     0.074 A 
ATOM     69  C   UNL A   1      45.062  27.467  29.795  1.00  0.00     0.031 C 
ATOM     70  C   UNL A   1      45.158  30.056  29.765  1.00  0.00     0.031 A 
BRANCH  57  71
ATOM     71  C   UNL A   1      42.789  27.598  33.915  1.00  0.00    -0.014 A 
ATOM     72  C   UNL A   1      43.771  26.792  33.304  1.00  0.00     0.009 A 
ATOM     73  C   UNL A   1      42.046  26.998  34.950  1.00  0.00     0.009 A 
ATOM     74  C   UNL A   1      43.917  25.439  33.633  1.00  0.00     0.001 A 
ATOM     75  C   UNL A   1      42.216  25.657  35.308  1.00  0.00     0.001 A 
ATOM     76  C   UNL A   1      43.128  24.868  34.626  1.00  0.00     0.000 A 
ENDBRANCH  57  71
BRANCH  58  77
ATOM     77  C   UNL A   1      43.959  25.996  25.695  1.00  0.00    -0.014 A 
ATOM     78  C   UNL A   1      45.246  25.513  25.405  1.00  0.00     0.009 A 
ATOM     79  C   UNL A   1      42.864  25.176  25.370  1.00  0.00     0.009 A 
ATOM     80  C   UNL A   1      45.431  24.236  24.855  1.00  0.00     0.001 A 
ATOM     81  C   UNL A   1      43.049  23.901  24.822  1.00  0.00     0.001 A 
ATOM     82  C   UNL A   1      44.334  23.424  24.581  1.00  0.00     0.000 A 
ENDBRANCH  58  77
BRANCH  70  83
ATOM     83  C   UNL A   1      45.355  31.227  28.833  1.00  0.00    -0.014 A 
ATOM     84  C   UNL A   1      44.319  31.809  28.078  1.00  0.00     0.009 A 
ATOM     85  C   UNL A   1      46.612  31.846  28.823  1.00  0.00     0.009 A 
ATOM     86  C   UNL A   1      44.549  32.962  27.319  1.00  0.00     0.001 A 
ATOM     87  C   UNL A   1      46.835  33.008  28.082  1.00  0.00     0.001 A 
ATOM     88  C   UNL A   1      45.807  33.564  27.327  1.00  0.00     0.000 A 
ENDBRANCH  70  83
ENDBRANCH  44  45
ENDBRANCH  36  39
ENDBRANCH  34  35
ENDBRANCH  33  34
ENDBRANCH   1  33
TORSDOF 15
ENDMDL
MODEL 2
REMARK VINA RESULT:     -12.4      2.679      5.103
REMARK SMILES Cc1cnn(C2(C(=O)NCCCCCCNC(=O)c3ccc(-c4c5nc(c(-c6ccccc6)c6ccc([nH]6)c(-c6ccccc6)c6nc(c(-c7ccccc7)c7ccc4[nH]7)C=C6)C=C5)cc3)CCN(C(=O)c3cc4ccccc4[nH]3)CC2)c1
REMARK SMILES IDX 13 1 12 2 11 3 10 4 9 5 7 6 8 7 6 9 67 10 82 11 68 12 81 13
REMARK SMILES IDX 69 14 70 15 71 16 5 17 1 18 2 19 3 20 83 21 4 22 72 23 73 24
REMARK SMILES IDX 80 25 74 26 79 27 75 29 78 30 76 31 77 32 14 33 15 34 16 35
REMARK SMILES IDX 17 36 18 38 19 39 20 40 66 41 21 42 65 43 22 44 23 45 24 46
REMARK SMILES IDX 59 47 25 48 64 49 58 50 60 51 26 52 63 53 57 54 56 55 27 57
REMARK SMILES IDX 49 58 34 59 48 60 35 61 38 62 47 63 61 64 36 65 37 66 46 68
REMARK SMILES IDX 62 69 39 70 28 71 29 72 33 73 30 74 32 75 31 76 50 77 51 78
REMARK SMILES IDX 55 79 52 80 54 81 53 82 40 83 41 84 45 85 42 86 44 87 43 88
REMARK H PARENT 9 8 80 28 16 37 60 56 38 67
REMARK Flexibility Score: inf
ROOT
ATOM      1  C   UNL A   1      34.425  33.025  27.952  1.00  0.00     0.002 C 
ENDROOT
BRANCH   1   2
ATOM      2  C   UNL A   1      34.232  31.559  28.373  1.00  0.00     0.002 C 
BRANCH   2   3
ATOM      3  C   UNL A   1      34.436  30.514  27.271  1.00  0.00     0.021 C 
BRANCH   3   4
ATOM      4  C   UNL A   1      33.160  30.129  26.521  1.00  0.00     0.116 C 
BRANCH   4   5
ATOM      5  N   UNL A   1      32.371  29.180  27.288  1.00  0.00    -0.354 N 
ATOM      6  C   UNL A   1      31.668  28.049  26.952  1.00  0.00     0.248 C 
ATOM      7  O   UNL A   1      31.003  27.606  27.890  1.00  0.00    -0.272 OA
ATOM      8  H   UNL A   1      32.333  29.391  28.250  1.00  0.00     0.163 HD
BRANCH   6   9
ATOM      9  C   UNL A   1      31.746  27.436  25.510  1.00  0.00     0.144 C 
ATOM     10  C   UNL A   1      33.191  27.685  24.992  1.00  0.00     0.062 C 
ATOM     11  C   UNL A   1      31.330  25.947  25.645  1.00  0.00     0.062 C 
ATOM     12  C   UNL A   1      33.749  26.615  24.064  1.00  0.00     0.123 C 
ATOM     13  C   UNL A   1      31.933  25.017  24.603  1.00  0.00     0.123 C 
ATOM     14  N   UNL A   1      33.362  25.265  24.439  1.00  0.00    -0.337 N 
ATOM     15  C   UNL A   1      34.342  24.284  24.561  1.00  0.00     0.270 C 
ATOM     16  O   UNL A   1      35.531  24.575  24.738  1.00  0.00    -0.267 OA
BRANCH   9  17
ATOM     17  N   UNL A   1      30.803  28.055  24.523  1.00  0.00    -0.257 N 
ATOM     18  C   UNL A   1      29.684  30.521  22.052  1.00  0.00     0.048 C 
ATOM     19  C   UNL A   1      29.922  29.408  22.994  1.00  0.00    -0.013 A 
ATOM     20  C   UNL A   1      29.109  28.292  23.259  1.00  0.00     0.138 A 
ATOM     21  C   UNL A   1      31.003  29.225  23.824  1.00  0.00     0.113 A 
ATOM     22  N   UNL A   1      29.655  27.465  24.149  1.00  0.00    -0.180 NA
ENDBRANCH   9  17
BRANCH  15  23
ATOM     23  C   UNL A   1      33.914  22.910  24.519  1.00  0.00     0.105 A 
ATOM     24  C   UNL A   1      33.356  22.177  23.483  1.00  0.00     0.042 A 
ATOM     25  N   UNL A   1      34.057  22.048  25.579  1.00  0.00    -0.351 N 
ATOM     26  C   UNL A   1      33.079  20.869  23.963  1.00  0.00     0.000 A 
ATOM     27  C   UNL A   1      33.482  20.832  25.298  1.00  0.00     0.046 A 
ATOM     28  H   UNL A   1      34.511  22.271  26.424  1.00  0.00     0.167 HD
ATOM     29  C   UNL A   1      32.515  19.713  23.392  1.00  0.00     0.010 A 
ATOM     30  C   UNL A   1      33.305  19.707  26.110  1.00  0.00     0.026 A 
ATOM     31  C   UNL A   1      32.349  18.571  24.185  1.00  0.00     0.001 A 
ATOM     32  C   UNL A   1      32.726  18.576  25.526  1.00  0.00     0.002 A 
ENDBRANCH  15  23
ENDBRANCH   6   9
ENDBRANCH   4   5
ENDBRANCH   3   4
ENDBRANCH   2   3
ENDBRANCH   1   2
BRANCH   1  33
ATOM     33  C   UNL A   1      33.370  34.024  28.447  1.00  0.00     0.021 C 
BRANCH  33  34
ATOM     34  C   UNL A   1      33.954  35.260  29.109  1.00  0.00     0.116 C 
BRANCH  34  35
ATOM     35  N   UNL A   1      33.343  35.556  30.406  1.00  0.00    -0.352 N 
ATOM     36  C   UNL A   1      33.476  34.851  31.590  1.00  0.00     0.251 C 
ATOM     37  H   UNL A   1      32.766  36.354  30.440  1.00  0.00     0.163 HD
ATOM     38  O   UNL A   1      32.657  34.950  32.490  1.00  0.00    -0.269 OA
BRANCH  36  39
ATOM     39  C   UNL A   1      34.656  33.985  31.746  1.00  0.00     0.039 A 
ATOM     40  C   UNL A   1      34.565  32.591  31.802  1.00  0.00     0.014 A 
ATOM     41  C   UNL A   1      35.891  34.621  31.791  1.00  0.00     0.014 A 
ATOM     42  C   UNL A   1      35.744  31.847  31.830  1.00  0.00     0.010 A 
ATOM     43  C   UNL A   1      37.029  33.894  31.594  1.00  0.00     0.010 A 
ATOM     44  C   UNL A   1      36.973  32.512  31.712  1.00  0.00    -0.014 A 
BRANCH  44  45
ATOM     45  C   UNL A   1      38.238  31.798  31.602  1.00  0.00     0.031 A 
ATOM     46  C   UNL A   1      38.884  31.513  32.908  1.00  0.00     0.074 A 
ATOM     47  C   UNL A   1      38.634  31.223  30.442  1.00  0.00     0.049 A 
ATOM     48  N   UNL A   1      39.974  32.024  33.375  1.00  0.00    -0.248 NA
ATOM     49  C   UNL A   1      38.149  30.686  33.883  1.00  0.00     0.031 C 
ATOM     50  C   UNL A   1      37.904  31.166  29.164  1.00  0.00     0.029 A 
ATOM     51  N   UNL A   1      39.718  30.443  30.188  1.00  0.00    -0.354 N 
ATOM     52  C   UNL A   1      40.190  31.397  34.599  1.00  0.00     0.074 A 
ATOM     53  C   UNL A   1      38.945  30.765  34.951  1.00  0.00     0.031 C 
ATOM     54  C   UNL A   1      38.427  30.200  28.378  1.00  0.00     0.029 A 
ATOM     55  C   UNL A   1      39.638  29.710  29.005  1.00  0.00     0.049 A 
ATOM     56  H   UNL A   1      40.496  30.399  30.790  1.00  0.00     0.167 HD
ATOM     57  C   UNL A   1      41.456  31.177  35.051  1.00  0.00     0.031 A 
ATOM     58  C   UNL A   1      40.502  28.757  28.579  1.00  0.00     0.031 A 
ATOM     59  C   UNL A   1      42.415  31.950  34.298  1.00  0.00     0.049 A 
ATOM     60  C   UNL A   1      41.765  28.969  29.311  1.00  0.00     0.074 A 
ATOM     61  C   UNL A   1      42.676  33.288  34.092  1.00  0.00     0.029 A 
ATOM     62  N   UNL A   1      43.032  31.268  33.279  1.00  0.00    -0.354 N 
ATOM     63  N   UNL A   1      42.508  30.029  29.167  1.00  0.00    -0.248 NA
ATOM     64  C   UNL A   1      41.998  28.201  30.522  1.00  0.00     0.031 C 
ATOM     65  C   UNL A   1      43.112  33.379  32.735  1.00  0.00     0.029 A 
ATOM     66  C   UNL A   1      43.167  32.090  32.196  1.00  0.00     0.049 A 
ATOM     67  H   UNL A   1      43.330  30.331  33.321  1.00  0.00     0.167 HD
ATOM     68  C   UNL A   1      42.957  30.315  30.447  1.00  0.00     0.074 A 
ATOM     69  C   UNL A   1      42.739  29.082  31.202  1.00  0.00     0.031 C 
ATOM     70  C   UNL A   1      43.182  31.607  30.831  1.00  0.00     0.031 A 
BRANCH  57  71
ATOM     71  C   UNL A   1      41.878  29.900  35.757  1.00  0.00    -0.014 A 
ATOM     72  C   UNL A   1      43.123  29.890  36.419  1.00  0.00     0.009 A 
ATOM     73  C   UNL A   1      41.282  28.644  35.534  1.00  0.00     0.009 A 
ATOM     74  C   UNL A   1      43.778  28.692  36.731  1.00  0.00     0.001 A 
ATOM     75  C   UNL A   1      41.915  27.446  35.880  1.00  0.00     0.001 A 
ATOM     76  C   UNL A   1      43.179  27.469  36.447  1.00  0.00     0.000 A 
ENDBRANCH  57  71
BRANCH  58  77
ATOM     77  C   UNL A   1      40.241  27.520  27.810  1.00  0.00    -0.014 A 
ATOM     78  C   UNL A   1      40.939  27.253  26.621  1.00  0.00     0.009 A 
ATOM     79  C   UNL A   1      39.534  26.459  28.406  1.00  0.00     0.009 A 
ATOM     80  C   UNL A   1      40.969  25.961  26.075  1.00  0.00     0.001 A 
ATOM     81  C   UNL A   1      39.565  25.170  27.861  1.00  0.00     0.001 A 
ATOM     82  C   UNL A   1      40.297  24.917  26.706  1.00  0.00     0.000 A 
ENDBRANCH  58  77
BRANCH  70  83
ATOM     83  C   UNL A   1      43.245  32.656  29.747  1.00  0.00    -0.014 A 
ATOM     84  C   UNL A   1      42.281  33.668  29.581  1.00  0.00     0.009 A 
ATOM     85  C   UNL A   1      44.395  32.696  28.948  1.00  0.00     0.009 A 
ATOM     86  C   UNL A   1      42.460  34.674  28.624  1.00  0.00     0.001 A 
ATOM     87  C   UNL A   1      44.582  33.712  28.009  1.00  0.00     0.001 A 
ATOM     88  C   UNL A   1      43.614  34.698  27.843  1.00  0.00     0.000 A 
ENDBRANCH  70  83
ENDBRANCH  44  45
ENDBRANCH  36  39
ENDBRANCH  34  35
ENDBRANCH  33  34
ENDBRANCH   1  33
TORSDOF 15
ENDMDL
MODEL 3
REMARK VINA RESULT:     -12.2      2.280      4.238
REMARK SMILES Cc1cnn(C2(C(=O)NCCCCCCNC(=O)c3ccc(-c4c5nc(c(-c6ccccc6)c6ccc([nH]6)c(-c6ccccc6)c6nc(c(-c7ccccc7)c7ccc4[nH]7)C=C6)C=C5)cc3)CCN(C(=O)c3cc4ccccc4[nH]3)CC2)c1
REMARK SMILES IDX 13 1 12 2 11 3 10 4 9 5 7 6 8 7 6 9 67 10 82 11 68 12 81 13
REMARK SMILES IDX 69 14 70 15 71 16 5 17 1 18 2 19 3 20 83 21 4 22 72 23 73 24
REMARK SMILES IDX 80 25 74 26 79 27 75 29 78 30 76 31 77 32 14 33 15 34 16 35
REMARK SMILES IDX 17 36 18 38 19 39 20 40 66 41 21 42 65 43 22 44 23 45 24 46
REMARK SMILES IDX 59 47 25 48 64 49 58 50 60 51 26 52 63 53 57 54 56 55 27 57
REMARK SMILES IDX 49 58 34 59 48 60 35 61 38 62 47 63 61 64 36 65 37 66 46 68
REMARK SMILES IDX 62 69 39 70 28 71 29 72 33 73 30 74 32 75 31 76 50 77 51 78
REMARK SMILES IDX 55 79 52 80 54 81 53 82 40 83 41 84 45 85 42 86 44 87 43 88
REMARK H PARENT 9 8 80 28 16 37 60 56 38 67
REMARK Flexibility Score: inf
ROOT
ATOM      1  C   UNL A   1      33.968  30.215  27.414  1.00  0.00     0.002 C 
ENDROOT
BRANCH   1   2
ATOM      2  C   UNL A   1      32.490  29.848  27.206  1.00  0.00     0.002 C 
BRANCH   2   3
ATOM      3  C   UNL A   1      32.144  28.361  27.342  1.00  0.00     0.021 C 
BRANCH   3   4
ATOM      4  C   UNL A   1      31.476  27.753  26.109  1.00  0.00     0.116 C 
BRANCH   4   5
ATOM      5  N   UNL A   1      30.688  26.585  26.466  1.00  0.00    -0.354 N 
ATOM      6  C   UNL A   1      30.656  25.291  26.005  1.00  0.00     0.248 C 
ATOM      7  O   UNL A   1      29.724  24.640  26.479  1.00  0.00    -0.272 OA
ATOM      8  H   UNL A   1      30.042  26.756  27.190  1.00  0.00     0.163 HD
BRANCH   6   9
ATOM      9  C   UNL A   1      31.722  24.762  24.984  1.00  0.00     0.144 C 
ATOM     10  C   UNL A   1      33.120  25.058  25.596  1.00  0.00     0.062 C 
ATOM     11  C   UNL A   1      31.398  23.261  24.751  1.00  0.00     0.062 C 
ATOM     12  C   UNL A   1      34.210  24.050  25.264  1.00  0.00     0.123 C 
ATOM     13  C   UNL A   1      32.591  22.400  24.371  1.00  0.00     0.123 C 
ATOM     14  N   UNL A   1      33.737  22.676  25.231  1.00  0.00    -0.337 N 
ATOM     15  C   UNL A   1      34.419  21.703  25.957  1.00  0.00     0.270 C 
ATOM     16  O   UNL A   1      35.155  22.000  26.906  1.00  0.00    -0.267 OA
BRANCH   9  17
ATOM     17  N   UNL A   1      31.672  25.422  23.639  1.00  0.00    -0.257 N 
ATOM     18  C   UNL A   1      32.429  25.824  20.075  1.00  0.00     0.048 C 
ATOM     19  C   UNL A   1      31.978  25.863  21.481  1.00  0.00    -0.013 A 
ATOM     20  C   UNL A   1      31.095  26.767  22.096  1.00  0.00     0.138 A 
ATOM     21  C   UNL A   1      32.332  25.010  22.501  1.00  0.00     0.113 A 
ATOM     22  N   UNL A   1      30.885  26.480  23.380  1.00  0.00    -0.180 NA
ENDBRANCH   9  17
BRANCH  15  23
ATOM     23  C   UNL A   1      34.200  20.327  25.591  1.00  0.00     0.105 A 
ATOM     24  C   UNL A   1      34.823  19.546  24.629  1.00  0.00     0.042 A 
ATOM     25  N   UNL A   1      33.298  19.515  26.234  1.00  0.00    -0.351 N 
ATOM     26  C   UNL A   1      34.216  18.262  24.640  1.00  0.00     0.000 A 
ATOM     27  C   UNL A   1      33.227  18.287  25.623  1.00  0.00     0.046 A 
ATOM     28  H   UNL A   1      32.774  19.778  27.026  1.00  0.00     0.167 HD
ATOM     29  C   UNL A   1      34.409  17.080  23.901  1.00  0.00     0.010 A 
ATOM     30  C   UNL A   1      32.382  17.200  25.873  1.00  0.00     0.026 A 
ATOM     31  C   UNL A   1      33.586  15.976  24.153  1.00  0.00     0.001 A 
ATOM     32  C   UNL A   1      32.580  16.043  25.115  1.00  0.00     0.002 A 
ENDBRANCH  15  23
ENDBRANCH   6   9
ENDBRANCH   4   5
ENDBRANCH   3   4
ENDBRANCH   2   3
ENDBRANCH   1   2
BRANCH   1  33
ATOM     33  C   UNL A   1      34.287  31.709  27.563  1.00  0.00     0.021 C 
BRANCH  33  34
ATOM     34  C   UNL A   1      35.518  31.995  28.407  1.00  0.00     0.116 C 
BRANCH  34  35
ATOM     35  N   UNL A   1      35.194  32.580  29.709  1.00  0.00    -0.352 N 
ATOM     36  C   UNL A   1      35.536  32.107  30.964  1.00  0.00     0.251 C 
ATOM     37  H   UNL A   1      34.667  33.413  29.689  1.00  0.00     0.163 HD
ATOM     38  O   UNL A   1      34.920  32.441  31.964  1.00  0.00    -0.269 OA
BRANCH  36  39
ATOM     39  C   UNL A   1      36.689  31.198  31.065  1.00  0.00     0.039 A 
ATOM     40  C   UNL A   1      36.547  29.817  31.229  1.00  0.00     0.014 A 
ATOM     41  C   UNL A   1      37.947  31.775  30.943  1.00  0.00     0.014 A 
ATOM     42  C   UNL A   1      37.691  29.021  31.194  1.00  0.00     0.010 A 
ATOM     43  C   UNL A   1      39.029  30.983  30.688  1.00  0.00     0.010 A 
ATOM     44  C   UNL A   1      38.929  29.617  30.910  1.00  0.00    -0.014 A 
BRANCH  44  45
ATOM     45  C   UNL A   1      40.145  28.837  30.727  1.00  0.00     0.031 A 
ATOM     46  C   UNL A   1      40.897  28.592  31.984  1.00  0.00     0.074 A 
ATOM     47  C   UNL A   1      40.407  28.181  29.572  1.00  0.00     0.049 A 
ATOM     48  N   UNL A   1      42.047  29.073  32.320  1.00  0.00    -0.248 NA
ATOM     49  C   UNL A   1      40.221  27.856  33.068  1.00  0.00     0.031 C 
ATOM     50  C   UNL A   1      39.558  28.090  28.371  1.00  0.00     0.029 A 
ATOM     51  N   UNL A   1      41.427  27.337  29.267  1.00  0.00    -0.354 N 
ATOM     52  C   UNL A   1      42.348  28.504  33.554  1.00  0.00     0.074 A 
ATOM     53  C   UNL A   1      41.115  27.954  34.053  1.00  0.00     0.031 C 
ATOM     54  C   UNL A   1      39.963  27.059  27.599  1.00  0.00     0.029 A 
ATOM     55  C   UNL A   1      41.205  26.546  28.142  1.00  0.00     0.049 A 
ATOM     56  H   UNL A   1      42.255  27.288  29.798  1.00  0.00     0.167 HD
ATOM     57  C   UNL A   1      43.640  28.248  33.902  1.00  0.00     0.031 A 
ATOM     58  C   UNL A   1      41.983  25.530  27.695  1.00  0.00     0.031 A 
ATOM     59  C   UNL A   1      44.558  28.931  33.021  1.00  0.00     0.049 A 
ATOM     60  C   UNL A   1      43.318  25.720  28.296  1.00  0.00     0.074 A 
ATOM     61  C   UNL A   1      44.856  30.242  32.714  1.00  0.00     0.029 A 
ATOM     62  N   UNL A   1      45.047  28.166  31.992  1.00  0.00    -0.354 N 
ATOM     63  N   UNL A   1      44.089  26.733  28.024  1.00  0.00    -0.248 NA
ATOM     64  C   UNL A   1      43.629  25.008  29.524  1.00  0.00     0.031 C 
ATOM     65  C   UNL A   1      45.168  30.237  31.320  1.00  0.00     0.029 A 
ATOM     66  C   UNL A   1      45.116  28.921  30.855  1.00  0.00     0.049 A 
ATOM     67  H   UNL A   1      45.306  27.219  32.062  1.00  0.00     0.167 HD
ATOM     68  C   UNL A   1      44.667  27.066  29.239  1.00  0.00     0.074 A 
ATOM     69  C   UNL A   1      44.467  25.887  30.082  1.00  0.00     0.031 C 
ATOM     70  C   UNL A   1      44.983  28.364  29.525  1.00  0.00     0.031 A 
BRANCH  57  71
ATOM     71  C   UNL A   1      44.070  26.992  34.640  1.00  0.00    -0.014 A 
ATOM     72  C   UNL A   1      43.900  25.752  33.991  1.00  0.00     0.009 A 
ATOM     73  C   UNL A   1      44.322  26.940  36.025  1.00  0.00     0.009 A 
ATOM     74  C   UNL A   1      43.870  24.548  34.705  1.00  0.00     0.001 A 
ATOM     75  C   UNL A   1      44.331  25.736  36.736  1.00  0.00     0.001 A 
ATOM     76  C   UNL A   1      44.070  24.543  36.081  1.00  0.00     0.000 A 
ENDBRANCH  57  71
BRANCH  58  77
ATOM     77  C   UNL A   1      41.599  24.267  27.027  1.00  0.00    -0.014 A 
ATOM     78  C   UNL A   1      42.441  23.674  26.072  1.00  0.00     0.009 A 
ATOM     79  C   UNL A   1      40.553  23.485  27.551  1.00  0.00     0.009 A 
ATOM     80  C   UNL A   1      42.274  22.334  25.693  1.00  0.00     0.001 A 
ATOM     81  C   UNL A   1      40.387  22.148  27.174  1.00  0.00     0.001 A 
ATOM     82  C   UNL A   1      41.259  21.567  26.258  1.00  0.00     0.000 A 
ENDBRANCH  58  77
BRANCH  70  83
ATOM     83  C   UNL A   1      44.990  29.348  28.380  1.00  0.00    -0.014 A 
ATOM     84  C   UNL A   1      43.855  30.063  27.955  1.00  0.00     0.009 A 
ATOM     85  C   UNL A   1      46.227  29.659  27.798  1.00  0.00     0.009 A 
ATOM     86  C   UNL A   1      43.958  31.041  26.960  1.00  0.00     0.001 A 
ATOM     87  C   UNL A   1      46.332  30.650  26.821  1.00  0.00     0.001 A 
ATOM     88  C   UNL A   1      45.198  31.338  26.398  1.00  0.00     0.000 A 
ENDBRANCH  70  83
ENDBRANCH  44  45
ENDBRANCH  36  39
ENDBRANCH  34  35
ENDBRANCH  33  34
ENDBRANCH   1  33
TORSDOF 15
ENDMDL
