MODEL 1
REMARK VINA RESULT:     -11.0      0.000      0.000
REMARK SMILES C#CCOc1ccc(/C=C(\Sc2nc(C)n[nH]2)C(=O)NCCCCCCNC(=O)c2ccc(-c3c4nc(c(-c5ccccc5)c5ccc([nH]5)c(-c5ccccc5)c5nc(c(-c6ccccc6)c6ccc3[nH]6)C=C5)C=C4)cc2)cc1
REMARK SMILES IDX 22 1 21 2 20 3 18 4 19 5 10 7 9 8 8 9 5 10 6 11 79 12 7 13
REMARK SMILES IDX 78 14 4 15 3 16 2 17 1 18 11 19 12 20 13 21 17 22 14 23
REMARK SMILES IDX 16 24 15 26 23 27 24 28 25 29 26 30 27 31 28 32 29 34 30 35
REMARK SMILES IDX 31 36 77 37 32 38 76 39 33 40 34 41 35 42 70 43 36 44 75 45
REMARK SMILES IDX 69 46 71 47 37 48 74 49 68 50 67 51 38 53 60 54 45 55 59 56
REMARK SMILES IDX 46 57 49 58 58 59 72 60 47 61 48 62 57 64 73 65 50 66 39 67
REMARK SMILES IDX 40 68 44 69 41 70 43 71 42 72 61 73 62 74 66 75 63 76 65 77
REMARK SMILES IDX 64 78 51 79 52 80 56 81 53 82 55 83 54 84
REMARK H PARENT 20 6 17 25 27 33 71 52 49 63
REMARK Flexibility Score: inf
ROOT
ATOM      1  C   UNL A   1      33.029  29.352  24.979  1.00  0.00     0.021 C 
ENDROOT
BRANCH   1   2
ATOM      2  C   UNL A   1      33.236  27.874  25.320  1.00  0.00     0.116 C 
BRANCH   2   3
ATOM      3  N   UNL A   1      32.095  27.385  26.056  1.00  0.00    -0.352 N 
ATOM      4  C   UNL A   1      31.337  26.276  25.851  1.00  0.00     0.258 C 
ATOM      5  O   UNL A   1      30.329  26.132  26.547  1.00  0.00    -0.269 OA
ATOM      6  H   UNL A   1      31.823  27.939  26.824  1.00  0.00     0.163 HD
BRANCH   4   7
ATOM      7  C   UNL A   1      31.761  25.216  24.861  1.00  0.00     0.081 C 
ATOM      8  C   UNL A   1      32.357  24.201  25.520  1.00  0.00     0.029 C 
BRANCH   8   9
ATOM      9  C   UNL A   1      32.750  22.907  25.002  1.00  0.00    -0.024 A 
ATOM     10  C   UNL A   1      33.543  20.241  24.621  1.00  0.00     0.120 A 
ATOM     11  C   UNL A   1      32.210  20.600  24.559  1.00  0.00     0.047 A 
ATOM     12  C   UNL A   1      34.458  21.301  24.596  1.00  0.00     0.047 A 
ATOM     13  C   UNL A   1      31.814  21.929  24.717  1.00  0.00     0.012 A 
ATOM     14  C   UNL A   1      34.080  22.628  24.782  1.00  0.00     0.012 A 
BRANCH  10  15
ATOM     15  O   UNL A   1      33.743  18.875  24.654  1.00  0.00    -0.481 OA
BRANCH  15  16
ATOM     16  C   UNL A   1      32.645  17.937  24.500  1.00  0.00     0.318 C 
BRANCH  16  17
ATOM     17  C   UNL A   1      33.219  16.606  24.958  1.00  0.00    -0.065 C 
ATOM     18  C   UNL A   1      33.712  15.465  25.351  1.00  0.00     0.007 C 
ENDBRANCH  16  17
ENDBRANCH  15  16
ENDBRANCH  10  15
ENDBRANCH   8   9
BRANCH   7  19
ATOM     19  S   UNL A   1      31.102  25.353  23.262  1.00  0.00    -0.045 SA
BRANCH  19  20
ATOM     20  C   UNL A   1      30.415  26.915  23.007  1.00  0.00     0.188 A 
ATOM     21  N   UNL A   1      29.257  27.455  23.332  1.00  0.00    -0.206 NA
ATOM     22  N   UNL A   1      31.076  27.765  22.173  1.00  0.00    -0.254 N 
ATOM     23  C   UNL A   1      29.339  28.726  22.770  1.00  0.00     0.148 A 
ATOM     24  N   UNL A   1      30.415  28.920  21.998  1.00  0.00    -0.158 NA
ATOM     25  H   UNL A   1      31.939  27.557  21.747  1.00  0.00     0.192 HD
ATOM     26  C   UNL A   1      28.446  29.864  23.118  1.00  0.00     0.092 C 
ENDBRANCH  19  20
ENDBRANCH   7  19
ENDBRANCH   4   7
ENDBRANCH   2   3
ENDBRANCH   1   2
BRANCH   1  27
ATOM     27  C   UNL A   1      31.698  29.912  25.494  1.00  0.00     0.002 C 
BRANCH  27  28
ATOM     28  C   UNL A   1      31.760  30.583  26.876  1.00  0.00     0.002 C 
BRANCH  28  29
ATOM     29  C   UNL A   1      31.448  32.088  26.908  1.00  0.00     0.021 C 
BRANCH  29  30
ATOM     30  C   UNL A   1      32.694  32.949  26.961  1.00  0.00     0.116 C 
BRANCH  30  31
ATOM     31  N   UNL A   1      32.451  34.227  27.640  1.00  0.00    -0.352 N 
ATOM     32  C   UNL A   1      33.018  34.709  28.810  1.00  0.00     0.251 C 
ATOM     33  H   UNL A   1      31.798  34.823  27.206  1.00  0.00     0.163 HD
ATOM     34  O   UNL A   1      32.500  35.597  29.455  1.00  0.00    -0.269 OA
BRANCH  32  35
ATOM     35  C   UNL A   1      34.301  34.121  29.229  1.00  0.00     0.039 A 
ATOM     36  C   UNL A   1      34.473  33.438  30.436  1.00  0.00     0.014 A 
ATOM     37  C   UNL A   1      35.342  34.241  28.320  1.00  0.00     0.014 A 
ATOM     38  C   UNL A   1      35.710  32.848  30.687  1.00  0.00     0.010 A 
ATOM     39  C   UNL A   1      36.421  33.424  28.435  1.00  0.00     0.010 A 
ATOM     40  C   UNL A   1      36.677  32.859  29.671  1.00  0.00    -0.014 A 
BRANCH  40  41
ATOM     41  C   UNL A   1      37.994  32.270  29.812  1.00  0.00     0.031 A 
ATOM     42  C   UNL A   1      38.083  30.861  29.363  1.00  0.00     0.074 A 
ATOM     43  C   UNL A   1      39.081  33.043  30.039  1.00  0.00     0.049 A 
ATOM     44  N   UNL A   1      38.300  29.817  30.087  1.00  0.00    -0.248 NA
ATOM     45  C   UNL A   1      37.749  30.559  27.960  1.00  0.00     0.031 C 
ATOM     46  C   UNL A   1      39.174  34.512  30.113  1.00  0.00     0.029 A 
ATOM     47  N   UNL A   1      40.382  32.672  30.122  1.00  0.00    -0.354 N 
ATOM     48  C   UNL A   1      38.326  28.740  29.206  1.00  0.00     0.074 A 
ATOM     49  C   UNL A   1      37.792  29.227  27.959  1.00  0.00     0.031 C 
ATOM     50  C   UNL A   1      40.465  34.896  29.985  1.00  0.00     0.029 A 
ATOM     51  C   UNL A   1      41.298  33.710  30.007  1.00  0.00     0.049 A 
ATOM     52  H   UNL A   1      40.656  31.736  30.253  1.00  0.00     0.167 HD
ATOM     53  C   UNL A   1      39.019  27.604  29.497  1.00  0.00     0.031 A 
ATOM     54  C   UNL A   1      42.645  33.586  29.908  1.00  0.00     0.031 A 
ATOM     55  C   UNL A   1      39.413  27.572  30.883  1.00  0.00     0.049 A 
ATOM     56  C   UNL A   1      42.988  32.222  30.377  1.00  0.00     0.074 A 
ATOM     57  C   UNL A   1      38.739  27.545  32.087  1.00  0.00     0.029 A 
ATOM     58  N   UNL A   1      40.686  28.008  31.172  1.00  0.00    -0.354 N 
ATOM     59  N   UNL A   1      42.807  31.822  31.605  1.00  0.00    -0.248 NA
ATOM     60  C   UNL A   1      43.059  31.166  29.380  1.00  0.00     0.031 C 
ATOM     61  C   UNL A   1      39.477  28.420  32.938  1.00  0.00     0.029 A 
ATOM     62  C   UNL A   1      40.603  28.865  32.241  1.00  0.00     0.049 A 
ATOM     63  H   UNL A   1      41.509  27.749  30.698  1.00  0.00     0.167 HD
ATOM     64  C   UNL A   1      42.308  30.531  31.489  1.00  0.00     0.074 A 
ATOM     65  C   UNL A   1      42.565  30.152  30.098  1.00  0.00     0.031 C 
ATOM     66  C   UNL A   1      41.475  30.006  32.437  1.00  0.00     0.031 A 
BRANCH  53  67
ATOM     67  C   UNL A   1      39.689  26.737  28.462  1.00  0.00    -0.014 A 
ATOM     68  C   UNL A   1      39.419  25.357  28.467  1.00  0.00     0.009 A 
ATOM     69  C   UNL A   1      40.767  27.165  27.665  1.00  0.00     0.009 A 
ATOM     70  C   UNL A   1      40.229  24.451  27.772  1.00  0.00     0.001 A 
ATOM     71  C   UNL A   1      41.555  26.267  26.938  1.00  0.00     0.001 A 
ATOM     72  C   UNL A   1      41.303  24.907  27.015  1.00  0.00     0.000 A 
ENDBRANCH  53  67
BRANCH  54  73
ATOM     73  C   UNL A   1      43.593  34.413  29.127  1.00  0.00    -0.014 A 
ATOM     74  C   UNL A   1      44.827  34.809  29.667  1.00  0.00     0.009 A 
ATOM     75  C   UNL A   1      43.407  34.571  27.741  1.00  0.00     0.009 A 
ATOM     76  C   UNL A   1      45.848  35.312  28.845  1.00  0.00     0.001 A 
ATOM     77  C   UNL A   1      44.426  35.070  26.920  1.00  0.00     0.001 A 
ATOM     78  C   UNL A   1      45.651  35.427  27.470  1.00  0.00     0.000 A 
ENDBRANCH  54  73
BRANCH  66  79
ATOM     79  C   UNL A   1      41.268  30.795  33.710  1.00  0.00    -0.014 A 
ATOM     80  C   UNL A   1      40.226  31.727  33.888  1.00  0.00     0.009 A 
ATOM     81  C   UNL A   1      42.054  30.467  34.823  1.00  0.00     0.009 A 
ATOM     82  C   UNL A   1      40.000  32.325  35.134  1.00  0.00     0.001 A 
ATOM     83  C   UNL A   1      41.816  31.049  36.071  1.00  0.00     0.001 A 
ATOM     84  C   UNL A   1      40.792  31.980  36.225  1.00  0.00     0.000 A 
ENDBRANCH  66  79
ENDBRANCH  40  41
ENDBRANCH  32  35
ENDBRANCH  30  31
ENDBRANCH  29  30
ENDBRANCH  28  29
ENDBRANCH  27  28
ENDBRANCH   1  27
TORSDOF 19
ENDMDL
MODEL 2
REMARK VINA RESULT:     -10.7      3.175      6.611
REMARK SMILES C#CCOc1ccc(/C=C(\Sc2nc(C)n[nH]2)C(=O)NCCCCCCNC(=O)c2ccc(-c3c4nc(c(-c5ccccc5)c5ccc([nH]5)c(-c5ccccc5)c5nc(c(-c6ccccc6)c6ccc3[nH]6)C=C5)C=C4)cc2)cc1
REMARK SMILES IDX 22 1 21 2 20 3 18 4 19 5 10 7 9 8 8 9 5 10 6 11 79 12 7 13
REMARK SMILES IDX 78 14 4 15 3 16 2 17 1 18 11 19 12 20 13 21 17 22 14 23
REMARK SMILES IDX 16 24 15 26 23 27 24 28 25 29 26 30 27 31 28 32 29 34 30 35
REMARK SMILES IDX 31 36 77 37 32 38 76 39 33 40 34 41 35 42 70 43 36 44 75 45
REMARK SMILES IDX 69 46 71 47 37 48 74 49 68 50 67 51 38 53 60 54 45 55 59 56
REMARK SMILES IDX 46 57 49 58 58 59 72 60 47 61 48 62 57 64 73 65 50 66 39 67
REMARK SMILES IDX 40 68 44 69 41 70 43 71 42 72 61 73 62 74 66 75 63 76 65 77
REMARK SMILES IDX 64 78 51 79 52 80 56 81 53 82 55 83 54 84
REMARK H PARENT 20 6 17 25 27 33 71 52 49 63
REMARK Flexibility Score: inf
ROOT
ATOM      1  C   UNL A   1      31.801  26.672  26.452  1.00  0.00     0.021 C 
ENDROOT
BRANCH   1   2
ATOM      2  C   UNL A   1      31.636  25.179  26.155  1.00  0.00     0.116 C 
BRANCH   2   3
ATOM      3  N   UNL A   1      31.664  24.966  24.728  1.00  0.00    -0.352 N 
ATOM      4  C   UNL A   1      32.467  24.162  23.983  1.00  0.00     0.258 C 
ATOM      5  O   UNL A   1      32.380  24.242  22.756  1.00  0.00    -0.269 OA
ATOM      6  H   UNL A   1      30.999  25.482  24.215  1.00  0.00     0.163 HD
BRANCH   4   7
ATOM      7  C   UNL A   1      33.375  23.148  24.639  1.00  0.00     0.081 C 
ATOM      8  C   UNL A   1      34.662  23.490  24.420  1.00  0.00     0.029 C 
BRANCH   8   9
ATOM      9  C   UNL A   1      35.852  22.917  25.011  1.00  0.00    -0.024 A 
ATOM     10  C   UNL A   1      38.439  22.002  25.609  1.00  0.00     0.120 A 
ATOM     11  C   UNL A   1      37.993  23.224  26.076  1.00  0.00     0.047 A 
ATOM     12  C   UNL A   1      37.452  21.157  25.085  1.00  0.00     0.047 A 
ATOM     13  C   UNL A   1      36.698  23.669  25.806  1.00  0.00     0.012 A 
ATOM     14  C   UNL A   1      36.165  21.596  24.785  1.00  0.00     0.012 A 
BRANCH  10  15
ATOM     15  O   UNL A   1      39.795  21.810  25.782  1.00  0.00    -0.481 OA
BRANCH  15  16
ATOM     16  C   UNL A   1      40.337  21.245  27.006  1.00  0.00     0.318 C 
BRANCH  16  17
ATOM     17  C   UNL A   1      41.466  20.342  26.536  1.00  0.00    -0.065 C 
ATOM     18  C   UNL A   1      42.434  19.567  26.132  1.00  0.00     0.007 C 
ENDBRANCH  16  17
ENDBRANCH  15  16
ENDBRANCH  10  15
ENDBRANCH   8   9
BRANCH   7  19
ATOM     19  S   UNL A   1      32.624  22.061  25.763  1.00  0.00    -0.045 SA
BRANCH  19  20
ATOM     20  C   UNL A   1      32.697  20.434  25.193  1.00  0.00     0.188 A 
ATOM     21  N   UNL A   1      32.577  19.891  23.998  1.00  0.00    -0.206 NA
ATOM     22  N   UNL A   1      32.720  19.441  26.125  1.00  0.00    -0.254 N 
ATOM     23  C   UNL A   1      32.685  18.528  24.264  1.00  0.00     0.148 A 
ATOM     24  N   UNL A   1      32.707  18.221  25.567  1.00  0.00    -0.158 NA
ATOM     25  H   UNL A   1      32.744  19.600  27.096  1.00  0.00     0.192 HD
ATOM     26  C   UNL A   1      32.952  17.485  23.238  1.00  0.00     0.092 C 
ENDBRANCH  19  20
ENDBRANCH   7  19
ENDBRANCH   4   7
ENDBRANCH   2   3
ENDBRANCH   1   2
BRANCH   1  27
ATOM     27  C   UNL A   1      31.632  27.559  25.213  1.00  0.00     0.002 C 
BRANCH  27  28
ATOM     28  C   UNL A   1      32.137  29.003  25.367  1.00  0.00     0.002 C 
BRANCH  28  29
ATOM     29  C   UNL A   1      32.176  29.551  26.803  1.00  0.00     0.021 C 
BRANCH  29  30
ATOM     30  C   UNL A   1      33.584  29.825  27.293  1.00  0.00     0.116 C 
BRANCH  30  31
ATOM     31  N   UNL A   1      33.877  31.262  27.351  1.00  0.00    -0.352 N 
ATOM     32  C   UNL A   1      34.947  31.905  27.956  1.00  0.00     0.251 C 
ATOM     33  H   UNL A   1      33.228  31.847  26.899  1.00  0.00     0.163 HD
ATOM     34  O   UNL A   1      34.907  33.084  28.241  1.00  0.00    -0.269 OA
BRANCH  32  35
ATOM     35  C   UNL A   1      36.156  31.107  28.211  1.00  0.00     0.039 A 
ATOM     36  C   UNL A   1      36.383  29.854  27.633  1.00  0.00     0.014 A 
ATOM     37  C   UNL A   1      37.103  31.696  29.035  1.00  0.00     0.014 A 
ATOM     38  C   UNL A   1      37.604  29.228  27.880  1.00  0.00     0.010 A 
ATOM     39  C   UNL A   1      38.378  31.229  29.022  1.00  0.00     0.010 A 
ATOM     40  C   UNL A   1      38.589  29.934  28.585  1.00  0.00    -0.014 A 
BRANCH  40  41
ATOM     41  C   UNL A   1      39.898  29.391  28.892  1.00  0.00     0.031 A 
ATOM     42  C   UNL A   1      40.094  29.043  30.318  1.00  0.00     0.074 A 
ATOM     43  C   UNL A   1      40.723  28.967  27.907  1.00  0.00     0.049 A 
ATOM     44  N   UNL A   1      40.894  29.600  31.162  1.00  0.00    -0.248 NA
ATOM     45  C   UNL A   1      39.190  28.046  30.918  1.00  0.00     0.031 C 
ATOM     46  C   UNL A   1      40.477  28.899  26.456  1.00  0.00     0.029 A 
ATOM     47  N   UNL A   1      41.937  28.373  28.017  1.00  0.00    -0.354 N 
ATOM     48  C   UNL A   1      40.739  28.900  32.355  1.00  0.00     0.074 A 
ATOM     49  C   UNL A   1      39.553  28.097  32.200  1.00  0.00     0.031 C 
ATOM     50  C   UNL A   1      41.389  28.089  25.874  1.00  0.00     0.029 A 
ATOM     51  C   UNL A   1      42.385  27.734  26.867  1.00  0.00     0.049 A 
ATOM     52  H   UNL A   1      42.461  28.391  28.850  1.00  0.00     0.167 HD
ATOM     53  C   UNL A   1      41.740  28.845  33.277  1.00  0.00     0.031 A 
ATOM     54  C   UNL A   1      43.484  26.947  26.761  1.00  0.00     0.031 A 
ATOM     55  C   UNL A   1      42.768  29.814  32.992  1.00  0.00     0.049 A 
ATOM     56  C   UNL A   1      44.339  27.240  27.936  1.00  0.00     0.074 A 
ATOM     57  C   UNL A   1      42.817  31.191  32.929  1.00  0.00     0.029 A 
ATOM     58  N   UNL A   1      43.863  29.364  32.290  1.00  0.00    -0.354 N 
ATOM     59  N   UNL A   1      44.901  28.399  28.140  1.00  0.00    -0.248 NA
ATOM     60  C   UNL A   1      44.159  26.417  29.121  1.00  0.00     0.031 C 
ATOM     61  C   UNL A   1      43.640  31.475  31.798  1.00  0.00     0.029 A 
ATOM     62  C   UNL A   1      44.117  30.265  31.287  1.00  0.00     0.049 A 
ATOM     63  H   UNL A   1      44.373  28.542  32.475  1.00  0.00     0.167 HD
ATOM     64  C   UNL A   1      44.746  28.636  29.500  1.00  0.00     0.074 A 
ATOM     65  C   UNL A   1      44.357  27.342  30.065  1.00  0.00     0.031 C 
ATOM     66  C   UNL A   1      44.658  29.908  29.991  1.00  0.00     0.031 A 
BRANCH  53  67
ATOM     67  C   UNL A   1      41.992  27.662  34.177  1.00  0.00    -0.014 A 
ATOM     68  C   UNL A   1      41.622  27.760  35.531  1.00  0.00     0.009 A 
ATOM     69  C   UNL A   1      42.811  26.573  33.824  1.00  0.00     0.009 A 
ATOM     70  C   UNL A   1      42.107  26.859  36.487  1.00  0.00     0.001 A 
ATOM     71  C   UNL A   1      43.266  25.649  34.770  1.00  0.00     0.001 A 
ATOM     72  C   UNL A   1      42.937  25.809  36.107  1.00  0.00     0.000 A 
ENDBRANCH  53  67
BRANCH  54  73
ATOM     73  C   UNL A   1      43.677  25.738  25.927  1.00  0.00    -0.014 A 
ATOM     74  C   UNL A   1      44.939  25.407  25.410  1.00  0.00     0.009 A 
ATOM     75  C   UNL A   1      42.674  24.753  25.880  1.00  0.00     0.009 A 
ATOM     76  C   UNL A   1      45.196  24.127  24.896  1.00  0.00     0.001 A 
ATOM     77  C   UNL A   1      42.930  23.474  25.370  1.00  0.00     0.001 A 
ATOM     78  C   UNL A   1      44.196  23.156  24.891  1.00  0.00     0.000 A 
ENDBRANCH  54  73
BRANCH  66  79
ATOM     79  C   UNL A   1      44.929  31.053  29.041  1.00  0.00    -0.014 A 
ATOM     80  C   UNL A   1      46.208  31.601  28.826  1.00  0.00     0.009 A 
ATOM     81  C   UNL A   1      43.881  31.484  28.215  1.00  0.00     0.009 A 
ATOM     82  C   UNL A   1      46.421  32.566  27.833  1.00  0.00     0.001 A 
ATOM     83  C   UNL A   1      44.098  32.432  27.211  1.00  0.00     0.001 A 
ATOM     84  C   UNL A   1      45.366  32.976  27.023  1.00  0.00     0.000 A 
ENDBRANCH  66  79
ENDBRANCH  40  41
ENDBRANCH  32  35
ENDBRANCH  30  31
ENDBRANCH  29  30
ENDBRANCH  28  29
ENDBRANCH  27  28
ENDBRANCH   1  27
TORSDOF 19
ENDMDL
MODEL 3
REMARK VINA RESULT:     -10.7      2.636      4.479
REMARK SMILES C#CCOc1ccc(/C=C(\Sc2nc(C)n[nH]2)C(=O)NCCCCCCNC(=O)c2ccc(-c3c4nc(c(-c5ccccc5)c5ccc([nH]5)c(-c5ccccc5)c5nc(c(-c6ccccc6)c6ccc3[nH]6)C=C5)C=C4)cc2)cc1
REMARK SMILES IDX 22 1 21 2 20 3 18 4 19 5 10 7 9 8 8 9 5 10 6 11 79 12 7 13
REMARK SMILES IDX 78 14 4 15 3 16 2 17 1 18 11 19 12 20 13 21 17 22 14 23
REMARK SMILES IDX 16 24 15 26 23 27 24 28 25 29 26 30 27 31 28 32 29 34 30 35
REMARK SMILES IDX 31 36 77 37 32 38 76 39 33 40 34 41 35 42 70 43 36 44 75 45
REMARK SMILES IDX 69 46 71 47 37 48 74 49 68 50 67 51 38 53 60 54 45 55 59 56
REMARK SMILES IDX 46 57 49 58 58 59 72 60 47 61 48 62 57 64 73 65 50 66 39 67
REMARK SMILES IDX 40 68 44 69 41 70 43 71 42 72 61 73 62 74 66 75 63 76 65 77
REMARK SMILES IDX 64 78 51 79 52 80 56 81 53 82 55 83 54 84
REMARK H PARENT 20 6 17 25 27 33 71 52 49 63
REMARK Flexibility Score: inf
ROOT
ATOM      1  C   UNL A   1      34.060  26.130  25.518  1.00  0.00     0.021 C 
ENDROOT
BRANCH   1   2
ATOM      2  C   UNL A   1      33.054  25.073  25.979  1.00  0.00     0.116 C 
BRANCH   2   3
ATOM      3  N   UNL A   1      32.584  24.325  24.836  1.00  0.00    -0.352 N 
ATOM      4  C   UNL A   1      33.129  23.243  24.220  1.00  0.00     0.258 C 
ATOM      5  O   UNL A   1      32.600  22.850  23.177  1.00  0.00    -0.269 OA
ATOM      6  H   UNL A   1      31.740  24.647  24.444  1.00  0.00     0.163 HD
BRANCH   4   7
ATOM      7  C   UNL A   1      34.291  22.501  24.836  1.00  0.00     0.081 C 
ATOM      8  C   UNL A   1      35.448  23.054  24.419  1.00  0.00     0.029 C 
BRANCH   8   9
ATOM      9  C   UNL A   1      36.789  22.788  24.895  1.00  0.00    -0.024 A 
ATOM     10  C   UNL A   1      39.084  22.084  26.353  1.00  0.00     0.120 A 
ATOM     11  C   UNL A   1      38.513  21.199  25.458  1.00  0.00     0.047 A 
ATOM     12  C   UNL A   1      38.630  23.407  26.270  1.00  0.00     0.047 A 
ATOM     13  C   UNL A   1      37.391  21.555  24.709  1.00  0.00     0.012 A 
ATOM     14  C   UNL A   1      37.496  23.771  25.550  1.00  0.00     0.012 A 
BRANCH  10  15
ATOM     15  O   UNL A   1      40.047  21.507  27.157  1.00  0.00    -0.481 OA
BRANCH  15  16
ATOM     16  C   UNL A   1      41.153  20.747  26.600  1.00  0.00     0.318 C 
BRANCH  16  17
ATOM     17  C   UNL A   1      42.033  21.794  25.937  1.00  0.00    -0.065 C 
ATOM     18  C   UNL A   1      42.787  22.692  25.368  1.00  0.00     0.007 C 
ENDBRANCH  16  17
ENDBRANCH  15  16
ENDBRANCH  10  15
ENDBRANCH   8   9
BRANCH   7  19
ATOM     19  S   UNL A   1      33.907  21.423  26.141  1.00  0.00    -0.045 SA
BRANCH  19  20
ATOM     20  C   UNL A   1      33.587  19.832  25.557  1.00  0.00     0.188 A 
ATOM     21  N   UNL A   1      33.877  19.209  24.432  1.00  0.00    -0.206 NA
ATOM     22  N   UNL A   1      32.729  19.057  26.277  1.00  0.00    -0.254 N 
ATOM     23  C   UNL A   1      33.269  17.968  24.599  1.00  0.00     0.148 A 
ATOM     24  N   UNL A   1      32.504  17.871  25.692  1.00  0.00    -0.158 NA
ATOM     25  H   UNL A   1      32.322  19.335  27.130  1.00  0.00     0.192 HD
ATOM     26  C   UNL A   1      33.565  16.764  23.776  1.00  0.00     0.092 C 
ENDBRANCH  19  20
ENDBRANCH   7  19
ENDBRANCH   4   7
ENDBRANCH   2   3
ENDBRANCH   1   2
BRANCH   1  27
ATOM     27  C   UNL A   1      33.399  27.375  24.915  1.00  0.00     0.002 C 
BRANCH  27  28
ATOM     28  C   UNL A   1      32.602  28.238  25.907  1.00  0.00     0.002 C 
BRANCH  28  29
ATOM     29  C   UNL A   1      32.910  29.744  25.885  1.00  0.00     0.021 C 
BRANCH  29  30
ATOM     30  C   UNL A   1      32.739  30.403  27.240  1.00  0.00     0.116 C 
BRANCH  30  31
ATOM     31  N   UNL A   1      32.396  31.824  27.121  1.00  0.00    -0.352 N 
ATOM     32  C   UNL A   1      32.920  32.904  27.817  1.00  0.00     0.251 C 
ATOM     33  H   UNL A   1      31.701  32.041  26.459  1.00  0.00     0.163 HD
ATOM     34  O   UNL A   1      32.333  33.963  27.893  1.00  0.00    -0.269 OA
BRANCH  32  35
ATOM     35  C   UNL A   1      34.243  32.728  28.437  1.00  0.00     0.039 A 
ATOM     36  C   UNL A   1      34.426  32.166  29.704  1.00  0.00     0.014 A 
ATOM     37  C   UNL A   1      35.327  33.111  27.661  1.00  0.00     0.014 A 
ATOM     38  C   UNL A   1      35.730  31.969  30.153  1.00  0.00     0.010 A 
ATOM     39  C   UNL A   1      36.564  32.645  27.972  1.00  0.00     0.010 A 
ATOM     40  C   UNL A   1      36.790  32.223  29.270  1.00  0.00    -0.014 A 
BRANCH  40  41
ATOM     41  C   UNL A   1      38.186  32.045  29.620  1.00  0.00     0.031 A 
ATOM     42  C   UNL A   1      38.697  30.670  29.409  1.00  0.00     0.074 A 
ATOM     43  C   UNL A   1      38.993  33.111  29.818  1.00  0.00     0.049 A 
ATOM     44  N   UNL A   1      39.083  29.829  30.305  1.00  0.00    -0.248 NA
ATOM     45  C   UNL A   1      38.638  30.112  28.047  1.00  0.00     0.031 C 
ATOM     46  C   UNL A   1      38.689  34.546  29.668  1.00  0.00     0.029 A 
ATOM     47  N   UNL A   1      40.324  33.129  30.076  1.00  0.00    -0.354 N 
ATOM     48  C   UNL A   1      39.503  28.698  29.610  1.00  0.00     0.074 A 
ATOM     49  C   UNL A   1      39.027  28.855  28.260  1.00  0.00     0.031 C 
ATOM     50  C   UNL A   1      39.840  35.253  29.598  1.00  0.00     0.029 A 
ATOM     51  C   UNL A   1      40.945  34.357  29.882  1.00  0.00     0.049 A 
ATOM     52  H   UNL A   1      40.814  32.331  30.377  1.00  0.00     0.167 HD
ATOM     53  C   UNL A   1      40.425  27.846  30.138  1.00  0.00     0.031 A 
ATOM     54  C   UNL A   1      42.278  34.600  29.925  1.00  0.00     0.031 A 
ATOM     55  C   UNL A   1      40.631  28.101  31.542  1.00  0.00     0.049 A 
ATOM     56  C   UNL A   1      42.902  33.455  30.632  1.00  0.00     0.074 A 
ATOM     57  C   UNL A   1      39.838  28.042  32.669  1.00  0.00     0.029 A 
ATOM     58  N   UNL A   1      41.698  28.906  31.872  1.00  0.00    -0.354 N 
ATOM     59  N   UNL A   1      42.674  33.181  31.887  1.00  0.00    -0.248 NA
ATOM     60  C   UNL A   1      43.374  32.343  29.825  1.00  0.00     0.031 C 
ATOM     61  C   UNL A   1      40.205  29.188  33.435  1.00  0.00     0.029 A 
ATOM     62  C   UNL A   1      41.256  29.835  32.780  1.00  0.00     0.049 A 
ATOM     63  H   UNL A   1      42.614  28.827  31.521  1.00  0.00     0.167 HD
ATOM     64  C   UNL A   1      42.549  31.798  31.931  1.00  0.00     0.074 A 
ATOM     65  C   UNL A   1      43.074  31.332  30.646  1.00  0.00     0.031 C 
ATOM     66  C   UNL A   1      41.767  31.188  32.871  1.00  0.00     0.031 A 
BRANCH  53  67
ATOM     67  C   UNL A   1      41.426  27.074  29.317  1.00  0.00    -0.014 A 
ATOM     68  C   UNL A   1      42.562  27.750  28.835  1.00  0.00     0.009 A 
ATOM     69  C   UNL A   1      41.174  25.799  28.776  1.00  0.00     0.009 A 
ATOM     70  C   UNL A   1      43.355  27.210  27.815  1.00  0.00     0.001 A 
ATOM     71  C   UNL A   1      41.987  25.240  27.784  1.00  0.00     0.001 A 
ATOM     72  C   UNL A   1      43.061  25.959  27.284  1.00  0.00     0.000 A 
ENDBRANCH  53  67
BRANCH  54  73
ATOM     73  C   UNL A   1      43.070  35.550  29.112  1.00  0.00    -0.014 A 
ATOM     74  C   UNL A   1      43.959  36.456  29.714  1.00  0.00     0.009 A 
ATOM     75  C   UNL A   1      43.167  35.370  27.719  1.00  0.00     0.009 A 
ATOM     76  C   UNL A   1      44.929  37.129  28.954  1.00  0.00     0.001 A 
ATOM     77  C   UNL A   1      44.136  36.039  26.962  1.00  0.00     0.001 A 
ATOM     78  C   UNL A   1      45.026  36.908  27.582  1.00  0.00     0.000 A 
ENDBRANCH  54  73
BRANCH  66  79
ATOM     79  C   UNL A   1      41.197  32.044  33.981  1.00  0.00    -0.014 A 
ATOM     80  C   UNL A   1      41.849  32.260  35.210  1.00  0.00     0.009 A 
ATOM     81  C   UNL A   1      40.040  32.787  33.710  1.00  0.00     0.009 A 
ATOM     82  C   UNL A   1      41.342  33.173  36.144  1.00  0.00     0.001 A 
ATOM     83  C   UNL A   1      39.544  33.712  34.633  1.00  0.00     0.001 A 
ATOM     84  C   UNL A   1      40.192  33.901  35.851  1.00  0.00     0.000 A 
ENDBRANCH  66  79
ENDBRANCH  40  41
ENDBRANCH  32  35
ENDBRANCH  30  31
ENDBRANCH  29  30
ENDBRANCH  28  29
ENDBRANCH  27  28
ENDBRANCH   1  27
TORSDOF 19
ENDMDL
