MODEL 1
REMARK VINA RESULT:     -11.1      0.000      0.000
REMARK SMILES C[C@@H](NC(=O)c1cc(C(=O)NCCCCCCNC(=O)c2ccc(-c3c4nc(c(-c5ccccc5)c5ccc([nH]5)c(-c5ccccc5)c5nc(c(-c6ccccc6)c6ccc3[nH]6)C=C5)C=C4)cc2)n(C)n1)c1ccccc1
REMARK SMILES IDX 14 1 13 2 12 3 11 4 9 5 10 6 8 8 6 9 7 10 71 11 69 12 70 13
REMARK SMILES IDX 4 14 3 15 5 17 2 18 1 19 72 20 73 21 77 22 74 23 76 24 75 25
REMARK SMILES IDX 15 26 16 27 17 28 18 29 19 30 20 32 21 33 22 34 68 35 23 36
REMARK SMILES IDX 67 37 24 38 25 39 26 40 61 41 27 42 66 43 60 44 62 45 28 46
REMARK SMILES IDX 65 47 59 48 58 49 29 51 51 52 36 53 50 54 37 55 40 56 49 57
REMARK SMILES IDX 63 58 38 59 39 60 48 62 64 63 41 64 30 65 31 66 35 67 32 68
REMARK SMILES IDX 34 69 33 70 52 71 53 72 57 73 54 74 56 75 55 76 42 77 43 78
REMARK SMILES IDX 47 79 44 80 46 81 45 82
REMARK H PARENT 11 7 3 16 18 31 62 50 40 61
REMARK Flexibility Score: inf
ROOT
ATOM      1  C   UNL A   1      30.796  29.194  24.556  1.00  0.00     0.002 C 
ENDROOT
BRANCH   1   2
ATOM      2  C   UNL A   1      30.761  29.219  23.022  1.00  0.00     0.021 C 
BRANCH   2   3
ATOM      3  C   UNL A   1      30.316  27.911  22.365  1.00  0.00     0.116 C 
BRANCH   3   4
ATOM      4  N   UNL A   1      31.437  27.106  21.963  1.00  0.00    -0.351 N 
ATOM      5  C   UNL A   1      32.131  26.067  22.512  1.00  0.00     0.269 C 
ATOM      6  O   UNL A   1      32.864  25.507  21.686  1.00  0.00    -0.268 OA
ATOM      7  H   UNL A   1      31.790  27.366  21.082  1.00  0.00     0.163 HD
BRANCH   5   8
ATOM      8  C   UNL A   1      32.102  25.607  23.891  1.00  0.00     0.126 A 
ATOM      9  C   UNL A   1      31.742  24.113  25.540  1.00  0.00     0.151 A 
ATOM     10  C   UNL A   1      31.326  24.504  24.259  1.00  0.00     0.069 A 
ATOM     11  N   UNL A   1      32.557  25.035  26.060  1.00  0.00    -0.167 NA
ATOM     12  N   UNL A   1      32.788  25.901  25.050  1.00  0.00    -0.262 N 
ATOM     13  C   UNL A   1      33.775  26.901  25.358  1.00  0.00     0.174 C 
BRANCH   9  14
ATOM     14  C   UNL A   1      31.384  22.915  26.282  1.00  0.00     0.272 C 
ATOM     15  N   UNL A   1      31.989  21.719  25.987  1.00  0.00    -0.344 N 
ATOM     16  H   UNL A   1      31.937  21.077  26.731  1.00  0.00     0.164 HD
ATOM     17  O   UNL A   1      30.578  22.938  27.213  1.00  0.00    -0.267 OA
BRANCH  15  18
ATOM     18  C   UNL A   1      32.695  21.171  24.823  1.00  0.00     0.109 C 
ATOM     19  C   UNL A   1      32.544  19.642  24.828  1.00  0.00     0.036 C 
BRANCH  18  20
ATOM     20  C   UNL A   1      34.134  21.571  24.569  1.00  0.00    -0.026 A 
ATOM     21  C   UNL A   1      35.217  20.936  25.195  1.00  0.00     0.006 A 
ATOM     22  C   UNL A   1      34.411  22.586  23.634  1.00  0.00     0.006 A 
ATOM     23  C   UNL A   1      36.534  21.304  24.897  1.00  0.00     0.000 A 
ATOM     24  C   UNL A   1      35.726  22.959  23.344  1.00  0.00     0.000 A 
ATOM     25  C   UNL A   1      36.788  22.316  23.975  1.00  0.00     0.000 A 
ENDBRANCH  18  20
ENDBRANCH  15  18
ENDBRANCH   9  14
ENDBRANCH   5   8
ENDBRANCH   3   4
ENDBRANCH   2   3
ENDBRANCH   1   2
BRANCH   1  26
ATOM     26  C   UNL A   1      31.877  30.061  25.212  1.00  0.00     0.002 C 
BRANCH  26  27
ATOM     27  C   UNL A   1      31.362  31.159  26.147  1.00  0.00     0.021 C 
BRANCH  27  28
ATOM     28  C   UNL A   1      32.379  31.645  27.174  1.00  0.00     0.116 C 
BRANCH  28  29
ATOM     29  N   UNL A   1      32.256  33.073  27.416  1.00  0.00    -0.352 N 
ATOM     30  C   UNL A   1      33.049  33.898  28.175  1.00  0.00     0.251 C 
ATOM     31  H   UNL A   1      31.496  33.511  26.970  1.00  0.00     0.163 HD
ATOM     32  O   UNL A   1      32.666  35.029  28.457  1.00  0.00    -0.269 OA
BRANCH  30  33
ATOM     33  C   UNL A   1      34.362  33.424  28.663  1.00  0.00     0.039 A 
ATOM     34  C   UNL A   1      34.418  32.689  29.851  1.00  0.00     0.014 A 
ATOM     35  C   UNL A   1      35.539  33.736  27.976  1.00  0.00     0.014 A 
ATOM     36  C   UNL A   1      35.647  32.229  30.326  1.00  0.00     0.010 A 
ATOM     37  C   UNL A   1      36.757  33.225  28.418  1.00  0.00     0.010 A 
ATOM     38  C   UNL A   1      36.824  32.475  29.601  1.00  0.00    -0.014 A 
BRANCH  38  39
ATOM     39  C   UNL A   1      38.138  31.973  30.076  1.00  0.00     0.031 A 
ATOM     40  C   UNL A   1      38.684  30.673  29.552  1.00  0.00     0.074 A 
ATOM     41  C   UNL A   1      38.815  32.655  31.020  1.00  0.00     0.049 A 
ATOM     42  N   UNL A   1      39.773  30.034  29.897  1.00  0.00    -0.248 NA
ATOM     43  C   UNL A   1      37.888  29.989  28.519  1.00  0.00     0.031 C 
ATOM     44  C   UNL A   1      38.379  33.911  31.636  1.00  0.00     0.029 A 
ATOM     45  N   UNL A   1      40.011  32.382  31.633  1.00  0.00    -0.354 N 
ATOM     46  C   UNL A   1      39.787  28.872  29.136  1.00  0.00     0.074 A 
ATOM     47  C   UNL A   1      38.574  28.869  28.347  1.00  0.00     0.031 C 
ATOM     48  C   UNL A   1      39.302  34.304  32.529  1.00  0.00     0.029 A 
ATOM     49  C   UNL A   1      40.374  33.315  32.573  1.00  0.00     0.049 A 
ATOM     50  H   UNL A   1      40.557  31.590  31.421  1.00  0.00     0.167 HD
ATOM     51  C   UNL A   1      40.732  27.903  29.082  1.00  0.00     0.031 A 
ATOM     52  C   UNL A   1      41.447  33.366  33.385  1.00  0.00     0.031 A 
ATOM     53  C   UNL A   1      41.943  27.909  29.858  1.00  0.00     0.049 A 
ATOM     54  C   UNL A   1      42.481  32.279  33.307  1.00  0.00     0.074 A 
ATOM     55  C   UNL A   1      42.977  26.987  29.852  1.00  0.00     0.029 A 
ATOM     56  N   UNL A   1      42.285  28.887  30.777  1.00  0.00    -0.354 N 
ATOM     57  N   UNL A   1      42.499  31.209  32.549  1.00  0.00    -0.248 NA
ATOM     58  C   UNL A   1      43.651  32.414  34.187  1.00  0.00     0.031 C 
ATOM     59  C   UNL A   1      43.928  27.392  30.793  1.00  0.00     0.029 A 
ATOM     60  C   UNL A   1      43.510  28.589  31.350  1.00  0.00     0.049 A 
ATOM     61  H   UNL A   1      41.739  29.678  30.991  1.00  0.00     0.167 HD
ATOM     62  C   UNL A   1      43.693  30.560  32.841  1.00  0.00     0.074 A 
ATOM     63  C   UNL A   1      44.377  31.363  33.833  1.00  0.00     0.031 C 
ATOM     64  C   UNL A   1      44.178  29.402  32.331  1.00  0.00     0.031 A 
BRANCH  51  65
ATOM     65  C   UNL A   1      40.492  26.756  28.141  1.00  0.00    -0.014 A 
ATOM     66  C   UNL A   1      41.045  26.753  26.850  1.00  0.00     0.009 A 
ATOM     67  C   UNL A   1      39.733  25.652  28.559  1.00  0.00     0.009 A 
ATOM     68  C   UNL A   1      40.814  25.681  25.985  1.00  0.00     0.001 A 
ATOM     69  C   UNL A   1      39.526  24.570  27.700  1.00  0.00     0.001 A 
ATOM     70  C   UNL A   1      40.059  24.590  26.412  1.00  0.00     0.000 A 
ENDBRANCH  51  65
BRANCH  52  71
ATOM     71  C   UNL A   1      41.605  34.495  34.338  1.00  0.00    -0.014 A 
ATOM     72  C   UNL A   1      42.240  35.681  33.940  1.00  0.00     0.009 A 
ATOM     73  C   UNL A   1      41.129  34.388  35.654  1.00  0.00     0.009 A 
ATOM     74  C   UNL A   1      42.420  36.726  34.849  1.00  0.00     0.001 A 
ATOM     75  C   UNL A   1      41.286  35.446  36.552  1.00  0.00     0.001 A 
ATOM     76  C   UNL A   1      41.939  36.610  36.152  1.00  0.00     0.000 A 
ENDBRANCH  52  71
BRANCH  64  77
ATOM     77  C   UNL A   1      45.531  28.957  32.808  1.00  0.00    -0.014 A 
ATOM     78  C   UNL A   1      46.705  29.375  32.164  1.00  0.00     0.009 A 
ATOM     79  C   UNL A   1      45.630  28.136  33.943  1.00  0.00     0.009 A 
ATOM     80  C   UNL A   1      47.952  28.954  32.630  1.00  0.00     0.001 A 
ATOM     81  C   UNL A   1      46.878  27.738  34.421  1.00  0.00     0.001 A 
ATOM     82  C   UNL A   1      48.037  28.141  33.760  1.00  0.00     0.000 A 
ENDBRANCH  64  77
ENDBRANCH  38  39
ENDBRANCH  30  33
ENDBRANCH  28  29
ENDBRANCH  27  28
ENDBRANCH  26  27
ENDBRANCH   1  26
TORSDOF 16
ENDMDL
MODEL 2
REMARK VINA RESULT:     -11.0      3.186      8.522
REMARK SMILES C[C@@H](NC(=O)c1cc(C(=O)NCCCCCCNC(=O)c2ccc(-c3c4nc(c(-c5ccccc5)c5ccc([nH]5)c(-c5ccccc5)c5nc(c(-c6ccccc6)c6ccc3[nH]6)C=C5)C=C4)cc2)n(C)n1)c1ccccc1
REMARK SMILES IDX 14 1 13 2 12 3 11 4 9 5 10 6 8 8 6 9 7 10 71 11 69 12 70 13
REMARK SMILES IDX 4 14 3 15 5 17 2 18 1 19 72 20 73 21 77 22 74 23 76 24 75 25
REMARK SMILES IDX 15 26 16 27 17 28 18 29 19 30 20 32 21 33 22 34 68 35 23 36
REMARK SMILES IDX 67 37 24 38 25 39 26 40 61 41 27 42 66 43 60 44 62 45 28 46
REMARK SMILES IDX 65 47 59 48 58 49 29 51 51 52 36 53 50 54 37 55 40 56 49 57
REMARK SMILES IDX 63 58 38 59 39 60 48 62 64 63 41 64 30 65 31 66 35 67 32 68
REMARK SMILES IDX 34 69 33 70 52 71 53 72 57 73 54 74 56 75 55 76 42 77 43 78
REMARK SMILES IDX 47 79 44 80 46 81 45 82
REMARK H PARENT 11 7 3 16 18 31 62 50 40 61
REMARK Flexibility Score: inf
ROOT
ATOM      1  C   UNL A   1      36.312  21.657  25.627  1.00  0.00     0.002 C 
ENDROOT
BRANCH   1   2
ATOM      2  C   UNL A   1      36.292  23.167  25.901  1.00  0.00     0.021 C 
BRANCH   2   3
ATOM      3  C   UNL A   1      34.980  23.870  25.546  1.00  0.00     0.116 C 
BRANCH   3   4
ATOM      4  N   UNL A   1      33.963  23.635  26.534  1.00  0.00    -0.351 N 
ATOM      5  C   UNL A   1      32.604  23.513  26.517  1.00  0.00     0.269 C 
ATOM      6  O   UNL A   1      32.164  23.048  27.577  1.00  0.00    -0.268 OA
ATOM      7  H   UNL A   1      34.335  23.542  27.440  1.00  0.00     0.163 HD
BRANCH   5   8
ATOM      8  C   UNL A   1      31.691  23.876  25.446  1.00  0.00     0.126 A 
ATOM      9  C   UNL A   1      30.291  25.247  24.329  1.00  0.00     0.151 A 
ATOM     10  C   UNL A   1      30.795  24.938  25.602  1.00  0.00     0.069 A 
ATOM     11  N   UNL A   1      30.652  24.305  23.452  1.00  0.00    -0.167 NA
ATOM     12  N   UNL A   1      31.514  23.515  24.128  1.00  0.00    -0.262 N 
ATOM     13  C   UNL A   1      32.144  22.513  23.310  1.00  0.00     0.174 C 
BRANCH   9  14
ATOM     14  C   UNL A   1      29.480  26.383  23.928  1.00  0.00     0.272 C 
ATOM     15  N   UNL A   1      30.080  27.510  23.421  1.00  0.00    -0.344 N 
ATOM     16  H   UNL A   1      29.461  28.057  22.886  1.00  0.00     0.164 HD
ATOM     17  O   UNL A   1      28.250  26.361  23.981  1.00  0.00    -0.267 OA
BRANCH  15  18
ATOM     18  C   UNL A   1      31.425  28.090  23.490  1.00  0.00     0.109 C 
ATOM     19  C   UNL A   1      32.319  27.387  22.457  1.00  0.00     0.036 C 
BRANCH  18  20
ATOM     20  C   UNL A   1      32.125  28.191  24.830  1.00  0.00    -0.026 A 
ATOM     21  C   UNL A   1      33.294  27.474  25.129  1.00  0.00     0.006 A 
ATOM     22  C   UNL A   1      31.621  29.072  25.805  1.00  0.00     0.006 A 
ATOM     23  C   UNL A   1      33.936  27.631  26.362  1.00  0.00     0.000 A 
ATOM     24  C   UNL A   1      32.258  29.221  27.040  1.00  0.00     0.000 A 
ATOM     25  C   UNL A   1      33.417  28.502  27.317  1.00  0.00     0.000 A 
ENDBRANCH  18  20
ENDBRANCH  15  18
ENDBRANCH   9  14
ENDBRANCH   5   8
ENDBRANCH   3   4
ENDBRANCH   2   3
ENDBRANCH   1   2
BRANCH   1  26
ATOM     26  C   UNL A   1      37.207  21.202  24.469  1.00  0.00     0.002 C 
BRANCH  26  27
ATOM     27  C   UNL A   1      38.063  19.963  24.746  1.00  0.00     0.021 C 
BRANCH  27  28
ATOM     28  C   UNL A   1      38.903  20.045  26.016  1.00  0.00     0.116 C 
BRANCH  28  29
ATOM     29  N   UNL A   1      40.113  19.247  25.911  1.00  0.00    -0.352 N 
ATOM     30  C   UNL A   1      41.425  19.636  26.021  1.00  0.00     0.251 C 
ATOM     31  H   UNL A   1      39.971  18.288  25.737  1.00  0.00     0.163 HD
ATOM     32  O   UNL A   1      42.323  18.877  25.673  1.00  0.00    -0.269 OA
BRANCH  30  33
ATOM     33  C   UNL A   1      41.760  20.976  26.551  1.00  0.00     0.039 A 
ATOM     34  C   UNL A   1      42.140  21.981  25.657  1.00  0.00     0.014 A 
ATOM     35  C   UNL A   1      41.741  21.231  27.925  1.00  0.00     0.014 A 
ATOM     36  C   UNL A   1      42.456  23.254  26.136  1.00  0.00     0.010 A 
ATOM     37  C   UNL A   1      41.997  22.517  28.397  1.00  0.00     0.010 A 
ATOM     38  C   UNL A   1      42.366  23.538  27.508  1.00  0.00    -0.014 A 
BRANCH  38  39
ATOM     39  C   UNL A   1      42.673  24.891  28.036  1.00  0.00     0.031 A 
ATOM     40  C   UNL A   1      44.078  25.242  28.440  1.00  0.00     0.074 A 
ATOM     41  C   UNL A   1      41.679  25.784  28.206  1.00  0.00     0.049 A 
ATOM     42  N   UNL A   1      44.530  26.342  28.989  1.00  0.00    -0.248 NA
ATOM     43  C   UNL A   1      45.108  24.214  28.219  1.00  0.00     0.031 C 
ATOM     44  C   UNL A   1      40.268  25.557  27.886  1.00  0.00     0.029 A 
ATOM     45  N   UNL A   1      41.706  27.064  28.700  1.00  0.00    -0.354 N 
ATOM     46  C   UNL A   1      45.889  26.133  29.190  1.00  0.00     0.074 A 
ATOM     47  C   UNL A   1      46.179  24.785  28.750  1.00  0.00     0.031 C 
ATOM     48  C   UNL A   1      39.568  26.664  28.180  1.00  0.00     0.029 A 
ATOM     49  C   UNL A   1      40.471  27.665  28.738  1.00  0.00     0.049 A 
ATOM     50  H   UNL A   1      42.531  27.509  29.000  1.00  0.00     0.167 HD
ATOM     51  C   UNL A   1      46.817  26.991  29.677  1.00  0.00     0.031 A 
ATOM     52  C   UNL A   1      40.105  28.883  29.180  1.00  0.00     0.031 A 
ATOM     53  C   UNL A   1      46.532  28.334  30.107  1.00  0.00     0.049 A 
ATOM     54  C   UNL A   1      41.153  29.816  29.718  1.00  0.00     0.074 A 
ATOM     55  C   UNL A   1      47.411  29.290  30.588  1.00  0.00     0.029 A 
ATOM     56  N   UNL A   1      45.274  28.912  30.102  1.00  0.00    -0.354 N 
ATOM     57  N   UNL A   1      42.441  29.617  29.859  1.00  0.00    -0.248 NA
ATOM     58  C   UNL A   1      40.698  31.148  30.143  1.00  0.00     0.031 C 
ATOM     59  C   UNL A   1      46.676  30.437  30.906  1.00  0.00     0.029 A 
ATOM     60  C   UNL A   1      45.349  30.210  30.579  1.00  0.00     0.049 A 
ATOM     61  H   UNL A   1      44.448  28.467  29.803  1.00  0.00     0.167 HD
ATOM     62  C   UNL A   1      42.954  30.806  30.362  1.00  0.00     0.074 A 
ATOM     63  C   UNL A   1      41.841  31.725  30.487  1.00  0.00     0.031 C 
ATOM     64  C   UNL A   1      44.233  31.111  30.691  1.00  0.00     0.031 A 
BRANCH  51  65
ATOM     65  C   UNL A   1      48.234  26.498  29.764  1.00  0.00    -0.014 A 
ATOM     66  C   UNL A   1      48.692  25.813  30.900  1.00  0.00     0.009 A 
ATOM     67  C   UNL A   1      49.112  26.690  28.686  1.00  0.00     0.009 A 
ATOM     68  C   UNL A   1      50.011  25.360  30.970  1.00  0.00     0.001 A 
ATOM     69  C   UNL A   1      50.422  26.212  28.747  1.00  0.00     0.001 A 
ATOM     70  C   UNL A   1      50.873  25.555  29.892  1.00  0.00     0.000 A 
ENDBRANCH  51  65
BRANCH  52  71
ATOM     71  C   UNL A   1      38.679  29.297  29.123  1.00  0.00    -0.014 A 
ATOM     72  C   UNL A   1      38.150  29.875  27.959  1.00  0.00     0.009 A 
ATOM     73  C   UNL A   1      37.843  29.124  30.237  1.00  0.00     0.009 A 
ATOM     74  C   UNL A   1      36.819  30.296  27.922  1.00  0.00     0.001 A 
ATOM     75  C   UNL A   1      36.506  29.522  30.186  1.00  0.00     0.001 A 
ATOM     76  C   UNL A   1      35.997  30.117  29.033  1.00  0.00     0.000 A 
ENDBRANCH  52  71
BRANCH  64  77
ATOM     77  C   UNL A   1      44.503  32.505  31.179  1.00  0.00    -0.014 A 
ATOM     78  C   UNL A   1      44.470  32.819  32.546  1.00  0.00     0.009 A 
ATOM     79  C   UNL A   1      44.833  33.510  30.256  1.00  0.00     0.009 A 
ATOM     80  C   UNL A   1      44.732  34.121  32.976  1.00  0.00     0.001 A 
ATOM     81  C   UNL A   1      45.119  34.804  30.691  1.00  0.00     0.001 A 
ATOM     82  C   UNL A   1      45.061  35.110  32.050  1.00  0.00     0.000 A 
ENDBRANCH  64  77
ENDBRANCH  38  39
ENDBRANCH  30  33
ENDBRANCH  28  29
ENDBRANCH  27  28
ENDBRANCH  26  27
ENDBRANCH   1  26
TORSDOF 16
ENDMDL
MODEL 3
REMARK VINA RESULT:     -10.9      2.356      6.715
REMARK SMILES C[C@@H](NC(=O)c1cc(C(=O)NCCCCCCNC(=O)c2ccc(-c3c4nc(c(-c5ccccc5)c5ccc([nH]5)c(-c5ccccc5)c5nc(c(-c6ccccc6)c6ccc3[nH]6)C=C5)C=C4)cc2)n(C)n1)c1ccccc1
REMARK SMILES IDX 14 1 13 2 12 3 11 4 9 5 10 6 8 8 6 9 7 10 71 11 69 12 70 13
REMARK SMILES IDX 4 14 3 15 5 17 2 18 1 19 72 20 73 21 77 22 74 23 76 24 75 25
REMARK SMILES IDX 15 26 16 27 17 28 18 29 19 30 20 32 21 33 22 34 68 35 23 36
REMARK SMILES IDX 67 37 24 38 25 39 26 40 61 41 27 42 66 43 60 44 62 45 28 46
REMARK SMILES IDX 65 47 59 48 58 49 29 51 51 52 36 53 50 54 37 55 40 56 49 57
REMARK SMILES IDX 63 58 38 59 39 60 48 62 64 63 41 64 30 65 31 66 35 67 32 68
REMARK SMILES IDX 34 69 33 70 52 71 53 72 57 73 54 74 56 75 55 76 42 77 43 78
REMARK SMILES IDX 47 79 44 80 46 81 45 82
REMARK H PARENT 11 7 3 16 18 31 62 50 40 61
REMARK Flexibility Score: inf
ROOT
ATOM      1  C   UNL A   1      33.044  29.062  22.850  1.00  0.00     0.002 C 
ENDROOT
BRANCH   1   2
ATOM      2  C   UNL A   1      33.809  27.885  22.230  1.00  0.00     0.021 C 
BRANCH   2   3
ATOM      3  C   UNL A   1      32.951  26.663  21.894  1.00  0.00     0.116 C 
BRANCH   3   4
ATOM      4  N   UNL A   1      31.553  26.915  22.113  1.00  0.00    -0.351 N 
ATOM      5  C   UNL A   1      30.647  26.584  23.078  1.00  0.00     0.269 C 
ATOM      6  O   UNL A   1      29.605  27.246  22.988  1.00  0.00    -0.268 OA
ATOM      7  H   UNL A   1      31.152  27.454  21.394  1.00  0.00     0.163 HD
BRANCH   5   8
ATOM      8  C   UNL A   1      30.782  25.577  24.118  1.00  0.00     0.126 A 
ATOM      9  C   UNL A   1      31.469  23.612  24.984  1.00  0.00     0.151 A 
ATOM     10  C   UNL A   1      31.098  24.254  23.793  1.00  0.00     0.069 A 
ATOM     11  N   UNL A   1      31.187  24.390  26.033  1.00  0.00    -0.167 NA
ATOM     12  N   UNL A   1      30.811  25.571  25.496  1.00  0.00    -0.262 N 
ATOM     13  C   UNL A   1      30.606  26.611  26.469  1.00  0.00     0.174 C 
BRANCH   9  14
ATOM     14  C   UNL A   1      32.062  22.296  25.156  1.00  0.00     0.272 C 
ATOM     15  N   UNL A   1      33.426  22.146  25.108  1.00  0.00    -0.344 N 
ATOM     16  H   UNL A   1      33.730  21.324  25.555  1.00  0.00     0.164 HD
ATOM     17  O   UNL A   1      31.381  21.297  25.392  1.00  0.00    -0.267 OA
BRANCH  15  18
ATOM     18  C   UNL A   1      34.537  22.924  24.548  1.00  0.00     0.109 C 
ATOM     19  C   UNL A   1      34.466  22.851  23.014  1.00  0.00     0.036 C 
BRANCH  18  20
ATOM     20  C   UNL A   1      35.947  22.665  25.036  1.00  0.00    -0.026 A 
ATOM     21  C   UNL A   1      36.645  21.484  24.743  1.00  0.00     0.006 A 
ATOM     22  C   UNL A   1      36.613  23.663  25.773  1.00  0.00     0.006 A 
ATOM     23  C   UNL A   1      37.964  21.304  25.174  1.00  0.00     0.000 A 
ATOM     24  C   UNL A   1      37.927  23.478  26.211  1.00  0.00     0.000 A 
ATOM     25  C   UNL A   1      38.604  22.299  25.909  1.00  0.00     0.000 A 
ENDBRANCH  18  20
ENDBRANCH  15  18
ENDBRANCH   9  14
ENDBRANCH   5   8
ENDBRANCH   3   4
ENDBRANCH   2   3
ENDBRANCH   1   2
BRANCH   1  26
ATOM     26  C   UNL A   1      33.270  29.286  24.350  1.00  0.00     0.002 C 
BRANCH  26  27
ATOM     27  C   UNL A   1      33.883  28.106  25.107  1.00  0.00     0.021 C 
BRANCH  27  28
ATOM     28  C   UNL A   1      33.882  28.257  26.625  1.00  0.00     0.116 C 
BRANCH  28  29
ATOM     29  N   UNL A   1      33.683  29.640  27.026  1.00  0.00    -0.352 N 
ATOM     30  C   UNL A   1      34.473  30.440  27.814  1.00  0.00     0.251 C 
ATOM     31  H   UNL A   1      32.863  30.064  26.683  1.00  0.00     0.163 HD
ATOM     32  O   UNL A   1      34.038  31.504  28.241  1.00  0.00    -0.269 OA
BRANCH  30  33
ATOM     33  C   UNL A   1      35.849  30.017  28.157  1.00  0.00     0.039 A 
ATOM     34  C   UNL A   1      36.109  29.542  29.446  1.00  0.00     0.014 A 
ATOM     35  C   UNL A   1      36.888  30.126  27.228  1.00  0.00     0.014 A 
ATOM     36  C   UNL A   1      37.399  29.135  29.790  1.00  0.00     0.010 A 
ATOM     37  C   UNL A   1      38.160  29.663  27.551  1.00  0.00     0.010 A 
ATOM     38  C   UNL A   1      38.431  29.171  28.838  1.00  0.00    -0.014 A 
BRANCH  38  39
ATOM     39  C   UNL A   1      39.804  28.719  29.174  1.00  0.00     0.031 A 
ATOM     40  C   UNL A   1      40.748  29.641  29.895  1.00  0.00     0.074 A 
ATOM     41  C   UNL A   1      40.222  27.500  28.781  1.00  0.00     0.049 A 
ATOM     42  N   UNL A   1      42.005  29.457  30.210  1.00  0.00    -0.248 NA
ATOM     43  C   UNL A   1      40.214  30.954  30.295  1.00  0.00     0.031 C 
ATOM     44  C   UNL A   1      39.417  26.522  28.044  1.00  0.00     0.029 A 
ATOM     45  N   UNL A   1      41.436  26.879  28.939  1.00  0.00    -0.354 N 
ATOM     46  C   UNL A   1      42.414  30.630  30.832  1.00  0.00     0.074 A 
ATOM     47  C   UNL A   1      41.288  31.538  30.805  1.00  0.00     0.031 C 
ATOM     48  C   UNL A   1      40.155  25.422  27.827  1.00  0.00     0.029 A 
ATOM     49  C   UNL A   1      41.491  25.628  28.377  1.00  0.00     0.049 A 
ATOM     50  H   UNL A   1      42.195  27.293  29.409  1.00  0.00     0.167 HD
ATOM     51  C   UNL A   1      43.613  30.920  31.392  1.00  0.00     0.031 A 
ATOM     52  C   UNL A   1      42.507  24.746  28.306  1.00  0.00     0.031 A 
ATOM     53  C   UNL A   1      44.731  30.016  31.427  1.00  0.00     0.049 A 
ATOM     54  C   UNL A   1      43.827  25.092  28.934  1.00  0.00     0.074 A 
ATOM     55  C   UNL A   1      45.978  30.208  31.998  1.00  0.00     0.029 A 
ATOM     56  N   UNL A   1      44.736  28.747  30.871  1.00  0.00    -0.354 N 
ATOM     57  N   UNL A   1      44.183  26.189  29.557  1.00  0.00    -0.248 NA
ATOM     58  C   UNL A   1      44.882  24.070  28.863  1.00  0.00     0.031 C 
ATOM     59  C   UNL A   1      46.748  29.065  31.757  1.00  0.00     0.029 A 
ATOM     60  C   UNL A   1      45.965  28.145  31.079  1.00  0.00     0.049 A 
ATOM     61  H   UNL A   1      43.977  28.334  30.400  1.00  0.00     0.167 HD
ATOM     62  C   UNL A   1      45.490  25.979  29.975  1.00  0.00     0.074 A 
ATOM     63  C   UNL A   1      45.860  24.644  29.548  1.00  0.00     0.031 C 
ATOM     64  C   UNL A   1      46.313  26.816  30.652  1.00  0.00     0.031 A 
BRANCH  51  65
ATOM     65  C   UNL A   1      43.770  32.276  32.021  1.00  0.00    -0.014 A 
ATOM     66  C   UNL A   1      44.220  33.373  31.269  1.00  0.00     0.009 A 
ATOM     67  C   UNL A   1      43.434  32.468  33.370  1.00  0.00     0.009 A 
ATOM     68  C   UNL A   1      44.363  34.629  31.865  1.00  0.00     0.001 A 
ATOM     69  C   UNL A   1      43.552  33.731  33.955  1.00  0.00     0.001 A 
ATOM     70  C   UNL A   1      44.024  34.807  33.205  1.00  0.00     0.000 A 
ENDBRANCH  51  65
BRANCH  52  71
ATOM     71  C   UNL A   1      42.311  23.441  27.622  1.00  0.00    -0.014 A 
ATOM     72  C   UNL A   1      42.627  23.294  26.263  1.00  0.00     0.009 A 
ATOM     73  C   UNL A   1      41.798  22.339  28.324  1.00  0.00     0.009 A 
ATOM     74  C   UNL A   1      42.406  22.076  25.615  1.00  0.00     0.001 A 
ATOM     75  C   UNL A   1      41.605  21.116  27.679  1.00  0.00     0.001 A 
ATOM     76  C   UNL A   1      41.900  20.988  26.323  1.00  0.00     0.000 A 
ENDBRANCH  52  71
BRANCH  64  77
ATOM     77  C   UNL A   1      47.677  26.299  31.009  1.00  0.00    -0.014 A 
ATOM     78  C   UNL A   1      47.937  25.737  32.268  1.00  0.00     0.009 A 
ATOM     79  C   UNL A   1      48.705  26.340  30.054  1.00  0.00     0.009 A 
ATOM     80  C   UNL A   1      49.212  25.256  32.574  1.00  0.00     0.001 A 
ATOM     81  C   UNL A   1      49.970  25.834  30.354  1.00  0.00     0.001 A 
ATOM     82  C   UNL A   1      50.224  25.300  31.616  1.00  0.00     0.000 A 
ENDBRANCH  64  77
ENDBRANCH  38  39
ENDBRANCH  30  33
ENDBRANCH  28  29
ENDBRANCH  27  28
ENDBRANCH  26  27
ENDBRANCH   1  26
TORSDOF 16
ENDMDL
