MODEL 1
REMARK VINA RESULT:     -11.8      0.000      0.000
REMARK SMILES CC(C)CCn1nc(C(=O)NCCCCCCNC(=O)c2ccc(-c3c4nc(c(-c5ccccc5)c5ccc([nH]5)c(-c5ccccc5)c5nc(c(-c6ccccc6)c6ccc3[nH]6)C=C5)C=C4)cc2)c2c1CCN(C(=O)[C@@H]1CCc3nn(C)c(=O)n3C1)C2
REMARK SMILES IDX 14 1 13 2 12 3 11 4 9 5 10 6 8 8 6 9 7 10 70 11 69 12 71 13
REMARK SMILES IDX 87 14 72 15 73 16 5 17 4 18 2 19 1 20 3 21 74 22 75 23 76 24
REMARK SMILES IDX 77 25 86 26 78 27 85 28 79 29 83 30 80 31 81 32 84 33 82 34
REMARK SMILES IDX 15 35 16 36 17 37 18 38 19 39 20 41 21 42 22 43 68 44 23 45
REMARK SMILES IDX 67 46 24 47 25 48 26 49 61 50 27 51 66 52 60 53 62 54 28 55
REMARK SMILES IDX 65 56 59 57 58 58 29 60 51 61 36 62 50 63 37 64 40 65 49 66
REMARK SMILES IDX 63 67 38 68 39 69 48 71 64 72 41 73 30 74 31 75 35 76 32 77
REMARK SMILES IDX 34 78 33 79 52 80 53 81 57 82 54 83 56 84 55 85 42 86 43 87
REMARK SMILES IDX 47 88 44 89 46 90 45 91
REMARK H PARENT 11 7 18 40 62 59 40 70
REMARK Flexibility Score: inf
ROOT
ATOM      1  C   UNL A   1      39.995  24.575  26.736  1.00  0.00     0.002 C 
ENDROOT
BRANCH   1   2
ATOM      2  C   UNL A   1      38.511  24.459  27.067  1.00  0.00     0.021 C 
BRANCH   2   3
ATOM      3  C   UNL A   1      37.638  23.852  25.952  1.00  0.00     0.116 C 
BRANCH   3   4
ATOM      4  N   UNL A   1      38.072  22.514  25.594  1.00  0.00    -0.351 N 
ATOM      5  C   UNL A   1      37.488  21.420  24.996  1.00  0.00     0.272 C 
ATOM      6  O   UNL A   1      38.286  20.525  24.690  1.00  0.00    -0.267 OA
ATOM      7  H   UNL A   1      39.011  22.348  25.839  1.00  0.00     0.163 HD
BRANCH   5   8
ATOM      8  C   UNL A   1      36.037  21.291  24.707  1.00  0.00     0.155 A 
ATOM      9  N   UNL A   1      34.087  20.369  24.836  1.00  0.00    -0.268 N 
ATOM     10  N   UNL A   1      35.378  20.200  25.172  1.00  0.00    -0.167 NA
ATOM     11  C   UNL A   1      33.923  21.430  24.005  1.00  0.00     0.046 A 
ATOM     12  C   UNL A   1      35.098  22.152  24.071  1.00  0.00     0.026 A 
ATOM     13  C   UNL A   1      32.729  21.849  23.236  1.00  0.00     0.078 C 
ATOM     14  C   UNL A   1      35.211  23.525  23.531  1.00  0.00     0.159 C 
ATOM     15  C   UNL A   1      33.170  23.000  22.308  1.00  0.00     0.126 C 
ATOM     16  N   UNL A   1      33.934  24.035  23.022  1.00  0.00    -0.338 N 
BRANCH   9  17
ATOM     17  C   UNL A   1      33.070  19.604  25.539  1.00  0.00     0.145 C 
BRANCH  17  18
ATOM     18  C   UNL A   1      32.542  18.356  24.830  1.00  0.00     0.027 C 
BRANCH  18  19
ATOM     19  C   UNL A   1      33.539  17.187  24.786  1.00  0.00    -0.016 C 
ATOM     20  C   UNL A   1      32.955  15.932  25.433  1.00  0.00     0.007 C 
ATOM     21  C   UNL A   1      33.945  16.898  23.340  1.00  0.00     0.007 C 
ENDBRANCH  18  19
ENDBRANCH  17  18
ENDBRANCH   9  17
BRANCH  16  22
ATOM     22  C   UNL A   1      33.838  25.413  22.940  1.00  0.00     0.227 C 
ATOM     23  O   UNL A   1      33.968  25.965  21.833  1.00  0.00    -0.274 OA
BRANCH  22  24
ATOM     24  C   UNL A   1      33.629  26.360  24.132  1.00  0.00     0.099 C 
ATOM     25  C   UNL A   1      33.058  25.724  25.401  1.00  0.00     0.023 C 
ATOM     26  C   UNL A   1      33.005  27.708  23.822  1.00  0.00     0.142 C 
ATOM     27  C   UNL A   1      31.539  25.665  25.448  1.00  0.00     0.078 C 
ATOM     28  N   UNL A   1      31.586  27.726  24.069  1.00  0.00    -0.278 N 
ATOM     29  C   UNL A   1      30.866  26.808  24.745  1.00  0.00     0.133 A 
ATOM     30  C   UNL A   1      30.686  28.480  23.363  1.00  0.00     0.345 A 
ATOM     31  N   UNL A   1      29.580  26.889  24.567  1.00  0.00    -0.155 NA
ATOM     32  N   UNL A   1      29.438  27.942  23.682  1.00  0.00    -0.216 N 
ATOM     33  O   UNL A   1      30.944  29.335  22.523  1.00  0.00    -0.246 OA
ATOM     34  C   UNL A   1      28.229  28.175  22.940  1.00  0.00     0.179 C 
ENDBRANCH  22  24
ENDBRANCH  16  22
ENDBRANCH   5   8
ENDBRANCH   3   4
ENDBRANCH   2   3
ENDBRANCH   1   2
BRANCH   1  35
ATOM     35  C   UNL A   1      40.937  23.915  27.757  1.00  0.00     0.002 C 
BRANCH  35  36
ATOM     36  C   UNL A   1      41.881  22.814  27.241  1.00  0.00     0.021 C 
BRANCH  36  37
ATOM     37  C   UNL A   1      42.147  22.874  25.745  1.00  0.00     0.116 C 
BRANCH  37  38
ATOM     38  N   UNL A   1      43.559  23.139  25.418  1.00  0.00    -0.352 N 
ATOM     39  C   UNL A   1      44.230  24.342  25.251  1.00  0.00     0.251 C 
ATOM     40  H   UNL A   1      44.114  22.335  25.300  1.00  0.00     0.163 HD
ATOM     41  O   UNL A   1      45.303  24.385  24.660  1.00  0.00    -0.269 OA
BRANCH  39  42
ATOM     42  C   UNL A   1      43.644  25.574  25.806  1.00  0.00     0.039 A 
ATOM     43  C   UNL A   1      42.690  26.358  25.149  1.00  0.00     0.014 A 
ATOM     44  C   UNL A   1      44.065  25.926  27.073  1.00  0.00     0.014 A 
ATOM     45  C   UNL A   1      42.210  27.493  25.805  1.00  0.00     0.010 A 
ATOM     46  C   UNL A   1      43.270  26.719  27.829  1.00  0.00     0.010 A 
ATOM     47  C   UNL A   1      42.547  27.672  27.152  1.00  0.00    -0.014 A 
BRANCH  47  48
ATOM     48  C   UNL A   1      42.127  28.792  27.971  1.00  0.00     0.031 A 
ATOM     49  C   UNL A   1      43.046  29.938  27.876  1.00  0.00     0.074 A 
ATOM     50  C   UNL A   1      40.884  28.890  28.499  1.00  0.00     0.049 A 
ATOM     51  N   UNL A   1      43.923  30.305  28.746  1.00  0.00    -0.248 NA
ATOM     52  C   UNL A   1      43.150  30.629  26.579  1.00  0.00     0.031 C 
ATOM     53  C   UNL A   1      39.730  27.990  28.335  1.00  0.00     0.029 A 
ATOM     54  N   UNL A   1      40.350  29.906  29.226  1.00  0.00    -0.354 N 
ATOM     55  C   UNL A   1      44.523  31.430  28.202  1.00  0.00     0.074 A 
ATOM     56  C   UNL A   1      44.202  31.418  26.798  1.00  0.00     0.031 C 
ATOM     57  C   UNL A   1      38.601  28.607  28.760  1.00  0.00     0.029 A 
ATOM     58  C   UNL A   1      38.967  29.869  29.374  1.00  0.00     0.049 A 
ATOM     59  H   UNL A   1      40.903  30.618  29.621  1.00  0.00     0.167 HD
ATOM     60  C   UNL A   1      44.952  32.444  29.002  1.00  0.00     0.031 A 
ATOM     61  C   UNL A   1      38.191  30.827  29.943  1.00  0.00     0.031 A 
ATOM     62  C   UNL A   1      44.950  32.048  30.391  1.00  0.00     0.049 A 
ATOM     63  C   UNL A   1      39.086  31.677  30.764  1.00  0.00     0.074 A 
ATOM     64  C   UNL A   1      45.579  31.068  31.132  1.00  0.00     0.029 A 
ATOM     65  N   UNL A   1      43.859  32.444  31.132  1.00  0.00    -0.354 N 
ATOM     66  N   UNL A   1      39.705  31.248  31.826  1.00  0.00    -0.248 NA
ATOM     67  C   UNL A   1      39.665  32.855  30.139  1.00  0.00     0.031 C 
ATOM     68  C   UNL A   1      44.589  30.607  32.052  1.00  0.00     0.029 A 
ATOM     69  C   UNL A   1      43.437  31.380  31.885  1.00  0.00     0.049 A 
ATOM     70  H   UNL A   1      43.450  33.339  31.121  1.00  0.00     0.167 HD
ATOM     71  C   UNL A   1      40.975  31.801  31.742  1.00  0.00     0.074 A 
ATOM     72  C   UNL A   1      40.857  32.864  30.744  1.00  0.00     0.031 C 
ATOM     73  C   UNL A   1      42.057  31.152  32.266  1.00  0.00     0.031 A 
BRANCH  60  74
ATOM     74  C   UNL A   1      44.912  33.897  28.597  1.00  0.00    -0.014 A 
ATOM     75  C   UNL A   1      43.683  34.574  28.672  1.00  0.00     0.009 A 
ATOM     76  C   UNL A   1      45.946  34.544  27.893  1.00  0.00     0.009 A 
ATOM     77  C   UNL A   1      43.480  35.790  28.010  1.00  0.00     0.001 A 
ATOM     78  C   UNL A   1      45.760  35.779  27.267  1.00  0.00     0.001 A 
ATOM     79  C   UNL A   1      44.516  36.387  27.301  1.00  0.00     0.000 A 
ENDBRANCH  60  74
BRANCH  61  80
ATOM     80  C   UNL A   1      36.811  31.252  29.614  1.00  0.00    -0.014 A 
ATOM     81  C   UNL A   1      35.974  31.813  30.595  1.00  0.00     0.009 A 
ATOM     82  C   UNL A   1      36.423  31.391  28.270  1.00  0.00     0.009 A 
ATOM     83  C   UNL A   1      34.816  32.523  30.238  1.00  0.00     0.001 A 
ATOM     84  C   UNL A   1      35.269  32.101  27.914  1.00  0.00     0.001 A 
ATOM     85  C   UNL A   1      34.475  32.681  28.898  1.00  0.00     0.000 A 
ENDBRANCH  61  80
BRANCH  73  86
ATOM     86  C   UNL A   1      41.792  29.951  33.147  1.00  0.00    -0.014 A 
ATOM     87  C   UNL A   1      41.678  28.635  32.659  1.00  0.00     0.009 A 
ATOM     88  C   UNL A   1      41.797  30.142  34.535  1.00  0.00     0.009 A 
ATOM     89  C   UNL A   1      41.544  27.552  33.537  1.00  0.00     0.001 A 
ATOM     90  C   UNL A   1      41.685  29.060  35.412  1.00  0.00     0.001 A 
ATOM     91  C   UNL A   1      41.552  27.766  34.914  1.00  0.00     0.000 A 
ENDBRANCH  73  86
ENDBRANCH  47  48
ENDBRANCH  39  42
ENDBRANCH  37  38
ENDBRANCH  36  37
ENDBRANCH  35  36
ENDBRANCH   1  35
TORSDOF 18
ENDMDL
MODEL 2
REMARK VINA RESULT:     -11.3      2.501      8.708
REMARK SMILES CC(C)CCn1nc(C(=O)NCCCCCCNC(=O)c2ccc(-c3c4nc(c(-c5ccccc5)c5ccc([nH]5)c(-c5ccccc5)c5nc(c(-c6ccccc6)c6ccc3[nH]6)C=C5)C=C4)cc2)c2c1CCN(C(=O)[C@@H]1CCc3nn(C)c(=O)n3C1)C2
REMARK SMILES IDX 14 1 13 2 12 3 11 4 9 5 10 6 8 8 6 9 7 10 70 11 69 12 71 13
REMARK SMILES IDX 87 14 72 15 73 16 5 17 4 18 2 19 1 20 3 21 74 22 75 23 76 24
REMARK SMILES IDX 77 25 86 26 78 27 85 28 79 29 83 30 80 31 81 32 84 33 82 34
REMARK SMILES IDX 15 35 16 36 17 37 18 38 19 39 20 41 21 42 22 43 68 44 23 45
REMARK SMILES IDX 67 46 24 47 25 48 26 49 61 50 27 51 66 52 60 53 62 54 28 55
REMARK SMILES IDX 65 56 59 57 58 58 29 60 51 61 36 62 50 63 37 64 40 65 49 66
REMARK SMILES IDX 63 67 38 68 39 69 48 71 64 72 41 73 30 74 31 75 35 76 32 77
REMARK SMILES IDX 34 78 33 79 52 80 53 81 57 82 54 83 56 84 55 85 42 86 43 87
REMARK SMILES IDX 47 88 44 89 46 90 45 91
REMARK H PARENT 11 7 18 40 62 59 40 70
REMARK Flexibility Score: inf
ROOT
ATOM      1  C   UNL A   1      35.440  30.445  27.708  1.00  0.00     0.002 C 
ENDROOT
BRANCH   1   2
ATOM      2  C   UNL A   1      33.997  30.929  27.815  1.00  0.00     0.021 C 
BRANCH   2   3
ATOM      3  C   UNL A   1      33.005  30.242  26.859  1.00  0.00     0.116 C 
BRANCH   3   4
ATOM      4  N   UNL A   1      33.653  29.785  25.643  1.00  0.00    -0.351 N 
ATOM      5  C   UNL A   1      33.268  29.058  24.539  1.00  0.00     0.272 C 
ATOM      6  O   UNL A   1      34.093  29.063  23.617  1.00  0.00    -0.267 OA
ATOM      7  H   UNL A   1      34.597  30.060  25.597  1.00  0.00     0.163 HD
BRANCH   5   8
ATOM      8  C   UNL A   1      31.978  28.332  24.415  1.00  0.00     0.155 A 
ATOM      9  N   UNL A   1      29.950  28.041  23.727  1.00  0.00    -0.268 N 
ATOM     10  N   UNL A   1      30.958  28.932  23.752  1.00  0.00    -0.167 NA
ATOM     11  C   UNL A   1      30.214  26.970  24.518  1.00  0.00     0.046 A 
ATOM     12  C   UNL A   1      31.564  27.025  24.799  1.00  0.00     0.026 A 
ATOM     13  C   UNL A   1      29.317  25.871  24.945  1.00  0.00     0.078 C 
ATOM     14  C   UNL A   1      32.293  25.883  25.396  1.00  0.00     0.159 C 
ATOM     15  C   UNL A   1      30.086  25.043  25.996  1.00  0.00     0.126 C 
ATOM     16  N   UNL A   1      31.445  24.697  25.554  1.00  0.00    -0.338 N 
BRANCH   9  17
ATOM     17  C   UNL A   1      28.888  28.205  22.748  1.00  0.00     0.145 C 
BRANCH  17  18
ATOM     18  C   UNL A   1      27.692  29.059  23.174  1.00  0.00     0.027 C 
BRANCH  18  19
ATOM     19  C   UNL A   1      27.682  30.473  22.573  1.00  0.00    -0.016 C 
ATOM     20  C   UNL A   1      28.204  31.506  23.572  1.00  0.00     0.007 C 
ATOM     21  C   UNL A   1      28.517  30.505  21.293  1.00  0.00     0.007 C 
ENDBRANCH  18  19
ENDBRANCH  17  18
ENDBRANCH   9  17
BRANCH  16  22
ATOM     22  C   UNL A   1      32.124  23.495  25.653  1.00  0.00     0.227 C 
ATOM     23  O   UNL A   1      32.606  23.159  26.748  1.00  0.00    -0.274 OA
BRANCH  22  24
ATOM     24  C   UNL A   1      32.389  22.528  24.488  1.00  0.00     0.099 C 
ATOM     25  C   UNL A   1      32.170  21.044  24.784  1.00  0.00     0.023 C 
ATOM     26  C   UNL A   1      33.645  22.782  23.674  1.00  0.00     0.142 C 
ATOM     27  C   UNL A   1      33.378  20.334  25.377  1.00  0.00     0.078 C 
ATOM     28  N   UNL A   1      34.747  21.954  24.091  1.00  0.00    -0.278 N 
ATOM     29  C   UNL A   1      34.694  20.876  24.899  1.00  0.00     0.133 A 
ATOM     30  C   UNL A   1      36.064  22.328  24.031  1.00  0.00     0.345 A 
ATOM     31  N   UNL A   1      35.846  20.491  25.367  1.00  0.00    -0.155 NA
ATOM     32  N   UNL A   1      36.736  21.406  24.836  1.00  0.00    -0.216 N 
ATOM     33  O   UNL A   1      36.517  23.339  23.507  1.00  0.00    -0.246 OA
ATOM     34  C   UNL A   1      38.067  21.580  25.349  1.00  0.00     0.179 C 
ENDBRANCH  22  24
ENDBRANCH  16  22
ENDBRANCH   5   8
ENDBRANCH   3   4
ENDBRANCH   2   3
ENDBRANCH   1   2
BRANCH   1  35
ATOM     35  C   UNL A   1      36.503  31.540  27.895  1.00  0.00     0.002 C 
BRANCH  35  36
ATOM     36  C   UNL A   1      36.005  32.973  28.157  1.00  0.00     0.021 C 
BRANCH  36  37
ATOM     37  C   UNL A   1      36.696  33.667  29.321  1.00  0.00     0.116 C 
BRANCH  37  38
ATOM     38  N   UNL A   1      36.002  33.472  30.605  1.00  0.00    -0.352 N 
ATOM     39  C   UNL A   1      35.937  32.356  31.429  1.00  0.00     0.251 C 
ATOM     40  H   UNL A   1      35.507  34.257  30.932  1.00  0.00     0.163 HD
ATOM     41  O   UNL A   1      35.058  32.252  32.277  1.00  0.00    -0.269 OA
BRANCH  39  42
ATOM     42  C   UNL A   1      36.950  31.297  31.282  1.00  0.00     0.039 A 
ATOM     43  C   UNL A   1      36.653  29.939  31.122  1.00  0.00     0.014 A 
ATOM     44  C   UNL A   1      38.266  31.715  31.275  1.00  0.00     0.014 A 
ATOM     45  C   UNL A   1      37.718  29.047  30.979  1.00  0.00     0.010 A 
ATOM     46  C   UNL A   1      39.198  30.930  30.688  1.00  0.00     0.010 A 
ATOM     47  C   UNL A   1      39.002  29.573  30.796  1.00  0.00    -0.014 A 
BRANCH  47  48
ATOM     48  C   UNL A   1      40.206  28.784  30.630  1.00  0.00     0.031 A 
ATOM     49  C   UNL A   1      40.926  28.576  31.897  1.00  0.00     0.074 A 
ATOM     50  C   UNL A   1      40.461  28.059  29.514  1.00  0.00     0.049 A 
ATOM     51  N   UNL A   1      41.999  29.174  32.288  1.00  0.00    -0.248 NA
ATOM     52  C   UNL A   1      40.265  27.771  32.938  1.00  0.00     0.031 C 
ATOM     53  C   UNL A   1      39.621  27.863  28.321  1.00  0.00     0.029 A 
ATOM     54  N   UNL A   1      41.513  27.237  29.260  1.00  0.00    -0.354 N 
ATOM     55  C   UNL A   1      42.282  28.632  33.532  1.00  0.00     0.074 A 
ATOM     56  C   UNL A   1      41.070  27.993  33.978  1.00  0.00     0.031 C 
ATOM     57  C   UNL A   1      40.097  26.827  27.589  1.00  0.00     0.029 A 
ATOM     58  C   UNL A   1      41.357  26.395  28.163  1.00  0.00     0.049 A 
ATOM     59  H   UNL A   1      42.327  27.237  29.813  1.00  0.00     0.167 HD
ATOM     60  C   UNL A   1      43.569  28.469  33.942  1.00  0.00     0.031 A 
ATOM     61  C   UNL A   1      42.203  25.404  27.782  1.00  0.00     0.031 A 
ATOM     62  C   UNL A   1      44.486  29.169  33.072  1.00  0.00     0.049 A 
ATOM     63  C   UNL A   1      43.504  25.668  28.442  1.00  0.00     0.074 A 
ATOM     64  C   UNL A   1      44.669  30.484  32.696  1.00  0.00     0.029 A 
ATOM     65  N   UNL A   1      45.106  28.407  32.107  1.00  0.00    -0.354 N 
ATOM     66  N   UNL A   1      44.250  26.699  28.168  1.00  0.00    -0.248 NA
ATOM     67  C   UNL A   1      43.746  25.049  29.736  1.00  0.00     0.031 C 
ATOM     68  C   UNL A   1      44.985  30.431  31.305  1.00  0.00     0.029 A 
ATOM     69  C   UNL A   1      45.060  29.090  30.920  1.00  0.00     0.049 A 
ATOM     70  H   UNL A   1      45.512  27.521  32.245  1.00  0.00     0.167 HD
ATOM     71  C   UNL A   1      44.718  27.133  29.400  1.00  0.00     0.074 A 
ATOM     72  C   UNL A   1      44.465  26.018  30.313  1.00  0.00     0.031 C 
ATOM     73  C   UNL A   1      44.990  28.454  29.620  1.00  0.00     0.031 A 
BRANCH  60  74
ATOM     74  C   UNL A   1      44.027  27.323  34.810  1.00  0.00    -0.014 A 
ATOM     75  C   UNL A   1      44.180  27.553  36.188  1.00  0.00     0.009 A 
ATOM     76  C   UNL A   1      44.573  26.126  34.307  1.00  0.00     0.009 A 
ATOM     77  C   UNL A   1      44.909  26.674  36.997  1.00  0.00     0.001 A 
ATOM     78  C   UNL A   1      45.265  25.224  35.119  1.00  0.00     0.001 A 
ATOM     79  C   UNL A   1      45.458  25.515  36.460  1.00  0.00     0.000 A 
ENDBRANCH  60  74
BRANCH  61  80
ATOM     80  C   UNL A   1      41.913  24.100  27.142  1.00  0.00    -0.014 A 
ATOM     81  C   UNL A   1      42.785  23.554  26.185  1.00  0.00     0.009 A 
ATOM     82  C   UNL A   1      40.940  23.250  27.697  1.00  0.00     0.009 A 
ATOM     83  C   UNL A   1      42.713  22.197  25.830  1.00  0.00     0.001 A 
ATOM     84  C   UNL A   1      40.869  21.896  27.344  1.00  0.00     0.001 A 
ATOM     85  C   UNL A   1      41.766  21.366  26.423  1.00  0.00     0.000 A 
ENDBRANCH  61  80
BRANCH  73  86
ATOM     86  C   UNL A   1      45.003  29.373  28.419  1.00  0.00    -0.014 A 
ATOM     87  C   UNL A   1      43.857  30.025  27.924  1.00  0.00     0.009 A 
ATOM     88  C   UNL A   1      46.243  29.699  27.854  1.00  0.00     0.009 A 
ATOM     89  C   UNL A   1      43.954  30.952  26.878  1.00  0.00     0.001 A 
ATOM     90  C   UNL A   1      46.343  30.638  26.825  1.00  0.00     0.001 A 
ATOM     91  C   UNL A   1      45.198  31.260  26.333  1.00  0.00     0.000 A 
ENDBRANCH  73  86
ENDBRANCH  47  48
ENDBRANCH  39  42
ENDBRANCH  37  38
ENDBRANCH  36  37
ENDBRANCH  35  36
ENDBRANCH   1  35
TORSDOF 18
ENDMDL
MODEL 3
REMARK VINA RESULT:     -11.1      2.393      8.621
REMARK SMILES CC(C)CCn1nc(C(=O)NCCCCCCNC(=O)c2ccc(-c3c4nc(c(-c5ccccc5)c5ccc([nH]5)c(-c5ccccc5)c5nc(c(-c6ccccc6)c6ccc3[nH]6)C=C5)C=C4)cc2)c2c1CCN(C(=O)[C@@H]1CCc3nn(C)c(=O)n3C1)C2
REMARK SMILES IDX 14 1 13 2 12 3 11 4 9 5 10 6 8 8 6 9 7 10 70 11 69 12 71 13
REMARK SMILES IDX 87 14 72 15 73 16 5 17 4 18 2 19 1 20 3 21 74 22 75 23 76 24
REMARK SMILES IDX 77 25 86 26 78 27 85 28 79 29 83 30 80 31 81 32 84 33 82 34
REMARK SMILES IDX 15 35 16 36 17 37 18 38 19 39 20 41 21 42 22 43 68 44 23 45
REMARK SMILES IDX 67 46 24 47 25 48 26 49 61 50 27 51 66 52 60 53 62 54 28 55
REMARK SMILES IDX 65 56 59 57 58 58 29 60 51 61 36 62 50 63 37 64 40 65 49 66
REMARK SMILES IDX 63 67 38 68 39 69 48 71 64 72 41 73 30 74 31 75 35 76 32 77
REMARK SMILES IDX 34 78 33 79 52 80 53 81 57 82 54 83 56 84 55 85 42 86 43 87
REMARK SMILES IDX 47 88 44 89 46 90 45 91
REMARK H PARENT 11 7 18 40 62 59 40 70
REMARK Flexibility Score: inf
ROOT
ATOM      1  C   UNL A   1      34.726  31.608  27.423  1.00  0.00     0.002 C 
ENDROOT
BRANCH   1   2
ATOM      2  C   UNL A   1      33.492  30.767  27.736  1.00  0.00     0.021 C 
BRANCH   2   3
ATOM      3  C   UNL A   1      33.605  29.278  27.361  1.00  0.00     0.116 C 
BRANCH   3   4
ATOM      4  N   UNL A   1      34.216  29.092  26.058  1.00  0.00    -0.351 N 
ATOM      5  C   UNL A   1      33.775  28.701  24.813  1.00  0.00     0.272 C 
ATOM      6  O   UNL A   1      34.600  28.874  23.908  1.00  0.00    -0.267 OA
ATOM      7  H   UNL A   1      35.180  29.293  26.065  1.00  0.00     0.163 HD
BRANCH   5   8
ATOM      8  C   UNL A   1      32.431  28.136  24.534  1.00  0.00     0.155 A 
ATOM      9  N   UNL A   1      30.479  28.084  23.608  1.00  0.00    -0.268 N 
ATOM     10  N   UNL A   1      31.577  28.847  23.755  1.00  0.00    -0.167 NA
ATOM     11  C   UNL A   1      30.514  26.998  24.422  1.00  0.00     0.046 A 
ATOM     12  C   UNL A   1      31.818  26.893  24.863  1.00  0.00     0.026 A 
ATOM     13  C   UNL A   1      29.446  26.022  24.737  1.00  0.00     0.078 C 
ATOM     14  C   UNL A   1      32.326  25.679  25.539  1.00  0.00     0.159 C 
ATOM     15  C   UNL A   1      29.978  25.120  25.869  1.00  0.00     0.126 C 
ATOM     16  N   UNL A   1      31.328  24.606  25.592  1.00  0.00    -0.338 N 
BRANCH   9  17
ATOM     17  C   UNL A   1      29.569  28.364  22.509  1.00  0.00     0.145 C 
BRANCH  17  18
ATOM     18  C   UNL A   1      29.136  29.821  22.335  1.00  0.00     0.027 C 
BRANCH  18  19
ATOM     19  C   UNL A   1      27.656  30.082  22.658  1.00  0.00    -0.016 C 
ATOM     20  C   UNL A   1      26.998  28.851  23.280  1.00  0.00     0.007 C 
ATOM     21  C   UNL A   1      27.529  31.283  23.595  1.00  0.00     0.007 C 
ENDBRANCH  18  19
ENDBRANCH  17  18
ENDBRANCH   9  17
BRANCH  16  22
ATOM     22  C   UNL A   1      31.838  23.332  25.768  1.00  0.00     0.227 C 
ATOM     23  O   UNL A   1      32.162  22.961  26.910  1.00  0.00    -0.274 OA
BRANCH  22  24
ATOM     24  C   UNL A   1      32.098  22.317  24.644  1.00  0.00     0.099 C 
ATOM     25  C   UNL A   1      32.048  20.842  25.045  1.00  0.00     0.023 C 
ATOM     26  C   UNL A   1      33.252  22.629  23.708  1.00  0.00     0.142 C 
ATOM     27  C   UNL A   1      33.363  20.287  25.570  1.00  0.00     0.078 C 
ATOM     28  N   UNL A   1      34.460  21.933  24.074  1.00  0.00    -0.278 N 
ATOM     29  C   UNL A   1      34.577  20.912  24.946  1.00  0.00     0.133 A 
ATOM     30  C   UNL A   1      35.724  22.420  23.875  1.00  0.00     0.345 A 
ATOM     31  N   UNL A   1      35.795  20.665  25.331  1.00  0.00    -0.155 NA
ATOM     32  N   UNL A   1      36.546  21.619  24.671  1.00  0.00    -0.216 N 
ATOM     33  O   UNL A   1      36.033  23.431  23.254  1.00  0.00    -0.246 OA
ATOM     34  C   UNL A   1      37.893  21.948  25.052  1.00  0.00     0.179 C 
ENDBRANCH  22  24
ENDBRANCH  16  22
ENDBRANCH   5   8
ENDBRANCH   3   4
ENDBRANCH   2   3
ENDBRANCH   1   2
BRANCH   1  35
ATOM     35  C   UNL A   1      34.650  33.067  27.906  1.00  0.00     0.002 C 
BRANCH  35  36
ATOM     36  C   UNL A   1      33.302  33.559  28.462  1.00  0.00     0.021 C 
BRANCH  36  37
ATOM     37  C   UNL A   1      33.274  35.042  28.799  1.00  0.00     0.116 C 
BRANCH  37  38
ATOM     38  N   UNL A   1      32.989  35.308  30.220  1.00  0.00    -0.352 N 
ATOM     39  C   UNL A   1      33.480  34.694  31.363  1.00  0.00     0.251 C 
ATOM     40  H   UNL A   1      32.348  36.037  30.384  1.00  0.00     0.163 HD
ATOM     41  O   UNL A   1      32.897  34.805  32.436  1.00  0.00    -0.269 OA
BRANCH  39  42
ATOM     42  C   UNL A   1      34.726  33.912  31.278  1.00  0.00     0.039 A 
ATOM     43  C   UNL A   1      34.819  32.545  31.558  1.00  0.00     0.014 A 
ATOM     44  C   UNL A   1      35.846  34.604  30.861  1.00  0.00     0.014 A 
ATOM     45  C   UNL A   1      36.065  31.931  31.420  1.00  0.00     0.010 A 
ATOM     46  C   UNL A   1      36.871  33.915  30.309  1.00  0.00     0.010 A 
ATOM     47  C   UNL A   1      37.099  32.658  30.816  1.00  0.00    -0.014 A 
BRANCH  47  48
ATOM     48  C   UNL A   1      38.443  32.163  30.597  1.00  0.00     0.031 A 
ATOM     49  C   UNL A   1      38.463  30.771  30.118  1.00  0.00     0.074 A 
ATOM     50  C   UNL A   1      39.523  32.978  30.529  1.00  0.00     0.049 A 
ATOM     51  N   UNL A   1      38.749  29.718  30.803  1.00  0.00    -0.248 NA
ATOM     52  C   UNL A   1      37.898  30.495  28.786  1.00  0.00     0.031 C 
ATOM     53  C   UNL A   1      39.585  34.447  30.596  1.00  0.00     0.029 A 
ATOM     54  N   UNL A   1      40.816  32.651  30.271  1.00  0.00    -0.354 N 
ATOM     55  C   UNL A   1      38.634  28.664  29.911  1.00  0.00     0.074 A 
ATOM     56  C   UNL A   1      37.871  29.162  28.796  1.00  0.00     0.031 C 
ATOM     57  C   UNL A   1      40.799  34.877  30.174  1.00  0.00     0.029 A 
ATOM     58  C   UNL A   1      41.651  33.722  29.966  1.00  0.00     0.049 A 
ATOM     59  H   UNL A   1      41.140  31.722  30.298  1.00  0.00     0.167 HD
ATOM     60  C   UNL A   1      39.449  27.578  30.010  1.00  0.00     0.031 A 
ATOM     61  C   UNL A   1      42.942  33.645  29.552  1.00  0.00     0.031 A 
ATOM     62  C   UNL A   1      40.171  27.581  31.261  1.00  0.00     0.049 A 
ATOM     63  C   UNL A   1      43.432  32.293  29.913  1.00  0.00     0.074 A 
ATOM     64  C   UNL A   1      39.819  27.560  32.595  1.00  0.00     0.029 A 
ATOM     65  N   UNL A   1      41.461  28.060  31.215  1.00  0.00    -0.354 N 
ATOM     66  N   UNL A   1      43.580  31.889  31.142  1.00  0.00    -0.248 NA
ATOM     67  C   UNL A   1      43.302  31.237  28.922  1.00  0.00     0.031 C 
ATOM     68  C   UNL A   1      40.735  28.449  33.234  1.00  0.00     0.029 A 
ATOM     69  C   UNL A   1      41.649  28.903  32.279  1.00  0.00     0.049 A 
ATOM     70  H   UNL A   1      42.134  27.836  30.533  1.00  0.00     0.167 HD
ATOM     71  C   UNL A   1      43.113  30.583  31.143  1.00  0.00     0.074 A 
ATOM     72  C   UNL A   1      43.058  30.202  29.732  1.00  0.00     0.031 C 
ATOM     73  C   UNL A   1      42.538  30.047  32.261  1.00  0.00     0.031 A 
BRANCH  60  74
ATOM     74  C   UNL A   1      39.944  26.798  28.816  1.00  0.00    -0.014 A 
ATOM     75  C   UNL A   1      40.697  27.478  27.845  1.00  0.00     0.009 A 
ATOM     76  C   UNL A   1      39.477  25.515  28.469  1.00  0.00     0.009 A 
ATOM     77  C   UNL A   1      40.900  26.935  26.570  1.00  0.00     0.001 A 
ATOM     78  C   UNL A   1      39.713  24.952  27.213  1.00  0.00     0.001 A 
ATOM     79  C   UNL A   1      40.400  25.677  26.253  1.00  0.00     0.000 A 
ENDBRANCH  60  74
BRANCH  61  80
ATOM     80  C   UNL A   1      43.694  34.515  28.619  1.00  0.00    -0.014 A 
ATOM     81  C   UNL A   1      45.069  34.747  28.796  1.00  0.00     0.009 A 
ATOM     82  C   UNL A   1      43.128  34.867  27.380  1.00  0.00     0.009 A 
ATOM     83  C   UNL A   1      45.855  35.273  27.758  1.00  0.00     0.001 A 
ATOM     84  C   UNL A   1      43.913  35.389  26.344  1.00  0.00     0.001 A 
ATOM     85  C   UNL A   1      45.279  35.576  26.527  1.00  0.00     0.000 A 
ENDBRANCH  61  80
BRANCH  73  86
ATOM     86  C   UNL A   1      42.655  30.829  33.550  1.00  0.00    -0.014 A 
ATOM     87  C   UNL A   1      41.723  31.802  33.960  1.00  0.00     0.009 A 
ATOM     88  C   UNL A   1      43.671  30.469  34.447  1.00  0.00     0.009 A 
ATOM     89  C   UNL A   1      41.826  32.411  35.217  1.00  0.00     0.001 A 
ATOM     90  C   UNL A   1      43.761  31.061  35.708  1.00  0.00     0.001 A 
ATOM     91  C   UNL A   1      42.844  32.036  36.092  1.00  0.00     0.000 A 
ENDBRANCH  73  86
ENDBRANCH  47  48
ENDBRANCH  39  42
ENDBRANCH  37  38
ENDBRANCH  36  37
ENDBRANCH  35  36
ENDBRANCH   1  35
TORSDOF 18
ENDMDL
