MODEL 1
REMARK VINA RESULT:     -11.3      0.000      0.000
REMARK SMILES O=C(NCCCCCCNC(=O)c1ccc([C@H]2CCC[N@@H+](CCN3CCCC3=O)C2)cc1)c1ccc(-c2c3nc(c(-c4ccccc4)c4ccc([nH]4)c(-c4ccccc4)c4nc(c(-c5ccccc5)c5ccc2[nH]5)C=C4)C=C3)cc1
REMARK SMILES IDX 7 1 6 2 5 3 4 4 3 5 1 6 2 7 33 9 34 10 80 11 35 12 79 13
REMARK SMILES IDX 36 14 37 15 38 16 73 17 39 18 78 19 72 20 74 21 40 22 77 23
REMARK SMILES IDX 71 24 70 25 41 27 63 28 48 29 62 30 49 31 52 32 61 33 75 34
REMARK SMILES IDX 50 35 51 36 60 38 76 39 53 40 42 41 43 42 47 43 44 44 46 45
REMARK SMILES IDX 45 46 64 47 65 48 69 49 66 50 68 51 67 52 54 53 55 54 59 55
REMARK SMILES IDX 56 56 58 57 57 58 8 59 9 60 10 61 11 62 12 64 13 65 14 66
REMARK SMILES IDX 32 67 15 68 31 69 16 70 17 71 18 72 30 73 19 74 21 75 20 76
REMARK SMILES IDX 22 78 23 79 24 80 25 81 28 82 26 83 27 84 29 85
REMARK H PARENT 3 8 74 26 52 37 10 63 21 77
REMARK Flexibility Score: inf
ROOT
ATOM      1  C   UNL A   1      34.411  32.300  28.947  1.00  0.00     0.002 C 
ENDROOT
BRANCH   1   2
ATOM      2  C   UNL A   1      34.558  33.817  28.795  1.00  0.00     0.002 C 
BRANCH   2   3
ATOM      3  C   UNL A   1      33.256  34.612  28.904  1.00  0.00     0.021 C 
BRANCH   3   4
ATOM      4  C   UNL A   1      33.414  36.025  29.453  1.00  0.00     0.116 C 
BRANCH   4   5
ATOM      5  N   UNL A   1      32.578  36.262  30.619  1.00  0.00    -0.352 N 
ATOM      6  O   UNL A   1      31.773  35.901  32.696  1.00  0.00    -0.269 OA
ATOM      7  C   UNL A   1      32.676  35.734  31.882  1.00  0.00     0.251 C 
ATOM      8  H   UNL A   1      31.832  36.890  30.482  1.00  0.00     0.163 HD
BRANCH   7   9
ATOM      9  C   UNL A   1      33.868  34.947  32.259  1.00  0.00     0.039 A 
ATOM     10  C   UNL A   1      33.753  33.599  32.610  1.00  0.00     0.014 A 
ATOM     11  C   UNL A   1      35.121  35.563  32.231  1.00  0.00     0.014 A 
ATOM     12  C   UNL A   1      34.873  32.899  33.048  1.00  0.00     0.010 A 
ATOM     13  C   UNL A   1      36.256  34.838  32.599  1.00  0.00     0.010 A 
ATOM     14  C   UNL A   1      36.138  33.506  33.030  1.00  0.00    -0.014 A 
BRANCH  14  15
ATOM     15  C   UNL A   1      37.345  32.728  33.395  1.00  0.00     0.031 A 
ATOM     16  C   UNL A   1      38.067  32.984  34.685  1.00  0.00     0.074 A 
ATOM     17  C   UNL A   1      37.814  31.811  32.527  1.00  0.00     0.049 A 
ATOM     18  N   UNL A   1      39.180  32.453  35.126  1.00  0.00    -0.248 NA
ATOM     19  C   UNL A   1      37.468  33.971  35.595  1.00  0.00     0.031 C 
ATOM     20  C   UNL A   1      37.201  31.477  31.241  1.00  0.00     0.029 A 
ATOM     21  N   UNL A   1      38.922  31.005  32.590  1.00  0.00    -0.354 N 
ATOM     22  C   UNL A   1      39.430  33.060  36.349  1.00  0.00     0.074 A 
ATOM     23  C   UNL A   1      38.364  34.015  36.571  1.00  0.00     0.031 C 
ATOM     24  C   UNL A   1      37.935  30.532  30.638  1.00  0.00     0.029 A 
ATOM     25  C   UNL A   1      39.104  30.244  31.462  1.00  0.00     0.049 A 
ATOM     26  H   UNL A   1      39.527  30.975  33.366  1.00  0.00     0.167 HD
ATOM     27  C   UNL A   1      40.458  32.844  37.206  1.00  0.00     0.031 A 
ATOM     28  C   UNL A   1      40.117  29.434  31.104  1.00  0.00     0.031 A 
ATOM     29  C   UNL A   1      41.525  31.907  36.967  1.00  0.00     0.049 A 
ATOM     30  C   UNL A   1      41.272  29.248  32.043  1.00  0.00     0.074 A 
ATOM     31  C   UNL A   1      42.588  31.582  37.791  1.00  0.00     0.029 A 
ATOM     32  N   UNL A   1      41.677  31.161  35.807  1.00  0.00    -0.354 N 
ATOM     33  N   UNL A   1      41.469  29.787  33.221  1.00  0.00    -0.248 NA
ATOM     34  C   UNL A   1      42.341  28.341  31.606  1.00  0.00     0.031 C 
ATOM     35  C   UNL A   1      43.420  30.694  37.102  1.00  0.00     0.029 A 
ATOM     36  C   UNL A   1      42.836  30.405  35.878  1.00  0.00     0.049 A 
ATOM     37  H   UNL A   1      41.053  31.167  35.045  1.00  0.00     0.167 HD
ATOM     38  C   UNL A   1      42.670  29.266  33.681  1.00  0.00     0.074 A 
ATOM     39  C   UNL A   1      43.154  28.362  32.656  1.00  0.00     0.031 C 
ATOM     40  C   UNL A   1      43.308  29.511  34.851  1.00  0.00     0.031 A 
BRANCH  27  41
ATOM     41  C   UNL A   1      40.501  33.678  38.460  1.00  0.00    -0.014 A 
ATOM     42  C   UNL A   1      41.165  34.914  38.502  1.00  0.00     0.009 A 
ATOM     43  C   UNL A   1      39.852  33.219  39.618  1.00  0.00     0.009 A 
ATOM     44  C   UNL A   1      41.225  35.646  39.692  1.00  0.00     0.001 A 
ATOM     45  C   UNL A   1      39.884  33.969  40.796  1.00  0.00     0.001 A 
ATOM     46  C   UNL A   1      40.583  35.174  40.835  1.00  0.00     0.000 A 
ENDBRANCH  27  41
BRANCH  28  47
ATOM     47  C   UNL A   1      40.077  28.770  29.775  1.00  0.00    -0.014 A 
ATOM     48  C   UNL A   1      39.502  27.502  29.624  1.00  0.00     0.009 A 
ATOM     49  C   UNL A   1      40.563  29.438  28.638  1.00  0.00     0.009 A 
ATOM     50  C   UNL A   1      39.421  26.910  28.361  1.00  0.00     0.001 A 
ATOM     51  C   UNL A   1      40.453  28.858  27.374  1.00  0.00     0.001 A 
ATOM     52  C   UNL A   1      39.887  27.593  27.237  1.00  0.00     0.000 A 
ENDBRANCH  28  47
BRANCH  40  53
ATOM     53  C   UNL A   1      44.584  28.762  35.117  1.00  0.00    -0.014 A 
ATOM     54  C   UNL A   1      45.839  29.331  34.850  1.00  0.00     0.009 A 
ATOM     55  C   UNL A   1      44.525  27.494  35.717  1.00  0.00     0.009 A 
ATOM     56  C   UNL A   1      47.009  28.637  35.166  1.00  0.00     0.001 A 
ATOM     57  C   UNL A   1      45.696  26.816  36.058  1.00  0.00     0.001 A 
ATOM     58  C   UNL A   1      46.936  27.385  35.779  1.00  0.00     0.000 A 
ENDBRANCH  40  53
ENDBRANCH  14  15
ENDBRANCH   7   9
ENDBRANCH   4   5
ENDBRANCH   3   4
ENDBRANCH   2   3
ENDBRANCH   1   2
BRANCH   1  59
ATOM     59  C   UNL A   1      35.144  31.461  27.893  1.00  0.00     0.021 C 
BRANCH  59  60
ATOM     60  C   UNL A   1      34.411  30.189  27.461  1.00  0.00     0.116 C 
BRANCH  60  61
ATOM     61  N   UNL A   1      33.086  30.491  26.944  1.00  0.00    -0.352 N 
ATOM     62  C   UNL A   1      32.352  29.823  25.993  1.00  0.00     0.251 C 
ATOM     63  H   UNL A   1      32.653  31.287  27.329  1.00  0.00     0.163 HD
ATOM     64  O   UNL A   1      31.366  30.345  25.484  1.00  0.00    -0.269 OA
BRANCH  62  65
ATOM     65  C   UNL A   1      32.754  28.463  25.596  1.00  0.00     0.039 A 
ATOM     66  C   UNL A   1      33.366  28.243  24.362  1.00  0.00     0.014 A 
ATOM     67  C   UNL A   1      32.478  27.390  26.437  1.00  0.00     0.014 A 
ATOM     68  C   UNL A   1      33.816  26.960  24.028  1.00  0.00     0.005 A 
ATOM     69  C   UNL A   1      32.911  26.113  26.087  1.00  0.00     0.005 A 
ATOM     70  C   UNL A   1      33.660  25.881  24.916  1.00  0.00    -0.039 A 
BRANCH  70  71
ATOM     71  C   UNL A   1      34.300  24.507  24.633  1.00  0.00     0.074 C 
ATOM     72  C   UNL A   1      35.483  24.223  25.585  1.00  0.00     0.020 C 
ATOM     73  C   UNL A   1      33.261  23.364  24.775  1.00  0.00     0.270 C 
ATOM     74  C   UNL A   1      35.973  22.783  25.477  1.00  0.00     0.062 C 
ATOM     75  N   UNL A   1      33.762  21.991  24.783  1.00  0.00    -0.333 N 
ATOM     76  C   UNL A   1      34.843  21.791  25.742  1.00  0.00     0.262 C 
ATOM     77  H   UNL A   1      34.181  21.816  23.870  1.00  0.00     0.348 HD
BRANCH  75  78
ATOM     78  C   UNL A   1      32.657  21.015  24.940  1.00  0.00     0.284 C 
BRANCH  78  79
ATOM     79  C   UNL A   1      32.432  19.898  23.878  1.00  0.00     0.180 C 
BRANCH  79  80
ATOM     80  N   UNL A   1      32.713  18.525  24.288  1.00  0.00    -0.337 N 
ATOM     81  C   UNL A   1      32.727  18.119  25.671  1.00  0.00     0.120 C 
ATOM     82  C   UNL A   1      32.989  17.485  23.417  1.00  0.00     0.222 C 
ATOM     83  C   UNL A   1      33.335  16.727  25.655  1.00  0.00     0.031 C 
ATOM     84  C   UNL A   1      33.152  16.226  24.230  1.00  0.00     0.102 C 
ATOM     85  O   UNL A   1      33.027  17.540  22.201  1.00  0.00    -0.275 OA
ENDBRANCH  79  80
ENDBRANCH  78  79
ENDBRANCH  75  78
ENDBRANCH  70  71
ENDBRANCH  62  65
ENDBRANCH  60  61
ENDBRANCH  59  60
ENDBRANCH   1  59
TORSDOF 17
ENDMDL
MODEL 2
REMARK VINA RESULT:     -10.7      6.370     12.278
REMARK SMILES O=C(NCCCCCCNC(=O)c1ccc([C@H]2CCC[N@@H+](CCN3CCCC3=O)C2)cc1)c1ccc(-c2c3nc(c(-c4ccccc4)c4ccc([nH]4)c(-c4ccccc4)c4nc(c(-c5ccccc5)c5ccc2[nH]5)C=C4)C=C3)cc1
REMARK SMILES IDX 7 1 6 2 5 3 4 4 3 5 1 6 2 7 33 9 34 10 80 11 35 12 79 13
REMARK SMILES IDX 36 14 37 15 38 16 73 17 39 18 78 19 72 20 74 21 40 22 77 23
REMARK SMILES IDX 71 24 70 25 41 27 63 28 48 29 62 30 49 31 52 32 61 33 75 34
REMARK SMILES IDX 50 35 51 36 60 38 76 39 53 40 42 41 43 42 47 43 44 44 46 45
REMARK SMILES IDX 45 46 64 47 65 48 69 49 66 50 68 51 67 52 54 53 55 54 59 55
REMARK SMILES IDX 56 56 58 57 57 58 8 59 9 60 10 61 11 62 12 64 13 65 14 66
REMARK SMILES IDX 32 67 15 68 31 69 16 70 17 71 18 72 30 73 19 74 21 75 20 76
REMARK SMILES IDX 22 78 23 79 24 80 25 81 28 82 26 83 27 84 29 85
REMARK H PARENT 3 8 74 26 52 37 10 63 21 77
REMARK Flexibility Score: inf
ROOT
ATOM      1  C   UNL A   1      40.119  21.294  26.721  1.00  0.00     0.002 C 
ENDROOT
BRANCH   1   2
ATOM      2  C   UNL A   1      41.592  20.950  26.481  1.00  0.00     0.002 C 
BRANCH   2   3
ATOM      3  C   UNL A   1      41.848  19.573  25.867  1.00  0.00     0.021 C 
BRANCH   3   4
ATOM      4  C   UNL A   1      43.183  18.942  26.247  1.00  0.00     0.116 C 
BRANCH   4   5
ATOM      5  N   UNL A   1      44.018  18.676  25.087  1.00  0.00    -0.352 N 
ATOM      6  O   UNL A   1      45.237  19.178  23.256  1.00  0.00    -0.269 OA
ATOM      7  C   UNL A   1      44.734  19.553  24.311  1.00  0.00     0.251 C 
ATOM      8  H   UNL A   1      44.078  17.731  24.819  1.00  0.00     0.163 HD
BRANCH   7   9
ATOM      9  C   UNL A   1      44.885  20.958  24.738  1.00  0.00     0.039 A 
ATOM     10  C   UNL A   1      45.391  21.271  26.003  1.00  0.00     0.014 A 
ATOM     11  C   UNL A   1      44.539  21.976  23.847  1.00  0.00     0.014 A 
ATOM     12  C   UNL A   1      45.442  22.598  26.421  1.00  0.00     0.010 A 
ATOM     13  C   UNL A   1      44.661  23.310  24.240  1.00  0.00     0.010 A 
ATOM     14  C   UNL A   1      45.094  23.631  25.538  1.00  0.00    -0.014 A 
BRANCH  14  15
ATOM     15  C   UNL A   1      45.248  25.047  25.947  1.00  0.00     0.031 A 
ATOM     16  C   UNL A   1      46.583  25.727  25.882  1.00  0.00     0.074 A 
ATOM     17  C   UNL A   1      44.174  25.707  26.422  1.00  0.00     0.049 A 
ATOM     18  N   UNL A   1      46.914  26.932  26.274  1.00  0.00    -0.248 NA
ATOM     19  C   UNL A   1      47.695  24.952  25.313  1.00  0.00     0.031 C 
ATOM     20  C   UNL A   1      42.825  25.150  26.536  1.00  0.00     0.029 A 
ATOM     21  N   UNL A   1      44.052  26.982  26.910  1.00  0.00    -0.354 N 
ATOM     22  C   UNL A   1      48.275  27.050  26.026  1.00  0.00     0.074 A 
ATOM     23  C   UNL A   1      48.713  25.787  25.471  1.00  0.00     0.031 C 
ATOM     24  C   UNL A   1      42.010  26.079  27.054  1.00  0.00     0.029 A 
ATOM     25  C   UNL A   1      42.792  27.269  27.371  1.00  0.00     0.049 A 
ATOM     26  H   UNL A   1      44.796  27.628  26.930  1.00  0.00     0.167 HD
ATOM     27  C   UNL A   1      49.085  28.114  26.247  1.00  0.00     0.031 A 
ATOM     28  C   UNL A   1      42.318  28.350  28.017  1.00  0.00     0.031 A 
ATOM     29  C   UNL A   1      48.645  29.360  26.821  1.00  0.00     0.049 A 
ATOM     30  C   UNL A   1      43.244  29.497  28.300  1.00  0.00     0.074 A 
ATOM     31  C   UNL A   1      49.377  30.513  27.044  1.00  0.00     0.029 A 
ATOM     32  N   UNL A   1      47.360  29.607  27.282  1.00  0.00    -0.354 N 
ATOM     33  N   UNL A   1      44.516  29.617  28.011  1.00  0.00    -0.248 NA
ATOM     34  C   UNL A   1      42.668  30.657  28.993  1.00  0.00     0.031 C 
ATOM     35  C   UNL A   1      48.555  31.431  27.704  1.00  0.00     0.029 A 
ATOM     36  C   UNL A   1      47.288  30.880  27.823  1.00  0.00     0.049 A 
ATOM     37  H   UNL A   1      46.609  28.972  27.231  1.00  0.00     0.167 HD
ATOM     38  C   UNL A   1      44.891  30.875  28.462  1.00  0.00     0.074 A 
ATOM     39  C   UNL A   1      43.708  31.482  29.038  1.00  0.00     0.031 C 
ATOM     40  C   UNL A   1      46.105  31.472  28.396  1.00  0.00     0.031 A 
BRANCH  27  41
ATOM     41  C   UNL A   1      50.546  27.953  25.913  1.00  0.00    -0.014 A 
ATOM     42  C   UNL A   1      51.048  28.253  24.637  1.00  0.00     0.009 A 
ATOM     43  C   UNL A   1      51.435  27.502  26.902  1.00  0.00     0.009 A 
ATOM     44  C   UNL A   1      52.401  28.052  24.344  1.00  0.00     0.001 A 
ATOM     45  C   UNL A   1      52.792  27.336  26.616  1.00  0.00     0.001 A 
ATOM     46  C   UNL A   1      53.270  27.597  25.333  1.00  0.00     0.000 A 
ENDBRANCH  27  41
BRANCH  28  47
ATOM     47  C   UNL A   1      40.900  28.366  28.458  1.00  0.00    -0.014 A 
ATOM     48  C   UNL A   1      40.534  27.868  29.715  1.00  0.00     0.009 A 
ATOM     49  C   UNL A   1      39.913  28.943  27.640  1.00  0.00     0.009 A 
ATOM     50  C   UNL A   1      39.205  27.938  30.141  1.00  0.00     0.001 A 
ATOM     51  C   UNL A   1      38.593  29.039  28.081  1.00  0.00     0.001 A 
ATOM     52  C   UNL A   1      38.239  28.532  29.329  1.00  0.00     0.000 A 
ENDBRANCH  28  47
BRANCH  40  53
ATOM     53  C   UNL A   1      46.218  32.877  28.922  1.00  0.00    -0.014 A 
ATOM     54  C   UNL A   1      46.809  33.150  30.165  1.00  0.00     0.009 A 
ATOM     55  C   UNL A   1      45.793  33.948  28.119  1.00  0.00     0.009 A 
ATOM     56  C   UNL A   1      46.957  34.469  30.600  1.00  0.00     0.001 A 
ATOM     57  C   UNL A   1      45.970  35.265  28.544  1.00  0.00     0.001 A 
ATOM     58  C   UNL A   1      46.547  35.525  29.784  1.00  0.00     0.000 A 
ENDBRANCH  40  53
ENDBRANCH  14  15
ENDBRANCH   7   9
ENDBRANCH   4   5
ENDBRANCH   3   4
ENDBRANCH   2   3
ENDBRANCH   1   2
BRANCH   1  59
ATOM     59  C   UNL A   1      39.752  22.773  26.542  1.00  0.00     0.021 C 
BRANCH  59  60
ATOM     60  C   UNL A   1      38.307  23.028  26.111  1.00  0.00     0.116 C 
BRANCH  60  61
ATOM     61  N   UNL A   1      37.734  21.861  25.459  1.00  0.00    -0.352 N 
ATOM     62  C   UNL A   1      36.420  21.589  25.164  1.00  0.00     0.251 C 
ATOM     63  H   UNL A   1      38.379  21.168  25.192  1.00  0.00     0.163 HD
ATOM     64  O   UNL A   1      36.072  20.457  24.846  1.00  0.00    -0.269 OA
BRANCH  62  65
ATOM     65  C   UNL A   1      35.427  22.676  25.221  1.00  0.00     0.039 A 
ATOM     66  C   UNL A   1      34.552  22.773  26.303  1.00  0.00     0.014 A 
ATOM     67  C   UNL A   1      35.335  23.580  24.168  1.00  0.00     0.014 A 
ATOM     68  C   UNL A   1      33.667  23.855  26.386  1.00  0.00     0.005 A 
ATOM     69  C   UNL A   1      34.437  24.641  24.250  1.00  0.00     0.005 A 
ATOM     70  C   UNL A   1      33.642  24.851  25.394  1.00  0.00    -0.039 A 
BRANCH  70  71
ATOM     71  C   UNL A   1      32.796  26.129  25.560  1.00  0.00     0.074 C 
ATOM     72  C   UNL A   1      33.684  27.382  25.726  1.00  0.00     0.020 C 
ATOM     73  C   UNL A   1      31.857  26.343  24.344  1.00  0.00     0.270 C 
ATOM     74  C   UNL A   1      32.875  28.673  25.655  1.00  0.00     0.062 C 
ATOM     75  N   UNL A   1      31.176  27.631  24.232  1.00  0.00    -0.333 N 
ATOM     76  C   UNL A   1      32.089  28.763  24.349  1.00  0.00     0.262 C 
ATOM     77  H   UNL A   1      30.547  27.712  25.031  1.00  0.00     0.348 HD
BRANCH  75  78
ATOM     78  C   UNL A   1      30.329  27.689  23.016  1.00  0.00     0.284 C 
BRANCH  78  79
ATOM     79  C   UNL A   1      28.885  28.268  23.085  1.00  0.00     0.180 C 
BRANCH  79  80
ATOM     80  N   UNL A   1      28.699  29.646  22.639  1.00  0.00    -0.337 N 
ATOM     81  C   UNL A   1      29.548  30.259  21.648  1.00  0.00     0.120 C 
ATOM     82  C   UNL A   1      27.710  30.497  23.103  1.00  0.00     0.222 C 
ATOM     83  C   UNL A   1      29.197  31.735  21.703  1.00  0.00     0.031 C 
ATOM     84  C   UNL A   1      27.819  31.796  22.346  1.00  0.00     0.102 C 
ATOM     85  O   UNL A   1      26.850  30.238  23.925  1.00  0.00    -0.275 OA
ENDBRANCH  79  80
ENDBRANCH  78  79
ENDBRANCH  75  78
ENDBRANCH  70  71
ENDBRANCH  62  65
ENDBRANCH  60  61
ENDBRANCH  59  60
ENDBRANCH   1  59
TORSDOF 17
ENDMDL
MODEL 3
REMARK VINA RESULT:     -10.7      0.666      5.783
REMARK SMILES O=C(NCCCCCCNC(=O)c1ccc([C@H]2CCC[N@@H+](CCN3CCCC3=O)C2)cc1)c1ccc(-c2c3nc(c(-c4ccccc4)c4ccc([nH]4)c(-c4ccccc4)c4nc(c(-c5ccccc5)c5ccc2[nH]5)C=C4)C=C3)cc1
REMARK SMILES IDX 7 1 6 2 5 3 4 4 3 5 1 6 2 7 33 9 34 10 80 11 35 12 79 13
REMARK SMILES IDX 36 14 37 15 38 16 73 17 39 18 78 19 72 20 74 21 40 22 77 23
REMARK SMILES IDX 71 24 70 25 41 27 63 28 48 29 62 30 49 31 52 32 61 33 75 34
REMARK SMILES IDX 50 35 51 36 60 38 76 39 53 40 42 41 43 42 47 43 44 44 46 45
REMARK SMILES IDX 45 46 64 47 65 48 69 49 66 50 68 51 67 52 54 53 55 54 59 55
REMARK SMILES IDX 56 56 58 57 57 58 8 59 9 60 10 61 11 62 12 64 13 65 14 66
REMARK SMILES IDX 32 67 15 68 31 69 16 70 17 71 18 72 30 73 19 74 21 75 20 76
REMARK SMILES IDX 22 78 23 79 24 80 25 81 28 82 26 83 27 84 29 85
REMARK H PARENT 3 8 74 26 52 37 10 63 21 77
REMARK Flexibility Score: inf
ROOT
ATOM      1  C   UNL A   1      34.593  32.359  28.897  1.00  0.00     0.002 C 
ENDROOT
BRANCH   1   2
ATOM      2  C   UNL A   1      34.646  33.871  28.655  1.00  0.00     0.002 C 
BRANCH   2   3
ATOM      3  C   UNL A   1      33.313  34.603  28.815  1.00  0.00     0.021 C 
BRANCH   3   4
ATOM      4  C   UNL A   1      33.403  35.945  29.532  1.00  0.00     0.116 C 
BRANCH   4   5
ATOM      5  N   UNL A   1      32.553  36.000  30.710  1.00  0.00    -0.352 N 
ATOM      6  O   UNL A   1      31.810  35.402  32.755  1.00  0.00    -0.269 OA
ATOM      7  C   UNL A   1      32.721  35.399  31.933  1.00  0.00     0.251 C 
ATOM      8  H   UNL A   1      31.740  36.546  30.618  1.00  0.00     0.163 HD
BRANCH   7   9
ATOM      9  C   UNL A   1      33.998  34.729  32.253  1.00  0.00     0.039 A 
ATOM     10  C   UNL A   1      34.038  33.359  32.526  1.00  0.00     0.014 A 
ATOM     11  C   UNL A   1      35.174  35.482  32.253  1.00  0.00     0.014 A 
ATOM     12  C   UNL A   1      35.235  32.764  32.913  1.00  0.00     0.010 A 
ATOM     13  C   UNL A   1      36.387  34.868  32.568  1.00  0.00     0.010 A 
ATOM     14  C   UNL A   1      36.424  33.509  32.922  1.00  0.00    -0.014 A 
BRANCH  14  15
ATOM     15  C   UNL A   1      37.715  32.851  33.231  1.00  0.00     0.031 A 
ATOM     16  C   UNL A   1      38.306  31.834  32.301  1.00  0.00     0.074 A 
ATOM     17  C   UNL A   1      38.335  33.148  34.390  1.00  0.00     0.049 A 
ATOM     18  N   UNL A   1      39.383  31.104  32.452  1.00  0.00    -0.248 NA
ATOM     19  C   UNL A   1      37.590  31.596  31.038  1.00  0.00     0.031 C 
ATOM     20  C   UNL A   1      37.856  34.117  35.377  1.00  0.00     0.029 A 
ATOM     21  N   UNL A   1      39.491  32.655  34.939  1.00  0.00    -0.354 N 
ATOM     22  C   UNL A   1      39.460  30.302  31.322  1.00  0.00     0.074 A 
ATOM     23  C   UNL A   1      38.308  30.619  30.503  1.00  0.00     0.031 C 
ATOM     24  C   UNL A   1      38.712  34.153  36.407  1.00  0.00     0.029 A 
ATOM     25  C   UNL A   1      39.760  33.163  36.185  1.00  0.00     0.049 A 
ATOM     26  H   UNL A   1      40.069  32.000  34.485  1.00  0.00     0.167 HD
ATOM     27  C   UNL A   1      40.402  29.383  31.000  1.00  0.00     0.031 A 
ATOM     28  C   UNL A   1      40.718  32.844  37.074  1.00  0.00     0.031 A 
ATOM     29  C   UNL A   1      41.532  29.059  31.832  1.00  0.00     0.049 A 
ATOM     30  C   UNL A   1      41.721  31.785  36.722  1.00  0.00     0.074 A 
ATOM     31  C   UNL A   1      42.566  28.176  31.576  1.00  0.00     0.029 A 
ATOM     32  N   UNL A   1      41.764  29.592  33.092  1.00  0.00    -0.354 N 
ATOM     33  N   UNL A   1      41.814  31.073  35.626  1.00  0.00    -0.248 NA
ATOM     34  C   UNL A   1      42.752  31.489  37.725  1.00  0.00     0.031 C 
ATOM     35  C   UNL A   1      43.384  28.121  32.708  1.00  0.00     0.029 A 
ATOM     36  C   UNL A   1      42.904  29.028  33.641  1.00  0.00     0.049 A 
ATOM     37  H   UNL A   1      41.203  30.271  33.531  1.00  0.00     0.167 HD
ATOM     38  C   UNL A   1      42.927  30.262  35.793  1.00  0.00     0.074 A 
ATOM     39  C   UNL A   1      43.482  30.576  37.095  1.00  0.00     0.031 C 
ATOM     40  C   UNL A   1      43.445  29.346  34.938  1.00  0.00     0.031 A 
BRANCH  27  41
ATOM     41  C   UNL A   1      40.216  28.624  29.712  1.00  0.00    -0.014 A 
ATOM     42  C   UNL A   1      39.538  27.395  29.671  1.00  0.00     0.009 A 
ATOM     43  C   UNL A   1      40.721  29.157  28.515  1.00  0.00     0.009 A 
ATOM     44  C   UNL A   1      39.418  26.691  28.469  1.00  0.00     0.001 A 
ATOM     45  C   UNL A   1      40.569  28.469  27.310  1.00  0.00     0.001 A 
ATOM     46  C   UNL A   1      39.932  27.230  27.291  1.00  0.00     0.000 A 
ENDBRANCH  27  41
BRANCH  28  47
ATOM     47  C   UNL A   1      40.737  33.527  38.393  1.00  0.00    -0.014 A 
ATOM     48  C   UNL A   1      40.054  32.988  39.491  1.00  0.00     0.009 A 
ATOM     49  C   UNL A   1      41.498  34.695  38.572  1.00  0.00     0.009 A 
ATOM     50  C   UNL A   1      40.123  33.611  40.740  1.00  0.00     0.001 A 
ATOM     51  C   UNL A   1      41.591  35.297  39.827  1.00  0.00     0.001 A 
ATOM     52  C   UNL A   1      40.900  34.757  40.909  1.00  0.00     0.000 A 
ENDBRANCH  28  47
BRANCH  40  53
ATOM     53  C   UNL A   1      44.704  28.639  35.358  1.00  0.00    -0.014 A 
ATOM     54  C   UNL A   1      44.665  27.407  36.028  1.00  0.00     0.009 A 
ATOM     55  C   UNL A   1      45.949  29.183  35.005  1.00  0.00     0.009 A 
ATOM     56  C   UNL A   1      45.850  26.742  36.349  1.00  0.00     0.001 A 
ATOM     57  C   UNL A   1      47.130  28.503  35.302  1.00  0.00     0.001 A 
ATOM     58  C   UNL A   1      47.081  27.285  35.977  1.00  0.00     0.000 A 
ENDBRANCH  40  53
ENDBRANCH  14  15
ENDBRANCH   7   9
ENDBRANCH   4   5
ENDBRANCH   3   4
ENDBRANCH   2   3
ENDBRANCH   1   2
BRANCH   1  59
ATOM     59  C   UNL A   1      34.672  31.490  27.635  1.00  0.00     0.021 C 
BRANCH  59  60
ATOM     60  C   UNL A   1      33.728  30.287  27.624  1.00  0.00     0.116 C 
BRANCH  60  61
ATOM     61  N   UNL A   1      32.517  30.569  26.869  1.00  0.00    -0.352 N 
ATOM     62  C   UNL A   1      31.996  29.907  25.784  1.00  0.00     0.251 C 
ATOM     63  H   UNL A   1      31.998  31.346  27.179  1.00  0.00     0.163 HD
ATOM     64  O   UNL A   1      31.111  30.417  25.106  1.00  0.00    -0.269 OA
BRANCH  62  65
ATOM     65  C   UNL A   1      32.503  28.565  25.446  1.00  0.00     0.039 A 
ATOM     66  C   UNL A   1      33.170  28.349  24.240  1.00  0.00     0.014 A 
ATOM     67  C   UNL A   1      32.273  27.504  26.314  1.00  0.00     0.014 A 
ATOM     68  C   UNL A   1      33.717  27.090  23.964  1.00  0.00     0.005 A 
ATOM     69  C   UNL A   1      32.804  26.249  26.021  1.00  0.00     0.005 A 
ATOM     70  C   UNL A   1      33.606  26.033  24.883  1.00  0.00    -0.039 A 
BRANCH  70  71
ATOM     71  C   UNL A   1      34.348  24.698  24.667  1.00  0.00     0.074 C 
ATOM     72  C   UNL A   1      35.455  24.485  25.723  1.00  0.00     0.020 C 
ATOM     73  C   UNL A   1      33.368  23.496  24.722  1.00  0.00     0.270 C 
ATOM     74  C   UNL A   1      36.035  23.075  25.669  1.00  0.00     0.062 C 
ATOM     75  N   UNL A   1      33.946  22.155  24.783  1.00  0.00    -0.333 N 
ATOM     76  C   UNL A   1      34.945  22.020  25.837  1.00  0.00     0.262 C 
ATOM     77  H   UNL A   1      34.454  22.004  23.913  1.00  0.00     0.348 HD
BRANCH  75  78
ATOM     78  C   UNL A   1      32.889  21.116  24.846  1.00  0.00     0.284 C 
BRANCH  78  79
ATOM     79  C   UNL A   1      33.107  19.815  25.674  1.00  0.00     0.180 C 
BRANCH  79  80
ATOM     80  N   UNL A   1      33.406  18.596  24.928  1.00  0.00    -0.337 N 
ATOM     81  C   UNL A   1      32.389  17.640  24.569  1.00  0.00     0.120 C 
ATOM     82  C   UNL A   1      34.668  18.231  24.491  1.00  0.00     0.222 C 
ATOM     83  C   UNL A   1      33.160  16.426  24.081  1.00  0.00     0.031 C 
ATOM     84  C   UNL A   1      34.538  16.949  23.707  1.00  0.00     0.102 C 
ATOM     85  O   UNL A   1      35.703  18.856  24.640  1.00  0.00    -0.275 OA
ENDBRANCH  79  80
ENDBRANCH  78  79
ENDBRANCH  75  78
ENDBRANCH  70  71
ENDBRANCH  62  65
ENDBRANCH  60  61
ENDBRANCH  59  60
ENDBRANCH   1  59
TORSDOF 17
ENDMDL
