MODEL 1
REMARK VINA RESULT:     -11.2      0.000      0.000
REMARK SMILES CCOc1cccc(-c2ccc([C@@H](C)C(=O)NCCCCCCNC(=O)c3ccc(-c4c5nc(c(-c6ccccc6)c6ccc([nH]6)c(-c6ccccc6)c6nc(c(-c7ccccc7)c7ccc4[nH]7)C=C6)C=C5)cc3)cc2F)c1
REMARK SMILES IDX 19 1 18 2 17 3 15 4 16 5 13 7 14 8 12 9 9 10 10 11 76 12
REMARK SMILES IDX 11 13 75 14 77 15 8 16 4 17 5 18 78 19 6 20 7 21 3 22 2 23
REMARK SMILES IDX 1 24 20 25 21 26 22 27 23 28 24 29 25 30 26 32 27 33 28 34
REMARK SMILES IDX 74 35 29 36 73 37 30 38 31 39 32 40 67 41 33 42 72 43 66 44
REMARK SMILES IDX 68 45 34 46 71 47 65 48 64 49 35 51 57 52 42 53 56 54 43 55
REMARK SMILES IDX 46 56 55 57 69 58 44 59 45 60 54 62 70 63 47 64 36 65 37 66
REMARK SMILES IDX 41 67 38 68 40 69 39 70 58 71 59 72 63 73 60 74 62 75 61 76
REMARK SMILES IDX 48 77 49 78 53 79 50 80 52 81 51 82
REMARK H PARENT 17 6 24 31 68 50 46 61
REMARK Flexibility Score: inf
ROOT
ATOM      1  C   UNL A   1      35.233  24.009  25.773  1.00  0.00     0.021 C 
ENDROOT
BRANCH   1   2
ATOM      2  C   UNL A   1      34.456  25.166  25.138  1.00  0.00     0.116 C 
BRANCH   2   3
ATOM      3  N   UNL A   1      33.551  25.774  26.087  1.00  0.00    -0.356 N 
ATOM      4  C   UNL A   1      32.203  25.954  26.063  1.00  0.00     0.227 C 
ATOM      5  O   UNL A   1      31.725  26.626  26.986  1.00  0.00    -0.274 OA
ATOM      6  H   UNL A   1      33.989  26.120  26.898  1.00  0.00     0.163 HD
BRANCH   4   7
ATOM      7  C   UNL A   1      31.278  25.359  24.991  1.00  0.00     0.105 C 
ATOM      8  C   UNL A   1      29.811  25.756  25.147  1.00  0.00     0.023 C 
BRANCH   7   9
ATOM      9  C   UNL A   1      31.525  23.887  24.699  1.00  0.00    -0.033 A 
ATOM     10  C   UNL A   1      32.141  21.149  24.096  1.00  0.00     0.018 A 
ATOM     11  C   UNL A   1      31.791  21.563  25.391  1.00  0.00     0.012 A 
ATOM     12  C   UNL A   1      32.131  22.146  23.106  1.00  0.00     0.131 A 
ATOM     13  C   UNL A   1      31.447  22.891  25.674  1.00  0.00     0.005 A 
ATOM     14  C   UNL A   1      31.858  23.486  23.399  1.00  0.00     0.044 A 
ATOM     15  F   UNL A   1      32.384  21.843  21.824  1.00  0.00    -0.206 F 
BRANCH  10  16
ATOM     16  C   UNL A   1      32.521  19.740  23.833  1.00  0.00    -0.012 A 
ATOM     17  C   UNL A   1      33.274  17.556  24.639  1.00  0.00     0.119 A 
ATOM     18  C   UNL A   1      33.180  17.023  23.359  1.00  0.00     0.046 A 
ATOM     19  C   UNL A   1      32.966  18.899  24.866  1.00  0.00     0.055 A 
ATOM     20  C   UNL A   1      32.752  17.832  22.310  1.00  0.00     0.004 A 
ATOM     21  C   UNL A   1      32.431  19.173  22.547  1.00  0.00     0.009 A 
BRANCH  17  22
ATOM     22  O   UNL A   1      33.800  16.773  25.628  1.00  0.00    -0.494 OA
BRANCH  22  23
ATOM     23  C   UNL A   1      33.567  15.372  25.443  1.00  0.00     0.226 C 
ATOM     24  C   UNL A   1      32.171  14.952  25.880  1.00  0.00     0.049 C 
ENDBRANCH  22  23
ENDBRANCH  17  22
ENDBRANCH  10  16
ENDBRANCH   7   9
ENDBRANCH   4   7
ENDBRANCH   2   3
ENDBRANCH   1   2
BRANCH   1  25
ATOM     25  C   UNL A   1      35.458  22.832  24.820  1.00  0.00     0.002 C 
BRANCH  25  26
ATOM     26  C   UNL A   1      35.664  21.477  25.511  1.00  0.00     0.002 C 
BRANCH  26  27
ATOM     27  C   UNL A   1      36.786  20.617  24.924  1.00  0.00     0.021 C 
BRANCH  27  28
ATOM     28  C   UNL A   1      38.184  21.032  25.367  1.00  0.00     0.116 C 
BRANCH  28  29
ATOM     29  N   UNL A   1      39.063  19.880  25.510  1.00  0.00    -0.352 N 
ATOM     30  C   UNL A   1      40.385  19.840  25.879  1.00  0.00     0.251 C 
ATOM     31  H   UNL A   1      38.651  19.007  25.316  1.00  0.00     0.163 HD
ATOM     32  O   UNL A   1      41.054  18.830  25.708  1.00  0.00    -0.269 OA
BRANCH  30  33
ATOM     33  C   UNL A   1      40.995  21.042  26.479  1.00  0.00     0.039 A 
ATOM     34  C   UNL A   1      41.654  21.961  25.659  1.00  0.00     0.014 A 
ATOM     35  C   UNL A   1      40.894  21.262  27.855  1.00  0.00     0.014 A 
ATOM     36  C   UNL A   1      42.151  23.142  26.214  1.00  0.00     0.010 A 
ATOM     37  C   UNL A   1      41.321  22.469  28.391  1.00  0.00     0.010 A 
ATOM     38  C   UNL A   1      41.953  23.421  27.575  1.00  0.00    -0.014 A 
BRANCH  38  39
ATOM     39  C   UNL A   1      42.390  24.703  28.183  1.00  0.00     0.031 A 
ATOM     40  C   UNL A   1      41.394  25.807  28.395  1.00  0.00     0.074 A 
ATOM     41  C   UNL A   1      43.695  24.905  28.451  1.00  0.00     0.049 A 
ATOM     42  N   UNL A   1      41.597  27.040  28.785  1.00  0.00    -0.248 NA
ATOM     43  C   UNL A   1      39.986  25.493  28.102  1.00  0.00     0.031 C 
ATOM     44  C   UNL A   1      44.764  23.921  28.263  1.00  0.00     0.029 A 
ATOM     45  N   UNL A   1      44.347  26.017  28.921  1.00  0.00    -0.354 N 
ATOM     46  C   UNL A   1      40.350  27.650  28.763  1.00  0.00     0.074 A 
ATOM     47  C   UNL A   1      39.405  26.671  28.274  1.00  0.00     0.031 C 
ATOM     48  C   UNL A   1      45.933  24.468  28.634  1.00  0.00     0.029 A 
ATOM     49  C   UNL A   1      45.707  25.854  29.031  1.00  0.00     0.049 A 
ATOM     50  H   UNL A   1      43.884  26.853  29.158  1.00  0.00     0.167 HD
ATOM     51  C   UNL A   1      40.019  28.911  29.131  1.00  0.00     0.031 A 
ATOM     52  C   UNL A   1      46.666  26.726  29.392  1.00  0.00     0.031 A 
ATOM     53  C   UNL A   1      40.961  29.880  29.621  1.00  0.00     0.049 A 
ATOM     54  C   UNL A   1      46.277  28.133  29.758  1.00  0.00     0.074 A 
ATOM     55  C   UNL A   1      40.717  31.167  30.069  1.00  0.00     0.029 A 
ATOM     56  N   UNL A   1      42.328  29.672  29.723  1.00  0.00    -0.354 N 
ATOM     57  N   UNL A   1      45.086  28.678  29.789  1.00  0.00    -0.248 NA
ATOM     58  C   UNL A   1      47.366  29.041  30.145  1.00  0.00     0.031 C 
ATOM     59  C   UNL A   1      41.944  31.758  30.382  1.00  0.00     0.029 A 
ATOM     60  C   UNL A   1      42.943  30.817  30.197  1.00  0.00     0.049 A 
ATOM     61  H   UNL A   1      42.790  28.834  29.491  1.00  0.00     0.167 HD
ATOM     62  C   UNL A   1      45.278  29.982  30.233  1.00  0.00     0.074 A 
ATOM     63  C   UNL A   1      46.698  30.141  30.466  1.00  0.00     0.031 C 
ATOM     64  C   UNL A   1      44.358  30.956  30.432  1.00  0.00     0.031 A 
BRANCH  51  65
ATOM     65  C   UNL A   1      38.577  29.316  29.001  1.00  0.00    -0.014 A 
ATOM     66  C   UNL A   1      38.043  29.735  27.772  1.00  0.00     0.009 A 
ATOM     67  C   UNL A   1      37.728  29.245  30.117  1.00  0.00     0.009 A 
ATOM     68  C   UNL A   1      36.702  30.110  27.673  1.00  0.00     0.001 A 
ATOM     69  C   UNL A   1      36.381  29.588  30.008  1.00  0.00     0.001 A 
ATOM     70  C   UNL A   1      35.870  30.031  28.789  1.00  0.00     0.000 A 
ENDBRANCH  51  65
BRANCH  52  71
ATOM     71  C   UNL A   1      48.090  26.299  29.425  1.00  0.00    -0.014 A 
ATOM     72  C   UNL A   1      48.654  25.790  30.604  1.00  0.00     0.009 A 
ATOM     73  C   UNL A   1      48.897  26.408  28.280  1.00  0.00     0.009 A 
ATOM     74  C   UNL A   1      50.003  25.426  30.646  1.00  0.00     0.001 A 
ATOM     75  C   UNL A   1      50.237  26.012  28.316  1.00  0.00     0.001 A 
ATOM     76  C   UNL A   1      50.790  25.534  29.501  1.00  0.00     0.000 A 
ENDBRANCH  52  71
BRANCH  64  77
ATOM     77  C   UNL A   1      44.845  32.271  30.974  1.00  0.00    -0.014 A 
ATOM     78  C   UNL A   1      45.208  33.327  30.124  1.00  0.00     0.009 A 
ATOM     79  C   UNL A   1      44.877  32.475  32.363  1.00  0.00     0.009 A 
ATOM     80  C   UNL A   1      45.614  34.553  30.657  1.00  0.00     0.001 A 
ATOM     81  C   UNL A   1      45.252  33.710  32.891  1.00  0.00     0.001 A 
ATOM     82  C   UNL A   1      45.628  34.745  32.038  1.00  0.00     0.000 A 
ENDBRANCH  64  77
ENDBRANCH  38  39
ENDBRANCH  30  33
ENDBRANCH  28  29
ENDBRANCH  27  28
ENDBRANCH  26  27
ENDBRANCH  25  26
ENDBRANCH   1  25
TORSDOF 17
ENDMDL
MODEL 2
REMARK VINA RESULT:     -10.5      4.942     11.481
REMARK SMILES CCOc1cccc(-c2ccc([C@@H](C)C(=O)NCCCCCCNC(=O)c3ccc(-c4c5nc(c(-c6ccccc6)c6ccc([nH]6)c(-c6ccccc6)c6nc(c(-c7ccccc7)c7ccc4[nH]7)C=C6)C=C5)cc3)cc2F)c1
REMARK SMILES IDX 19 1 18 2 17 3 15 4 16 5 13 7 14 8 12 9 9 10 10 11 76 12
REMARK SMILES IDX 11 13 75 14 77 15 8 16 4 17 5 18 78 19 6 20 7 21 3 22 2 23
REMARK SMILES IDX 1 24 20 25 21 26 22 27 23 28 24 29 25 30 26 32 27 33 28 34
REMARK SMILES IDX 74 35 29 36 73 37 30 38 31 39 32 40 67 41 33 42 72 43 66 44
REMARK SMILES IDX 68 45 34 46 71 47 65 48 64 49 35 51 57 52 42 53 56 54 43 55
REMARK SMILES IDX 46 56 55 57 69 58 44 59 45 60 54 62 70 63 47 64 36 65 37 66
REMARK SMILES IDX 41 67 38 68 40 69 39 70 58 71 59 72 63 73 60 74 62 75 61 76
REMARK SMILES IDX 48 77 49 78 53 79 50 80 52 81 51 82
REMARK H PARENT 17 6 24 31 68 50 46 61
REMARK Flexibility Score: inf
ROOT
ATOM      1  C   UNL A   1      43.405  24.150  27.364  1.00  0.00     0.021 C 
ENDROOT
BRANCH   1   2
ATOM      2  C   UNL A   1      44.495  23.161  26.941  1.00  0.00     0.116 C 
BRANCH   2   3
ATOM      3  N   UNL A   1      45.788  23.553  27.453  1.00  0.00    -0.356 N 
ATOM      4  C   UNL A   1      46.718  24.429  26.987  1.00  0.00     0.227 C 
ATOM      5  O   UNL A   1      47.794  24.459  27.597  1.00  0.00    -0.274 OA
ATOM      6  H   UNL A   1      46.041  23.106  28.294  1.00  0.00     0.163 HD
BRANCH   4   7
ATOM      7  C   UNL A   1      46.488  25.367  25.793  1.00  0.00     0.105 C 
ATOM      8  C   UNL A   1      47.515  25.209  24.672  1.00  0.00     0.023 C 
BRANCH   7   9
ATOM      9  C   UNL A   1      46.164  26.802  26.178  1.00  0.00    -0.033 A 
ATOM     10  C   UNL A   1      45.649  29.559  26.786  1.00  0.00     0.018 A 
ATOM     11  C   UNL A   1      44.618  28.669  26.447  1.00  0.00     0.012 A 
ATOM     12  C   UNL A   1      46.941  29.011  26.851  1.00  0.00     0.131 A 
ATOM     13  C   UNL A   1      44.866  27.314  26.195  1.00  0.00     0.005 A 
ATOM     14  C   UNL A   1      47.201  27.674  26.530  1.00  0.00     0.044 A 
ATOM     15  F   UNL A   1      47.986  29.760  27.232  1.00  0.00    -0.206 F 
BRANCH  10  16
ATOM     16  C   UNL A   1      45.357  30.994  27.026  1.00  0.00    -0.012 A 
ATOM     17  C   UNL A   1      44.158  32.744  28.244  1.00  0.00     0.119 A 
ATOM     18  C   UNL A   1      44.842  33.732  27.548  1.00  0.00     0.046 A 
ATOM     19  C   UNL A   1      44.401  31.396  27.972  1.00  0.00     0.055 A 
ATOM     20  C   UNL A   1      45.790  33.369  26.596  1.00  0.00     0.004 A 
ATOM     21  C   UNL A   1      46.039  32.016  26.338  1.00  0.00     0.009 A 
BRANCH  17  22
ATOM     22  O   UNL A   1      43.157  33.125  29.094  1.00  0.00    -0.494 OA
BRANCH  22  23
ATOM     23  C   UNL A   1      43.037  34.544  29.247  1.00  0.00     0.226 C 
ATOM     24  C   UNL A   1      41.648  35.052  28.890  1.00  0.00     0.049 C 
ENDBRANCH  22  23
ENDBRANCH  17  22
ENDBRANCH  10  16
ENDBRANCH   7   9
ENDBRANCH   4   7
ENDBRANCH   2   3
ENDBRANCH   1   2
BRANCH   1  25
ATOM     25  C   UNL A   1      42.469  23.599  28.443  1.00  0.00     0.002 C 
BRANCH  25  26
ATOM     26  C   UNL A   1      42.247  22.081  28.385  1.00  0.00     0.002 C 
BRANCH  26  27
ATOM     27  C   UNL A   1      40.974  21.642  27.657  1.00  0.00     0.021 C 
BRANCH  27  28
ATOM     28  C   UNL A   1      40.915  22.070  26.195  1.00  0.00     0.116 C 
BRANCH  28  29
ATOM     29  N   UNL A   1      39.545  22.307  25.762  1.00  0.00    -0.352 N 
ATOM     30  C   UNL A   1      38.686  23.315  26.121  1.00  0.00     0.251 C 
ATOM     31  H   UNL A   1      39.185  21.652  25.121  1.00  0.00     0.163 HD
ATOM     32  O   UNL A   1      37.491  23.239  25.874  1.00  0.00    -0.269 OA
BRANCH  30  33
ATOM     33  C   UNL A   1      39.226  24.497  26.822  1.00  0.00     0.039 A 
ATOM     34  C   UNL A   1      39.970  25.440  26.108  1.00  0.00     0.014 A 
ATOM     35  C   UNL A   1      38.975  24.674  28.185  1.00  0.00     0.014 A 
ATOM     36  C   UNL A   1      40.402  26.601  26.750  1.00  0.00     0.010 A 
ATOM     37  C   UNL A   1      39.340  25.862  28.801  1.00  0.00     0.010 A 
ATOM     38  C   UNL A   1      40.057  26.838  28.090  1.00  0.00    -0.014 A 
BRANCH  38  39
ATOM     39  C   UNL A   1      40.424  28.099  28.782  1.00  0.00     0.031 A 
ATOM     40  C   UNL A   1      41.784  28.239  29.405  1.00  0.00     0.074 A 
ATOM     41  C   UNL A   1      39.505  29.071  28.931  1.00  0.00     0.049 A 
ATOM     42  N   UNL A   1      42.250  29.200  30.163  1.00  0.00    -0.248 NA
ATOM     43  C   UNL A   1      42.736  27.141  29.172  1.00  0.00     0.031 C 
ATOM     44  C   UNL A   1      38.141  29.043  28.395  1.00  0.00     0.029 A 
ATOM     45  N   UNL A   1      39.574  30.269  29.597  1.00  0.00    -0.354 N 
ATOM     46  C   UNL A   1      43.536  28.811  30.512  1.00  0.00     0.074 A 
ATOM     47  C   UNL A   1      43.761  27.508  29.927  1.00  0.00     0.031 C 
ATOM     48  C   UNL A   1      37.511  30.178  28.737  1.00  0.00     0.029 A 
ATOM     49  C   UNL A   1      38.403  30.989  29.560  1.00  0.00     0.049 A 
ATOM     50  H   UNL A   1      40.385  30.584  30.057  1.00  0.00     0.167 HD
ATOM     51  C   UNL A   1      44.455  29.487  31.242  1.00  0.00     0.031 A 
ATOM     52  C   UNL A   1      38.077  32.159  30.141  1.00  0.00     0.031 A 
ATOM     53  C   UNL A   1      44.230  30.785  31.818  1.00  0.00     0.049 A 
ATOM     54  C   UNL A   1      39.103  32.871  30.981  1.00  0.00     0.074 A 
ATOM     55  C   UNL A   1      45.114  31.576  32.531  1.00  0.00     0.029 A 
ATOM     56  N   UNL A   1      43.032  31.481  31.752  1.00  0.00    -0.354 N 
ATOM     57  N   UNL A   1      40.336  32.519  31.252  1.00  0.00    -0.248 NA
ATOM     58  C   UNL A   1      38.692  34.145  31.588  1.00  0.00     0.031 C 
ATOM     59  C   UNL A   1      44.433  32.722  32.949  1.00  0.00     0.029 A 
ATOM     60  C   UNL A   1      43.146  32.677  32.438  1.00  0.00     0.049 A 
ATOM     61  H   UNL A   1      42.223  31.169  31.287  1.00  0.00     0.167 HD
ATOM     62  C   UNL A   1      40.860  33.545  32.031  1.00  0.00     0.074 A 
ATOM     63  C   UNL A   1      39.813  34.534  32.181  1.00  0.00     0.031 C 
ATOM     64  C   UNL A   1      42.098  33.656  32.570  1.00  0.00     0.031 A 
BRANCH  51  65
ATOM     65  C   UNL A   1      45.785  28.823  31.472  1.00  0.00    -0.014 A 
ATOM     66  C   UNL A   1      46.010  28.003  32.589  1.00  0.00     0.009 A 
ATOM     67  C   UNL A   1      46.819  28.991  30.538  1.00  0.00     0.009 A 
ATOM     68  C   UNL A   1      47.252  27.398  32.785  1.00  0.00     0.001 A 
ATOM     69  C   UNL A   1      48.049  28.359  30.718  1.00  0.00     0.001 A 
ATOM     70  C   UNL A   1      48.269  27.571  31.848  1.00  0.00     0.000 A 
ENDBRANCH  51  65
BRANCH  52  71
ATOM     71  C   UNL A   1      36.719  32.734  29.951  1.00  0.00    -0.014 A 
ATOM     72  C   UNL A   1      36.449  33.578  28.863  1.00  0.00     0.009 A 
ATOM     73  C   UNL A   1      35.688  32.451  30.862  1.00  0.00     0.009 A 
ATOM     74  C   UNL A   1      35.183  34.150  28.707  1.00  0.00     0.001 A 
ATOM     75  C   UNL A   1      34.415  32.999  30.685  1.00  0.00     0.001 A 
ATOM     76  C   UNL A   1      34.168  33.856  29.615  1.00  0.00     0.000 A 
ENDBRANCH  52  71
BRANCH  64  77
ATOM     77  C   UNL A   1      42.413  34.913  33.333  1.00  0.00    -0.014 A 
ATOM     78  C   UNL A   1      42.158  35.019  34.709  1.00  0.00     0.009 A 
ATOM     79  C   UNL A   1      43.036  35.982  32.671  1.00  0.00     0.009 A 
ATOM     80  C   UNL A   1      42.502  36.183  35.401  1.00  0.00     0.001 A 
ATOM     81  C   UNL A   1      43.408  37.130  33.372  1.00  0.00     0.001 A 
ATOM     82  C   UNL A   1      43.134  37.232  34.734  1.00  0.00     0.000 A 
ENDBRANCH  64  77
ENDBRANCH  38  39
ENDBRANCH  30  33
ENDBRANCH  28  29
ENDBRANCH  27  28
ENDBRANCH  26  27
ENDBRANCH  25  26
ENDBRANCH   1  25
TORSDOF 17
ENDMDL
MODEL 3
REMARK VINA RESULT:     -10.5      1.627      7.291
REMARK SMILES CCOc1cccc(-c2ccc([C@@H](C)C(=O)NCCCCCCNC(=O)c3ccc(-c4c5nc(c(-c6ccccc6)c6ccc([nH]6)c(-c6ccccc6)c6nc(c(-c7ccccc7)c7ccc4[nH]7)C=C6)C=C5)cc3)cc2F)c1
REMARK SMILES IDX 19 1 18 2 17 3 15 4 16 5 13 7 14 8 12 9 9 10 10 11 76 12
REMARK SMILES IDX 11 13 75 14 77 15 8 16 4 17 5 18 78 19 6 20 7 21 3 22 2 23
REMARK SMILES IDX 1 24 20 25 21 26 22 27 23 28 24 29 25 30 26 32 27 33 28 34
REMARK SMILES IDX 74 35 29 36 73 37 30 38 31 39 32 40 67 41 33 42 72 43 66 44
REMARK SMILES IDX 68 45 34 46 71 47 65 48 64 49 35 51 57 52 42 53 56 54 43 55
REMARK SMILES IDX 46 56 55 57 69 58 44 59 45 60 54 62 70 63 47 64 36 65 37 66
REMARK SMILES IDX 41 67 38 68 40 69 39 70 58 71 59 72 63 73 60 74 62 75 61 76
REMARK SMILES IDX 48 77 49 78 53 79 50 80 52 81 51 82
REMARK H PARENT 17 6 24 31 68 50 46 61
REMARK Flexibility Score: inf
ROOT
ATOM      1  C   UNL A   1      35.763  21.675  25.715  1.00  0.00     0.021 C 
ENDROOT
BRANCH   1   2
ATOM      2  C   UNL A   1      35.363  20.595  24.706  1.00  0.00     0.116 C 
BRANCH   2   3
ATOM      3  N   UNL A   1      34.399  19.678  25.271  1.00  0.00    -0.356 N 
ATOM      4  C   UNL A   1      33.042  19.636  25.201  1.00  0.00     0.227 C 
ATOM      5  O   UNL A   1      32.485  18.781  25.901  1.00  0.00    -0.274 OA
ATOM      6  H   UNL A   1      34.798  18.950  25.801  1.00  0.00     0.163 HD
BRANCH   4   7
ATOM      7  C   UNL A   1      32.202  20.557  24.303  1.00  0.00     0.105 C 
ATOM      8  C   UNL A   1      32.204  20.157  22.828  1.00  0.00     0.023 C 
BRANCH   7   9
ATOM      9  C   UNL A   1      32.396  22.041  24.573  1.00  0.00    -0.033 A 
ATOM     10  C   UNL A   1      32.665  24.872  24.958  1.00  0.00     0.018 A 
ATOM     11  C   UNL A   1      32.156  24.033  25.960  1.00  0.00     0.012 A 
ATOM     12  C   UNL A   1      33.074  24.240  23.772  1.00  0.00     0.131 A 
ATOM     13  C   UNL A   1      32.067  22.646  25.787  1.00  0.00     0.005 A 
ATOM     14  C   UNL A   1      32.921  22.864  23.569  1.00  0.00     0.044 A 
ATOM     15  F   UNL A   1      33.638  24.942  22.778  1.00  0.00    -0.206 F 
BRANCH  10  16
ATOM     16  C   UNL A   1      32.726  26.340  25.163  1.00  0.00    -0.012 A 
ATOM     17  C   UNL A   1      31.714  28.558  24.957  1.00  0.00     0.119 A 
ATOM     18  C   UNL A   1      32.791  29.138  25.615  1.00  0.00     0.046 A 
ATOM     19  C   UNL A   1      31.693  27.182  24.720  1.00  0.00     0.055 A 
ATOM     20  C   UNL A   1      33.837  28.334  26.059  1.00  0.00     0.004 A 
ATOM     21  C   UNL A   1      33.803  26.954  25.831  1.00  0.00     0.009 A 
BRANCH  17  22
ATOM     22  O   UNL A   1      30.754  29.381  24.435  1.00  0.00    -0.494 OA
BRANCH  22  23
ATOM     23  C   UNL A   1      30.109  28.851  23.271  1.00  0.00     0.226 C 
ATOM     24  C   UNL A   1      30.178  29.802  22.085  1.00  0.00     0.049 C 
ENDBRANCH  22  23
ENDBRANCH  17  22
ENDBRANCH  10  16
ENDBRANCH   7   9
ENDBRANCH   4   7
ENDBRANCH   2   3
ENDBRANCH   1   2
BRANCH   1  25
ATOM     25  C   UNL A   1      36.903  22.573  25.225  1.00  0.00     0.002 C 
BRANCH  25  26
ATOM     26  C   UNL A   1      38.272  22.269  25.850  1.00  0.00     0.002 C 
BRANCH  26  27
ATOM     27  C   UNL A   1      38.913  20.956  25.393  1.00  0.00     0.021 C 
BRANCH  27  28
ATOM     28  C   UNL A   1      39.542  20.146  26.520  1.00  0.00     0.116 C 
BRANCH  28  29
ATOM     29  N   UNL A   1      40.704  19.400  26.058  1.00  0.00    -0.352 N 
ATOM     30  C   UNL A   1      41.983  19.843  25.831  1.00  0.00     0.251 C 
ATOM     31  H   UNL A   1      40.551  18.443  25.886  1.00  0.00     0.163 HD
ATOM     32  O   UNL A   1      42.782  19.161  25.205  1.00  0.00    -0.269 OA
BRANCH  30  33
ATOM     33  C   UNL A   1      42.382  21.167  26.348  1.00  0.00     0.039 A 
ATOM     34  C   UNL A   1      42.732  22.179  25.450  1.00  0.00     0.014 A 
ATOM     35  C   UNL A   1      42.389  21.405  27.724  1.00  0.00     0.014 A 
ATOM     36  C   UNL A   1      43.021  23.456  25.934  1.00  0.00     0.010 A 
ATOM     37  C   UNL A   1      42.602  22.692  28.197  1.00  0.00     0.010 A 
ATOM     38  C   UNL A   1      42.919  23.730  27.307  1.00  0.00    -0.014 A 
BRANCH  38  39
ATOM     39  C   UNL A   1      43.133  25.095  27.850  1.00  0.00     0.031 A 
ATOM     40  C   UNL A   1      44.498  25.503  28.327  1.00  0.00     0.074 A 
ATOM     41  C   UNL A   1      42.085  25.926  28.001  1.00  0.00     0.049 A 
ATOM     42  N   UNL A   1      44.864  26.594  28.952  1.00  0.00    -0.248 NA
ATOM     43  C   UNL A   1      45.593  24.545  28.100  1.00  0.00     0.031 C 
ATOM     44  C   UNL A   1      40.705  25.637  27.602  1.00  0.00     0.029 A 
ATOM     45  N   UNL A   1      42.014  27.181  28.553  1.00  0.00    -0.354 N 
ATOM     46  C   UNL A   1      46.219  26.442  29.209  1.00  0.00     0.074 A 
ATOM     47  C   UNL A   1      46.603  25.137  28.720  1.00  0.00     0.031 C 
ATOM     48  C   UNL A   1      39.931  26.692  27.904  1.00  0.00     0.029 A 
ATOM     49  C   UNL A   1      40.744  27.707  28.566  1.00  0.00     0.049 A 
ATOM     50  H   UNL A   1      42.798  27.660  28.905  1.00  0.00     0.167 HD
ATOM     51  C   UNL A   1      47.073  27.320  29.788  1.00  0.00     0.031 A 
ATOM     52  C   UNL A   1      40.282  28.865  29.072  1.00  0.00     0.031 A 
ATOM     53  C   UNL A   1      46.690  28.619  30.270  1.00  0.00     0.049 A 
ATOM     54  C   UNL A   1      41.244  29.806  29.747  1.00  0.00     0.074 A 
ATOM     55  C   UNL A   1      47.490  29.602  30.825  1.00  0.00     0.029 A 
ATOM     56  N   UNL A   1      45.395  29.114  30.258  1.00  0.00    -0.354 N 
ATOM     57  N   UNL A   1      42.535  29.675  29.928  1.00  0.00    -0.248 NA
ATOM     58  C   UNL A   1      40.685  31.056  30.278  1.00  0.00     0.031 C 
ATOM     59  C   UNL A   1      46.669  30.667  31.206  1.00  0.00     0.029 A 
ATOM     60  C   UNL A   1      45.370  30.376  30.824  1.00  0.00     0.049 A 
ATOM     61  H   UNL A   1      44.611  28.638  29.900  1.00  0.00     0.167 HD
ATOM     62  C   UNL A   1      42.949  30.840  30.563  1.00  0.00     0.074 A 
ATOM     63  C   UNL A   1      41.772  31.669  30.727  1.00  0.00     0.031 C 
ATOM     64  C   UNL A   1      44.192  31.192  30.971  1.00  0.00     0.031 A 
BRANCH  51  65
ATOM     65  C   UNL A   1      48.507  26.892  29.947  1.00  0.00    -0.014 A 
ATOM     66  C   UNL A   1      49.471  27.192  28.971  1.00  0.00     0.009 A 
ATOM     67  C   UNL A   1      48.907  26.210  31.106  1.00  0.00     0.009 A 
ATOM     68  C   UNL A   1      50.796  26.784  29.136  1.00  0.00     0.001 A 
ATOM     69  C   UNL A   1      50.238  25.832  31.284  1.00  0.00     0.001 A 
ATOM     70  C   UNL A   1      51.180  26.110  30.294  1.00  0.00     0.000 A 
ENDBRANCH  51  65
BRANCH  52  71
ATOM     71  C   UNL A   1      38.838  29.205  28.963  1.00  0.00    -0.014 A 
ATOM     72  C   UNL A   1      37.980  29.025  30.058  1.00  0.00     0.009 A 
ATOM     73  C   UNL A   1      38.308  29.702  27.761  1.00  0.00     0.009 A 
ATOM     74  C   UNL A   1      36.616  29.307  29.943  1.00  0.00     0.001 A 
ATOM     75  C   UNL A   1      36.950  30.015  27.660  1.00  0.00     0.001 A 
ATOM     76  C   UNL A   1      36.104  29.805  28.747  1.00  0.00     0.000 A 
ENDBRANCH  52  71
BRANCH  64  77
ATOM     77  C   UNL A   1      44.361  32.552  31.590  1.00  0.00    -0.014 A 
ATOM     78  C   UNL A   1      44.255  32.746  32.976  1.00  0.00     0.009 A 
ATOM     79  C   UNL A   1      44.698  33.643  30.774  1.00  0.00     0.009 A 
ATOM     80  C   UNL A   1      44.461  34.012  33.528  1.00  0.00     0.001 A 
ATOM     81  C   UNL A   1      44.936  34.900  31.332  1.00  0.00     0.001 A 
ATOM     82  C   UNL A   1      44.810  35.085  32.707  1.00  0.00     0.000 A 
ENDBRANCH  64  77
ENDBRANCH  38  39
ENDBRANCH  30  33
ENDBRANCH  28  29
ENDBRANCH  27  28
ENDBRANCH  26  27
ENDBRANCH  25  26
ENDBRANCH   1  25
TORSDOF 17
ENDMDL
