MODEL 1
REMARK VINA RESULT:     -12.1      0.000      0.000
REMARK SMILES O=C(NCCCCCCNC(=O)c1ccc(-c2c3nc(c(-c4ccccc4)c4ccc([nH]4)c(-c4ccccc4)c4nc(c(-c5ccccc5)c5ccc2[nH]5)C=C4)C=C3)cc1)C1=Cc2cc(S(F)(F)(F)(F)F)cc(Br)c2O[C@@H]1C(F)(F)F
REMARK SMILES IDX 7 1 6 2 5 3 4 4 3 5 1 6 2 7 61 9 62 10 77 11 63 12 76 13
REMARK SMILES IDX 64 14 75 15 65 16 73 17 72 18 74 19 78 20 79 21 80 22 81 23
REMARK SMILES IDX 66 24 67 25 68 26 69 27 70 28 71 29 8 30 9 31 10 32 11 33
REMARK SMILES IDX 12 35 13 36 14 37 60 38 15 39 59 40 16 41 17 42 18 43 53 44
REMARK SMILES IDX 19 45 58 46 52 47 54 48 20 49 57 50 51 51 50 52 21 54 43 55
REMARK SMILES IDX 28 56 42 57 29 58 32 59 41 60 55 61 30 62 31 63 40 65 56 66
REMARK SMILES IDX 33 67 22 68 23 69 27 70 24 71 26 72 25 73 44 74 45 75 49 76
REMARK SMILES IDX 46 77 48 78 47 79 34 80 35 81 39 82 36 83 38 84 37 85
REMARK H PARENT 3 8 10 34 54 53 32 64
REMARK Flexibility Score: inf
ROOT
ATOM      1  C   UNL A   1      37.805  21.332  25.152  1.00  0.00     0.002 C 
ENDROOT
BRANCH   1   2
ATOM      2  C   UNL A   1      38.584  22.220  26.110  1.00  0.00     0.002 C 
BRANCH   2   3
ATOM      3  C   UNL A   1      37.975  23.612  26.118  1.00  0.00     0.021 C 
BRANCH   3   4
ATOM      4  C   UNL A   1      36.507  23.526  25.729  1.00  0.00     0.116 C 
BRANCH   4   5
ATOM      5  N   UNL A   1      36.378  23.656  24.271  1.00  0.00    -0.352 N 
ATOM      6  O   UNL A   1      35.086  23.224  22.326  1.00  0.00    -0.270 OA
ATOM      7  C   UNL A   1      35.198  23.112  23.586  1.00  0.00     0.251 C 
ATOM      8  H   UNL A   1      37.083  24.108  23.753  1.00  0.00     0.163 HD
BRANCH   7   9
ATOM      9  C   UNL A   1      34.109  22.413  24.385  1.00  0.00     0.067 C 
ATOM     10  C   UNL A   1      33.156  23.147  25.022  1.00  0.00     0.025 C 
ATOM     11  C   UNL A   1      34.086  20.897  24.473  1.00  0.00     0.314 C 
ATOM     12  C   UNL A   1      33.179  24.664  24.933  1.00  0.00     0.020 A 
ATOM     13  O   UNL A   1      33.744  24.453  22.634  1.00  0.00    -0.474 OA
ATOM     14  C   UNL A   1      32.983  25.414  26.080  1.00  0.00     0.036 A 
ATOM     15  C   UNL A   1      33.388  25.245  23.758  1.00  0.00     0.142 A 
ATOM     16  C   UNL A   1      32.736  26.786  25.834  1.00  0.00     0.109 A 
ATOM     17  C   UNL A   1      33.262  26.607  23.619  1.00  0.00     0.062 A 
ATOM     18  C   UNL A   1      33.010  27.404  24.701  1.00  0.00     0.044 A 
ATOM     19  Br  UNL A   1      33.446  27.417  21.844  1.00  0.00    -0.047 Br
BRANCH  11  20
ATOM     20  C   UNL A   1      32.777  20.376  23.900  1.00  0.00     0.429 C 
ATOM     21  F   UNL A   1      32.472  21.061  22.802  1.00  0.00    -0.167 F 
ATOM     22  F   UNL A   1      32.909  19.087  23.597  1.00  0.00    -0.167 F 
ATOM     23  F   UNL A   1      31.810  20.523  24.799  1.00  0.00    -0.167 F 
ENDBRANCH  11  20
BRANCH  16  24
ATOM     24  S   UNL A   1      31.992  27.759  27.166  1.00  0.00     0.310 S 
ATOM     25  F   UNL A   1      31.674  28.969  26.191  1.00  0.00    -0.094 F 
ATOM     26  F   UNL A   1      33.395  28.426  27.424  1.00  0.00    -0.094 F 
ATOM     27  F   UNL A   1      31.354  28.595  28.312  1.00  0.00    -0.094 F 
ATOM     28  F   UNL A   1      30.567  27.186  26.801  1.00  0.00    -0.094 F 
ATOM     29  F   UNL A   1      32.603  26.990  25.928  1.00  0.00    -0.094 F 
ENDBRANCH  16  24
ENDBRANCH   7   9
ENDBRANCH   4   5
ENDBRANCH   3   4
ENDBRANCH   2   3
ENDBRANCH   1   2
BRANCH   1  30
ATOM     30  C   UNL A   1      38.503  19.988  25.027  1.00  0.00     0.021 C 
BRANCH  30  31
ATOM     31  C   UNL A   1      39.454  19.798  26.198  1.00  0.00     0.116 C 
BRANCH  31  32
ATOM     32  N   UNL A   1      40.545  18.898  25.802  1.00  0.00    -0.352 N 
ATOM     33  C   UNL A   1      41.942  19.338  25.926  1.00  0.00     0.251 C 
ATOM     34  H   UNL A   1      40.341  17.999  25.455  1.00  0.00     0.163 HD
ATOM     35  O   UNL A   1      42.886  18.559  25.583  1.00  0.00    -0.269 OA
BRANCH  33  36
ATOM     36  C   UNL A   1      42.258  20.724  26.462  1.00  0.00     0.039 A 
ATOM     37  C   UNL A   1      42.224  20.950  27.829  1.00  0.00     0.014 A 
ATOM     38  C   UNL A   1      42.564  21.697  25.611  1.00  0.00     0.014 A 
ATOM     39  C   UNL A   1      42.243  22.320  28.184  1.00  0.00     0.010 A 
ATOM     40  C   UNL A   1      42.702  22.992  26.049  1.00  0.00     0.010 A 
ATOM     41  C   UNL A   1      42.621  23.296  27.381  1.00  0.00    -0.014 A 
BRANCH  41  42
ATOM     42  C   UNL A   1      42.947  24.685  27.905  1.00  0.00     0.031 A 
ATOM     43  C   UNL A   1      44.284  24.996  28.153  1.00  0.00     0.074 A 
ATOM     44  C   UNL A   1      41.897  25.566  28.107  1.00  0.00     0.049 A 
ATOM     45  N   UNL A   1      44.784  26.157  28.580  1.00  0.00    -0.248 NA
ATOM     46  C   UNL A   1      45.397  24.052  27.974  1.00  0.00     0.031 C 
ATOM     47  C   UNL A   1      40.546  25.263  27.849  1.00  0.00     0.029 A 
ATOM     48  N   UNL A   1      41.957  26.859  28.578  1.00  0.00    -0.354 N 
ATOM     49  C   UNL A   1      46.113  26.077  28.683  1.00  0.00     0.074 A 
ATOM     50  C   UNL A   1      46.525  24.720  28.299  1.00  0.00     0.031 C 
ATOM     51  C   UNL A   1      39.801  26.353  28.172  1.00  0.00     0.029 A 
ATOM     52  C   UNL A   1      40.673  27.355  28.636  1.00  0.00     0.049 A 
ATOM     53  H   UNL A   1      42.775  27.343  28.831  1.00  0.00     0.167 HD
ATOM     54  C   UNL A   1      46.996  27.082  29.078  1.00  0.00     0.031 A 
ATOM     55  C   UNL A   1      40.267  28.608  29.067  1.00  0.00     0.031 A 
ATOM     56  C   UNL A   1      46.593  28.350  29.468  1.00  0.00     0.049 A 
ATOM     57  C   UNL A   1      41.146  29.596  29.518  1.00  0.00     0.074 A 
ATOM     58  C   UNL A   1      47.471  29.378  29.862  1.00  0.00     0.029 A 
ATOM     59  N   UNL A   1      45.308  28.838  29.549  1.00  0.00    -0.354 N 
ATOM     60  N   UNL A   1      42.477  29.528  29.583  1.00  0.00    -0.248 NA
ATOM     61  C   UNL A   1      40.724  30.914  30.008  1.00  0.00     0.031 C 
ATOM     62  C   UNL A   1      46.725  30.468  30.185  1.00  0.00     0.029 A 
ATOM     63  C   UNL A   1      45.369  30.139  29.999  1.00  0.00     0.049 A 
ATOM     64  H   UNL A   1      44.487  28.343  29.324  1.00  0.00     0.167 HD
ATOM     65  C   UNL A   1      42.973  30.675  30.049  1.00  0.00     0.074 A 
ATOM     66  C   UNL A   1      41.852  31.582  30.335  1.00  0.00     0.031 C 
ATOM     67  C   UNL A   1      44.315  31.006  30.242  1.00  0.00     0.031 A 
BRANCH  54  68
ATOM     68  C   UNL A   1      48.483  26.771  29.081  1.00  0.00    -0.014 A 
ATOM     69  C   UNL A   1      49.269  27.045  27.972  1.00  0.00     0.009 A 
ATOM     70  C   UNL A   1      49.013  26.278  30.195  1.00  0.00     0.009 A 
ATOM     71  C   UNL A   1      50.569  26.491  28.040  1.00  0.00     0.001 A 
ATOM     72  C   UNL A   1      50.328  25.883  30.229  1.00  0.00     0.001 A 
ATOM     73  C   UNL A   1      51.147  26.070  29.151  1.00  0.00     0.000 A 
ENDBRANCH  54  68
BRANCH  55  74
ATOM     74  C   UNL A   1      38.781  28.925  29.048  1.00  0.00    -0.014 A 
ATOM     75  C   UNL A   1      38.227  29.400  27.870  1.00  0.00     0.009 A 
ATOM     76  C   UNL A   1      38.051  28.802  30.151  1.00  0.00     0.009 A 
ATOM     77  C   UNL A   1      36.954  29.996  28.034  1.00  0.00     0.001 A 
ATOM     78  C   UNL A   1      36.766  29.285  30.197  1.00  0.00     0.001 A 
ATOM     79  C   UNL A   1      36.176  29.822  29.087  1.00  0.00     0.000 A 
ENDBRANCH  55  74
BRANCH  67  80
ATOM     80  C   UNL A   1      44.641  32.401  30.750  1.00  0.00    -0.014 A 
ATOM     81  C   UNL A   1      44.747  32.621  32.114  1.00  0.00     0.009 A 
ATOM     82  C   UNL A   1      44.821  33.385  29.877  1.00  0.00     0.009 A 
ATOM     83  C   UNL A   1      44.761  33.990  32.473  1.00  0.00     0.001 A 
ATOM     84  C   UNL A   1      44.964  34.683  30.306  1.00  0.00     0.001 A 
ATOM     85  C   UNL A   1      45.016  34.981  31.639  1.00  0.00     0.000 A 
ENDBRANCH  67  80
ENDBRANCH  41  42
ENDBRANCH  33  36
ENDBRANCH  31  32
ENDBRANCH  30  31
ENDBRANCH   1  30
TORSDOF 15
ENDMDL
MODEL 2
REMARK VINA RESULT:     -12.1      0.300      5.598
REMARK SMILES O=C(NCCCCCCNC(=O)c1ccc(-c2c3nc(c(-c4ccccc4)c4ccc([nH]4)c(-c4ccccc4)c4nc(c(-c5ccccc5)c5ccc2[nH]5)C=C4)C=C3)cc1)C1=Cc2cc(S(F)(F)(F)(F)F)cc(Br)c2O[C@@H]1C(F)(F)F
REMARK SMILES IDX 7 1 6 2 5 3 4 4 3 5 1 6 2 7 61 9 62 10 77 11 63 12 76 13
REMARK SMILES IDX 64 14 75 15 65 16 73 17 72 18 74 19 78 20 79 21 80 22 81 23
REMARK SMILES IDX 66 24 67 25 68 26 69 27 70 28 71 29 8 30 9 31 10 32 11 33
REMARK SMILES IDX 12 35 13 36 14 37 60 38 15 39 59 40 16 41 17 42 18 43 53 44
REMARK SMILES IDX 19 45 58 46 52 47 54 48 20 49 57 50 51 51 50 52 21 54 43 55
REMARK SMILES IDX 28 56 42 57 29 58 32 59 41 60 55 61 30 62 31 63 40 65 56 66
REMARK SMILES IDX 33 67 22 68 23 69 27 70 24 71 26 72 25 73 44 74 45 75 49 76
REMARK SMILES IDX 46 77 48 78 47 79 34 80 35 81 39 82 36 83 38 84 37 85
REMARK H PARENT 3 8 10 34 54 53 32 64
REMARK Flexibility Score: inf
ROOT
ATOM      1  C   UNL A   1      37.816  21.347  25.065  1.00  0.00     0.002 C 
ENDROOT
BRANCH   1   2
ATOM      2  C   UNL A   1      38.460  22.191  26.153  1.00  0.00     0.002 C 
BRANCH   2   3
ATOM      3  C   UNL A   1      37.979  23.627  26.033  1.00  0.00     0.021 C 
BRANCH   3   4
ATOM      4  C   UNL A   1      36.504  23.638  25.663  1.00  0.00     0.116 C 
BRANCH   4   5
ATOM      5  N   UNL A   1      36.366  23.707  24.201  1.00  0.00    -0.352 N 
ATOM      6  O   UNL A   1      35.089  23.148  22.278  1.00  0.00    -0.270 OA
ATOM      7  C   UNL A   1      35.208  23.088  23.541  1.00  0.00     0.251 C 
ATOM      8  H   UNL A   1      37.050  24.167  23.663  1.00  0.00     0.163 HD
BRANCH   7   9
ATOM      9  C   UNL A   1      34.152  22.376  24.371  1.00  0.00     0.067 C 
ATOM     10  C   UNL A   1      33.197  23.097  25.021  1.00  0.00     0.025 C 
ATOM     11  C   UNL A   1      34.161  20.860  24.474  1.00  0.00     0.314 C 
ATOM     12  C   UNL A   1      33.188  24.614  24.917  1.00  0.00     0.020 A 
ATOM     13  O   UNL A   1      33.707  24.391  22.609  1.00  0.00    -0.474 OA
ATOM     14  C   UNL A   1      33.002  25.371  26.062  1.00  0.00     0.036 A 
ATOM     15  C   UNL A   1      33.360  25.187  23.733  1.00  0.00     0.142 A 
ATOM     16  C   UNL A   1      32.722  26.734  25.808  1.00  0.00     0.109 A 
ATOM     17  C   UNL A   1      33.204  26.544  23.584  1.00  0.00     0.062 A 
ATOM     18  C   UNL A   1      32.959  27.347  24.663  1.00  0.00     0.044 A 
ATOM     19  Br  UNL A   1      33.333  27.341  21.797  1.00  0.00    -0.047 Br
BRANCH  11  20
ATOM     20  C   UNL A   1      32.851  20.308  23.934  1.00  0.00     0.429 C 
ATOM     21  F   UNL A   1      32.451  21.046  22.903  1.00  0.00    -0.167 F 
ATOM     22  F   UNL A   1      33.030  19.051  23.537  1.00  0.00    -0.167 F 
ATOM     23  F   UNL A   1      31.927  20.343  24.890  1.00  0.00    -0.167 F 
ENDBRANCH  11  20
BRANCH  16  24
ATOM     24  S   UNL A   1      31.988  27.706  27.147  1.00  0.00     0.310 S 
ATOM     25  F   UNL A   1      31.723  28.943  26.190  1.00  0.00    -0.094 F 
ATOM     26  F   UNL A   1      33.407  28.324  27.439  1.00  0.00    -0.094 F 
ATOM     27  F   UNL A   1      31.358  28.540  28.298  1.00  0.00    -0.094 F 
ATOM     28  F   UNL A   1      30.551  27.184  26.749  1.00  0.00    -0.094 F 
ATOM     29  F   UNL A   1      32.594  26.941  25.904  1.00  0.00    -0.094 F 
ENDBRANCH  16  24
ENDBRANCH   7   9
ENDBRANCH   4   5
ENDBRANCH   3   4
ENDBRANCH   2   3
ENDBRANCH   1   2
BRANCH   1  30
ATOM     30  C   UNL A   1      38.505  19.994  24.998  1.00  0.00     0.021 C 
BRANCH  30  31
ATOM     31  C   UNL A   1      39.477  19.861  26.159  1.00  0.00     0.116 C 
BRANCH  31  32
ATOM     32  N   UNL A   1      40.596  18.995  25.764  1.00  0.00    -0.352 N 
ATOM     33  C   UNL A   1      41.980  19.468  25.916  1.00  0.00     0.251 C 
ATOM     34  H   UNL A   1      40.420  18.098  25.399  1.00  0.00     0.163 HD
ATOM     35  O   UNL A   1      42.948  18.719  25.575  1.00  0.00    -0.269 OA
BRANCH  33  36
ATOM     36  C   UNL A   1      42.252  20.852  26.481  1.00  0.00     0.039 A 
ATOM     37  C   UNL A   1      42.161  21.061  27.848  1.00  0.00     0.014 A 
ATOM     38  C   UNL A   1      42.576  21.840  25.654  1.00  0.00     0.014 A 
ATOM     39  C   UNL A   1      42.146  22.426  28.219  1.00  0.00     0.010 A 
ATOM     40  C   UNL A   1      42.677  23.131  26.112  1.00  0.00     0.010 A 
ATOM     41  C   UNL A   1      42.539  23.418  27.443  1.00  0.00    -0.014 A 
BRANCH  41  42
ATOM     42  C   UNL A   1      42.823  24.805  27.996  1.00  0.00     0.031 A 
ATOM     43  C   UNL A   1      41.755  25.696  28.112  1.00  0.00     0.074 A 
ATOM     44  C   UNL A   1      44.126  25.107  28.354  1.00  0.00     0.049 A 
ATOM     45  N   UNL A   1      41.780  26.938  28.599  1.00  0.00    -0.248 NA
ATOM     46  C   UNL A   1      40.377  25.389  27.699  1.00  0.00     0.031 C 
ATOM     47  C   UNL A   1      45.207  24.211  28.249  1.00  0.00     0.029 A 
ATOM     48  N   UNL A   1      44.608  26.293  28.863  1.00  0.00    -0.354 N 
ATOM     49  C   UNL A   1      40.557  27.472  28.563  1.00  0.00     0.074 A 
ATOM     50  C   UNL A   1      39.639  26.485  27.979  1.00  0.00     0.031 C 
ATOM     51  C   UNL A   1      46.327  24.850  28.677  1.00  0.00     0.029 A 
ATOM     52  C   UNL A   1      45.965  26.156  29.058  1.00  0.00     0.049 A 
ATOM     53  H   UNL A   1      44.076  27.098  29.055  1.00  0.00     0.167 HD
ATOM     54  C   UNL A   1      40.172  28.741  28.998  1.00  0.00     0.031 A 
ATOM     55  C   UNL A   1      46.854  27.105  29.538  1.00  0.00     0.031 A 
ATOM     56  C   UNL A   1      41.054  29.675  29.519  1.00  0.00     0.049 A 
ATOM     57  C   UNL A   1      46.478  28.396  29.919  1.00  0.00     0.074 A 
ATOM     58  C   UNL A   1      40.681  30.957  29.969  1.00  0.00     0.029 A 
ATOM     59  N   UNL A   1      42.414  29.547  29.690  1.00  0.00    -0.354 N 
ATOM     60  N   UNL A   1      45.249  28.915  29.921  1.00  0.00    -0.248 NA
ATOM     61  C   UNL A   1      47.415  29.420  30.398  1.00  0.00     0.031 C 
ATOM     62  C   UNL A   1      41.802  31.595  30.397  1.00  0.00     0.029 A 
ATOM     63  C   UNL A   1      42.894  30.724  30.221  1.00  0.00     0.049 A 
ATOM     64  H   UNL A   1      42.951  28.751  29.472  1.00  0.00     0.167 HD
ATOM     65  C   UNL A   1      45.282  30.171  30.369  1.00  0.00     0.074 A 
ATOM     66  C   UNL A   1      46.677  30.517  30.676  1.00  0.00     0.031 C 
ATOM     67  C   UNL A   1      44.205  31.042  30.539  1.00  0.00     0.031 A 
BRANCH  54  68
ATOM     68  C   UNL A   1      38.704  29.120  28.896  1.00  0.00    -0.014 A 
ATOM     69  C   UNL A   1      38.180  29.616  27.712  1.00  0.00     0.009 A 
ATOM     70  C   UNL A   1      37.933  28.911  29.956  1.00  0.00     0.009 A 
ATOM     71  C   UNL A   1      36.870  30.136  27.839  1.00  0.00     0.001 A 
ATOM     72  C   UNL A   1      36.623  29.324  29.961  1.00  0.00     0.001 A 
ATOM     73  C   UNL A   1      36.056  29.876  28.846  1.00  0.00     0.000 A 
ENDBRANCH  54  68
BRANCH  55  74
ATOM     74  C   UNL A   1      48.319  26.720  29.656  1.00  0.00    -0.014 A 
ATOM     75  C   UNL A   1      49.133  26.889  28.548  1.00  0.00     0.009 A 
ATOM     76  C   UNL A   1      48.786  26.183  30.777  1.00  0.00     0.009 A 
ATOM     77  C   UNL A   1      50.361  26.191  28.626  1.00  0.00     0.001 A 
ATOM     78  C   UNL A   1      50.047  25.641  30.821  1.00  0.00     0.001 A 
ATOM     79  C   UNL A   1      50.884  25.719  29.743  1.00  0.00     0.000 A 
ENDBRANCH  55  74
BRANCH  67  80
ATOM     80  C   UNL A   1      44.486  32.423  31.109  1.00  0.00    -0.014 A 
ATOM     81  C   UNL A   1      44.442  32.616  32.479  1.00  0.00     0.009 A 
ATOM     82  C   UNL A   1      44.771  33.422  30.281  1.00  0.00     0.009 A 
ATOM     83  C   UNL A   1      44.429  33.977  32.866  1.00  0.00     0.001 A 
ATOM     84  C   UNL A   1      44.879  34.710  30.750  1.00  0.00     0.001 A 
ATOM     85  C   UNL A   1      44.786  34.981  32.087  1.00  0.00     0.000 A 
ENDBRANCH  67  80
ENDBRANCH  41  42
ENDBRANCH  33  36
ENDBRANCH  31  32
ENDBRANCH  30  31
ENDBRANCH   1  30
TORSDOF 15
ENDMDL
MODEL 3
REMARK VINA RESULT:     -12.0      2.924      6.992
REMARK SMILES O=C(NCCCCCCNC(=O)c1ccc(-c2c3nc(c(-c4ccccc4)c4ccc([nH]4)c(-c4ccccc4)c4nc(c(-c5ccccc5)c5ccc2[nH]5)C=C4)C=C3)cc1)C1=Cc2cc(S(F)(F)(F)(F)F)cc(Br)c2O[C@@H]1C(F)(F)F
REMARK SMILES IDX 7 1 6 2 5 3 4 4 3 5 1 6 2 7 61 9 62 10 77 11 63 12 76 13
REMARK SMILES IDX 64 14 75 15 65 16 73 17 72 18 74 19 78 20 79 21 80 22 81 23
REMARK SMILES IDX 66 24 67 25 68 26 69 27 70 28 71 29 8 30 9 31 10 32 11 33
REMARK SMILES IDX 12 35 13 36 14 37 60 38 15 39 59 40 16 41 17 42 18 43 53 44
REMARK SMILES IDX 19 45 58 46 52 47 54 48 20 49 57 50 51 51 50 52 21 54 43 55
REMARK SMILES IDX 28 56 42 57 29 58 32 59 41 60 55 61 30 62 31 63 40 65 56 66
REMARK SMILES IDX 33 67 22 68 23 69 27 70 24 71 26 72 25 73 44 74 45 75 49 76
REMARK SMILES IDX 46 77 48 78 47 79 34 80 35 81 39 82 36 83 38 84 37 85
REMARK H PARENT 3 8 10 34 54 53 32 64
REMARK Flexibility Score: inf
ROOT
ATOM      1  C   UNL A   1      34.620  23.535  25.770  1.00  0.00     0.002 C 
ENDROOT
BRANCH   1   2
ATOM      2  C   UNL A   1      34.504  22.473  24.688  1.00  0.00     0.002 C 
BRANCH   2   3
ATOM      3  C   UNL A   1      34.084  23.126  23.381  1.00  0.00     0.021 C 
BRANCH   3   4
ATOM      4  C   UNL A   1      33.480  24.492  23.669  1.00  0.00     0.116 C 
BRANCH   4   5
ATOM      5  N   UNL A   1      32.145  24.576  23.059  1.00  0.00    -0.352 N 
ATOM      6  O   UNL A   1      29.792  24.479  23.365  1.00  0.00    -0.270 OA
ATOM      7  C   UNL A   1      30.946  24.407  23.891  1.00  0.00     0.251 C 
ATOM      8  H   UNL A   1      32.055  24.746  22.094  1.00  0.00     0.163 HD
BRANCH   7   9
ATOM      9  C   UNL A   1      31.086  24.145  25.382  1.00  0.00     0.067 C 
ATOM     10  C   UNL A   1      31.428  25.159  26.222  1.00  0.00     0.025 C 
ATOM     11  C   UNL A   1      30.842  22.750  25.934  1.00  0.00     0.314 C 
ATOM     12  C   UNL A   1      31.671  26.555  25.669  1.00  0.00     0.020 A 
ATOM     13  O   UNL A   1      29.795  26.242  24.244  1.00  0.00    -0.474 OA
ATOM     14  C   UNL A   1      32.774  27.272  26.100  1.00  0.00     0.036 A 
ATOM     15  C   UNL A   1      30.822  27.061  24.783  1.00  0.00     0.142 A 
ATOM     16  C   UNL A   1      32.739  28.643  25.750  1.00  0.00     0.109 A 
ATOM     17  C   UNL A   1      30.929  28.372  24.383  1.00  0.00     0.062 A 
ATOM     18  C   UNL A   1      31.962  29.157  24.815  1.00  0.00     0.044 A 
ATOM     19  Br  UNL A   1      29.581  29.126  23.176  1.00  0.00    -0.047 Br
BRANCH  11  20
ATOM     20  C   UNL A   1      29.703  22.795  26.941  1.00  0.00     0.429 C 
ATOM     21  F   UNL A   1      29.077  23.965  26.848  1.00  0.00    -0.167 F 
ATOM     22  F   UNL A   1      28.845  21.812  26.683  1.00  0.00    -0.167 F 
ATOM     23  F   UNL A   1      30.190  22.648  28.169  1.00  0.00    -0.167 F 
ENDBRANCH  11  20
BRANCH  16  24
ATOM     24  S   UNL A   1      33.837  29.769  26.646  1.00  0.00     0.310 S 
ATOM     25  F   UNL A   1      34.012  28.746  27.845  1.00  0.00    -0.094 F 
ATOM     26  F   UNL A   1      32.582  30.340  27.408  1.00  0.00    -0.094 F 
ATOM     27  F   UNL A   1      34.778  30.738  27.415  1.00  0.00    -0.094 F 
ATOM     28  F   UNL A   1      35.095  29.089  25.977  1.00  0.00    -0.094 F 
ATOM     29  F   UNL A   1      32.905  28.704  25.943  1.00  0.00    -0.094 F 
ENDBRANCH  16  24
ENDBRANCH   7   9
ENDBRANCH   4   5
ENDBRANCH   3   4
ENDBRANCH   2   3
ENDBRANCH   1   2
BRANCH   1  30
ATOM     30  C   UNL A   1      35.961  23.396  26.473  1.00  0.00     0.021 C 
BRANCH  30  31
ATOM     31  C   UNL A   1      37.070  23.872  25.549  1.00  0.00     0.116 C 
BRANCH  31  32
ATOM     32  N   UNL A   1      38.115  22.842  25.468  1.00  0.00    -0.352 N 
ATOM     33  C   UNL A   1      39.420  23.068  26.105  1.00  0.00     0.251 C 
ATOM     34  H   UNL A   1      37.941  22.001  24.987  1.00  0.00     0.163 HD
ATOM     35  O   UNL A   1      40.324  22.177  26.035  1.00  0.00    -0.269 OA
BRANCH  33  36
ATOM     36  C   UNL A   1      39.689  24.366  26.849  1.00  0.00     0.039 A 
ATOM     37  C   UNL A   1      40.391  25.380  26.218  1.00  0.00     0.014 A 
ATOM     38  C   UNL A   1      39.243  24.507  28.092  1.00  0.00     0.014 A 
ATOM     39  C   UNL A   1      40.829  26.403  27.092  1.00  0.00     0.010 A 
ATOM     40  C   UNL A   1      39.600  25.601  28.843  1.00  0.00     0.010 A 
ATOM     41  C   UNL A   1      40.344  26.613  28.301  1.00  0.00    -0.014 A 
BRANCH  41  42
ATOM     42  C   UNL A   1      40.599  27.910  29.053  1.00  0.00     0.031 A 
ATOM     43  C   UNL A   1      39.608  28.892  29.023  1.00  0.00     0.074 A 
ATOM     44  C   UNL A   1      41.801  28.043  29.727  1.00  0.00     0.049 A 
ATOM     45  N   UNL A   1      39.617  30.076  29.637  1.00  0.00    -0.248 NA
ATOM     46  C   UNL A   1      38.346  28.766  28.278  1.00  0.00     0.031 C 
ATOM     47  C   UNL A   1      42.802  27.053  29.771  1.00  0.00     0.029 A 
ATOM     48  N   UNL A   1      42.243  29.123  30.460  1.00  0.00    -0.354 N 
ATOM     49  C   UNL A   1      38.483  30.734  29.385  1.00  0.00     0.074 A 
ATOM     50  C   UNL A   1      37.652  29.903  28.504  1.00  0.00     0.031 C 
ATOM     51  C   UNL A   1      43.837  27.533  30.509  1.00  0.00     0.029 A 
ATOM     52  C   UNL A   1      43.501  28.830  30.940  1.00  0.00     0.049 A 
ATOM     53  H   UNL A   1      41.747  29.958  30.614  1.00  0.00     0.167 HD
ATOM     54  C   UNL A   1      38.109  31.992  29.859  1.00  0.00     0.031 A 
ATOM     55  C   UNL A   1      44.325  29.636  31.709  1.00  0.00     0.031 A 
ATOM     56  C   UNL A   1      38.915  32.781  30.665  1.00  0.00     0.049 A 
ATOM     57  C   UNL A   1      43.974  30.919  32.136  1.00  0.00     0.074 A 
ATOM     58  C   UNL A   1      38.550  34.049  31.157  1.00  0.00     0.029 A 
ATOM     59  N   UNL A   1      40.182  32.499  31.124  1.00  0.00    -0.354 N 
ATOM     60  N   UNL A   1      42.824  31.561  31.917  1.00  0.00    -0.248 NA
ATOM     61  C   UNL A   1      44.851  31.795  32.924  1.00  0.00     0.031 C 
ATOM     62  C   UNL A   1      39.586  34.528  31.896  1.00  0.00     0.029 A 
ATOM     63  C   UNL A   1      40.616  33.569  31.876  1.00  0.00     0.049 A 
ATOM     64  H   UNL A   1      40.690  31.675  30.946  1.00  0.00     0.167 HD
ATOM     65  C   UNL A   1      42.851  32.762  32.497  1.00  0.00     0.074 A 
ATOM     66  C   UNL A   1      44.157  32.933  33.147  1.00  0.00     0.031 C 
ATOM     67  C   UNL A   1      41.836  33.720  32.515  1.00  0.00     0.031 A 
BRANCH  54  68
ATOM     68  C   UNL A   1      36.741  32.528  29.470  1.00  0.00    -0.014 A 
ATOM     69  C   UNL A   1      36.574  33.281  28.319  1.00  0.00     0.009 A 
ATOM     70  C   UNL A   1      35.706  32.207  30.238  1.00  0.00     0.009 A 
ATOM     71  C   UNL A   1      35.305  33.898  28.215  1.00  0.00     0.001 A 
ATOM     72  C   UNL A   1      34.464  32.741  29.997  1.00  0.00     0.001 A 
ATOM     73  C   UNL A   1      34.241  33.540  28.912  1.00  0.00     0.000 A 
ENDBRANCH  54  68
BRANCH  55  74
ATOM     74  C   UNL A   1      45.686  29.093  32.112  1.00  0.00    -0.014 A 
ATOM     75  C   UNL A   1      45.792  28.421  33.319  1.00  0.00     0.009 A 
ATOM     76  C   UNL A   1      46.750  29.311  31.350  1.00  0.00     0.009 A 
ATOM     77  C   UNL A   1      47.122  28.269  33.776  1.00  0.00     0.001 A 
ATOM     78  C   UNL A   1      48.011  29.012  31.807  1.00  0.00     0.001 A 
ATOM     79  C   UNL A   1      48.194  28.401  33.016  1.00  0.00     0.000 A 
ENDBRANCH  55  74
BRANCH  67  80
ATOM     80  C   UNL A   1      42.085  35.009  33.282  1.00  0.00    -0.014 A 
ATOM     81  C   UNL A   1      42.854  36.006  32.704  1.00  0.00     0.009 A 
ATOM     82  C   UNL A   1      41.560  35.157  34.492  1.00  0.00     0.009 A 
ATOM     83  C   UNL A   1      43.255  37.017  33.611  1.00  0.00     0.001 A 
ATOM     84  C   UNL A   1      41.891  36.241  35.271  1.00  0.00     0.001 A 
ATOM     85  C   UNL A   1      42.695  37.235  34.786  1.00  0.00     0.000 A 
ENDBRANCH  67  80
ENDBRANCH  41  42
ENDBRANCH  33  36
ENDBRANCH  31  32
ENDBRANCH  30  31
ENDBRANCH   1  30
TORSDOF 15
ENDMDL
