MODEL 1
REMARK VINA RESULT:     -12.0      0.000      0.000
REMARK SMILES Cc1n[nH]c2c1[C@@]1(C(=O)N([C@@H](C)C(=O)NCCCCCCNC(=O)c3ccc(-c4c5nc(c(-c6ccccc6)c6ccc([nH]6)c(-c6ccccc6)c6nc(c(-c7ccccc7)c7ccc4[nH]7)C=C6)C=C5)cc3)c3ccccc31)C(C#N)=C(N)O2
REMARK SMILES IDX 18 1 17 2 16 3 15 4 13 5 14 6 11 8 12 9 10 10 1 11 2 12 3 13
REMARK SMILES IDX 6 14 4 15 5 16 7 17 84 19 8 20 78 21 79 22 82 23 9 24 73 25
REMARK SMILES IDX 77 26 74 27 76 28 75 29 80 30 81 31 83 32 19 35 20 36 21 37
REMARK SMILES IDX 22 38 23 39 24 41 25 42 26 43 72 44 27 45 71 46 28 47 29 48
REMARK SMILES IDX 30 49 65 50 31 51 70 52 64 53 66 54 32 55 69 56 63 57 62 58
REMARK SMILES IDX 33 60 55 61 40 62 54 63 41 64 44 65 53 66 67 67 42 68 43 69
REMARK SMILES IDX 52 71 68 72 45 73 34 74 35 75 39 76 36 77 38 78 37 79 56 80
REMARK SMILES IDX 57 81 61 82 58 83 60 84 59 85 46 86 47 87 51 88 48 89 50 90
REMARK SMILES IDX 49 91
REMARK H PARENT 15 7 4 18 83 33 83 34 22 40 66 59 44 70
REMARK Flexibility Score: inf
ROOT
ATOM      1  C   UNL A   1      35.774  22.982  26.132  1.00  0.00     0.002 C 
ENDROOT
BRANCH   1   2
ATOM      2  C   UNL A   1      34.503  22.820  26.957  1.00  0.00     0.021 C 
BRANCH   2   3
ATOM      3  C   UNL A   1      33.239  22.491  26.155  1.00  0.00     0.116 C 
BRANCH   3   4
ATOM      4  N   UNL A   1      32.039  22.921  26.857  1.00  0.00    -0.354 N 
ATOM      5  C   UNL A   1      30.913  23.572  26.465  1.00  0.00     0.242 C 
ATOM      6  O   UNL A   1      30.109  23.847  27.369  1.00  0.00    -0.273 OA
ATOM      7  H   UNL A   1      32.045  22.693  27.815  1.00  0.00     0.163 HD
BRANCH   5   8
ATOM      8  C   UNL A   1      30.590  24.023  25.019  1.00  0.00     0.176 C 
ATOM      9  C   UNL A   1      31.005  23.057  23.915  1.00  0.00     0.042 C 
BRANCH   8  10
ATOM     10  N   UNL A   1      30.922  25.423  24.762  1.00  0.00    -0.298 N 
ATOM     11  C   UNL A   1      32.822  26.113  21.521  1.00  0.00     0.069 C 
ATOM     12  C   UNL A   1      33.347  27.328  22.194  1.00  0.00     0.068 A 
ATOM     13  N   UNL A   1      34.336  28.029  21.611  1.00  0.00    -0.177 NA
ATOM     14  C   UNL A   1      33.016  27.864  23.466  1.00  0.00     0.063 A 
ATOM     15  N   UNL A   1      34.677  28.952  22.530  1.00  0.00    -0.246 N 
ATOM     16  C   UNL A   1      33.929  28.868  23.658  1.00  0.00     0.222 A 
ATOM     17  C   UNL A   1      32.111  27.469  24.585  1.00  0.00     0.149 C 
ATOM     18  H   UNL A   1      35.391  29.617  22.396  1.00  0.00     0.193 HD
ATOM     19  O   UNL A   1      34.136  29.585  24.753  1.00  0.00    -0.422 OA
ATOM     20  C   UNL A   1      32.211  25.952  24.804  1.00  0.00     0.248 C 
ATOM     21  C   UNL A   1      30.688  27.622  24.119  1.00  0.00     0.002 A 
ATOM     22  C   UNL A   1      32.433  28.255  25.859  1.00  0.00     0.114 C 
ATOM     23  C   UNL A   1      33.379  29.238  25.885  1.00  0.00     0.208 C 
ATOM     24  O   UNL A   1      33.263  25.326  24.900  1.00  0.00    -0.273 OA
ATOM     25  C   UNL A   1      30.016  26.402  24.299  1.00  0.00     0.050 A 
ATOM     26  C   UNL A   1      30.039  28.735  23.601  1.00  0.00     0.008 A 
ATOM     27  C   UNL A   1      28.679  26.277  23.969  1.00  0.00     0.027 A 
ATOM     28  C   UNL A   1      28.698  28.608  23.244  1.00  0.00     0.001 A 
ATOM     29  C   UNL A   1      28.023  27.392  23.432  1.00  0.00     0.002 A 
BRANCH  22  30
ATOM     30  C   UNL A   1      31.662  28.008  27.145  1.00  0.00     0.102 C 
ATOM     31  N   UNL A   1      31.021  27.803  28.212  1.00  0.00    -0.193 NA
ENDBRANCH  22  30
BRANCH  23  32
ATOM     32  N   UNL A   1      33.698  29.999  26.972  1.00  0.00    -0.369 N 
ATOM     33  H   UNL A   1      33.775  30.977  26.882  1.00  0.00     0.159 HD
ATOM     34  H   UNL A   1      33.853  29.572  27.845  1.00  0.00     0.159 HD
ENDBRANCH  23  32
ENDBRANCH   8  10
ENDBRANCH   5   8
ENDBRANCH   3   4
ENDBRANCH   2   3
ENDBRANCH   1   2
BRANCH   1  35
ATOM     35  C   UNL A   1      36.214  21.707  25.404  1.00  0.00     0.002 C 
BRANCH  35  36
ATOM     36  C   UNL A   1      37.729  21.490  25.282  1.00  0.00     0.021 C 
BRANCH  36  37
ATOM     37  C   UNL A   1      38.596  22.468  26.078  1.00  0.00     0.116 C 
BRANCH  37  38
ATOM     38  N   UNL A   1      40.011  22.159  26.046  1.00  0.00    -0.352 N 
ATOM     39  C   UNL A   1      41.156  22.813  26.407  1.00  0.00     0.251 C 
ATOM     40  H   UNL A   1      40.191  21.265  25.676  1.00  0.00     0.163 HD
ATOM     41  O   UNL A   1      42.210  22.192  26.245  1.00  0.00    -0.269 OA
BRANCH  39  42
ATOM     42  C   UNL A   1      41.226  24.208  26.930  1.00  0.00     0.039 A 
ATOM     43  C   UNL A   1      41.676  24.587  28.194  1.00  0.00     0.014 A 
ATOM     44  C   UNL A   1      40.775  25.218  26.059  1.00  0.00     0.014 A 
ATOM     45  C   UNL A   1      41.591  25.914  28.611  1.00  0.00     0.010 A 
ATOM     46  C   UNL A   1      40.721  26.552  26.457  1.00  0.00     0.010 A 
ATOM     47  C   UNL A   1      41.084  26.897  27.756  1.00  0.00    -0.014 A 
BRANCH  47  48
ATOM     48  C   UNL A   1      40.974  28.260  28.277  1.00  0.00     0.031 A 
ATOM     49  C   UNL A   1      42.098  29.202  27.990  1.00  0.00     0.074 A 
ATOM     50  C   UNL A   1      39.889  28.732  28.921  1.00  0.00     0.049 A 
ATOM     51  N   UNL A   1      42.837  29.857  28.830  1.00  0.00    -0.248 NA
ATOM     52  C   UNL A   1      42.451  29.427  26.581  1.00  0.00     0.031 C 
ATOM     53  C   UNL A   1      38.563  28.121  29.046  1.00  0.00     0.029 A 
ATOM     54  N   UNL A   1      39.733  29.944  29.529  1.00  0.00    -0.354 N 
ATOM     55  C   UNL A   1      43.679  30.667  28.066  1.00  0.00     0.074 A 
ATOM     56  C   UNL A   1      43.437  30.319  26.687  1.00  0.00     0.031 C 
ATOM     57  C   UNL A   1      37.685  29.053  29.479  1.00  0.00     0.029 A 
ATOM     58  C   UNL A   1      38.418  30.261  29.817  1.00  0.00     0.049 A 
ATOM     59  H   UNL A   1      40.488  30.539  29.744  1.00  0.00     0.167 HD
ATOM     60  C   UNL A   1      44.449  31.656  28.600  1.00  0.00     0.031 A 
ATOM     61  C   UNL A   1      37.952  31.455  30.246  1.00  0.00     0.031 A 
ATOM     62  C   UNL A   1      44.600  31.536  30.020  1.00  0.00     0.049 A 
ATOM     63  C   UNL A   1      39.074  32.202  30.851  1.00  0.00     0.074 A 
ATOM     64  C   UNL A   1      45.205  30.631  30.867  1.00  0.00     0.029 A 
ATOM     65  N   UNL A   1      43.817  32.332  30.816  1.00  0.00    -0.354 N 
ATOM     66  N   UNL A   1      39.677  31.848  31.949  1.00  0.00    -0.248 NA
ATOM     67  C   UNL A   1      39.767  33.203  30.056  1.00  0.00     0.031 C 
ATOM     68  C   UNL A   1      44.407  30.635  32.048  1.00  0.00     0.029 A 
ATOM     69  C   UNL A   1      43.369  31.552  31.850  1.00  0.00     0.049 A 
ATOM     70  H   UNL A   1      43.614  33.285  30.671  1.00  0.00     0.167 HD
ATOM     71  C   UNL A   1      40.988  32.264  31.787  1.00  0.00     0.074 A 
ATOM     72  C   UNL A   1      40.947  33.212  30.679  1.00  0.00     0.031 C 
ATOM     73  C   UNL A   1      42.022  31.594  32.379  1.00  0.00     0.031 A 
BRANCH  60  74
ATOM     74  C   UNL A   1      44.891  32.895  27.864  1.00  0.00    -0.014 A 
ATOM     75  C   UNL A   1      44.033  33.632  27.028  1.00  0.00     0.009 A 
ATOM     76  C   UNL A   1      46.122  33.495  28.195  1.00  0.00     0.009 A 
ATOM     77  C   UNL A   1      44.385  34.892  26.532  1.00  0.00     0.001 A 
ATOM     78  C   UNL A   1      46.461  34.774  27.734  1.00  0.00     0.001 A 
ATOM     79  C   UNL A   1      45.592  35.472  26.901  1.00  0.00     0.000 A 
ENDBRANCH  60  74
BRANCH  61  80
ATOM     80  C   UNL A   1      36.686  32.103  29.848  1.00  0.00    -0.014 A 
ATOM     81  C   UNL A   1      36.425  32.345  28.486  1.00  0.00     0.009 A 
ATOM     82  C   UNL A   1      35.864  32.726  30.797  1.00  0.00     0.009 A 
ATOM     83  C   UNL A   1      35.400  33.204  28.085  1.00  0.00     0.001 A 
ATOM     84  C   UNL A   1      34.837  33.589  30.395  1.00  0.00     0.001 A 
ATOM     85  C   UNL A   1      34.615  33.839  29.042  1.00  0.00     0.000 A 
ENDBRANCH  61  80
BRANCH  73  86
ATOM     86  C   UNL A   1      41.694  30.564  33.434  1.00  0.00    -0.014 A 
ATOM     87  C   UNL A   1      41.880  30.896  34.785  1.00  0.00     0.009 A 
ATOM     88  C   UNL A   1      41.400  29.227  33.113  1.00  0.00     0.009 A 
ATOM     89  C   UNL A   1      41.787  29.922  35.783  1.00  0.00     0.001 A 
ATOM     90  C   UNL A   1      41.284  28.256  34.113  1.00  0.00     0.001 A 
ATOM     91  C   UNL A   1      41.488  28.603  35.446  1.00  0.00     0.000 A 
ENDBRANCH  73  86
ENDBRANCH  47  48
ENDBRANCH  39  42
ENDBRANCH  37  38
ENDBRANCH  36  37
ENDBRANCH  35  36
ENDBRANCH   1  35
TORSDOF 16
ENDMDL
MODEL 2
REMARK VINA RESULT:     -11.8      2.403      7.894
REMARK SMILES Cc1n[nH]c2c1[C@@]1(C(=O)N([C@@H](C)C(=O)NCCCCCCNC(=O)c3ccc(-c4c5nc(c(-c6ccccc6)c6ccc([nH]6)c(-c6ccccc6)c6nc(c(-c7ccccc7)c7ccc4[nH]7)C=C6)C=C5)cc3)c3ccccc31)C(C#N)=C(N)O2
REMARK SMILES IDX 18 1 17 2 16 3 15 4 13 5 14 6 11 8 12 9 10 10 1 11 2 12 3 13
REMARK SMILES IDX 6 14 4 15 5 16 7 17 84 19 8 20 78 21 79 22 82 23 9 24 73 25
REMARK SMILES IDX 77 26 74 27 76 28 75 29 80 30 81 31 83 32 19 35 20 36 21 37
REMARK SMILES IDX 22 38 23 39 24 41 25 42 26 43 72 44 27 45 71 46 28 47 29 48
REMARK SMILES IDX 30 49 65 50 31 51 70 52 64 53 66 54 32 55 69 56 63 57 62 58
REMARK SMILES IDX 33 60 55 61 40 62 54 63 41 64 44 65 53 66 67 67 42 68 43 69
REMARK SMILES IDX 52 71 68 72 45 73 34 74 35 75 39 76 36 77 38 78 37 79 56 80
REMARK SMILES IDX 57 81 61 82 58 83 60 84 59 85 46 86 47 87 51 88 48 89 50 90
REMARK SMILES IDX 49 91
REMARK H PARENT 15 7 4 18 83 33 83 34 22 40 66 59 44 70
REMARK Flexibility Score: inf
ROOT
ATOM      1  C   UNL A   1      35.448  31.600  27.633  1.00  0.00     0.002 C 
ENDROOT
BRANCH   1   2
ATOM      2  C   UNL A   1      36.205  30.284  27.772  1.00  0.00     0.021 C 
BRANCH   2   3
ATOM      3  C   UNL A   1      35.560  29.080  27.076  1.00  0.00     0.116 C 
BRANCH   3   4
ATOM      4  N   UNL A   1      34.243  29.413  26.555  1.00  0.00    -0.354 N 
ATOM      5  C   UNL A   1      33.577  29.075  25.421  1.00  0.00     0.242 C 
ATOM      6  O   UNL A   1      32.471  29.615  25.265  1.00  0.00    -0.273 OA
ATOM      7  H   UNL A   1      33.728  30.007  27.148  1.00  0.00     0.163 HD
BRANCH   5   8
ATOM      8  C   UNL A   1      34.102  28.123  24.317  1.00  0.00     0.176 C 
ATOM      9  C   UNL A   1      33.988  28.639  22.887  1.00  0.00     0.042 C 
BRANCH   8  10
ATOM     10  N   UNL A   1      33.681  26.736  24.500  1.00  0.00    -0.298 N 
ATOM     11  C   UNL A   1      30.000  26.219  25.381  1.00  0.00     0.069 C 
ATOM     12  C   UNL A   1      30.425  24.946  26.018  1.00  0.00     0.068 A 
ATOM     13  N   UNL A   1      29.547  24.261  26.771  1.00  0.00    -0.177 NA
ATOM     14  C   UNL A   1      31.706  24.334  26.034  1.00  0.00     0.063 A 
ATOM     15  N   UNL A   1      30.276  23.268  27.314  1.00  0.00    -0.246 N 
ATOM     16  C   UNL A   1      31.573  23.294  26.917  1.00  0.00     0.222 A 
ATOM     17  C   UNL A   1      33.056  24.676  25.497  1.00  0.00     0.149 C 
ATOM     18  H   UNL A   1      29.907  22.595  27.931  1.00  0.00     0.193 HD
ATOM     19  O   UNL A   1      32.521  22.499  27.390  1.00  0.00    -0.422 OA
ATOM     20  C   UNL A   1      33.326  26.170  25.724  1.00  0.00     0.248 C 
ATOM     21  C   UNL A   1      33.004  24.594  23.996  1.00  0.00     0.002 A 
ATOM     22  C   UNL A   1      34.138  23.796  26.128  1.00  0.00     0.114 C 
ATOM     23  C   UNL A   1      33.839  22.788  26.999  1.00  0.00     0.208 C 
ATOM     24  O   UNL A   1      33.156  26.760  26.787  1.00  0.00    -0.273 OA
ATOM     25  C   UNL A   1      33.437  25.816  23.457  1.00  0.00     0.050 A 
ATOM     26  C   UNL A   1      32.626  23.536  23.178  1.00  0.00     0.008 A 
ATOM     27  C   UNL A   1      33.507  25.999  22.088  1.00  0.00     0.027 A 
ATOM     28  C   UNL A   1      32.672  23.723  21.798  1.00  0.00     0.001 A 
ATOM     29  C   UNL A   1      33.113  24.941  21.258  1.00  0.00     0.002 A 
BRANCH  22  30
ATOM     30  C   UNL A   1      35.602  23.974  25.761  1.00  0.00     0.102 C 
ATOM     31  N   UNL A   1      36.817  24.123  25.456  1.00  0.00    -0.193 NA
ENDBRANCH  22  30
BRANCH  23  32
ATOM     32  N   UNL A   1      34.745  21.945  27.574  1.00  0.00    -0.369 N 
ATOM     33  H   UNL A   1      35.682  22.227  27.679  1.00  0.00     0.159 HD
ATOM     34  H   UNL A   1      34.461  21.054  27.884  1.00  0.00     0.159 HD
ENDBRANCH  23  32
ENDBRANCH   8  10
ENDBRANCH   5   8
ENDBRANCH   3   4
ENDBRANCH   2   3
ENDBRANCH   1   2
BRANCH   1  35
ATOM     35  C   UNL A   1      36.242  32.829  28.085  1.00  0.00     0.002 C 
BRANCH  35  36
ATOM     36  C   UNL A   1      35.555  33.731  29.121  1.00  0.00     0.021 C 
BRANCH  36  37
ATOM     37  C   UNL A   1      34.394  33.086  29.883  1.00  0.00     0.116 C 
BRANCH  37  38
ATOM     38  N   UNL A   1      34.597  33.018  31.316  1.00  0.00    -0.352 N 
ATOM     39  C   UNL A   1      35.484  32.387  32.142  1.00  0.00     0.251 C 
ATOM     40  H   UNL A   1      33.938  33.554  31.813  1.00  0.00     0.163 HD
ATOM     41  O   UNL A   1      35.347  32.599  33.349  1.00  0.00    -0.269 OA
BRANCH  39  42
ATOM     42  C   UNL A   1      36.557  31.448  31.702  1.00  0.00     0.039 A 
ATOM     43  C   UNL A   1      36.405  30.081  31.475  1.00  0.00     0.014 A 
ATOM     44  C   UNL A   1      37.836  32.011  31.523  1.00  0.00     0.014 A 
ATOM     45  C   UNL A   1      37.508  29.284  31.173  1.00  0.00     0.010 A 
ATOM     46  C   UNL A   1      38.936  31.225  31.187  1.00  0.00     0.010 A 
ATOM     47  C   UNL A   1      38.783  29.847  31.059  1.00  0.00    -0.014 A 
BRANCH  47  48
ATOM     48  C   UNL A   1      39.904  28.945  30.792  1.00  0.00     0.031 A 
ATOM     49  C   UNL A   1      40.819  28.626  31.930  1.00  0.00     0.074 A 
ATOM     50  C   UNL A   1      40.104  28.326  29.612  1.00  0.00     0.049 A 
ATOM     51  N   UNL A   1      42.100  28.808  32.010  1.00  0.00    -0.248 NA
ATOM     52  C   UNL A   1      40.221  28.042  33.138  1.00  0.00     0.031 C 
ATOM     53  C   UNL A   1      39.195  28.225  28.467  1.00  0.00     0.029 A 
ATOM     54  N   UNL A   1      41.167  27.555  29.237  1.00  0.00    -0.354 N 
ATOM     55  C   UNL A   1      42.500  28.264  33.232  1.00  0.00     0.074 A 
ATOM     56  C   UNL A   1      41.293  27.857  33.910  1.00  0.00     0.031 C 
ATOM     57  C   UNL A   1      39.640  27.259  27.633  1.00  0.00     0.029 A 
ATOM     58  C   UNL A   1      40.938  26.802  28.100  1.00  0.00     0.049 A 
ATOM     59  H   UNL A   1      42.019  27.537  29.731  1.00  0.00     0.167 HD
ATOM     60  C   UNL A   1      43.805  28.075  33.574  1.00  0.00     0.031 A 
ATOM     61  C   UNL A   1      41.732  25.826  27.608  1.00  0.00     0.031 A 
ATOM     62  C   UNL A   1      44.708  28.821  32.747  1.00  0.00     0.049 A 
ATOM     63  C   UNL A   1      43.096  26.022  28.139  1.00  0.00     0.074 A 
ATOM     64  C   UNL A   1      44.971  30.160  32.546  1.00  0.00     0.029 A 
ATOM     65  N   UNL A   1      45.345  28.154  31.732  1.00  0.00    -0.354 N 
ATOM     66  N   UNL A   1      43.858  27.033  27.835  1.00  0.00    -0.248 NA
ATOM     67  C   UNL A   1      43.524  25.245  29.291  1.00  0.00     0.031 C 
ATOM     68  C   UNL A   1      45.359  30.261  31.178  1.00  0.00     0.029 A 
ATOM     69  C   UNL A   1      45.318  28.974  30.634  1.00  0.00     0.049 A 
ATOM     70  H   UNL A   1      45.745  27.256  31.783  1.00  0.00     0.167 HD
ATOM     71  C   UNL A   1      44.616  27.264  28.971  1.00  0.00     0.074 A 
ATOM     72  C   UNL A   1      44.473  26.052  29.770  1.00  0.00     0.031 C 
ATOM     73  C   UNL A   1      45.059  28.518  29.283  1.00  0.00     0.031 A 
BRANCH  60  74
ATOM     74  C   UNL A   1      44.302  27.018  34.525  1.00  0.00    -0.014 A 
ATOM     75  C   UNL A   1      44.412  27.230  35.912  1.00  0.00     0.009 A 
ATOM     76  C   UNL A   1      44.436  25.690  34.076  1.00  0.00     0.009 A 
ATOM     77  C   UNL A   1      44.658  26.181  36.804  1.00  0.00     0.001 A 
ATOM     78  C   UNL A   1      44.643  24.630  34.970  1.00  0.00     0.001 A 
ATOM     79  C   UNL A   1      44.755  24.878  36.335  1.00  0.00     0.000 A 
ENDBRANCH  60  74
BRANCH  61  80
ATOM     80  C   UNL A   1      41.292  24.558  26.991  1.00  0.00    -0.014 A 
ATOM     81  C   UNL A   1      40.081  23.968  27.400  1.00  0.00     0.009 A 
ATOM     82  C   UNL A   1      42.169  23.789  26.215  1.00  0.00     0.009 A 
ATOM     83  C   UNL A   1      39.770  22.646  27.072  1.00  0.00     0.001 A 
ATOM     84  C   UNL A   1      41.858  22.463  25.887  1.00  0.00     0.001 A 
ATOM     85  C   UNL A   1      40.667  21.888  26.328  1.00  0.00     0.000 A 
ENDBRANCH  61  80
BRANCH  73  86
ATOM     86  C   UNL A   1      44.948  29.597  28.232  1.00  0.00    -0.014 A 
ATOM     87  C   UNL A   1      46.104  29.989  27.539  1.00  0.00     0.009 A 
ATOM     88  C   UNL A   1      43.780  30.360  28.059  1.00  0.00     0.009 A 
ATOM     89  C   UNL A   1      46.096  31.113  26.709  1.00  0.00     0.001 A 
ATOM     90  C   UNL A   1      43.765  31.471  27.211  1.00  0.00     0.001 A 
ATOM     91  C   UNL A   1      44.926  31.853  26.545  1.00  0.00     0.000 A 
ENDBRANCH  73  86
ENDBRANCH  47  48
ENDBRANCH  39  42
ENDBRANCH  37  38
ENDBRANCH  36  37
ENDBRANCH  35  36
ENDBRANCH   1  35
TORSDOF 16
ENDMDL
MODEL 3
REMARK VINA RESULT:     -11.8      1.739      2.710
REMARK SMILES Cc1n[nH]c2c1[C@@]1(C(=O)N([C@@H](C)C(=O)NCCCCCCNC(=O)c3ccc(-c4c5nc(c(-c6ccccc6)c6ccc([nH]6)c(-c6ccccc6)c6nc(c(-c7ccccc7)c7ccc4[nH]7)C=C6)C=C5)cc3)c3ccccc31)C(C#N)=C(N)O2
REMARK SMILES IDX 18 1 17 2 16 3 15 4 13 5 14 6 11 8 12 9 10 10 1 11 2 12 3 13
REMARK SMILES IDX 6 14 4 15 5 16 7 17 84 19 8 20 78 21 79 22 82 23 9 24 73 25
REMARK SMILES IDX 77 26 74 27 76 28 75 29 80 30 81 31 83 32 19 35 20 36 21 37
REMARK SMILES IDX 22 38 23 39 24 41 25 42 26 43 72 44 27 45 71 46 28 47 29 48
REMARK SMILES IDX 30 49 65 50 31 51 70 52 64 53 66 54 32 55 69 56 63 57 62 58
REMARK SMILES IDX 33 60 55 61 40 62 54 63 41 64 44 65 53 66 67 67 42 68 43 69
REMARK SMILES IDX 52 71 68 72 45 73 34 74 35 75 39 76 36 77 38 78 37 79 56 80
REMARK SMILES IDX 57 81 61 82 58 83 60 84 59 85 46 86 47 87 51 88 48 89 50 90
REMARK SMILES IDX 49 91
REMARK H PARENT 15 7 4 18 83 33 83 34 22 40 66 59 44 70
REMARK Flexibility Score: inf
ROOT
ATOM      1  C   UNL A   1      40.136  23.433  27.582  1.00  0.00     0.002 C 
ENDROOT
BRANCH   1   2
ATOM      2  C   UNL A   1      39.267  23.240  26.343  1.00  0.00     0.021 C 
BRANCH   2   3
ATOM      3  C   UNL A   1      37.795  23.632  26.510  1.00  0.00     0.116 C 
BRANCH   3   4
ATOM      4  N   UNL A   1      36.912  22.627  25.939  1.00  0.00    -0.354 N 
ATOM      5  C   UNL A   1      35.574  22.404  26.025  1.00  0.00     0.242 C 
ATOM      6  O   UNL A   1      35.161  21.384  25.452  1.00  0.00    -0.273 OA
ATOM      7  H   UNL A   1      37.381  21.972  25.372  1.00  0.00     0.163 HD
BRANCH   5   8
ATOM      8  C   UNL A   1      34.563  23.282  26.803  1.00  0.00     0.176 C 
ATOM      9  C   UNL A   1      33.737  22.562  27.863  1.00  0.00     0.042 C 
BRANCH   8  10
ATOM     10  N   UNL A   1      33.798  24.183  25.942  1.00  0.00    -0.298 N 
ATOM     11  C   UNL A   1      33.086  22.906  22.414  1.00  0.00     0.069 C 
ATOM     12  C   UNL A   1      32.988  24.334  22.015  1.00  0.00     0.068 A 
ATOM     13  N   UNL A   1      32.921  24.650  20.710  1.00  0.00    -0.177 NA
ATOM     14  C   UNL A   1      33.040  25.498  22.825  1.00  0.00     0.063 A 
ATOM     15  N   UNL A   1      32.999  25.994  20.687  1.00  0.00    -0.246 N 
ATOM     16  C   UNL A   1      33.097  26.532  21.928  1.00  0.00     0.222 A 
ATOM     17  C   UNL A   1      33.222  25.775  24.281  1.00  0.00     0.149 C 
ATOM     18  H   UNL A   1      32.987  26.527  19.860  1.00  0.00     0.193 HD
ATOM     19  O   UNL A   1      33.298  27.819  22.176  1.00  0.00    -0.422 OA
ATOM     20  C   UNL A   1      34.317  24.854  24.837  1.00  0.00     0.248 C 
ATOM     21  C   UNL A   1      32.003  25.284  25.013  1.00  0.00     0.002 A 
ATOM     22  C   UNL A   1      33.538  27.253  24.525  1.00  0.00     0.114 C 
ATOM     23  C   UNL A   1      33.553  28.169  23.513  1.00  0.00     0.208 C 
ATOM     24  O   UNL A   1      35.418  24.683  24.320  1.00  0.00    -0.273 OA
ATOM     25  C   UNL A   1      32.403  24.392  26.020  1.00  0.00     0.050 A 
ATOM     26  C   UNL A   1      30.665  25.606  24.822  1.00  0.00     0.008 A 
ATOM     27  C   UNL A   1      31.472  23.810  26.860  1.00  0.00     0.027 A 
ATOM     28  C   UNL A   1      29.719  25.004  25.650  1.00  0.00     0.001 A 
ATOM     29  C   UNL A   1      30.120  24.118  26.663  1.00  0.00     0.002 A 
BRANCH  22  30
ATOM     30  C   UNL A   1      33.793  27.776  25.929  1.00  0.00     0.102 C 
ATOM     31  N   UNL A   1      34.004  28.210  27.095  1.00  0.00    -0.193 NA
ENDBRANCH  22  30
BRANCH  23  32
ATOM     32  N   UNL A   1      33.794  29.504  23.659  1.00  0.00    -0.369 N 
ATOM     33  H   UNL A   1      34.143  29.851  24.512  1.00  0.00     0.159 HD
ATOM     34  H   UNL A   1      33.618  30.122  22.912  1.00  0.00     0.159 HD
ENDBRANCH  23  32
ENDBRANCH   8  10
ENDBRANCH   5   8
ENDBRANCH   3   4
ENDBRANCH   2   3
ENDBRANCH   1   2
BRANCH   1  35
ATOM     35  C   UNL A   1      40.892  22.174  28.018  1.00  0.00     0.002 C 
BRANCH  35  36
ATOM     36  C   UNL A   1      42.249  21.934  27.341  1.00  0.00     0.021 C 
BRANCH  36  37
ATOM     37  C   UNL A   1      42.197  21.737  25.824  1.00  0.00     0.116 C 
BRANCH  37  38
ATOM     38  N   UNL A   1      43.243  22.435  25.105  1.00  0.00    -0.352 N 
ATOM     39  C   UNL A   1      43.700  23.722  25.064  1.00  0.00     0.251 C 
ATOM     40  H   UNL A   1      43.744  21.840  24.501  1.00  0.00     0.163 HD
ATOM     41  O   UNL A   1      44.661  23.933  24.319  1.00  0.00    -0.269 OA
BRANCH  39  42
ATOM     42  C   UNL A   1      43.109  24.873  25.805  1.00  0.00     0.039 A 
ATOM     43  C   UNL A   1      42.036  25.655  25.382  1.00  0.00     0.014 A 
ATOM     44  C   UNL A   1      43.717  25.193  27.035  1.00  0.00     0.014 A 
ATOM     45  C   UNL A   1      41.642  26.777  26.110  1.00  0.00     0.010 A 
ATOM     46  C   UNL A   1      43.304  26.292  27.786  1.00  0.00     0.010 A 
ATOM     47  C   UNL A   1      42.295  27.117  27.299  1.00  0.00    -0.014 A 
BRANCH  47  48
ATOM     48  C   UNL A   1      41.864  28.336  27.986  1.00  0.00     0.031 A 
ATOM     49  C   UNL A   1      42.782  29.515  27.941  1.00  0.00     0.074 A 
ATOM     50  C   UNL A   1      40.662  28.480  28.577  1.00  0.00     0.049 A 
ATOM     51  N   UNL A   1      43.307  30.167  28.931  1.00  0.00    -0.248 NA
ATOM     52  C   UNL A   1      43.177  30.017  26.618  1.00  0.00     0.031 C 
ATOM     53  C   UNL A   1      39.489  27.606  28.486  1.00  0.00     0.029 A 
ATOM     54  N   UNL A   1      40.213  29.530  29.325  1.00  0.00    -0.354 N 
ATOM     55  C   UNL A   1      44.011  31.234  28.371  1.00  0.00     0.074 A 
ATOM     56  C   UNL A   1      43.943  31.060  26.941  1.00  0.00     0.031 C 
ATOM     57  C   UNL A   1      38.407  28.269  28.952  1.00  0.00     0.029 A 
ATOM     58  C   UNL A   1      38.844  29.532  29.521  1.00  0.00     0.049 A 
ATOM     59  H   UNL A   1      40.809  30.222  29.692  1.00  0.00     0.167 HD
ATOM     60  C   UNL A   1      44.516  32.264  29.107  1.00  0.00     0.031 A 
ATOM     61  C   UNL A   1      38.109  30.530  30.059  1.00  0.00     0.031 A 
ATOM     62  C   UNL A   1      44.590  31.960  30.506  1.00  0.00     0.049 A 
ATOM     63  C   UNL A   1      39.004  31.384  30.867  1.00  0.00     0.074 A 
ATOM     64  C   UNL A   1      45.312  31.075  31.278  1.00  0.00     0.029 A 
ATOM     65  N   UNL A   1      43.604  32.455  31.321  1.00  0.00    -0.354 N 
ATOM     66  N   UNL A   1      39.591  30.993  31.962  1.00  0.00    -0.248 NA
ATOM     67  C   UNL A   1      39.524  32.611  30.287  1.00  0.00     0.031 C 
ATOM     68  C   UNL A   1      44.451  30.741  32.364  1.00  0.00     0.029 A 
ATOM     69  C   UNL A   1      43.260  31.453  32.190  1.00  0.00     0.049 A 
ATOM     70  H   UNL A   1      43.216  33.359  31.286  1.00  0.00     0.167 HD
ATOM     71  C   UNL A   1      40.793  31.680  31.988  1.00  0.00     0.074 A 
ATOM     72  C   UNL A   1      40.630  32.758  31.020  1.00  0.00     0.031 C 
ATOM     73  C   UNL A   1      41.901  31.146  32.584  1.00  0.00     0.031 A 
BRANCH  60  74
ATOM     74  C   UNL A   1      44.737  33.662  28.593  1.00  0.00    -0.014 A 
ATOM     75  C   UNL A   1      43.682  34.506  28.201  1.00  0.00     0.009 A 
ATOM     76  C   UNL A   1      46.007  34.258  28.727  1.00  0.00     0.009 A 
ATOM     77  C   UNL A   1      43.881  35.867  27.940  1.00  0.00     0.001 A 
ATOM     78  C   UNL A   1      46.202  35.627  28.506  1.00  0.00     0.001 A 
ATOM     79  C   UNL A   1      45.138  36.432  28.110  1.00  0.00     0.000 A 
ENDBRANCH  60  74
BRANCH  61  80
ATOM     80  C   UNL A   1      36.766  30.967  29.629  1.00  0.00    -0.014 A 
ATOM     81  C   UNL A   1      36.418  30.911  28.266  1.00  0.00     0.009 A 
ATOM     82  C   UNL A   1      35.929  31.687  30.492  1.00  0.00     0.009 A 
ATOM     83  C   UNL A   1      35.291  31.576  27.776  1.00  0.00     0.001 A 
ATOM     84  C   UNL A   1      34.800  32.355  30.001  1.00  0.00     0.001 A 
ATOM     85  C   UNL A   1      34.491  32.312  28.643  1.00  0.00     0.000 A 
ENDBRANCH  61  80
BRANCH  73  86
ATOM     86  C   UNL A   1      41.724  29.923  33.453  1.00  0.00    -0.014 A 
ATOM     87  C   UNL A   1      41.792  30.068  34.847  1.00  0.00     0.009 A 
ATOM     88  C   UNL A   1      41.694  28.622  32.921  1.00  0.00     0.009 A 
ATOM     89  C   UNL A   1      41.839  28.949  35.683  1.00  0.00     0.001 A 
ATOM     90  C   UNL A   1      41.718  27.502  33.757  1.00  0.00     0.001 A 
ATOM     91  C   UNL A   1      41.801  27.666  35.138  1.00  0.00     0.000 A 
ENDBRANCH  73  86
ENDBRANCH  47  48
ENDBRANCH  39  42
ENDBRANCH  37  38
ENDBRANCH  36  37
ENDBRANCH  35  36
ENDBRANCH   1  35
TORSDOF 16
ENDMDL
